# generated using pymatgen
data_CuNi3C7
_symmetry_space_group_name_H-M   'P 1'
_cell_length_a   9.67797200
_cell_length_b   5.98941900
_cell_length_c   20.33472563
_cell_angle_alpha   78.45714314
_cell_angle_beta   90.00000000
_cell_angle_gamma   90.00000000
_symmetry_Int_Tables_number   1
_chemical_formula_structural   CuNi3C7
_chemical_formula_sum   'Cu4 Ni12 C28'
_cell_volume   1154.87202953
_cell_formula_units_Z   4
loop_
 _symmetry_equiv_pos_site_id
 _symmetry_equiv_pos_as_xyz
  1  'x, y, z'
loop_
 _atom_site_type_symbol
 _atom_site_label
 _atom_site_symmetry_multiplicity
 _atom_site_fract_x
 _atom_site_fract_y
 _atom_site_fract_z
 _atom_site_occupancy
  C  C0  1  0.88806400  0.82019200  0.97500700  1
  C  C1  1  0.38806400  0.17980800  0.52499300  1
  C  C2  1  0.11193600  0.17980800  0.02499300  1
  C  C3  1  0.61193600  0.82019200  0.47500700  1
  C  C4  1  0.70344800  0.42468600  0.92792600  1
  C  C5  1  0.20344800  0.57531400  0.57207400  1
  C  C6  1  0.29655200  0.57531400  0.07207400  1
  C  C7  1  0.79655200  0.42468600  0.42792600  1
  Ni  Ni8  1  0.90701000  0.84402500  0.70490800  1
  Ni  Ni9  1  0.40701000  0.15597500  0.79509200  1
  Ni  Ni10  1  0.09299000  0.15597500  0.29509200  1
  Ni  Ni11  1  0.59299000  0.84402500  0.20490800  1
  Ni  Ni12  1  0.06902100  0.39946700  0.62568100  1
  Ni  Ni13  1  0.56902100  0.60053300  0.87431900  1
  Ni  Ni14  1  0.93097900  0.60053300  0.37431900  1
  Ni  Ni15  1  0.43097900  0.39946700  0.12568100  1
  Ni  Ni16  1  0.99283100  0.01835800  0.68705200  1
  Ni  Ni17  1  0.49283100  0.98164200  0.81294800  1
  Ni  Ni18  1  0.00716900  0.98164200  0.31294800  1
  Ni  Ni19  1  0.50716900  0.01835800  0.18705200  1
  Cu  Cu20  1  0.01861900  0.22828300  0.65536100  1
  Cu  Cu21  1  0.51861900  0.77171700  0.84463900  1
  Cu  Cu22  1  0.98138100  0.77171700  0.34463900  1
  Cu  Cu23  1  0.48138100  0.22828300  0.15536100  1
  C  C24  1  0.87093600  0.67253100  0.87777100  1
  C  C25  1  0.37093600  0.32746900  0.62222900  1
  C  C26  1  0.12906400  0.32746900  0.12222900  1
  C  C27  1  0.62906400  0.67253100  0.37777100  1
  C  C28  1  0.78023900  0.49691500  0.03001900  1
  C  C29  1  0.28023900  0.50308500  0.46998100  1
  C  C30  1  0.21976100  0.50308500  0.96998100  1
  C  C31  1  0.71976100  0.49691500  0.53001900  1
  C  C32  1  0.62064200  0.17814400  0.76979300  1
  C  C33  1  0.12064200  0.82185600  0.73020700  1
  C  C34  1  0.37935800  0.82185600  0.23020700  1
  C  C35  1  0.87935800  0.17814400  0.26979300  1
  C  C36  1  0.67123800  0.05396200  0.95766500  1
  C  C37  1  0.17123800  0.94603800  0.54233500  1
  C  C38  1  0.32876200  0.94603800  0.04233500  1
  C  C39  1  0.82876200  0.05396200  0.45766500  1
  C  C40  1  0.04418300  0.08698300  0.92489300  1
  C  C41  1  0.54418300  0.91301700  0.57510700  1
  C  C42  1  0.95581700  0.91301700  0.07510700  1
  C  C43  1  0.45581700  0.08698300  0.42489300  1
