# generated using pymatgen
data_Cu35Ni17C23
_symmetry_space_group_name_H-M   'P 1'
_cell_length_a   2.91184300
_cell_length_b   4.64878888
_cell_length_c   59.84974030
_cell_angle_alpha   97.30012729
_cell_angle_beta   90.00000000
_cell_angle_gamma   90.00000000
_symmetry_Int_Tables_number   1
_chemical_formula_structural   Cu35Ni17C23
_chemical_formula_sum   'Cu35 Ni17 C23'
_cell_volume   803.59158825
_cell_formula_units_Z   1
loop_
 _symmetry_equiv_pos_site_id
 _symmetry_equiv_pos_as_xyz
  1  'x, y, z'
loop_
 _atom_site_type_symbol
 _atom_site_label
 _atom_site_symmetry_multiplicity
 _atom_site_fract_x
 _atom_site_fract_y
 _atom_site_fract_z
 _atom_site_occupancy
  C  C0  1  0.00000000  0.03995100  0.00177400  1
  C  C1  1  0.00000000  0.02054200  0.07727300  1
  C  C2  1  0.00000000  0.00568800  0.15305600  1
  C  C3  1  0.00000000  0.03180800  0.38679900  1
  C  C4  1  0.00000000  0.96068400  0.30545600  1
  C  C5  1  0.00000000  0.04057300  0.61835700  1
  C  C6  1  0.00000000  0.06682700  0.76668600  1
  C  C7  1  0.50000000  0.54521300  0.03797400  1
  C  C8  1  0.50000000  0.52969200  0.11365400  1
  C  C9  1  0.50000000  0.51486400  0.18949700  1
  C  C10  1  0.50000000  0.49626400  0.26545400  1
  C  C11  1  0.50000000  0.45120900  0.34192200  1
  C  C12  1  0.50000000  0.34232200  0.48014600  1
  C  C13  1  0.50000000  0.46877500  0.42796000  1
  C  C14  1  0.50000000  0.52121000  0.57257500  1
  C  C15  1  0.50000000  0.48456900  0.65871500  1
  C  C16  1  0.50000000  0.34671400  0.71036200  1
  C  C17  1  0.50000000  0.52374600  0.80316600  1
  C  C18  1  0.50000000  0.44293200  0.94457800  1
  C  C19  1  0.50000000  0.49780900  0.88911900  1
  C  C20  1  0.00000000  0.98899300  0.22902000  1
  C  C21  1  0.00000000  0.07346600  0.53574300  1
  C  C22  1  0.00000000  0.04400500  0.84918100  1
  Ni  Ni23  1  0.00000000  0.71728700  0.05605900  1
  Ni  Ni24  1  0.00000000  0.70263800  0.13177900  1
  Ni  Ni25  1  0.00000000  0.68722000  0.20766600  1
  Ni  Ni26  1  0.00000000  0.66548100  0.28369400  1
  Ni  Ni27  1  0.00000000  0.32673100  0.02576400  1
  Ni  Ni28  1  0.00000000  0.31233800  0.10130100  1
  Ni  Ni29  1  0.00000000  0.29756800  0.17713000  1
  Ni  Ni30  1  0.00000000  0.27916900  0.25311900  1
  Ni  Ni31  1  0.00000000  0.25962200  0.32985600  1
  Ni  Ni32  1  0.00000000  0.30714500  0.40924600  1
  Ni  Ni33  1  0.00000000  0.22852500  0.49046000  1
  Ni  Ni34  1  0.00000000  0.32145500  0.56262300  1
  Ni  Ni35  1  0.00000000  0.32377600  0.64008200  1
  Ni  Ni36  1  0.00000000  0.23287500  0.72062100  1
  Ni  Ni37  1  0.00000000  0.32424900  0.79323600  1
  Ni  Ni38  1  0.00000000  0.28327800  0.95120100  1
  Ni  Ni39  1  0.00000000  0.32607600  0.87103600  1
  Cu  Cu40  1  0.00000000  0.68929400  0.35929700  1
  Cu  Cu41  1  0.00000000  0.71285200  0.43513700  1
  Cu  Cu42  1  0.00000000  0.73582200  0.52329300  1
  Cu  Cu43  1  0.00000000  0.70570400  0.59360200  1
  Cu  Cu44  1  0.00000000  0.70861400  0.82424800  1
  Cu  Cu45  1  0.00000000  0.74491400  0.89592000  1
  Cu  Cu46  1  0.50000000  0.16164900  0.21748500  1
  Cu  Cu47  1  0.50000000  0.17738800  0.14145100  1
  Cu  Cu48  1  0.50000000  0.19196200  0.06564000  1
  Cu  Cu49  1  0.50000000  0.82408400  0.09409500  1
  Cu  Cu50  1  0.50000000  0.83427000  0.01834300  1
  Cu  Cu51  1  0.50000000  0.13925200  0.29428500  1
  Cu  Cu52  1  0.50000000  0.19255500  0.36926400  1
  Cu  Cu53  1  0.50000000  0.80950100  0.16991600  1
  Cu  Cu54  1  0.50000000  0.22156700  0.44743600  1
  Cu  Cu55  1  0.50000000  0.79180900  0.24593600  1
  Cu  Cu56  1  0.50000000  0.82496000  0.39496800  1
  Cu  Cu57  1  0.50000000  0.76729400  0.32244500  1
  Cu  Cu58  1  0.50000000  0.23553600  0.52770300  1
  Cu  Cu59  1  0.50000000  0.18636500  0.60151900  1
  Cu  Cu60  1  0.50000000  0.23104100  0.67773000  1
  Cu  Cu61  1  0.50000000  0.68260700  0.47225300  1
  Cu  Cu62  1  0.50000000  0.22403800  0.75816800  1
  Cu  Cu63  1  0.50000000  0.83833000  0.62752400  1
  Cu  Cu64  1  0.50000000  0.83559800  0.55953300  1
  Cu  Cu65  1  0.50000000  0.18996400  0.83236900  1
  Cu  Cu66  1  0.50000000  0.84108400  0.79039700  1
  Cu  Cu67  1  0.50000000  0.28979900  0.91079200  1
  Cu  Cu68  1  0.50000000  0.68920300  0.70281800  1
  Cu  Cu69  1  0.50000000  0.19167900  0.99001900  1
  Cu  Cu70  1  0.50000000  0.76993700  0.93548600  1
  Cu  Cu71  1  0.50000000  0.83922500  0.85806600  1
  Cu  Cu72  1  0.00000000  0.72681000  0.66610200  1
  Cu  Cu73  1  0.00000000  0.72774300  0.75447900  1
  Cu  Cu74  1  0.00000000  0.73426100  0.98201500  1
