# generated using pymatgen
data_CuNi2
_symmetry_space_group_name_H-M   'P 1'
_cell_length_a   6.51497749
_cell_length_b   6.48583879
_cell_length_c   2.72260299
_cell_angle_alpha   78.51205721
_cell_angle_beta   77.31280881
_cell_angle_gamma   24.17513399
_symmetry_Int_Tables_number   1
_chemical_formula_structural   CuNi2
_chemical_formula_sum   'Cu1 Ni2'
_cell_volume   45.96302710
_cell_formula_units_Z   1
loop_
 _symmetry_equiv_pos_site_id
 _symmetry_equiv_pos_as_xyz
  1  'x, y, z'
loop_
 _atom_site_type_symbol
 _atom_site_label
 _atom_site_symmetry_multiplicity
 _atom_site_fract_x
 _atom_site_fract_y
 _atom_site_fract_z
 _atom_site_occupancy
  Ni  Ni0  1  0.34057900  0.34057900  0.65942100  1
  Ni  Ni1  1  0.65942100  0.65942100  0.34057900  1
  Cu  Cu2  1  0.00000000  0.00000000  0.00000000  1
