# generated using pymatgen
data_Cu16NiC14
_symmetry_space_group_name_H-M   'P 1'
_cell_length_a   7.11951096
_cell_length_b   14.29529515
_cell_length_c   20.50326354
_cell_angle_alpha   90.00000000
_cell_angle_beta   90.00000000
_cell_angle_gamma   90.00000000
_symmetry_Int_Tables_number   1
_chemical_formula_structural   Cu16NiC14
_chemical_formula_sum   'Cu32 Ni2 C28'
_cell_volume   2086.73011364
_cell_formula_units_Z   2
loop_
 _symmetry_equiv_pos_site_id
 _symmetry_equiv_pos_as_xyz
  1  'x, y, z'
loop_
 _atom_site_type_symbol
 _atom_site_label
 _atom_site_symmetry_multiplicity
 _atom_site_fract_x
 _atom_site_fract_y
 _atom_site_fract_z
 _atom_site_occupancy
  C  C0  1  0.45808114  0.89214392  0.59059919  1
  C  C1  1  0.45808114  0.89214392  0.40940081  1
  C  C2  1  0.54191886  0.39214392  0.90940081  1
  C  C3  1  0.54191886  0.39214392  0.09059919  1
  C  C4  1  0.42941285  0.63292973  0.64518799  1
  C  C5  1  0.42941285  0.63292973  0.35481201  1
  C  C6  1  0.57058715  0.13292973  0.85481201  1
  C  C7  1  0.57058715  0.13292973  0.14518799  1
  C  C8  1  0.69290063  0.13624830  0.65501060  1
  C  C9  1  0.69290063  0.13624830  0.34498940  1
  C  C10  1  0.30709937  0.63624830  0.84498940  1
  C  C11  1  0.30709937  0.63624830  0.15501060  1
  C  C12  1  0.95220195  0.81304540  0.65673425  1
  C  C13  1  0.95220195  0.81304540  0.34326575  1
  C  C14  1  0.04779805  0.31304540  0.84326575  1
  C  C15  1  0.04779805  0.31304540  0.15673425  1
  C  C16  1  0.85221517  0.54360201  0.74975680  1
  C  C17  1  0.85221517  0.54360201  0.25024320  1
  C  C18  1  0.14778483  0.04360201  0.75024320  1
  C  C19  1  0.14778483  0.04360201  0.24975680  1
  C  C20  1  0.98483159  0.86693719  0.88358865  1
  C  C21  1  0.98483159  0.86693719  0.11641135  1
  C  C22  1  0.01516841  0.36693719  0.61641135  1
  C  C23  1  0.01516841  0.36693719  0.38358865  1
  C  C24  1  0.54616614  0.49992990  0.50000000  1
  C  C25  1  0.45383386  0.99992990  -0.00000000  1
  C  C26  1  0.41228229  0.21569454  0.50000000  1
  C  C27  1  0.58771771  0.71569454  -0.00000000  1
  Ni  Ni28  1  0.96969465  0.88734637  0.50000000  1
  Ni  Ni29  1  0.03030535  0.38734637  -0.00000000  1
  Cu  Cu30  1  0.93794888  0.17800441  0.50000000  1
  Cu  Cu31  1  0.06205112  0.67800441  -0.00000000  1
  Cu  Cu32  1  0.74320728  0.03133528  0.50000000  1
  Cu  Cu33  1  0.25679272  0.53133528  -0.00000000  1
  Cu  Cu34  1  0.92941034  0.54030713  0.93457576  1
  Cu  Cu35  1  0.92941034  0.54030713  0.06542424  1
  Cu  Cu36  1  0.07058966  0.04030713  0.56542424  1
  Cu  Cu37  1  0.07058966  0.04030713  0.43457576  1
  Cu  Cu38  1  0.77050862  0.72771316  0.50000000  1
  Cu  Cu39  1  0.22949138  0.22771316  -0.00000000  1
  Cu  Cu40  1  0.15923174  0.72737753  0.50000000  1
  Cu  Cu41  1  0.84076826  0.22737753  -0.00000000  1
  Cu  Cu42  1  0.96544511  0.60579936  0.56414074  1
  Cu  Cu43  1  0.96544511  0.60579936  0.43585926  1
  Cu  Cu44  1  0.03455489  0.10579936  0.93585926  1
  Cu  Cu45  1  0.03455489  0.10579936  0.06414074  1
  Cu  Cu46  1  0.48455227  0.87309400  0.86028833  1
  Cu  Cu47  1  0.48455227  0.87309400  0.13971167  1
  Cu  Cu48  1  0.51544773  0.37309400  0.63971167  1
  Cu  Cu49  1  0.51544773  0.37309400  0.36028833  1
  Cu  Cu50  1  0.64556848  0.93903111  0.75621681  1
  Cu  Cu51  1  0.64556848  0.93903111  0.24378319  1
  Cu  Cu52  1  0.35443152  0.43903111  0.74378319  1
  Cu  Cu53  1  0.35443152  0.43903111  0.25621681  1
  Cu  Cu54  1  0.34897174  0.83135942  0.74713206  1
  Cu  Cu55  1  0.34897174  0.83135942  0.25286794  1
  Cu  Cu56  1  0.65102826  0.33135942  0.75286794  1
  Cu  Cu57  1  0.65102826  0.33135942  0.24713206  1
  Cu  Cu58  1  0.66883089  0.76267883  0.78315978  1
  Cu  Cu59  1  0.66883089  0.76267883  0.21684022  1
  Cu  Cu60  1  0.33116911  0.26267883  0.71684022  1
  Cu  Cu61  1  0.33116911  0.26267883  0.28315978  1
