# generated using pymatgen
data_CuNiC4
_symmetry_space_group_name_H-M   'P 1'
_cell_length_a   4.54783779
_cell_length_b   4.54783779
_cell_length_c   10.05601700
_cell_angle_alpha   90.00000000
_cell_angle_beta   90.00000000
_cell_angle_gamma   119.99999697
_symmetry_Int_Tables_number   1
_chemical_formula_structural   CuNiC4
_chemical_formula_sum   'Cu3 Ni3 C12'
_cell_volume   180.12192361
_cell_formula_units_Z   3
loop_
 _symmetry_equiv_pos_site_id
 _symmetry_equiv_pos_as_xyz
  1  'x, y, z'
loop_
 _atom_site_type_symbol
 _atom_site_label
 _atom_site_symmetry_multiplicity
 _atom_site_fract_x
 _atom_site_fract_y
 _atom_site_fract_z
 _atom_site_occupancy
  Ni  Ni0  1  0.47017000  0.00000000  0.33333300  1
  Ni  Ni1  1  0.00000000  0.47017000  0.66666700  1
  Ni  Ni2  1  0.52983000  0.52983000  0.00000000  1
  Cu  Cu3  1  0.46918300  0.00000000  0.83333300  1
  Cu  Cu4  1  0.53081700  0.53081700  0.50000000  1
  Cu  Cu5  1  0.00000000  0.46918300  0.16666700  1
  C  C6  1  0.73609000  0.14394300  0.72133900  1
  C  C7  1  0.27477100  0.40602000  0.10731700  1
  C  C8  1  0.59398000  0.86875100  0.44065100  1
  C  C9  1  0.40785300  0.26391000  0.38800500  1
  C  C10  1  0.14394300  0.73609000  0.27866100  1
  C  C11  1  0.85605700  0.59214700  0.05467200  1
  C  C12  1  0.26391000  0.40785300  0.61199500  1
  C  C13  1  0.59214700  0.85605700  0.94532800  1
  C  C14  1  0.86875100  0.59398000  0.55934900  1
  C  C15  1  0.40602000  0.27477100  0.89268300  1
  C  C16  1  0.72522900  0.13124900  0.22601600  1
  C  C17  1  0.13124900  0.72522900  0.77398400  1
