# generated using pymatgen
data_CuNiC6
_symmetry_space_group_name_H-M   'P 1'
_cell_length_a   6.73303666
_cell_length_b   6.73303564
_cell_length_c   6.73303615
_cell_angle_alpha   105.08067242
_cell_angle_beta   105.08067907
_cell_angle_gamma   118.66204045
_symmetry_Int_Tables_number   1
_chemical_formula_structural   CuNiC6
_chemical_formula_sum   'Cu1 Ni1 C6'
_cell_volume   230.36981652
_cell_formula_units_Z   1
loop_
 _symmetry_equiv_pos_site_id
 _symmetry_equiv_pos_as_xyz
  1  'x, y, z'
loop_
 _atom_site_type_symbol
 _atom_site_label
 _atom_site_symmetry_multiplicity
 _atom_site_fract_x
 _atom_site_fract_y
 _atom_site_fract_z
 _atom_site_occupancy
  C  C0  1  0.50000000  0.00000000  0.50000000  1
  C  C1  1  0.00000000  0.50000000  0.50000000  1
  Ni  Ni2  1  0.00000000  0.00000000  0.00000000  1
  Cu  Cu3  1  0.50000000  0.50000000  0.00000000  1
  C  C4  1  0.95525200  0.63631300  0.00000000  1
  C  C5  1  0.63631300  0.95525200  0.00000000  1
  C  C6  1  0.04474800  0.04474800  0.68106100  1
  C  C7  1  0.36368700  0.36368700  0.31893900  1
