# generated using pymatgen
data_Cu3Ni4C13
_symmetry_space_group_name_H-M   'P 1'
_cell_length_a   5.26937400
_cell_length_b   7.25033539
_cell_length_c   7.98950948
_cell_angle_alpha   116.34648500
_cell_angle_beta   94.44216118
_cell_angle_gamma   95.25161554
_symmetry_Int_Tables_number   1
_chemical_formula_structural   Cu3Ni4C13
_chemical_formula_sum   'Cu3 Ni4 C13'
_cell_volume   269.98799212
_cell_formula_units_Z   1
loop_
 _symmetry_equiv_pos_site_id
 _symmetry_equiv_pos_as_xyz
  1  'x, y, z'
loop_
 _atom_site_type_symbol
 _atom_site_label
 _atom_site_symmetry_multiplicity
 _atom_site_fract_x
 _atom_site_fract_y
 _atom_site_fract_z
 _atom_site_occupancy
  C  C0  1  0.00308900  0.00549300  0.99869200  1
  Ni  Ni1  1  0.84515700  0.31191800  0.32116900  1
  Ni  Ni2  1  0.14750900  0.67566000  0.68934700  1
  Ni  Ni3  1  0.39993700  0.11958900  0.56608800  1
  Ni  Ni4  1  0.59692600  0.87411900  0.43740300  1
  Cu  Cu5  1  0.49072200  0.34229500  0.70012000  1
  Cu  Cu6  1  0.50844000  0.65732400  0.29746100  1
  Cu  Cu7  1  0.97686400  0.50012400  0.02039200  1
  C  C8  1  0.88698800  0.53146700  0.11529700  1
  C  C9  1  0.09136400  0.46567900  0.88998300  1
  C  C10  1  0.78011000  0.10787500  0.26388600  1
  C  C11  1  0.22022600  0.88937500  0.73588600  1
  C  C12  1  0.58465200  0.36816100  0.39619700  1
  C  C13  1  0.41382900  0.63157500  0.60756200  1
  C  C14  1  0.31389300  0.03833500  0.37805100  1
  C  C15  1  0.69010300  0.96527400  0.61964600  1
  C  C16  1  0.11244400  0.28999100  0.48717500  1
  C  C17  1  0.88868900  0.71285300  0.51035400  1
  C  C18  1  0.49576600  0.18885800  0.75441100  1
  C  C19  1  0.50029300  0.81003400  0.24588100  1
