# generated using pymatgen
data_Cu(Ni3C7)3
_symmetry_space_group_name_H-M   'P 1'
_cell_length_a   7.98294728
_cell_length_b   20.03955104
_cell_length_c   10.57379508
_cell_angle_alpha   19.11405916
_cell_angle_beta   55.32988710
_cell_angle_gamma   59.81661132
_symmetry_Int_Tables_number   1
_chemical_formula_structural   Cu(Ni3C7)3
_chemical_formula_sum   'Cu1 Ni9 C21'
_cell_volume   451.74359167
_cell_formula_units_Z   1
loop_
 _symmetry_equiv_pos_site_id
 _symmetry_equiv_pos_as_xyz
  1  'x, y, z'
loop_
 _atom_site_type_symbol
 _atom_site_label
 _atom_site_symmetry_multiplicity
 _atom_site_fract_x
 _atom_site_fract_y
 _atom_site_fract_z
 _atom_site_occupancy
  C  C0  1  0.03057751  0.05360101  0.91282120  1
  Ni  Ni1  1  0.99309236  0.19782119  0.00776832  1
  Ni  Ni2  1  0.49136890  0.00108232  0.99844806  1
  Ni  Ni3  1  0.00524998  0.37574114  0.04311354  1
  Ni  Ni4  1  0.50348782  0.19420778  0.00681174  1
  Ni  Ni5  1  0.99441772  0.60686041  0.98326509  1
  Ni  Ni6  1  0.50444075  0.40537419  0.98908154  1
  Ni  Ni7  1  0.00022881  0.79237485  0.00287718  1
  Ni  Ni8  1  0.48854272  0.59039401  0.02507421  1
  Ni  Ni9  1  0.48664816  0.79697803  0.01002190  1
  Cu  Cu10  1  0.81183971  0.76016792  0.39869286  1
  C  C11  1  0.12316442  0.13978752  0.26864387  1
  C  C12  1  0.12511721  0.35663958  0.23768382  1
  C  C13  1  0.61958290  0.14370609  0.26086994  1
  C  C14  1  0.37339617  0.05635303  0.73903907  1
  C  C15  1  0.12235835  0.54770702  0.25379271  1
  C  C16  1  0.62162542  0.33629256  0.27891297  1
  C  C17  1  0.37135870  0.24566653  0.76108985  1
  C  C18  1  0.11541997  0.73758289  0.27380938  1
  C  C19  1  0.87808613  0.03402281  0.78063209  1
  C  C20  1  0.12408247  0.95904631  0.23493192  1
  C  C21  1  0.61785375  0.54750441  0.25511551  1
  C  C22  1  0.37155555  0.44035812  0.76628326  1
  C  C23  1  0.87493266  0.26081883  0.73262677  1
  C  C24  1  0.35959416  0.64931696  0.75636187  1
  C  C25  1  0.61680740  0.74913197  0.24427357  1
  C  C26  1  0.63578747  0.94397227  0.25284378  1
  C  C27  1  0.87519274  0.43659249  0.76916661  1
  C  C28  1  0.37087602  0.84487832  0.75681622  1
  C  C29  1  0.87156154  0.64869608  0.74747470  1
  C  C30  1  0.87175252  0.84732337  0.75165644  1
