# generated using pymatgen
data_CuNi2C
_symmetry_space_group_name_H-M   'P 1'
_cell_length_a   4.42459600
_cell_length_b   5.52957599
_cell_length_c   6.61152300
_cell_angle_alpha   90.00000000
_cell_angle_beta   90.00000000
_cell_angle_gamma   113.58346511
_symmetry_Int_Tables_number   1
_chemical_formula_structural   CuNi2C
_chemical_formula_sum   'Cu2 Ni4 C2'
_cell_volume   148.24809386
_cell_formula_units_Z   2
loop_
 _symmetry_equiv_pos_site_id
 _symmetry_equiv_pos_as_xyz
  1  'x, y, z'
loop_
 _atom_site_type_symbol
 _atom_site_label
 _atom_site_symmetry_multiplicity
 _atom_site_fract_x
 _atom_site_fract_y
 _atom_site_fract_z
 _atom_site_occupancy
  C  C0  1  0.41239700  0.82479400  0.25000000  1
  C  C1  1  0.58760300  0.17520600  0.75000000  1
  Ni  Ni2  1  0.12794900  0.25589800  0.44699600  1
  Ni  Ni3  1  0.87205100  0.74410200  0.55300400  1
  Ni  Ni4  1  0.12794900  0.25589800  0.05300400  1
  Ni  Ni5  1  0.87205100  0.74410200  0.94699600  1
  Cu  Cu6  1  0.70020300  0.40040600  0.25000000  1
  Cu  Cu7  1  0.29979700  0.59959400  0.75000000  1
