# generated using pymatgen
data_Cu14NiC16
_symmetry_space_group_name_H-M   'P 1'
_cell_length_a   10.54296162
_cell_length_b   10.71734842
_cell_length_c   11.24286125
_cell_angle_alpha   117.61683821
_cell_angle_beta   95.28213685
_cell_angle_gamma   95.70901398
_symmetry_Int_Tables_number   1
_chemical_formula_structural   Cu14NiC16
_chemical_formula_sum   'Cu14 Ni1 C16'
_cell_volume   1106.20170279
_cell_formula_units_Z   1
loop_
 _symmetry_equiv_pos_site_id
 _symmetry_equiv_pos_as_xyz
  1  'x, y, z'
loop_
 _atom_site_type_symbol
 _atom_site_label
 _atom_site_symmetry_multiplicity
 _atom_site_fract_x
 _atom_site_fract_y
 _atom_site_fract_z
 _atom_site_occupancy
  C  C0  1  0.16044300  0.03779100  0.28179700  1
  C  C1  1  0.83955700  0.96220900  0.71820300  1
  C  C2  1  0.15403200  0.73547300  0.81501600  1
  C  C3  1  0.84596800  0.26452700  0.18498400  1
  C  C4  1  0.23011900  0.23105500  0.99744500  1
  C  C5  1  0.76988100  0.76894500  0.00255500  1
  Ni  Ni6  1  0.00000000  0.00000000  0.00000000  1
  Cu  Cu7  1  0.34729100  0.24106200  0.25112000  1
  Cu  Cu8  1  0.65270900  0.75893800  0.74888000  1
  Cu  Cu9  1  0.93135800  0.56230000  0.83895900  1
  Cu  Cu10  1  0.06864200  0.43770000  0.16104100  1
  Cu  Cu11  1  0.27633300  0.79823900  0.08813100  1
  Cu  Cu12  1  0.72366700  0.20176100  0.91186900  1
  Cu  Cu13  1  0.33776800  0.97247500  0.83467600  1
  Cu  Cu14  1  0.66223200  0.02752500  0.16532400  1
  Cu  Cu15  1  0.93980800  0.82886300  0.25229000  1
  Cu  Cu16  1  0.06019200  0.17113700  0.74771000  1
  Cu  Cu17  1  0.00710500  0.26704600  0.41484800  1
  Cu  Cu18  1  0.99289500  0.73295400  0.58515200  1
  Cu  Cu19  1  0.46713100  0.34176000  0.69240800  1
  Cu  Cu20  1  0.53286900  0.65824000  0.30759200  1
  C  C21  1  0.24720300  0.05565400  0.43336600  1
  C  C22  1  0.75279700  0.94434600  0.56663400  1
  C  C23  1  0.35125100  0.35455400  0.99119500  1
  C  C24  1  0.64874900  0.64544600  0.00880500  1
  C  C25  1  0.23761200  0.59360400  0.72138000  1
  C  C26  1  0.76238800  0.40639600  0.27862000  1
  C  C27  1  0.68344500  0.30196500  0.51925000  1
  C  C28  1  0.31655500  0.69803500  0.48075000  1
  C  C29  1  0.60397800  0.23018300  0.54951800  1
  C  C30  1  0.39602200  0.76981700  0.45048200  1
