# generated using pymatgen
data_Cu8NiC6
_symmetry_space_group_name_H-M   'P 1'
_cell_length_a   6.74570900
_cell_length_b   7.20450278
_cell_length_c   10.80697134
_cell_angle_alpha   86.37257662
_cell_angle_beta   89.64978592
_cell_angle_gamma   89.15430316
_symmetry_Int_Tables_number   1
_chemical_formula_structural   Cu8NiC6
_chemical_formula_sum   'Cu16 Ni2 C12'
_cell_volume   524.09679294
_cell_formula_units_Z   2
loop_
 _symmetry_equiv_pos_site_id
 _symmetry_equiv_pos_as_xyz
  1  'x, y, z'
loop_
 _atom_site_type_symbol
 _atom_site_label
 _atom_site_symmetry_multiplicity
 _atom_site_fract_x
 _atom_site_fract_y
 _atom_site_fract_z
 _atom_site_occupancy
  C  C0  1  0.74761600  0.73762700  0.26257900  1
  C  C1  1  0.24428800  0.26180000  0.74751200  1
  C  C2  1  0.49825200  0.99806400  0.99982000  1
  C  C3  1  0.50064400  0.01134100  0.49445600  1
  C  C4  1  0.99534900  0.98725300  0.99848100  1
  C  C5  1  0.26089800  0.75862200  0.75411600  1
  C  C6  1  0.77743700  0.24196200  0.23492600  1
  C  C7  1  0.00187500  0.00547700  0.50059600  1
  C  C8  1  0.26506900  0.62360700  0.14311500  1
  C  C9  1  0.73086000  0.36612000  0.85933800  1
  C  C10  1  0.24877100  0.59894100  0.43574500  1
  C  C11  1  0.76211400  0.41579100  0.55797800  1
  Ni  Ni12  1  0.81693600  0.79667200  0.85195400  1
  Ni  Ni13  1  0.13686100  0.18975700  0.17687000  1
  Cu  Cu14  1  0.74934800  0.02877600  0.12097900  1
  Cu  Cu15  1  0.66703500  0.46274400  0.17809000  1
  Cu  Cu16  1  0.21614100  0.58322200  0.59751400  1
  Cu  Cu17  1  0.44684900  0.80312800  0.15759400  1
  Cu  Cu18  1  0.54609200  0.28457300  0.56499300  1
  Cu  Cu19  1  0.95104100  0.25500700  0.59865700  1
  Cu  Cu20  1  0.24786500  0.96040600  0.88258800  1
  Cu  Cu21  1  0.03072100  0.75583500  0.13527300  1
  Cu  Cu22  1  0.05716300  0.75994300  0.39866300  1
  Cu  Cu23  1  0.96066800  0.22486000  0.86876000  1
  Cu  Cu24  1  0.75385800  0.02271600  0.37028700  1
  Cu  Cu25  1  0.25469300  0.99417500  0.62126200  1
  Cu  Cu26  1  0.55135500  0.18668300  0.83997400  1
  Cu  Cu27  1  0.46593300  0.73458700  0.42206600  1
  Cu  Cu28  1  0.30657200  0.51615800  0.83189700  1
  Cu  Cu29  1  0.80770000  0.43415400  0.39391900  1
