# generated using pymatgen
data_CuNi23C6
_symmetry_space_group_name_H-M   'P 1'
_cell_length_a   10.12142606
_cell_length_b   10.12142606
_cell_length_c   10.12142606
_cell_angle_alpha   60.00000000
_cell_angle_beta   60.00000000
_cell_angle_gamma   60.00000000
_symmetry_Int_Tables_number   1
_chemical_formula_structural   CuNi23C6
_chemical_formula_sum   'Cu1 Ni23 C6'
_cell_volume   733.17917715
_cell_formula_units_Z   1
loop_
 _symmetry_equiv_pos_site_id
 _symmetry_equiv_pos_as_xyz
  1  'x, y, z'
loop_
 _atom_site_type_symbol
 _atom_site_label
 _atom_site_symmetry_multiplicity
 _atom_site_fract_x
 _atom_site_fract_y
 _atom_site_fract_z
 _atom_site_occupancy
  C  C0  1  0.79385600  0.79385600  0.20614400  1
  C  C1  1  0.20614400  0.79385600  0.20614400  1
  C  C2  1  0.79385600  0.20614400  0.20614400  1
  C  C3  1  0.20614400  0.20614400  0.79385600  1
  C  C4  1  0.79385600  0.20614400  0.79385600  1
  C  C5  1  0.20614400  0.79385600  0.79385600  1
  Ni  Ni6  1  0.83194300  0.83194300  0.50417000  1
  Ni  Ni7  1  0.83194300  0.50417000  0.83194300  1
  Ni  Ni8  1  0.50417000  0.83194300  0.83194300  1
  Ni  Ni9  1  0.83194300  0.83194300  0.83194300  1
  Ni  Ni10  1  0.16805700  0.16805700  0.49583000  1
  Ni  Ni11  1  0.16805700  0.49583000  0.16805700  1
  Ni  Ni12  1  0.49583000  0.16805700  0.16805700  1
  Ni  Ni13  1  0.16805700  0.16805700  0.16805700  1
  Ni  Ni14  1  0.62171900  0.62171900  0.13484400  1
  Ni  Ni15  1  0.62171900  0.13484400  0.62171900  1
  Ni  Ni16  1  0.13484400  0.62171900  0.62171900  1
  Ni  Ni17  1  0.62171900  0.62171900  0.62171900  1
  Ni  Ni18  1  0.37828100  0.37828100  0.86515600  1
  Ni  Ni19  1  0.37828100  0.86515600  0.37828100  1
  Ni  Ni20  1  0.86515600  0.37828100  0.37828100  1
  Ni  Ni21  1  0.37828100  0.37828100  0.37828100  1
  Ni  Ni22  1  0.00000000  0.00000000  0.50000000  1
  Ni  Ni23  1  0.50000000  0.00000000  0.50000000  1
  Ni  Ni24  1  0.00000000  0.50000000  0.50000000  1
  Ni  Ni25  1  0.50000000  0.50000000  0.00000000  1
  Ni  Ni26  1  0.00000000  0.50000000  0.00000000  1
  Ni  Ni27  1  0.50000000  0.00000000  0.00000000  1
  Ni  Ni28  1  0.50000000  0.50000000  0.50000000  1
  Cu  Cu29  1  0.00000000  0.00000000  0.00000000  1
