# generated using pymatgen
data_Cu2Ni4C9
_symmetry_space_group_name_H-M   'P 1'
_cell_length_a   8.17830187
_cell_length_b   8.17830187
_cell_length_c   10.97381208
_cell_angle_alpha   49.79723593
_cell_angle_beta   49.79723593
_cell_angle_gamma   41.41790033
_symmetry_Int_Tables_number   1
_chemical_formula_structural   Cu2Ni4C9
_chemical_formula_sum   'Cu4 Ni8 C18'
_cell_volume   351.41599025
_cell_formula_units_Z   2
loop_
 _symmetry_equiv_pos_site_id
 _symmetry_equiv_pos_as_xyz
  1  'x, y, z'
loop_
 _atom_site_type_symbol
 _atom_site_label
 _atom_site_symmetry_multiplicity
 _atom_site_fract_x
 _atom_site_fract_y
 _atom_site_fract_z
 _atom_site_occupancy
  Ni  Ni0  1  0.49659700  0.99937200  0.49946400  1
  Ni  Ni1  1  0.99937200  0.49659700  0.49946400  1
  Ni  Ni2  1  0.34271400  0.34271400  0.63551300  1
  Ni  Ni3  1  0.66773400  0.66773400  0.34443300  1
  Ni  Ni4  1  0.99657400  0.49338700  0.00865400  1
  Ni  Ni5  1  0.49338700  0.99657400  0.00865400  1
  Ni  Ni6  1  0.47753500  0.47753500  0.73680400  1
  Ni  Ni7  1  0.48498600  0.48498600  0.17882300  1
  Cu  Cu8  1  0.99926100  0.99926100  0.20614300  1
  Cu  Cu9  1  0.99991600  0.99991600  0.78064200  1
  Cu  Cu10  1  0.76940800  0.76940800  0.73170700  1
  Cu  Cu11  1  0.27965600  0.27965600  0.22436200  1
  C  C12  1  0.57119000  0.98335300  0.65901300  1
  C  C13  1  0.98335300  0.57119000  0.65901300  1
  C  C14  1  0.43968700  0.01573200  0.34200900  1
  C  C15  1  0.01573200  0.43968700  0.34200900  1
  C  C16  1  0.29940400  0.29940400  0.85067200  1
  C  C17  1  0.70105200  0.70105200  0.14876900  1
  C  C18  1  0.87759300  0.87759300  0.34474200  1
  C  C19  1  0.12510200  0.12510200  0.65802000  1
  C  C20  1  0.85493300  0.27242800  0.13336100  1
  C  C21  1  0.27242800  0.85493300  0.13336100  1
  C  C22  1  0.13999700  0.72916400  0.84351100  1
  C  C23  1  0.72916400  0.13999700  0.84351100  1
  C  C24  1  0.75217200  0.75217200  0.87193700  1
  C  C25  1  0.23555400  0.23555400  0.13854900  1
  C  C26  1  0.36247800  0.36247800  0.42190200  1
  C  C27  1  0.64292200  0.64292200  0.60074800  1
  C  C28  1  0.50098500  0.50098500  0.53873600  1
  C  C29  1  0.40971300  0.40971300  0.10657500  1
