# generated using pymatgen
data_CuNi14C
_symmetry_space_group_name_H-M   'P 1'
_cell_length_a   6.52168259
_cell_length_b   6.37133629
_cell_length_c   10.56314532
_cell_angle_alpha   90.00000000
_cell_angle_beta   90.00000000
_cell_angle_gamma   119.24029424
_symmetry_Int_Tables_number   1
_chemical_formula_structural   CuNi14C
_chemical_formula_sum   'Cu1 Ni14 C1'
_cell_volume   382.99057030
_cell_formula_units_Z   1
loop_
 _symmetry_equiv_pos_site_id
 _symmetry_equiv_pos_as_xyz
  1  'x, y, z'
loop_
 _atom_site_type_symbol
 _atom_site_label
 _atom_site_symmetry_multiplicity
 _atom_site_fract_x
 _atom_site_fract_y
 _atom_site_fract_z
 _atom_site_occupancy
  C  C0  1  0.16339695  0.33169798  0.12500000  1
  Ni  Ni1  1  0.16635098  0.33317499  0.62500000  1
  Ni  Ni2  1  0.16489954  0.83244927  0.62500000  1
  Ni  Ni3  1  0.66475088  0.32921539  0.12500000  1
  Ni  Ni4  1  0.66650833  0.33465316  0.62500000  1
  Ni  Ni5  1  0.66475088  0.83553450  0.12500000  1
  Ni  Ni6  1  0.66650833  0.83185417  0.62500000  1
  Ni  Ni7  1  0.33632707  0.16598438  0.38226031  1
  Ni  Ni8  1  0.33632707  0.16598438  0.86773969  1
  Ni  Ni9  1  0.33632707  0.67034369  0.38226031  1
  Ni  Ni10  1  0.33632707  0.67034369  0.86773969  1
  Ni  Ni11  1  0.82925070  0.16462585  0.38247759  1
  Ni  Ni12  1  0.82925070  0.16462585  0.86752241  1
  Ni  Ni13  1  0.83246092  0.66623096  0.37414784  1
  Ni  Ni14  1  0.83246092  0.66623096  0.87585216  1
  Cu  Cu15  1  0.17410257  0.83705079  0.12500000  1
