# generated using pymatgen
data_CuNiC8
_symmetry_space_group_name_H-M   'P 1'
_cell_length_a   7.50474600
_cell_length_b   8.60325700
_cell_length_c   16.94059400
_cell_angle_alpha   90.00000000
_cell_angle_beta   90.00000000
_cell_angle_gamma   90.00000000
_symmetry_Int_Tables_number   1
_chemical_formula_structural   CuNiC8
_chemical_formula_sum   'Cu8 Ni8 C64'
_cell_volume   1093.77383173
_cell_formula_units_Z   8
loop_
 _symmetry_equiv_pos_site_id
 _symmetry_equiv_pos_as_xyz
  1  'x, y, z'
loop_
 _atom_site_type_symbol
 _atom_site_label
 _atom_site_symmetry_multiplicity
 _atom_site_fract_x
 _atom_site_fract_y
 _atom_site_fract_z
 _atom_site_occupancy
  C  C0  1  0.33997000  0.33003900  0.20727000  1
  C  C1  1  0.16003000  0.83003900  0.79273000  1
  C  C2  1  0.83997000  0.66996100  0.29273000  1
  C  C3  1  0.66003000  0.16996100  0.70727000  1
  C  C4  1  0.66003000  0.66996100  0.79273000  1
  C  C5  1  0.83997000  0.16996100  0.20727000  1
  C  C6  1  0.16003000  0.33003900  0.70727000  1
  C  C7  1  0.33997000  0.83003900  0.29273000  1
  C  C8  1  0.60916200  0.14801800  0.45345200  1
  C  C9  1  0.89083800  0.64801800  0.54654800  1
  C  C10  1  0.10916200  0.85198200  0.04654800  1
  C  C11  1  0.39083800  0.35198200  0.95345200  1
  C  C12  1  0.39083800  0.85198200  0.54654800  1
  C  C13  1  0.10916200  0.35198200  0.45345200  1
  C  C14  1  0.89083800  0.14801800  0.95345200  1
  C  C15  1  0.60916200  0.64801800  0.04654800  1
  C  C16  1  0.64683000  0.09866500  0.35471700  1
  C  C17  1  0.85317000  0.59866500  0.64528300  1
  C  C18  1  0.14683000  0.90133500  0.14528300  1
  C  C19  1  0.35317000  0.40133500  0.85471700  1
  C  C20  1  0.35317000  0.90133500  0.64528300  1
  C  C21  1  0.14683000  0.40133500  0.35471700  1
  C  C22  1  0.85317000  0.09866500  0.85471700  1
  C  C23  1  0.64683000  0.59866500  0.14528300  1
  C  C24  1  0.63322800  0.39398000  0.49505900  1
  C  C25  1  0.86677200  0.89398000  0.50494100  1
  C  C26  1  0.13322800  0.60602000  0.00494100  1
  C  C27  1  0.36677200  0.10602000  0.99505900  1
  C  C28  1  0.36677200  0.60602000  0.50494100  1
  C  C29  1  0.13322800  0.10602000  0.49505900  1
  C  C30  1  0.86677200  0.39398000  0.99505900  1
  C  C31  1  0.63322800  0.89398000  0.00494100  1
  C  C32  1  0.66013900  0.54926600  0.42719400  1
  C  C33  1  0.83986100  0.04926600  0.57280600  1
  C  C34  1  0.16013900  0.45073400  0.07280600  1
  C  C35  1  0.33986100  0.95073400  0.92719400  1
  C  C36  1  0.33986100  0.45073400  0.57280600  1
  C  C37  1  0.16013900  0.95073400  0.42719400  1
  C  C38  1  0.83986100  0.54926600  0.92719400  1
  C  C39  1  0.66013900  0.04926600  0.07280600  1
  Ni  Ni40  1  0.66833300  0.32981900  0.38070900  1
  Ni  Ni41  1  0.83166700  0.82981900  0.61929100  1
  Ni  Ni42  1  0.16833300  0.67018100  0.11929100  1
  Ni  Ni43  1  0.33166700  0.17018100  0.88070900  1
  Ni  Ni44  1  0.33166700  0.67018100  0.61929100  1
  Ni  Ni45  1  0.16833300  0.17018100  0.38070900  1
  Ni  Ni46  1  0.83166700  0.32981900  0.88070900  1
  Ni  Ni47  1  0.66833300  0.82981900  0.11929100  1
  Cu  Cu48  1  0.70415400  0.39078700  0.28425200  1
  Cu  Cu49  1  0.79584600  0.89078700  0.71574800  1
  Cu  Cu50  1  0.20415400  0.60921300  0.21574800  1
  Cu  Cu51  1  0.29584600  0.10921300  0.78425200  1
  Cu  Cu52  1  0.29584600  0.60921300  0.71574800  1
  Cu  Cu53  1  0.20415400  0.10921300  0.28425200  1
  Cu  Cu54  1  0.79584600  0.39078700  0.78425200  1
  Cu  Cu55  1  0.70415400  0.89078700  0.21574800  1
  C  C56  1  0.65273800  0.17935600  0.39834400  1
  C  C57  1  0.84726200  0.67935600  0.60165600  1
  C  C58  1  0.15273800  0.82064400  0.10165600  1
  C  C59  1  0.34726200  0.32064400  0.89834400  1
  C  C60  1  0.34726200  0.82064400  0.60165600  1
  C  C61  1  0.15273800  0.32064400  0.39834400  1
  C  C62  1  0.84726200  0.17935600  0.89834400  1
  C  C63  1  0.65273800  0.67935600  0.10165600  1
  C  C64  1  0.65399300  0.43274100  0.43873300  1
  C  C65  1  0.84600700  0.93274100  0.56126700  1
  C  C66  1  0.15399300  0.56725900  0.06126700  1
  C  C67  1  0.34600700  0.06725900  0.93873300  1
  C  C68  1  0.34600700  0.56725900  0.56126700  1
  C  C69  1  0.15399300  0.06725900  0.43873300  1
  C  C70  1  0.84600700  0.43274100  0.93873300  1
  C  C71  1  0.65399300  0.93274100  0.06126700  1
  C  C72  1  0.52683500  0.30127500  0.08162400  1
  C  C73  1  0.97316500  0.80127500  0.91837600  1
  C  C74  1  0.02683500  0.69872500  0.41837600  1
  C  C75  1  0.47316500  0.19872500  0.58162400  1
  C  C76  1  0.47316500  0.69872500  0.91837600  1
  C  C77  1  0.02683500  0.19872500  0.08162400  1
  C  C78  1  0.97316500  0.30127500  0.58162400  1
  C  C79  1  0.52683500  0.80127500  0.41837600  1
