# generated using pymatgen
data_Cu8Ni4C3
_symmetry_space_group_name_H-M   'P 1'
_cell_length_a   9.37386428
_cell_length_b   9.37386428
_cell_length_c   9.37386428
_cell_angle_alpha   60.00000000
_cell_angle_beta   60.00000000
_cell_angle_gamma   60.00000000
_symmetry_Int_Tables_number   1
_chemical_formula_structural   Cu8Ni4C3
_chemical_formula_sum   'Cu16 Ni8 C6'
_cell_volume   582.42631154
_cell_formula_units_Z   2
loop_
 _symmetry_equiv_pos_site_id
 _symmetry_equiv_pos_as_xyz
  1  'x, y, z'
loop_
 _atom_site_type_symbol
 _atom_site_label
 _atom_site_symmetry_multiplicity
 _atom_site_fract_x
 _atom_site_fract_y
 _atom_site_fract_z
 _atom_site_occupancy
  C  C0  1  0.72435400  0.72435400  0.27564600  1
  C  C1  1  0.27564600  0.72435400  0.27564600  1
  C  C2  1  0.72435400  0.27564600  0.27564600  1
  C  C3  1  0.27564600  0.27564600  0.72435400  1
  C  C4  1  0.72435400  0.27564600  0.72435400  1
  C  C5  1  0.27564600  0.72435400  0.72435400  1
  Ni  Ni6  1  0.00000000  0.00000000  0.50000000  1
  Ni  Ni7  1  0.50000000  0.00000000  0.50000000  1
  Ni  Ni8  1  0.00000000  0.50000000  0.50000000  1
  Ni  Ni9  1  0.50000000  0.50000000  0.00000000  1
  Ni  Ni10  1  0.00000000  0.50000000  0.00000000  1
  Ni  Ni11  1  0.50000000  0.00000000  0.00000000  1
  Ni  Ni12  1  0.50000000  0.50000000  0.50000000  1
  Ni  Ni13  1  0.00000000  0.00000000  0.00000000  1
  Cu  Cu14  1  0.88125500  0.88125500  0.35623400  1
  Cu  Cu15  1  0.88125500  0.35623400  0.88125500  1
  Cu  Cu16  1  0.35623400  0.88125500  0.88125500  1
  Cu  Cu17  1  0.88125500  0.88125500  0.88125500  1
  Cu  Cu18  1  0.11874500  0.11874500  0.64376600  1
  Cu  Cu19  1  0.11874500  0.64376600  0.11874500  1
  Cu  Cu20  1  0.64376600  0.11874500  0.11874500  1
  Cu  Cu21  1  0.11874500  0.11874500  0.11874500  1
  Cu  Cu22  1  0.66622600  0.66622600  0.00132300  1
  Cu  Cu23  1  0.66622600  0.00132300  0.66622600  1
  Cu  Cu24  1  0.00132300  0.66622600  0.66622600  1
  Cu  Cu25  1  0.66622600  0.66622600  0.66622600  1
  Cu  Cu26  1  0.33377400  0.33377400  0.99867700  1
  Cu  Cu27  1  0.33377400  0.99867700  0.33377400  1
  Cu  Cu28  1  0.99867700  0.33377400  0.33377400  1
  Cu  Cu29  1  0.33377400  0.33377400  0.33377400  1
