# generated using pymatgen
data_Cu2Ni2C
_symmetry_space_group_name_H-M   'P 1'
_cell_length_a   8.56583500
_cell_length_b   10.11621100
_cell_length_c   13.47801300
_cell_angle_alpha   90.00000000
_cell_angle_beta   90.00000000
_cell_angle_gamma   90.00000000
_symmetry_Int_Tables_number   1
_chemical_formula_structural   Cu2Ni2C
_chemical_formula_sum   'Cu16 Ni16 C8'
_cell_volume   1167.92096542
_cell_formula_units_Z   8
loop_
 _symmetry_equiv_pos_site_id
 _symmetry_equiv_pos_as_xyz
  1  'x, y, z'
loop_
 _atom_site_type_symbol
 _atom_site_label
 _atom_site_symmetry_multiplicity
 _atom_site_fract_x
 _atom_site_fract_y
 _atom_site_fract_z
 _atom_site_occupancy
  C  C0  1  0.37022700  0.85848300  0.26806400  1
  C  C1  1  0.62977300  0.64151700  0.76806400  1
  C  C2  1  0.12977300  0.35848300  0.73193600  1
  C  C3  1  0.87022700  0.14151700  0.23193600  1
  C  C4  1  0.62977300  0.14151700  0.73193600  1
  C  C5  1  0.37022700  0.35848300  0.23193600  1
  C  C6  1  0.87022700  0.64151700  0.26806400  1
  C  C7  1  0.12977300  0.85848300  0.76806400  1
  Ni  Ni8  1  0.32900600  0.64620200  0.44281300  1
  Ni  Ni9  1  0.67099400  0.85379800  0.94281300  1
  Ni  Ni10  1  0.17099400  0.14620200  0.55718700  1
  Ni  Ni11  1  0.82900600  0.35379800  0.05718700  1
  Ni  Ni12  1  0.67099400  0.35379800  0.55718700  1
  Ni  Ni13  1  0.32900600  0.14620200  0.05718700  1
  Ni  Ni14  1  0.82900600  0.85379800  0.44281300  1
  Ni  Ni15  1  0.17099400  0.64620200  0.94281300  1
  Ni  Ni16  1  0.59594100  0.63662600  0.17779700  1
  Ni  Ni17  1  0.40405900  0.86337400  0.67779700  1
  Ni  Ni18  1  0.90405900  0.13662600  0.82220300  1
  Ni  Ni19  1  0.09594100  0.36337400  0.32220300  1
  Ni  Ni20  1  0.40405900  0.36337400  0.82220300  1
  Ni  Ni21  1  0.59594100  0.13662600  0.32220300  1
  Ni  Ni22  1  0.09594100  0.86337400  0.17779700  1
  Ni  Ni23  1  0.90405900  0.63662600  0.67779700  1
  Cu  Cu24  1  0.35828800  0.83992600  0.40559300  1
  Cu  Cu25  1  0.64171200  0.66007400  0.90559300  1
  Cu  Cu26  1  0.14171200  0.33992600  0.59440700  1
  Cu  Cu27  1  0.85828800  0.16007400  0.09440700  1
  Cu  Cu28  1  0.64171200  0.16007400  0.59440700  1
  Cu  Cu29  1  0.35828800  0.33992600  0.09440700  1
  Cu  Cu30  1  0.85828800  0.66007400  0.40559300  1
  Cu  Cu31  1  0.14171200  0.83992600  0.90559300  1
  Cu  Cu32  1  0.55422500  0.83582700  0.19227500  1
  Cu  Cu33  1  0.44577500  0.66417300  0.69227500  1
  Cu  Cu34  1  0.94577500  0.33582700  0.80772500  1
  Cu  Cu35  1  0.05422500  0.16417300  0.30772500  1
  Cu  Cu36  1  0.44577500  0.16417300  0.80772500  1
  Cu  Cu37  1  0.55422500  0.33582700  0.30772500  1
  Cu  Cu38  1  0.05422500  0.66417300  0.19227500  1
  Cu  Cu39  1  0.94577500  0.83582700  0.69227500  1
