# generated using pymatgen
data_CuNiC
_symmetry_space_group_name_H-M   'P 1'
_cell_length_a   4.31588700
_cell_length_b   7.44681300
_cell_length_c   13.85322200
_cell_angle_alpha   90.00000000
_cell_angle_beta   90.00000000
_cell_angle_gamma   90.00000000
_symmetry_Int_Tables_number   1
_chemical_formula_structural   CuNiC
_chemical_formula_sum   'Cu8 Ni8 C8'
_cell_volume   445.23706114
_cell_formula_units_Z   8
loop_
 _symmetry_equiv_pos_site_id
 _symmetry_equiv_pos_as_xyz
  1  'x, y, z'
loop_
 _atom_site_type_symbol
 _atom_site_label
 _atom_site_symmetry_multiplicity
 _atom_site_fract_x
 _atom_site_fract_y
 _atom_site_fract_z
 _atom_site_occupancy
  C  C0  1  0.00000000  0.30024600  0.00000000  1
  C  C1  1  0.50000000  0.69975400  0.50000000  1
  C  C2  1  0.00000000  0.29306800  0.50000000  1
  C  C3  1  0.50000000  0.70693200  0.00000000  1
  C  C4  1  0.00000000  0.20954900  0.24870600  1
  C  C5  1  0.50000000  0.79045100  0.25129400  1
  C  C6  1  0.00000000  0.20954900  0.75129400  1
  C  C7  1  0.50000000  0.79045100  0.74870600  1
  Ni  Ni8  1  0.00000000  0.90842600  0.59289400  1
  Ni  Ni9  1  0.50000000  0.09157400  0.90710600  1
  Ni  Ni10  1  0.00000000  0.90842600  0.40710600  1
  Ni  Ni11  1  0.50000000  0.09157400  0.09289400  1
  Ni  Ni12  1  0.00000000  0.59251900  0.14489600  1
  Ni  Ni13  1  0.50000000  0.40748100  0.35510400  1
  Ni  Ni14  1  0.00000000  0.59251900  0.85510400  1
  Ni  Ni15  1  0.50000000  0.40748100  0.64489600  1
  Cu  Cu16  1  0.50000000  0.07603200  0.60851500  1
  Cu  Cu17  1  0.00000000  0.92396800  0.89148500  1
  Cu  Cu18  1  0.50000000  0.07603200  0.39148500  1
  Cu  Cu19  1  0.00000000  0.92396800  0.10851500  1
  Cu  Cu20  1  0.50000000  0.41821100  0.15656600  1
  Cu  Cu21  1  0.00000000  0.58178900  0.34343400  1
  Cu  Cu22  1  0.50000000  0.41821100  0.84343400  1
  Cu  Cu23  1  0.00000000  0.58178900  0.65656600  1
