# generated using pymatgen
data_Cu2NiC2
_symmetry_space_group_name_H-M   'P 1'
_cell_length_a   4.50420000
_cell_length_b   5.68701264
_cell_length_c   5.68701264
_cell_angle_alpha   62.38694645
_cell_angle_beta   66.67117216
_cell_angle_gamma   66.67117216
_symmetry_Int_Tables_number   1
_chemical_formula_structural   Cu2NiC2
_chemical_formula_sum   'Cu2 Ni1 C2'
_cell_volume   114.41766921
_cell_formula_units_Z   1
loop_
 _symmetry_equiv_pos_site_id
 _symmetry_equiv_pos_as_xyz
  1  'x, y, z'
loop_
 _atom_site_type_symbol
 _atom_site_label
 _atom_site_symmetry_multiplicity
 _atom_site_fract_x
 _atom_site_fract_y
 _atom_site_fract_z
 _atom_site_occupancy
  C  C0  1  0.20064800  0.29935200  0.29935200  1
  C  C1  1  0.79935200  0.70064800  0.70064800  1
  Ni  Ni2  1  0.00000000  0.00000000  0.00000000  1
  Cu  Cu3  1  0.50000000  0.72671500  0.27328500  1
  Cu  Cu4  1  0.50000000  0.27328500  0.72671500  1
