# generated using pymatgen
data_Cu12NiC5
_symmetry_space_group_name_H-M   'P 1'
_cell_length_a   10.77701538
_cell_length_b   10.77701538
_cell_length_c   10.77701512
_cell_angle_alpha   42.53240863
_cell_angle_beta   42.53240863
_cell_angle_gamma   42.53241019
_symmetry_Int_Tables_number   1
_chemical_formula_structural   Cu12NiC5
_chemical_formula_sum   'Cu24 Ni2 C10'
_cell_volume   517.97154869
_cell_formula_units_Z   2
loop_
 _symmetry_equiv_pos_site_id
 _symmetry_equiv_pos_as_xyz
  1  'x, y, z'
loop_
 _atom_site_type_symbol
 _atom_site_label
 _atom_site_symmetry_multiplicity
 _atom_site_fract_x
 _atom_site_fract_y
 _atom_site_fract_z
 _atom_site_occupancy
  C  C0  1  0.00000000  0.00000000  0.00000000  1
  C  C1  1  0.50000000  0.50000000  0.50000000  1
  C  C2  1  0.13833000  0.13833000  0.13833000  1
  C  C3  1  0.86167000  0.86167000  0.86167000  1
  C  C4  1  0.57761400  0.57761400  0.03162000  1
  C  C5  1  0.03162000  0.57761400  0.57761400  1
  C  C6  1  0.57761400  0.03162000  0.57761400  1
  C  C7  1  0.42238600  0.96838000  0.42238600  1
  C  C8  1  0.96838000  0.42238600  0.42238600  1
  C  C9  1  0.42238600  0.42238600  0.96838000  1
  Ni  Ni10  1  0.71484400  0.71484400  0.71484400  1
  Ni  Ni11  1  0.28515600  0.28515600  0.28515600  1
  Cu  Cu12  1  0.70409100  0.70409100  0.36836300  1
  Cu  Cu13  1  0.36836300  0.70409100  0.70409100  1
  Cu  Cu14  1  0.70409100  0.36836300  0.70409100  1
  Cu  Cu15  1  0.29590900  0.63163700  0.29590900  1
  Cu  Cu16  1  0.29590900  0.29590900  0.63163700  1
  Cu  Cu17  1  0.63163700  0.29590900  0.29590900  1
  Cu  Cu18  1  0.91453200  0.91453200  0.40168400  1
  Cu  Cu19  1  0.40168400  0.91453200  0.91453200  1
  Cu  Cu20  1  0.64996200  0.35003800  0.00000000  1
  Cu  Cu21  1  0.35003800  0.00000000  0.64996200  1
  Cu  Cu22  1  0.00000000  0.64996200  0.35003800  1
  Cu  Cu23  1  0.35003800  0.64996200  0.00000000  1
  Cu  Cu24  1  0.64996200  0.00000000  0.35003800  1
  Cu  Cu25  1  0.00000000  0.35003800  0.64996200  1
  Cu  Cu26  1  0.91170200  0.34779500  0.34779500  1
  Cu  Cu27  1  0.34779500  0.34779500  0.91170200  1
  Cu  Cu28  1  0.34779500  0.91170200  0.34779500  1
  Cu  Cu29  1  0.65220500  0.08829800  0.65220500  1
  Cu  Cu30  1  0.08829800  0.65220500  0.65220500  1
  Cu  Cu31  1  0.65220500  0.65220500  0.08829800  1
  Cu  Cu32  1  0.59831600  0.08546800  0.08546800  1
  Cu  Cu33  1  0.08546800  0.08546800  0.59831600  1
  Cu  Cu34  1  0.08546800  0.59831600  0.08546800  1
  Cu  Cu35  1  0.91453200  0.40168400  0.91453200  1
