# generated using pymatgen
data_CuNiC6
_symmetry_space_group_name_H-M   'P 1'
_cell_length_a   5.44053060
_cell_length_b   5.44425335
_cell_length_c   7.25496745
_cell_angle_alpha   71.54497164
_cell_angle_beta   108.44064741
_cell_angle_gamma   84.42991844
_symmetry_Int_Tables_number   1
_chemical_formula_structural   CuNiC6
_chemical_formula_sum   'Cu2 Ni2 C12'
_cell_volume   188.67118527
_cell_formula_units_Z   2
loop_
 _symmetry_equiv_pos_site_id
 _symmetry_equiv_pos_as_xyz
  1  'x, y, z'
loop_
 _atom_site_type_symbol
 _atom_site_label
 _atom_site_symmetry_multiplicity
 _atom_site_fract_x
 _atom_site_fract_y
 _atom_site_fract_z
 _atom_site_occupancy
  Ni  Ni0  1  0.67484900  0.18450700  0.22259800  1
  Ni  Ni1  1  0.30277500  0.81903300  0.72160400  1
  C  C2  1  0.99566400  0.49533000  0.98655900  1
  C  C3  1  0.99563600  0.49490400  0.48657300  1
  Cu  Cu4  1  0.34683300  0.84390400  0.23728900  1
  Cu  Cu5  1  0.64827100  0.14236700  0.73787700  1
  C  C6  1  0.27044600  0.70335900  0.08047200  1
  C  C7  1  0.79061200  0.21756100  0.58218600  1
  C  C8  1  0.20915000  0.77110500  0.39780900  1
  C  C9  1  0.72194700  0.27834100  0.89930300  1
  C  C10  1  0.33802500  0.20147300  0.62306100  1
  C  C11  1  0.29036800  0.15405400  0.12383900  1
  C  C12  1  0.69774900  0.83292200  0.84660100  1
  C  C13  1  0.65672500  0.79152400  0.34739400  1
  C  C14  1  0.08353900  0.58087200  0.73701100  1
  C  C15  1  0.90942900  0.40748600  0.23695100  1
