# generated using pymatgen
data_CuNiC7
_symmetry_space_group_name_H-M   'P 1'
_cell_length_a   5.48680839
_cell_length_b   5.53107054
_cell_length_c   9.12673380
_cell_angle_alpha   107.37814401
_cell_angle_beta   107.23066088
_cell_angle_gamma   90.81942288
_symmetry_Int_Tables_number   1
_chemical_formula_structural   CuNiC7
_chemical_formula_sum   'Cu2 Ni2 C14'
_cell_volume   250.86132990
_cell_formula_units_Z   2
loop_
 _symmetry_equiv_pos_site_id
 _symmetry_equiv_pos_as_xyz
  1  'x, y, z'
loop_
 _atom_site_type_symbol
 _atom_site_label
 _atom_site_symmetry_multiplicity
 _atom_site_fract_x
 _atom_site_fract_y
 _atom_site_fract_z
 _atom_site_occupancy
  C  C0  1  0.87515500  0.40294900  0.77661700  1
  C  C1  1  0.12484800  0.59706400  0.22340100  1
  C  C2  1  0.40152800  0.87371200  0.77662000  1
  C  C3  1  0.59857900  0.12639700  0.22340500  1
  Ni  Ni4  1  0.00004700  0.99996900  0.99998800  1
  Ni  Ni5  1  0.49986100  0.49986300  0.99974200  1
  Cu  Cu6  1  0.17968800  0.18519200  0.50003500  1
  Cu  Cu7  1  0.82024300  0.81480300  0.50001700  1
  C  C8  1  0.24403400  0.24408000  0.98808200  1
  C  C9  1  0.75597500  0.75589400  0.01184400  1
  C  C10  1  0.25180200  0.75174400  0.00347800  1
  C  C11  1  0.74821600  0.24817200  0.99644900  1
  C  C12  1  0.82396800  0.16552700  0.50003900  1
  C  C13  1  0.17605400  0.83455600  0.50003600  1
  C  C14  1  0.37149700  0.38369000  0.70728500  1
  C  C15  1  0.62848900  0.61634400  0.29287600  1
  C  C16  1  0.83568700  0.82353900  0.70723500  1
  C  C17  1  0.16432800  0.17650500  0.29285300  1
