# generated using pymatgen
data_Cu2NiC2
_symmetry_space_group_name_H-M   'P 1'
_cell_length_a   4.00750200
_cell_length_b   5.82405200
_cell_length_c   5.82408200
_cell_angle_alpha   90.00000000
_cell_angle_beta   90.00000000
_cell_angle_gamma   90.00000000
_symmetry_Int_Tables_number   1
_chemical_formula_structural   Cu2NiC2
_chemical_formula_sum   'Cu4 Ni2 C4'
_cell_volume   135.93349169
_cell_formula_units_Z   2
loop_
 _symmetry_equiv_pos_site_id
 _symmetry_equiv_pos_as_xyz
  1  'x, y, z'
loop_
 _atom_site_type_symbol
 _atom_site_label
 _atom_site_symmetry_multiplicity
 _atom_site_fract_x
 _atom_site_fract_y
 _atom_site_fract_z
 _atom_site_occupancy
  C  C0  1  0.50000000  0.76484100  0.51882100  1
  C  C1  1  0.50000000  0.23515900  0.01882100  1
  C  C2  1  0.00000000  0.73295500  0.01727000  1
  C  C3  1  0.00000000  0.26704500  0.51727000  1
  Ni  Ni4  1  0.00000000  0.48839900  0.75865700  1
  Ni  Ni5  1  0.00000000  0.51160100  0.25865700  1
  Cu  Cu6  1  0.50000000  0.76952800  0.98850500  1
  Cu  Cu7  1  0.00000000  0.98274100  0.71678800  1
  Cu  Cu8  1  0.00000000  0.01725900  0.21678800  1
  Cu  Cu9  1  0.50000000  0.23047200  0.48850500  1
