# generated using pymatgen
data_Cu2NiC7
_symmetry_space_group_name_H-M   'P 1'
_cell_length_a   6.32147806
_cell_length_b   6.32147806
_cell_length_c   6.32147806
_cell_angle_alpha   60.00000000
_cell_angle_beta   60.00000000
_cell_angle_gamma   60.00000000
_symmetry_Int_Tables_number   1
_chemical_formula_structural   Cu2NiC7
_chemical_formula_sum   'Cu2 Ni1 C7'
_cell_volume   178.62445063
_cell_formula_units_Z   1
loop_
 _symmetry_equiv_pos_site_id
 _symmetry_equiv_pos_as_xyz
  1  'x, y, z'
loop_
 _atom_site_type_symbol
 _atom_site_label
 _atom_site_symmetry_multiplicity
 _atom_site_fract_x
 _atom_site_fract_y
 _atom_site_fract_z
 _atom_site_occupancy
  Ni  Ni0  1  0.50000000  0.50000000  0.50000000  1
  Cu  Cu1  1  0.75000000  0.75000000  0.75000000  1
  Cu  Cu2  1  0.25000000  0.25000000  0.25000000  1
  C  C3  1  0.00000000  0.00000000  0.00000000  1
  C  C4  1  0.77361800  0.22638200  0.22638200  1
  C  C5  1  0.22638200  0.22638200  0.77361800  1
  C  C6  1  0.22638200  0.77361800  0.77361800  1
  C  C7  1  0.22638200  0.77361800  0.22638200  1
  C  C8  1  0.77361800  0.22638200  0.77361800  1
  C  C9  1  0.77361800  0.77361800  0.22638200  1
