# generated using pymatgen
data_Cu(Ni3C8)2
_symmetry_space_group_name_H-M   'P 1'
_cell_length_a   16.22840200
_cell_length_b   9.51644400
_cell_length_c   12.06707261
_cell_angle_alpha   56.38468699
_cell_angle_beta   90.00000000
_cell_angle_gamma   90.00000000
_symmetry_Int_Tables_number   1
_chemical_formula_structural   Cu(Ni3C8)2
_chemical_formula_sum   'Cu4 Ni24 C64'
_cell_volume   1551.95518908
_cell_formula_units_Z   4
loop_
 _symmetry_equiv_pos_site_id
 _symmetry_equiv_pos_as_xyz
  1  'x, y, z'
loop_
 _atom_site_type_symbol
 _atom_site_label
 _atom_site_symmetry_multiplicity
 _atom_site_fract_x
 _atom_site_fract_y
 _atom_site_fract_z
 _atom_site_occupancy
  C  C0  1  0.62767900  0.18134300  0.54722900  1
  C  C1  1  0.87232100  0.18134300  0.04722900  1
  C  C2  1  0.37232100  0.81865700  0.45277100  1
  C  C3  1  0.12767900  0.81865700  0.95277100  1
  C  C4  1  0.62749900  0.77708800  0.94613100  1
  C  C5  1  0.87250100  0.77708800  0.44613100  1
  C  C6  1  0.37250100  0.22291200  0.05386900  1
  C  C7  1  0.12749900  0.22291200  0.55386900  1
  Ni  Ni8  1  0.42320200  0.92354000  0.82070800  1
  Ni  Ni9  1  0.07679800  0.92354000  0.32070800  1
  Ni  Ni10  1  0.57679800  0.07646000  0.17929200  1
  Ni  Ni11  1  0.92320200  0.07646000  0.67929200  1
  Ni  Ni12  1  0.33131400  0.07545600  0.68040500  1
  Ni  Ni13  1  0.16868600  0.07545600  0.18040500  1
  Ni  Ni14  1  0.66868600  0.92454400  0.31959500  1
  Ni  Ni15  1  0.83131400  0.92454400  0.81959500  1
  Ni  Ni16  1  0.42339800  0.07100300  0.67925900  1
  Ni  Ni17  1  0.07660200  0.07100300  0.17925900  1
  Ni  Ni18  1  0.57660200  0.92899700  0.32074100  1
  Ni  Ni19  1  0.92339800  0.92899700  0.82074100  1
  Ni  Ni20  1  0.33109700  0.92738900  0.82146200  1
  Ni  Ni21  1  0.16890300  0.92738900  0.32146200  1
  Ni  Ni22  1  0.66890300  0.07261100  0.17853800  1
  Ni  Ni23  1  0.83109700  0.07261100  0.67853800  1
  Ni  Ni24  1  0.67693500  0.42829400  0.23111600  1
  Ni  Ni25  1  0.82306500  0.42829400  0.73111600  1
  Ni  Ni26  1  0.32306500  0.57170600  0.76888400  1
  Ni  Ni27  1  0.17693500  0.57170600  0.26888400  1
  Ni  Ni28  1  0.58022200  0.42695300  0.23041900  1
  Ni  Ni29  1  0.91977800  0.42695300  0.73041900  1
  Ni  Ni30  1  0.41977800  0.57304700  0.76958100  1
  Ni  Ni31  1  0.08022200  0.57304700  0.26958100  1
  Cu  Cu32  1  0.60912000  0.27020000  0.85065900  1
  Cu  Cu33  1  0.89088000  0.27020000  0.35065900  1
  Cu  Cu34  1  0.39088000  0.72980000  0.14934100  1
  Cu  Cu35  1  0.10912000  0.72980000  0.64934100  1
  C  C36  1  0.71032900  0.53913700  0.12268000  1
  C  C37  1  0.78967100  0.53913700  0.62268000  1
  C  C38  1  0.28967100  0.46086300  0.87732000  1
  C  C39  1  0.21032900  0.46086300  0.37732000  1
  C  C40  1  0.54671900  0.53813900  0.12279800  1
  C  C41  1  0.95328100  0.53813900  0.62279800  1
  C  C42  1  0.45328100  0.46186100  0.87720200  1
  C  C43  1  0.04671900  0.46186100  0.37720200  1
  C  C44  1  0.47674200  0.83566600  0.90169000  1
  C  C45  1  0.02325800  0.83566600  0.40169000  1
  C  C46  1  0.52325800  0.16433400  0.09831000  1
  C  C47  1  0.97674200  0.16433400  0.59831000  1
  C  C48  1  0.77789600  0.83566200  0.90004800  1
  C  C49  1  0.72210400  0.83566200  0.40004800  1
  C  C50  1  0.22210400  0.16433800  0.09995200  1
  C  C51  1  0.27789600  0.16433800  0.59995200  1
  C  C52  1  0.62844900  0.68110700  0.85315200  1
  C  C53  1  0.87155100  0.68110700  0.35315200  1
  C  C54  1  0.37155100  0.31889300  0.14684800  1
  C  C55  1  0.12844900  0.31889300  0.64684800  1
  C  C56  1  0.62680600  0.85812000  0.05106100  1
  C  C57  1  0.87319400  0.85812000  0.55106100  1
  C  C58  1  0.37319400  0.14188000  0.94893900  1
  C  C59  1  0.12680600  0.14188000  0.44893900  1
  C  C60  1  0.62635500  0.02484800  0.76186700  1
  C  C61  1  0.87364500  0.02484800  0.26186700  1
  C  C62  1  0.37364500  0.97515200  0.23813300  1
  C  C63  1  0.12635500  0.97515200  0.73813300  1
  C  C64  1  0.71014300  0.31962200  0.34038700  1
  C  C65  1  0.78985700  0.31962200  0.84038700  1
  C  C66  1  0.28985700  0.68037800  0.65961300  1
  C  C67  1  0.21014300  0.68037800  0.15961300  1
  C  C68  1  0.54682900  0.31497200  0.33902700  1
  C  C69  1  0.95317100  0.31497200  0.83902700  1
  C  C70  1  0.45317100  0.68502800  0.66097300  1
  C  C71  1  0.04682900  0.68502800  0.16097300  1
  C  C72  1  0.47706500  0.15389300  0.59703300  1
  C  C73  1  0.02293500  0.15389300  0.09703300  1
  C  C74  1  0.52293500  0.84610700  0.40296700  1
  C  C75  1  0.97706500  0.84610700  0.90296700  1
  C  C76  1  0.77711100  0.15659900  0.59709700  1
  C  C77  1  0.72288900  0.15659900  0.09709700  1
  C  C78  1  0.22288900  0.84340100  0.40290300  1
  C  C79  1  0.27711100  0.84340100  0.90290300  1
  C  C80  1  0.63007900  0.99093700  0.54836100  1
  C  C81  1  0.86992100  0.99093700  0.04836100  1
  C  C82  1  0.36992100  0.00906300  0.45163900  1
  C  C83  1  0.13007900  0.00906300  0.95163900  1
  C  C84  1  0.62509700  0.38260100  0.52939400  1
  C  C85  1  0.87490300  0.38260100  0.02939400  1
  C  C86  1  0.37490300  0.61739900  0.47060600  1
  C  C87  1  0.12509700  0.61739900  0.97060600  1
  C  C88  1  0.38151300  0.38398200  0.36699300  1
  C  C89  1  0.11848700  0.38398200  0.86699300  1
  C  C90  1  0.61848700  0.61601800  0.63300700  1
  C  C91  1  0.88151300  0.61601800  0.13300700  1
