# generated using pymatgen
data_Cu3NiC8
_symmetry_space_group_name_H-M   'P 1'
_cell_length_a   3.39952524
_cell_length_b   3.39952524
_cell_length_c   38.76968200
_cell_angle_alpha   90.00000000
_cell_angle_beta   90.00000000
_cell_angle_gamma   119.99998522
_symmetry_Int_Tables_number   1
_chemical_formula_structural   Cu3NiC8
_chemical_formula_sum   'Cu3 Ni1 C8'
_cell_volume   388.02479245
_cell_formula_units_Z   1
loop_
 _symmetry_equiv_pos_site_id
 _symmetry_equiv_pos_as_xyz
  1  'x, y, z'
loop_
 _atom_site_type_symbol
 _atom_site_label
 _atom_site_symmetry_multiplicity
 _atom_site_fract_x
 _atom_site_fract_y
 _atom_site_fract_z
 _atom_site_occupancy
  C  C0  1  0.00000000  0.00000000  0.33035700  1
  C  C1  1  0.00000000  0.00000000  0.70613100  1
  C  C2  1  0.00000000  0.00000000  0.23318900  1
  C  C3  1  0.00000000  0.00000000  0.60894300  1
  Ni  Ni4  1  0.00000000  0.00000000  0.09396100  1
  Cu  Cu5  1  0.00000000  0.00000000  0.46963600  1
  Cu  Cu6  1  0.33333300  0.66666700  0.28177400  1
  Cu  Cu7  1  0.33333300  0.66666700  0.65754000  1
  C  C8  1  0.33333300  0.66666700  0.42694400  1
  C  C9  1  0.33333300  0.66666700  0.51237000  1
  C  C10  1  0.33333300  0.66666700  0.05520600  1
  C  C11  1  0.33333300  0.66666700  0.13269700  1
