# generated using pymatgen
data_Cu29Ni4C3
_symmetry_space_group_name_H-M   'P 1'
_cell_length_a   10.86275200
_cell_length_b   10.86275200
_cell_length_c   7.64417500
_cell_angle_alpha   90.00000000
_cell_angle_beta   90.00000000
_cell_angle_gamma   90.00000000
_symmetry_Int_Tables_number   1
_chemical_formula_structural   Cu29Ni4C3
_chemical_formula_sum   'Cu58 Ni8 C6'
_cell_volume   902.00791836
_cell_formula_units_Z   2
loop_
 _symmetry_equiv_pos_site_id
 _symmetry_equiv_pos_as_xyz
  1  'x, y, z'
loop_
 _atom_site_type_symbol
 _atom_site_label
 _atom_site_symmetry_multiplicity
 _atom_site_fract_x
 _atom_site_fract_y
 _atom_site_fract_z
 _atom_site_occupancy
  C  C0  1  0.00000000  0.00000000  0.50000000  1
  C  C1  1  0.50000000  0.50000000  0.50000000  1
  C  C2  1  0.25000000  0.75000000  0.00000000  1
  C  C3  1  0.25000000  0.25000000  0.00000000  1
  C  C4  1  0.75000000  0.75000000  0.00000000  1
  C  C5  1  0.75000000  0.25000000  0.00000000  1
  Ni  Ni6  1  0.50000000  0.68711300  0.81938800  1
  Ni  Ni7  1  0.50000000  0.31288700  0.81938800  1
  Ni  Ni8  1  0.18711300  0.00000000  0.81938800  1
  Ni  Ni9  1  0.81288700  0.00000000  0.81938800  1
  Ni  Ni10  1  0.00000000  0.81288700  0.18061200  1
  Ni  Ni11  1  0.00000000  0.18711300  0.18061200  1
  Ni  Ni12  1  0.31288700  0.50000000  0.18061200  1
  Ni  Ni13  1  0.68711300  0.50000000  0.18061200  1
  Cu  Cu14  1  0.50000000  0.00000000  0.52489300  1
  Cu  Cu15  1  0.00000000  0.50000000  0.47510700  1
  Cu  Cu16  1  0.50000000  0.77090100  0.51894900  1
  Cu  Cu17  1  0.50000000  0.22909900  0.51894900  1
  Cu  Cu18  1  0.27090100  0.00000000  0.51894900  1
  Cu  Cu19  1  0.72909900  0.00000000  0.51894900  1
  Cu  Cu20  1  0.00000000  0.72909900  0.48105100  1
  Cu  Cu21  1  0.00000000  0.27090100  0.48105100  1
  Cu  Cu22  1  0.22909900  0.50000000  0.48105100  1
  Cu  Cu23  1  0.77090100  0.50000000  0.48105100  1
  Cu  Cu24  1  0.50000000  0.38206800  0.12006800  1
  Cu  Cu25  1  0.50000000  0.61793200  0.12006800  1
  Cu  Cu26  1  0.88206800  0.00000000  0.12006800  1
  Cu  Cu27  1  0.11793200  0.00000000  0.12006800  1
  Cu  Cu28  1  0.00000000  0.11793200  0.87993200  1
  Cu  Cu29  1  0.00000000  0.88206800  0.87993200  1
  Cu  Cu30  1  0.61793200  0.50000000  0.87993200  1
  Cu  Cu31  1  0.38206800  0.50000000  0.87993200  1
  Cu  Cu32  1  0.50000000  0.84117000  0.02864800  1
  Cu  Cu33  1  0.50000000  0.15883000  0.02864800  1
  Cu  Cu34  1  0.34117000  0.00000000  0.02864800  1
  Cu  Cu35  1  0.65883000  0.00000000  0.02864800  1
  Cu  Cu36  1  0.00000000  0.65883000  0.97135200  1
  Cu  Cu37  1  0.00000000  0.34117000  0.97135200  1
  Cu  Cu38  1  0.15883000  0.50000000  0.97135200  1
  Cu  Cu39  1  0.84117000  0.50000000  0.97135200  1
  Cu  Cu40  1  0.61597100  0.11597100  0.75097000  1
  Cu  Cu41  1  0.61597100  0.88402900  0.75097000  1
  Cu  Cu42  1  0.38402900  0.11597100  0.75097000  1
  Cu  Cu43  1  0.38402900  0.88402900  0.75097000  1
  Cu  Cu44  1  0.88402900  0.38402900  0.24903000  1
  Cu  Cu45  1  0.88402900  0.61597100  0.24903000  1
  Cu  Cu46  1  0.11597100  0.38402900  0.24903000  1
  Cu  Cu47  1  0.11597100  0.61597100  0.24903000  1
  Cu  Cu48  1  0.61167600  0.11167600  0.29802100  1
  Cu  Cu49  1  0.61167600  0.88832400  0.29802100  1
  Cu  Cu50  1  0.38832400  0.11167600  0.29802100  1
  Cu  Cu51  1  0.38832400  0.88832400  0.29802100  1
  Cu  Cu52  1  0.88832400  0.38832400  0.70197900  1
  Cu  Cu53  1  0.88832400  0.61167600  0.70197900  1
  Cu  Cu54  1  0.11167600  0.38832400  0.70197900  1
  Cu  Cu55  1  0.11167600  0.61167600  0.70197900  1
  Cu  Cu56  1  0.66501600  0.32334500  0.34185400  1
  Cu  Cu57  1  0.66501600  0.67665500  0.34185400  1
  Cu  Cu58  1  0.33498400  0.32334500  0.34185400  1
  Cu  Cu59  1  0.33498400  0.67665500  0.34185400  1
  Cu  Cu60  1  0.82334500  0.16501600  0.34185400  1
  Cu  Cu61  1  0.82334500  0.83498400  0.34185400  1
  Cu  Cu62  1  0.17665500  0.16501600  0.34185400  1
  Cu  Cu63  1  0.17665500  0.83498400  0.34185400  1
  Cu  Cu64  1  0.83498400  0.17665500  0.65814600  1
  Cu  Cu65  1  0.83498400  0.82334500  0.65814600  1
  Cu  Cu66  1  0.16501600  0.17665500  0.65814600  1
  Cu  Cu67  1  0.16501600  0.82334500  0.65814600  1
  Cu  Cu68  1  0.67665500  0.33498400  0.65814600  1
  Cu  Cu69  1  0.67665500  0.66501600  0.65814600  1
  Cu  Cu70  1  0.32334500  0.33498400  0.65814600  1
  Cu  Cu71  1  0.32334500  0.66501600  0.65814600  1
