# generated using pymatgen
data_Cu3NiC3
_symmetry_space_group_name_H-M   'P 1'
_cell_length_a   9.60246200
_cell_length_b   9.60246200
_cell_length_c   9.60246200
_cell_angle_alpha   90.00000000
_cell_angle_beta   90.00000000
_cell_angle_gamma   90.00000000
_symmetry_Int_Tables_number   1
_chemical_formula_structural   Cu3NiC3
_chemical_formula_sum   'Cu12 Ni4 C12'
_cell_volume   885.41686834
_cell_formula_units_Z   4
loop_
 _symmetry_equiv_pos_site_id
 _symmetry_equiv_pos_as_xyz
  1  'x, y, z'
loop_
 _atom_site_type_symbol
 _atom_site_label
 _atom_site_symmetry_multiplicity
 _atom_site_fract_x
 _atom_site_fract_y
 _atom_site_fract_z
 _atom_site_occupancy
  C  C0  1  0.44039100  0.94039100  0.55960900  1
  C  C1  1  0.94039100  0.55960900  0.44039100  1
  C  C2  1  0.55960900  0.44039100  0.94039100  1
  C  C3  1  0.05960900  0.05960900  0.05960900  1
  C  C4  1  0.93561000  0.43561000  0.06439000  1
  C  C5  1  0.43561000  0.06439000  0.93561000  1
  C  C6  1  0.06439000  0.93561000  0.43561000  1
  C  C7  1  0.56439000  0.56439000  0.56439000  1
  C  C8  1  0.67742700  0.17742700  0.32257300  1
  C  C9  1  0.17742700  0.32257300  0.67742700  1
  C  C10  1  0.32257300  0.67742700  0.17742700  1
  C  C11  1  0.82257300  0.82257300  0.82257300  1
  Ni  Ni12  1  0.22150900  0.72150900  0.77849100  1
  Ni  Ni13  1  0.72150900  0.77849100  0.22150900  1
  Ni  Ni14  1  0.77849100  0.22150900  0.72150900  1
  Ni  Ni15  1  0.27849100  0.27849100  0.27849100  1
  Cu  Cu16  1  0.15121900  0.96630000  0.75394600  1
  Cu  Cu17  1  0.24605400  0.65121900  0.53370000  1
  Cu  Cu18  1  0.46630000  0.74605400  0.84878100  1
  Cu  Cu19  1  0.65121900  0.53370000  0.24605400  1
  Cu  Cu20  1  0.74605400  0.84878100  0.46630000  1
  Cu  Cu21  1  0.96630000  0.75394600  0.15121900  1
  Cu  Cu22  1  0.84878100  0.46630000  0.74605400  1
  Cu  Cu23  1  0.75394600  0.15121900  0.96630000  1
  Cu  Cu24  1  0.53370000  0.24605400  0.65121900  1
  Cu  Cu25  1  0.34878100  0.03370000  0.25394600  1
  Cu  Cu26  1  0.25394600  0.34878100  0.03370000  1
  Cu  Cu27  1  0.03370000  0.25394600  0.34878100  1
