# generated using pymatgen
data_CuNiC8
_symmetry_space_group_name_H-M   'P 1'
_cell_length_a   5.61376740
_cell_length_b   8.00638500
_cell_length_c   5.61376528
_cell_angle_alpha   90.00000000
_cell_angle_beta   89.99999278
_cell_angle_gamma   90.00000000
_symmetry_Int_Tables_number   1
_chemical_formula_structural   CuNiC8
_chemical_formula_sum   'Cu2 Ni2 C16'
_cell_volume   252.31619981
_cell_formula_units_Z   2
loop_
 _symmetry_equiv_pos_site_id
 _symmetry_equiv_pos_as_xyz
  1  'x, y, z'
loop_
 _atom_site_type_symbol
 _atom_site_label
 _atom_site_symmetry_multiplicity
 _atom_site_fract_x
 _atom_site_fract_y
 _atom_site_fract_z
 _atom_site_occupancy
  C  C0  1  0.50001500  0.25000200  0.00001300  1
  C  C1  1  0.00001400  0.75000300  0.50001200  1
  C  C2  1  0.50001500  0.75000300  0.00001300  1
  C  C3  1  0.00001400  0.25000200  0.50001200  1
  Ni  Ni4  1  0.49984200  0.50000700  0.49998600  1
  Ni  Ni5  1  0.99991400  0.99995100  0.99980300  1
  Cu  Cu6  1  0.50001000  0.00000200  0.50000600  1
  Cu  Cu7  1  0.00000500  0.50000000  0.00001000  1
  C  C8  1  0.00001500  0.25362200  0.00001100  1
  C  C9  1  0.50001300  0.75362100  0.50001300  1
  C  C10  1  0.24752200  0.50000300  0.24752000  1
  C  C11  1  0.74752400  0.00000200  0.74752200  1
  C  C12  1  0.24752300  0.50000300  0.75250400  1
  C  C13  1  0.74752500  0.00000200  0.25250200  1
  C  C14  1  0.00001500  0.74638300  0.00001100  1
  C  C15  1  0.50001300  0.24638300  0.50001300  1
  C  C16  1  0.75250700  0.50000300  0.75250500  1
  C  C17  1  0.25250500  0.00000200  0.25250300  1
  C  C18  1  0.75250600  0.50000300  0.24752000  1
  C  C19  1  0.25250300  0.00000200  0.74752300  1
