# generated using pymatgen
data_Cu5Ni2C
_symmetry_space_group_name_H-M   'P 1'
_cell_length_a   6.75197000
_cell_length_b   10.82900700
_cell_length_c   11.64012600
_cell_angle_alpha   90.00000000
_cell_angle_beta   90.00000000
_cell_angle_gamma   90.00000000
_symmetry_Int_Tables_number   1
_chemical_formula_structural   Cu5Ni2C
_chemical_formula_sum   'Cu20 Ni8 C4'
_cell_volume   851.09261054
_cell_formula_units_Z   4
loop_
 _symmetry_equiv_pos_site_id
 _symmetry_equiv_pos_as_xyz
  1  'x, y, z'
loop_
 _atom_site_type_symbol
 _atom_site_label
 _atom_site_symmetry_multiplicity
 _atom_site_fract_x
 _atom_site_fract_y
 _atom_site_fract_z
 _atom_site_occupancy
  C  C0  1  0.25000000  0.25000000  0.80187700  1
  C  C1  1  0.75000000  0.75000000  0.69812300  1
  C  C2  1  0.75000000  0.75000000  0.19812300  1
  C  C3  1  0.25000000  0.25000000  0.30187700  1
  Ni  Ni4  1  0.24637200  0.55934200  0.52727600  1
  Ni  Ni5  1  0.25362800  0.94065800  0.52727600  1
  Ni  Ni6  1  0.74637200  0.44065800  0.97272400  1
  Ni  Ni7  1  0.75362800  0.05934200  0.97272400  1
  Ni  Ni8  1  0.75362800  0.44065800  0.47272400  1
  Ni  Ni9  1  0.74637200  0.05934200  0.47272400  1
  Ni  Ni10  1  0.25362800  0.55934200  0.02727600  1
  Ni  Ni11  1  0.24637200  0.94065800  0.02727600  1
  Cu  Cu12  1  0.07139700  0.13447600  0.56429300  1
  Cu  Cu13  1  0.42860300  0.36552400  0.56429300  1
  Cu  Cu14  1  0.57139700  0.86552400  0.93570700  1
  Cu  Cu15  1  0.92860300  0.63447600  0.93570700  1
  Cu  Cu16  1  0.92860300  0.86552400  0.43570700  1
  Cu  Cu17  1  0.57139700  0.63447600  0.43570700  1
  Cu  Cu18  1  0.42860300  0.13447600  0.06429300  1
  Cu  Cu19  1  0.07139700  0.36552400  0.06429300  1
  Cu  Cu20  1  0.04957700  0.97181300  0.85178000  1
  Cu  Cu21  1  0.45042300  0.52818700  0.85178000  1
  Cu  Cu22  1  0.54957700  0.02818700  0.64822000  1
  Cu  Cu23  1  0.95042300  0.47181300  0.64822000  1
  Cu  Cu24  1  0.95042300  0.02818700  0.14822000  1
  Cu  Cu25  1  0.54957700  0.47181300  0.14822000  1
  Cu  Cu26  1  0.45042300  0.97181300  0.35178000  1
  Cu  Cu27  1  0.04957700  0.52818700  0.35178000  1
  Cu  Cu28  1  0.75000000  0.25000000  0.84713000  1
  Cu  Cu29  1  0.25000000  0.75000000  0.65287000  1
  Cu  Cu30  1  0.25000000  0.75000000  0.15287000  1
  Cu  Cu31  1  0.75000000  0.25000000  0.34713000  1
