# generated using pymatgen
data_CuNiC
_symmetry_space_group_name_H-M   'P 1'
_cell_length_a   3.43781824
_cell_length_b   3.43781824
_cell_length_c   39.16381800
_cell_angle_alpha   90.00000000
_cell_angle_beta   90.00000000
_cell_angle_gamma   120.00000464
_symmetry_Int_Tables_number   1
_chemical_formula_structural   CuNiC
_chemical_formula_sum   'Cu4 Ni4 C4'
_cell_volume   400.84960347
_cell_formula_units_Z   4
loop_
 _symmetry_equiv_pos_site_id
 _symmetry_equiv_pos_as_xyz
  1  'x, y, z'
loop_
 _atom_site_type_symbol
 _atom_site_label
 _atom_site_symmetry_multiplicity
 _atom_site_fract_x
 _atom_site_fract_y
 _atom_site_fract_z
 _atom_site_occupancy
  Ni  Ni0  1  0.00000000  0.00000000  0.70524500  1
  Ni  Ni1  1  0.33333300  0.66666700  0.04658600  1
  Ni  Ni2  1  0.33333300  0.66666700  0.14125800  1
  Ni  Ni3  1  0.00000000  0.00000000  0.60981600  1
  C  C4  1  0.00000000  0.00000000  0.09392400  1
  C  C5  1  0.00000000  0.00000000  0.46964700  1
  C  C6  1  0.33333300  0.66666700  0.28181500  1
  C  C7  1  0.33333300  0.66666700  0.65753200  1
  Cu  Cu8  1  0.00000000  0.00000000  0.32376100  1
  Cu  Cu9  1  0.33333300  0.66666700  0.42770300  1
  Cu  Cu10  1  0.33333300  0.66666700  0.51161600  1
  Cu  Cu11  1  0.00000000  0.00000000  0.23984400  1
