# generated using pymatgen
data_Cu2Ni6C
_symmetry_space_group_name_H-M   'P 1'
_cell_length_a   7.44603500
_cell_length_b   9.79519312
_cell_length_c   9.85019595
_cell_angle_alpha   90.38950260
_cell_angle_beta   95.68265049
_cell_angle_gamma   90.03770509
_symmetry_Int_Tables_number   1
_chemical_formula_structural   Cu2Ni6C
_chemical_formula_sum   'Cu4 Ni12 C2'
_cell_volume   714.87969762
_cell_formula_units_Z   2
loop_
 _symmetry_equiv_pos_site_id
 _symmetry_equiv_pos_as_xyz
  1  'x, y, z'
loop_
 _atom_site_type_symbol
 _atom_site_label
 _atom_site_symmetry_multiplicity
 _atom_site_fract_x
 _atom_site_fract_y
 _atom_site_fract_z
 _atom_site_occupancy
  C  C0  1  0.50763600  0.48551700  0.99810700  1
  C  C1  1  0.00309500  0.01122800  0.49460000  1
  Ni  Ni2  1  0.54965900  0.47726000  0.72813000  1
  Ni  Ni3  1  0.02805100  0.01994900  0.22114400  1
  Ni  Ni4  1  0.51002600  0.48905100  0.26995600  1
  Ni  Ni5  1  0.00648400  0.00493800  0.76629800  1
  Ni  Ni6  1  0.39096700  0.23020100  0.98727100  1
  Ni  Ni7  1  0.55658400  0.76987400  0.00151200  1
  Ni  Ni8  1  0.90932900  0.27208000  0.49435900  1
  Ni  Ni9  1  0.05282700  0.72946300  0.49342800  1
  Ni  Ni10  1  0.85776500  0.40123700  0.02508300  1
  Ni  Ni11  1  0.19390900  0.63771900  0.95589800  1
  Ni  Ni12  1  0.68513400  0.86365300  0.44882200  1
  Ni  Ni13  1  0.35100400  0.10030400  0.50941000  1
  Cu  Cu14  1  0.47903800  0.03487600  0.66162200  1
  Cu  Cu15  1  0.97398000  0.47050700  0.18058200  1
  Cu  Cu16  1  0.97155000  0.51466600  0.88968500  1
  Cu  Cu17  1  0.47296100  0.98747500  0.37409400  1
