# generated using pymatgen
data_CuNiC23
_symmetry_space_group_name_H-M   'P 1'
_cell_length_a   9.71158500
_cell_length_b   10.99892800
_cell_length_c   16.02131593
_cell_angle_alpha   68.56286102
_cell_angle_beta   90.00000000
_cell_angle_gamma   90.00000000
_symmetry_Int_Tables_number   1
_chemical_formula_structural   CuNiC23
_chemical_formula_sum   'Cu4 Ni4 C92'
_cell_volume   1592.95662031
_cell_formula_units_Z   4
loop_
 _symmetry_equiv_pos_site_id
 _symmetry_equiv_pos_as_xyz
  1  'x, y, z'
loop_
 _atom_site_type_symbol
 _atom_site_label
 _atom_site_symmetry_multiplicity
 _atom_site_fract_x
 _atom_site_fract_y
 _atom_site_fract_z
 _atom_site_occupancy
  Ni  Ni0  1  0.38265400  0.81999500  0.51045500  1
  Ni  Ni1  1  0.61734600  0.18000500  0.48954500  1
  Ni  Ni2  1  0.88265400  0.18000500  0.98954500  1
  Ni  Ni3  1  0.11734600  0.81999500  0.01045500  1
  Cu  Cu4  1  0.87062500  0.38835900  0.21049200  1
  Cu  Cu5  1  0.12937500  0.61164100  0.78950800  1
  Cu  Cu6  1  0.37062500  0.61164100  0.28950800  1
  Cu  Cu7  1  0.62937500  0.38835900  0.71049200  1
  C  C8  1  0.12123300  0.95310600  0.24514000  1
  C  C9  1  0.87876700  0.04689400  0.75486000  1
  C  C10  1  0.62123300  0.04689400  0.25486000  1
  C  C11  1  0.37876700  0.95310600  0.74514000  1
  C  C12  1  0.62348400  0.75361900  0.06064700  1
  C  C13  1  0.37651600  0.24638100  0.93935300  1
  C  C14  1  0.12348400  0.24638100  0.43935300  1
  C  C15  1  0.87651600  0.75361900  0.56064700  1
  C  C16  1  0.75866900  0.57672500  0.40019800  1
  C  C17  1  0.24133100  0.42327500  0.59980200  1
  C  C18  1  0.25866900  0.42327500  0.09980200  1
  C  C19  1  0.74133100  0.57672500  0.90019800  1
  C  C20  1  0.40316300  0.95591600  0.12224300  1
  C  C21  1  0.59683700  0.04408400  0.87775700  1
  C  C22  1  0.90316300  0.04408400  0.37775700  1
  C  C23  1  0.09683700  0.95591600  0.62224300  1
  C  C24  1  0.82654000  0.83842900  0.20051300  1
  C  C25  1  0.17346000  0.16157100  0.79948700  1
  C  C26  1  0.32654000  0.16157100  0.29948700  1
  C  C27  1  0.67346000  0.83842900  0.70051300  1
  C  C28  1  0.59574800  0.33176700  0.06818300  1
  C  C29  1  0.40425200  0.66823300  0.93181700  1
  C  C30  1  0.09574800  0.66823300  0.43181700  1
  C  C31  1  0.90425200  0.33176700  0.56818300  1
  C  C32  1  0.44433300  0.73223400  0.00107800  1
  C  C33  1  0.55566700  0.26776600  0.99892200  1
  C  C34  1  0.94433300  0.26776600  0.49892200  1
  C  C35  1  0.05566700  0.73223400  0.50107800  1
  C  C36  1  0.57686400  0.90315500  0.33877500  1
  C  C37  1  0.42313600  0.09684500  0.66122500  1
  C  C38  1  0.07686400  0.09684500  0.16122500  1
  C  C39  1  0.92313600  0.90315500  0.83877500  1
  C  C40  1  0.97553900  0.95675400  0.33460000  1
  C  C41  1  0.02446100  0.04324600  0.66540000  1
  C  C42  1  0.47553900  0.04324600  0.16540000  1
  C  C43  1  0.52446100  0.95675400  0.83460000  1
  C  C44  1  0.70698200  0.43958600  0.02373100  1
  C  C45  1  0.29301800  0.56041400  0.97626900  1
  C  C46  1  0.20698200  0.56041400  0.47626900  1
  C  C47  1  0.79301800  0.43958600  0.52373100  1
  C  C48  1  0.58532600  0.59478300  0.41998400  1
  C  C49  1  0.41467400  0.40521700  0.58001600  1
  C  C50  1  0.08532600  0.40521700  0.08001600  1
  C  C51  1  0.91467400  0.59478300  0.91998400  1
  C  C52  1  0.27111100  0.89321300  0.17767600  1
  C  C53  1  0.72888900  0.10678700  0.82232400  1
  C  C54  1  0.77111100  0.10678700  0.32232400  1
  C  C55  1  0.22888900  0.89321300  0.67767600  1
  C  C56  1  0.49417100  0.83624300  0.12972400  1
  C  C57  1  0.50582900  0.16375700  0.87027600  1
  C  C58  1  0.99417100  0.16375700  0.37027600  1
  C  C59  1  0.00582900  0.83624300  0.62972400  1
  C  C60  1  0.61692200  0.60488600  0.14889500  1
  C  C61  1  0.38307800  0.39511400  0.85110500  1
  C  C62  1  0.11692200  0.39511400  0.35110500  1
  C  C63  1  0.88307800  0.60488600  0.64889500  1
  C  C64  1  0.97186600  0.60809600  0.40221300  1
  C  C65  1  0.02813400  0.39190400  0.59778700  1
  C  C66  1  0.47186600  0.39190400  0.09778700  1
  C  C67  1  0.52813400  0.60809600  0.90221300  1
  C  C68  1  0.98583800  0.84177400  0.20135900  1
  C  C69  1  0.01416200  0.15822600  0.79864100  1
  C  C70  1  0.48583800  0.15822600  0.29864100  1
  C  C71  1  0.51416200  0.84177400  0.70135900  1
  C  C72  1  0.76583000  0.97212700  0.19174800  1
  C  C73  1  0.23417000  0.02787300  0.80825200  1
  C  C74  1  0.26583000  0.02787300  0.30825200  1
  C  C75  1  0.73417000  0.97212700  0.69174800  1
  C  C76  1  0.76611800  0.73085300  0.28399700  1
  C  C77  1  0.23388200  0.26914700  0.71600300  1
  C  C78  1  0.26611800  0.26914700  0.21600300  1
  C  C79  1  0.73388200  0.73085300  0.78399700  1
  C  C80  1  0.79142800  0.80998900  0.11458200  1
  C  C81  1  0.20857200  0.19001100  0.88541800  1
  C  C82  1  0.29142800  0.19001100  0.38541800  1
  C  C83  1  0.70857200  0.80998900  0.61458200  1
  C  C84  1  0.67179400  0.23165900  0.14794800  1
  C  C85  1  0.32820600  0.76834100  0.85205200  1
  C  C86  1  0.17179400  0.76834100  0.35205200  1
  C  C87  1  0.82820600  0.23165900  0.64794800  1
  C  C88  1  0.86257800  0.96204900  0.47400400  1
  C  C89  1  0.13742200  0.03795100  0.52599600  1
  C  C90  1  0.36257800  0.03795100  0.02599600  1
  C  C91  1  0.63742200  0.96204900  0.97400400  1
  C  C92  1  0.78392800  0.71391700  0.47874300  1
  C  C93  1  0.21607200  0.28608300  0.52125700  1
  C  C94  1  0.28392800  0.28608300  0.02125700  1
  C  C95  1  0.71607200  0.71391700  0.97874300  1
  C  C96  1  0.75681100  0.46008500  0.35051200  1
  C  C97  1  0.24318900  0.53991500  0.64948800  1
  C  C98  1  0.25681100  0.53991500  0.14948800  1
  C  C99  1  0.74318900  0.46008500  0.85051200  1
