# generated using pymatgen
data_Cu2NiC3
_symmetry_space_group_name_H-M   'P 1'
_cell_length_a   7.30188735
_cell_length_b   7.30188735
_cell_length_c   7.30188774
_cell_angle_alpha   33.49134939
_cell_angle_beta   33.49134939
_cell_angle_gamma   33.49135199
_symmetry_Int_Tables_number   1
_chemical_formula_structural   Cu2NiC3
_chemical_formula_sum   'Cu2 Ni1 C3'
_cell_volume   105.58011334
_cell_formula_units_Z   1
loop_
 _symmetry_equiv_pos_site_id
 _symmetry_equiv_pos_as_xyz
  1  'x, y, z'
loop_
 _atom_site_type_symbol
 _atom_site_label
 _atom_site_symmetry_multiplicity
 _atom_site_fract_x
 _atom_site_fract_y
 _atom_site_fract_z
 _atom_site_occupancy
  C  C0  1  0.12624600  0.12624600  0.12624600  1
  C  C1  1  0.62441700  0.62441700  0.62441700  1
  Ni  Ni2  1  0.87533900  0.87533900  0.87533900  1
  C  C3  1  0.37542600  0.37542600  0.37542600  1
  Cu  Cu4  1  0.99485400  0.99485400  0.99485400  1
  Cu  Cu5  1  0.50371700  0.50371700  0.50371700  1
