# generated using pymatgen
data_Cu10Ni2C7
_symmetry_space_group_name_H-M   'P 1'
_cell_length_a   7.48758017
_cell_length_b   7.96155786
_cell_length_c   11.69207185
_cell_angle_alpha   81.80724684
_cell_angle_beta   72.33869558
_cell_angle_gamma   61.95387413
_symmetry_Int_Tables_number   1
_chemical_formula_structural   Cu10Ni2C7
_chemical_formula_sum   'Cu20 Ni4 C14'
_cell_volume   586.15430414
_cell_formula_units_Z   2
loop_
 _symmetry_equiv_pos_site_id
 _symmetry_equiv_pos_as_xyz
  1  'x, y, z'
loop_
 _atom_site_type_symbol
 _atom_site_label
 _atom_site_symmetry_multiplicity
 _atom_site_fract_x
 _atom_site_fract_y
 _atom_site_fract_z
 _atom_site_occupancy
  C  C0  1  0.49980900  0.99999500  0.50012500  1
  C  C1  1  0.37204400  0.25590400  0.74995500  1
  C  C2  1  0.62794200  0.74427900  0.74996500  1
  C  C3  1  0.50003200  0.99999700  0.99999400  1
  C  C4  1  0.37198300  0.25629800  0.24988200  1
  C  C5  1  0.62828200  0.74368000  0.25000900  1
  C  C6  1  0.99549000  0.32278000  0.11172100  1
  C  C7  1  0.99538100  0.32289800  0.61171300  1
  C  C8  1  0.31847700  0.67704200  0.11168700  1
  C  C9  1  0.31842400  0.67694300  0.61165800  1
  C  C10  1  0.00456300  0.67719100  0.38829300  1
  C  C11  1  0.00459200  0.67706500  0.88830900  1
  C  C12  1  0.68156800  0.32294400  0.38834100  1
  C  C13  1  0.68153100  0.32308200  0.88836100  1
  Ni  Ni14  1  0.30112200  0.00001400  0.37366900  1
  Ni  Ni15  1  0.30113300  0.00003700  0.87364300  1
  Ni  Ni16  1  0.69925300  0.99996400  0.12637100  1
  Ni  Ni17  1  0.69930100  0.99996700  0.62638200  1
  Cu  Cu18  1  0.88882600  0.22192200  0.24997900  1
  Cu  Cu19  1  0.88889400  0.22195700  0.75002000  1
  Cu  Cu20  1  0.11088300  0.77806900  0.24997000  1
  Cu  Cu21  1  0.11100300  0.77804800  0.74998400  1
  Cu  Cu22  1  0.90912900  0.55322100  0.14399400  1
  Cu  Cu23  1  0.90905500  0.55331900  0.64400600  1
  Cu  Cu24  1  0.46252400  0.44665400  0.14393100  1
  Cu  Cu25  1  0.46259600  0.44660400  0.64391100  1
  Cu  Cu26  1  0.09087100  0.44679600  0.35585200  1
  Cu  Cu27  1  0.09102900  0.44672600  0.85581600  1
  Cu  Cu28  1  0.53749500  0.55327600  0.35593400  1
  Cu  Cu29  1  0.53752500  0.55336100  0.85591100  1
  Cu  Cu30  1  0.25208900  0.21870900  0.11887600  1
  Cu  Cu31  1  0.25202100  0.21874500  0.61889700  1
  Cu  Cu32  1  0.47092500  0.78118800  0.11887200  1
  Cu  Cu33  1  0.47080400  0.78122100  0.61885000  1
  Cu  Cu34  1  0.74771100  0.78132800  0.38130600  1
  Cu  Cu35  1  0.74775200  0.78130400  0.88123000  1
  Cu  Cu36  1  0.52893800  0.21872400  0.38131700  1
  Cu  Cu37  1  0.52900100  0.21875000  0.88126800  1
