# generated using pymatgen
data_Cu2NiC6
_symmetry_space_group_name_H-M   'P 1'
_cell_length_a   5.91726159
_cell_length_b   5.91726159
_cell_length_c   7.27317954
_cell_angle_alpha   97.72793756
_cell_angle_beta   97.72793756
_cell_angle_gamma   119.60238364
_symmetry_Int_Tables_number   1
_chemical_formula_structural   Cu2NiC6
_chemical_formula_sum   'Cu2 Ni1 C6'
_cell_volume   213.36404480
_cell_formula_units_Z   1
loop_
 _symmetry_equiv_pos_site_id
 _symmetry_equiv_pos_as_xyz
  1  'x, y, z'
loop_
 _atom_site_type_symbol
 _atom_site_label
 _atom_site_symmetry_multiplicity
 _atom_site_fract_x
 _atom_site_fract_y
 _atom_site_fract_z
 _atom_site_occupancy
  Ni  Ni0  1  0.81425200  0.18574800  0.00000000  1
  Cu  Cu1  1  0.53507800  0.57304800  0.16062700  1
  Cu  Cu2  1  0.42695200  0.46492200  0.83937300  1
  C  C3  1  0.87564700  0.56582500  0.22797700  1
  C  C4  1  0.58531000  0.94118400  0.22985300  1
  C  C5  1  0.05881600  0.41469000  0.77014700  1
  C  C6  1  0.43417500  0.12435300  0.77202300  1
  C  C7  1  0.21415000  0.27927900  0.23174000  1
  C  C8  1  0.72072100  0.78585000  0.76826000  1
