# generated using pymatgen
data_Cu9Ni2C5
_symmetry_space_group_name_H-M   'P 1'
_cell_length_a   7.18058700
_cell_length_b   6.48487200
_cell_length_c   10.08099507
_cell_angle_alpha   75.12144461
_cell_angle_beta   90.00000000
_cell_angle_gamma   90.00000000
_symmetry_Int_Tables_number   1
_chemical_formula_structural   Cu9Ni2C5
_chemical_formula_sum   'Cu18 Ni4 C10'
_cell_volume   453.68471572
_cell_formula_units_Z   2
loop_
 _symmetry_equiv_pos_site_id
 _symmetry_equiv_pos_as_xyz
  1  'x, y, z'
loop_
 _atom_site_type_symbol
 _atom_site_label
 _atom_site_symmetry_multiplicity
 _atom_site_fract_x
 _atom_site_fract_y
 _atom_site_fract_z
 _atom_site_occupancy
  C  C0  1  0.25000000  0.33302400  0.02621100  1
  C  C1  1  0.75000000  0.66697600  0.97378900  1
  C  C2  1  0.13927600  0.58900000  0.75025400  1
  C  C3  1  0.63927600  0.41100000  0.24974600  1
  C  C4  1  0.86072400  0.41100000  0.24974600  1
  C  C5  1  0.36072400  0.58900000  0.75025400  1
  C  C6  1  0.25000000  0.83026400  0.01298800  1
  C  C7  1  0.75000000  0.16973600  0.98701200  1
  C  C8  1  0.25000000  0.27270200  0.35433800  1
  C  C9  1  0.75000000  0.72729800  0.64566200  1
  Ni  Ni10  1  0.50308600  0.19614900  0.66468900  1
  Ni  Ni11  1  0.00308600  0.80385100  0.33531100  1
  Ni  Ni12  1  0.49691400  0.80385100  0.33531100  1
  Ni  Ni13  1  0.99691400  0.19614900  0.66468900  1
  Cu  Cu14  1  0.25000000  0.01683200  0.89142600  1
  Cu  Cu15  1  0.75000000  0.98316800  0.10857400  1
  Cu  Cu16  1  0.25000000  0.50709500  0.79143300  1
  Cu  Cu17  1  0.75000000  0.49290500  0.20856700  1
  Cu  Cu18  1  0.25000000  0.07240400  0.46725200  1
  Cu  Cu19  1  0.75000000  0.92759600  0.53274800  1
  Cu  Cu20  1  0.25000000  0.43798600  0.43433700  1
  Cu  Cu21  1  0.75000000  0.56201400  0.56566300  1
  Cu  Cu22  1  0.41557100  0.28839500  0.26491000  1
  Cu  Cu23  1  0.91557100  0.71160500  0.73509000  1
  Cu  Cu24  1  0.58442900  0.71160500  0.73509000  1
  Cu  Cu25  1  0.08442900  0.28839500  0.26491000  1
  Cu  Cu26  1  0.25000000  0.94047800  0.12773900  1
  Cu  Cu27  1  0.75000000  0.05952200  0.87226100  1
  Cu  Cu28  1  0.41568900  0.69149000  0.01976700  1
  Cu  Cu29  1  0.91568900  0.30851000  0.98023300  1
  Cu  Cu30  1  0.58431100  0.30851000  0.98023300  1
  Cu  Cu31  1  0.08431100  0.69149000  0.01976700  1
