# generated using pymatgen
data_Cu54Ni2C13
_symmetry_space_group_name_H-M   'P 1'
_cell_length_a   10.39613867
_cell_length_b   10.39613867
_cell_length_c   10.39613886
_cell_angle_alpha   77.83449460
_cell_angle_beta   77.83449460
_cell_angle_gamma   77.83449232
_symmetry_Int_Tables_number   1
_chemical_formula_structural   Cu54Ni2C13
_chemical_formula_sum   'Cu54 Ni2 C13'
_cell_volume   1057.32273173
_cell_formula_units_Z   1
loop_
 _symmetry_equiv_pos_site_id
 _symmetry_equiv_pos_as_xyz
  1  'x, y, z'
loop_
 _atom_site_type_symbol
 _atom_site_label
 _atom_site_symmetry_multiplicity
 _atom_site_fract_x
 _atom_site_fract_y
 _atom_site_fract_z
 _atom_site_occupancy
  C  C0  1  -0.00000000  0.00000000  -0.00000000  1
  C  C1  1  0.15457368  0.06393037  0.65534342  1
  C  C2  1  0.06393037  0.65534342  0.15457368  1
  C  C3  1  0.65534342  0.15457368  0.06393037  1
  C  C4  1  0.84542632  0.93606963  0.34465658  1
  C  C5  1  0.93606963  0.34465658  0.84542632  1
  C  C6  1  0.34465658  0.84542632  0.93606963  1
  C  C7  1  0.83286385  0.06203715  0.71857831  1
  C  C8  1  0.06203715  0.71857831  0.83286385  1
  C  C9  1  0.71857831  0.83286385  0.06203715  1
  C  C10  1  0.16713615  0.93796285  0.28142169  1
  C  C11  1  0.93796285  0.28142169  0.16713615  1
  C  C12  1  0.28142169  0.16713615  0.93796285  1
  Ni  Ni13  1  0.69006223  0.69006223  0.69006223  1
  Ni  Ni14  1  0.30993777  0.30993777  0.30993777  1
  Cu  Cu15  1  0.21465420  0.20839097  0.58029004  1
  Cu  Cu16  1  0.20839097  0.58029004  0.21465420  1
  Cu  Cu17  1  0.58029004  0.21465420  0.20839097  1
  Cu  Cu18  1  0.78534580  0.79160903  0.41970996  1
  Cu  Cu19  1  0.79160903  0.41970996  0.78534580  1
  Cu  Cu20  1  0.41970996  0.78534580  0.79160903  1
  Cu  Cu21  1  0.97468839  0.17049359  0.78509501  1
  Cu  Cu22  1  0.17049359  0.78509501  0.97468839  1
  Cu  Cu23  1  0.78509501  0.97468839  0.17049359  1
  Cu  Cu24  1  0.02531161  0.82950641  0.21490499  1
  Cu  Cu25  1  0.82950641  0.21490499  0.02531161  1
  Cu  Cu26  1  0.21490499  0.02531161  0.82950641  1
  Cu  Cu27  1  0.26369649  0.93686761  0.57787078  1
  Cu  Cu28  1  0.93686761  0.57787078  0.26369649  1
  Cu  Cu29  1  0.57787078  0.26369649  0.93686761  1
  Cu  Cu30  1  0.73630351  0.06313239  0.42212922  1
  Cu  Cu31  1  0.06313239  0.42212922  0.73630351  1
  Cu  Cu32  1  0.42212922  0.73630351  0.06313239  1
  Cu  Cu33  1  0.02565648  0.91342088  0.78783096  1
  Cu  Cu34  1  0.91342088  0.78783096  0.02565648  1
  Cu  Cu35  1  0.78783096  0.02565648  0.91342088  1
  Cu  Cu36  1  0.97434352  0.08657912  0.21216904  1
  Cu  Cu37  1  0.08657912  0.21216904  0.97434352  1
  Cu  Cu38  1  0.21216904  0.97434352  0.08657912  1
  Cu  Cu39  1  0.99296768  0.08350469  0.57423965  1
  Cu  Cu40  1  0.08350469  0.57423965  0.99296768  1
  Cu  Cu41  1  0.57423965  0.99296768  0.08350469  1
  Cu  Cu42  1  0.00703232  0.91649531  0.42576035  1
  Cu  Cu43  1  0.91649531  0.42576035  0.00703232  1
  Cu  Cu44  1  0.42576035  0.00703232  0.91649531  1
  Cu  Cu45  1  0.72174752  0.20497401  0.67049807  1
  Cu  Cu46  1  0.20497401  0.67049807  0.72174752  1
  Cu  Cu47  1  0.67049807  0.72174752  0.20497401  1
  Cu  Cu48  1  0.27825248  0.79502599  0.32950193  1
  Cu  Cu49  1  0.79502599  0.32950193  0.27825248  1
  Cu  Cu50  1  0.32950193  0.27825248  0.79502599  1
  Cu  Cu51  1  0.77721551  0.93400565  0.67536138  1
  Cu  Cu52  1  0.93400565  0.67536138  0.77721551  1
  Cu  Cu53  1  0.67536138  0.77721551  0.93400565  1
  Cu  Cu54  1  0.22278449  0.06599435  0.32463862  1
  Cu  Cu55  1  0.06599435  0.32463862  0.22278449  1
  Cu  Cu56  1  0.32463862  0.22278449  0.06599435  1
  Cu  Cu57  1  0.95228787  0.44139976  0.44797969  1
  Cu  Cu58  1  0.44139976  0.44797969  0.95228787  1
  Cu  Cu59  1  0.44797969  0.95228787  0.44139976  1
  Cu  Cu60  1  0.04771213  0.55860024  0.55202031  1
  Cu  Cu61  1  0.55860024  0.55202031  0.04771213  1
  Cu  Cu62  1  0.55202031  0.04771213  0.55860024  1
  Cu  Cu63  1  0.50862124  0.44646717  0.75298105  1
  Cu  Cu64  1  0.44646717  0.75298105  0.50862124  1
  Cu  Cu65  1  0.75298105  0.50862124  0.44646717  1
  Cu  Cu66  1  0.49137876  0.55353283  0.24701895  1
  Cu  Cu67  1  0.55353283  0.24701895  0.49137876  1
  Cu  Cu68  1  0.24701895  0.49137876  0.55353283  1
