# generated using pymatgen
data_Cu7Ni2C3
_symmetry_space_group_name_H-M   'P 1'
_cell_length_a   14.09251740
_cell_length_b   14.09251740
_cell_length_c   4.65422600
_cell_angle_alpha   90.00000000
_cell_angle_beta   90.00000000
_cell_angle_gamma   160.98305958
_symmetry_Int_Tables_number   1
_chemical_formula_structural   Cu7Ni2C3
_chemical_formula_sum   'Cu7 Ni2 C3'
_cell_volume   301.18912349
_cell_formula_units_Z   1
loop_
 _symmetry_equiv_pos_site_id
 _symmetry_equiv_pos_as_xyz
  1  'x, y, z'
loop_
 _atom_site_type_symbol
 _atom_site_label
 _atom_site_symmetry_multiplicity
 _atom_site_fract_x
 _atom_site_fract_y
 _atom_site_fract_z
 _atom_site_occupancy
  C  C0  1  0.18434900  0.81565100  0.00000000  1
  C  C1  1  0.81565100  0.18434900  0.00000000  1
  C  C2  1  0.50000000  0.50000000  0.50000000  1
  Ni  Ni3  1  0.37200900  0.62799100  0.50000000  1
  Ni  Ni4  1  0.62799100  0.37200900  0.50000000  1
  Cu  Cu5  1  0.08935000  0.91065000  0.50000000  1
  Cu  Cu6  1  0.91065000  0.08935000  0.50000000  1
  Cu  Cu7  1  0.28151000  0.71849000  0.50000000  1
  Cu  Cu8  1  0.71849000  0.28151000  0.50000000  1
  Cu  Cu9  1  0.00000000  0.00000000  0.00000000  1
  Cu  Cu10  1  0.58920800  0.41079200  0.00000000  1
  Cu  Cu11  1  0.41079200  0.58920800  0.00000000  1
