# generated using pymatgen
data_CuNiC11
_symmetry_space_group_name_H-M   'P 1'
_cell_length_a   8.41883145
_cell_length_b   9.29786657
_cell_length_c   26.01601434
_cell_angle_alpha   90.00000000
_cell_angle_beta   90.00000000
_cell_angle_gamma   90.00000000
_symmetry_Int_Tables_number   1
_chemical_formula_structural   CuNiC11
_chemical_formula_sum   'Cu16 Ni16 C176'
_cell_volume   2036.46001617
_cell_formula_units_Z   16
loop_
 _symmetry_equiv_pos_site_id
 _symmetry_equiv_pos_as_xyz
  1  'x, y, z'
loop_
 _atom_site_type_symbol
 _atom_site_label
 _atom_site_symmetry_multiplicity
 _atom_site_fract_x
 _atom_site_fract_y
 _atom_site_fract_z
 _atom_site_occupancy
  Ni  Ni0  1  0.36112291  0.03355236  0.54350307  1
  Ni  Ni1  1  0.13887709  0.53355236  0.95649693  1
  Ni  Ni2  1  0.63887709  0.96644764  0.04350307  1
  Ni  Ni3  1  0.86112291  0.46644764  0.45649693  1
  Ni  Ni4  1  0.63887709  0.96644764  0.45649693  1
  Ni  Ni5  1  0.86112291  0.46644764  0.04350307  1
  Ni  Ni6  1  0.36112291  0.03355236  0.95649693  1
  Ni  Ni7  1  0.13887709  0.53355236  0.54350307  1
  Ni  Ni8  1  -0.00000000  -0.00000000  0.50000000  1
  Ni  Ni9  1  0.50000000  0.50000000  -0.00000000  1
  Ni  Ni10  1  -0.00000000  -0.00000000  -0.00000000  1
  Ni  Ni11  1  0.50000000  0.50000000  0.50000000  1
  Ni  Ni12  1  0.94922206  0.49569105  0.25000000  1
  Ni  Ni13  1  0.55077794  0.99569105  0.25000000  1
  Ni  Ni14  1  0.05077794  0.50430895  0.75000000  1
  Ni  Ni15  1  0.44922206  0.00430895  0.75000000  1
  Cu  Cu16  1  0.19979516  0.27479326  0.46267477  1
  Cu  Cu17  1  0.30020484  0.77479326  0.03732523  1
  Cu  Cu18  1  0.80020484  0.72520674  0.96267477  1
  Cu  Cu19  1  0.69979516  0.22520674  0.53732523  1
  Cu  Cu20  1  0.80020484  0.72520674  0.53732523  1
  Cu  Cu21  1  0.69979516  0.22520674  0.96267477  1
  Cu  Cu22  1  0.19979516  0.27479326  0.03732523  1
  Cu  Cu23  1  0.30020484  0.77479326  0.46267477  1
  Cu  Cu24  1  0.94368588  0.18364502  0.39389406  1
  Cu  Cu25  1  0.55631412  0.68364502  0.10610594  1
  Cu  Cu26  1  0.05631412  0.81635498  0.89389406  1
  Cu  Cu27  1  0.44368588  0.31635498  0.60610594  1
  Cu  Cu28  1  0.05631412  0.81635498  0.60610594  1
  Cu  Cu29  1  0.44368588  0.31635498  0.89389406  1
  Cu  Cu30  1  0.94368588  0.18364502  0.10610594  1
  Cu  Cu31  1  0.55631412  0.68364502  0.39389406  1
  C  C32  1  0.52289476  0.80008135  0.57341613  1
  C  C33  1  0.97710524  0.30008135  0.92658387  1
  C  C34  1  0.47710524  0.19991865  0.07341613  1
  C  C35  1  0.02289476  0.69991865  0.42658387  1
  C  C36  1  0.47710524  0.19991865  0.42658387  1
  C  C37  1  0.02289476  0.69991865  0.07341613  1
  C  C38  1  0.52289476  0.80008135  0.92658387  1
  C  C39  1  0.97710524  0.30008135  0.57341613  1
  C  C40  1  0.35585098  0.80316323  0.59914329  1
  C  C41  1  0.14414902  0.30316323  0.90085671  1
  C  C42  1  0.64414902  0.19683677  0.09914329  1
  C  C43  1  0.85585098  0.69683677  0.40085671  1
  C  C44  1  0.64414902  0.19683677  0.40085671  1
  C  C45  1  0.85585098  0.69683677  0.09914329  1
  C  C46  1  0.35585098  0.80316323  0.90085671  1
  C  C47  1  0.14414902  0.30316323  0.59914329  1
  C  C48  1  0.92040341  0.77953297  0.22058803  1
  C  C49  1  0.57959659  0.27953297  0.27941197  1
  C  C50  1  0.07959659  0.22046703  0.72058803  1
  C  C51  1  0.42040341  0.72046703  0.77941197  1
  C  C52  1  0.07959659  0.22046703  0.77941197  1
  C  C53  1  0.42040341  0.72046703  0.72058803  1
  C  C54  1  0.92040341  0.77953297  0.27941197  1
  C  C55  1  0.57959659  0.27953297  0.22058803  1
  C  C56  1  0.00336179  0.22300931  0.28059955  1
  C  C57  1  0.49663821  0.72300931  0.21940045  1
  C  C58  1  0.99663821  0.77699069  0.78059955  1
  C  C59  1  0.50336179  0.27699069  0.71940045  1
  C  C60  1  0.99663821  0.77699069  0.71940045  1
  C  C61  1  0.50336179  0.27699069  0.78059955  1
  C  C62  1  0.00336179  0.22300931  0.21940045  1
  C  C63  1  0.49663821  0.72300931  0.28059955  1
  C  C64  1  0.69374977  0.52655036  0.31793580  1
  C  C65  1  0.80625023  0.02655036  0.18206420  1
  C  C66  1  0.30625023  0.47344964  0.81793580  1
  C  C67  1  0.19374977  0.97344964  0.68206420  1
  C  C68  1  0.30625023  0.47344964  0.68206420  1
  C  C69  1  0.19374977  0.97344964  0.81793580  1
  C  C70  1  0.69374977  0.52655036  0.18206420  1
  C  C71  1  0.80625023  0.02655036  0.31793580  1
  C  C72  1  0.80767378  0.40557501  0.34027570  1
  C  C73  1  0.69232622  0.90557501  0.15972430  1
  C  C74  1  0.19232622  0.59442499  0.84027570  1
  C  C75  1  0.30767378  0.09442499  0.65972430  1
  C  C76  1  0.19232622  0.59442499  0.65972430  1
  C  C77  1  0.30767378  0.09442499  0.84027570  1
  C  C78  1  0.80767378  0.40557501  0.15972430  1
  C  C79  1  0.69232622  0.90557501  0.34027570  1
  C  C80  1  0.05167833  0.55630912  0.34529834  1
  C  C81  1  0.44832167  0.05630912  0.15470166  1
  C  C82  1  0.94832167  0.44369088  0.84529834  1
  C  C83  1  0.55167833  0.94369088  0.65470166  1
  C  C84  1  0.94832167  0.44369088  0.65470166  1
  C  C85  1  0.55167833  0.94369088  0.84529834  1
  C  C86  1  0.05167833  0.55630912  0.15470166  1
  C  C87  1  0.44832167  0.05630912  0.34529834  1
  C  C88  1  0.20432420  0.48648954  0.31789523  1
  C  C89  1  0.29567580  0.98648954  0.18210477  1
  C  C90  1  0.79567580  0.51351046  0.81789523  1
  C  C91  1  0.70432420  0.01351046  0.68210477  1
  C  C92  1  0.79567580  0.51351046  0.68210477  1
  C  C93  1  0.70432420  0.01351046  0.81789523  1
  C  C94  1  0.20432420  0.48648954  0.18210477  1
  C  C95  1  0.29567580  0.98648954  0.31789523  1
  C  C96  1  0.40808405  0.40859156  0.35641846  1
  C  C97  1  0.09191595  0.90859156  0.14358154  1
  C  C98  1  0.59191595  0.59140844  0.85641846  1
  C  C99  1  0.90808405  0.09140844  0.64358154  1
  C  C100  1  0.59191595  0.59140844  0.64358154  1
  C  C101  1  0.90808405  0.09140844  0.85641846  1
  C  C102  1  0.40808405  0.40859156  0.14358154  1
  C  C103  1  0.09191595  0.90859156  0.35641846  1
  C  C104  1  0.33164082  0.27314484  0.32996666  1
  C  C105  1  0.16835918  0.77314484  0.17003334  1
  C  C106  1  0.66835918  0.72685516  0.82996666  1
  C  C107  1  0.83164082  0.22685516  0.67003334  1
  C  C108  1  0.66835918  0.72685516  0.67003334  1
  C  C109  1  0.83164082  0.22685516  0.82996666  1
  C  C110  1  0.33164082  0.27314484  0.17003334  1
  C  C111  1  0.16835918  0.77314484  0.32996666  1
  C  C112  1  0.94833499  0.13008212  0.33936454  1
  C  C113  1  0.55166501  0.63008212  0.16063546  1
  C  C114  1  0.05166501  0.86991788  0.83936454  1
  C  C115  1  0.44833499  0.36991788  0.66063546  1
  C  C116  1  0.05166501  0.86991788  0.66063546  1
  C  C117  1  0.44833499  0.36991788  0.83936454  1
  C  C118  1  0.94833499  0.13008212  0.16063546  1
  C  C119  1  0.55166501  0.63008212  0.33936454  1
  C  C120  1  0.19275192  0.13906962  0.49687531  1
  C  C121  1  0.30724808  0.63906962  0.00312469  1
  C  C122  1  0.80724808  0.86093038  0.99687531  1
  C  C123  1  0.69275192  0.36093038  0.50312469  1
  C  C124  1  0.80724808  0.86093038  0.50312469  1
  C  C125  1  0.69275192  0.36093038  0.99687531  1
  C  C126  1  0.19275192  0.13906962  0.00312469  1
  C  C127  1  0.30724808  0.63906962  0.49687531  1
  C  C128  1  0.36885676  0.32471310  0.45283625  1
  C  C129  1  0.13114324  0.82471310  0.04716375  1
  C  C130  1  0.63114324  0.67528690  0.95283625  1
  C  C131  1  0.86885676  0.17528690  0.54716375  1
  C  C132  1  0.63114324  0.67528690  0.54716375  1
  C  C133  1  0.86885676  0.17528690  0.95283625  1
  C  C134  1  0.36885676  0.32471310  0.04716375  1
  C  C135  1  0.13114324  0.82471310  0.45283625  1
  C  C136  1  0.08949631  0.39562033  0.48191576  1
  C  C137  1  0.41050369  0.89562033  0.01808424  1
  C  C138  1  0.91050369  0.60437967  0.98191576  1
  C  C139  1  0.58949631  0.10437967  0.51808424  1
  C  C140  1  0.91050369  0.60437967  0.51808424  1
  C  C141  1  0.58949631  0.10437967  0.98191576  1
  C  C142  1  0.08949631  0.39562033  0.01808424  1
  C  C143  1  0.41050369  0.89562033  0.48191576  1
  C  C144  1  0.84169981  0.32212034  0.39876565  1
  C  C145  1  0.65830019  0.82212034  0.10123435  1
  C  C146  1  0.15830019  0.67787966  0.89876565  1
  C  C147  1  0.34169981  0.17787966  0.60123435  1
  C  C148  1  0.15830019  0.67787966  0.60123435  1
  C  C149  1  0.34169981  0.17787966  0.89876565  1
  C  C150  1  0.84169981  0.32212034  0.10123435  1
  C  C151  1  0.65830019  0.82212034  0.39876565  1
  C  C152  1  0.88965490  0.07253219  0.43445662  1
  C  C153  1  0.61034510  0.57253219  0.06554338  1
  C  C154  1  0.11034510  0.92746781  0.93445662  1
  C  C155  1  0.38965490  0.42746781  0.56554338  1
  C  C156  1  0.11034510  0.92746781  0.56554338  1
  C  C157  1  0.38965490  0.42746781  0.93445662  1
  C  C158  1  0.88965490  0.07253219  0.06554338  1
  C  C159  1  0.61034510  0.57253219  0.43445662  1
  C  C160  1  0.12739904  0.22688233  0.40748356  1
  C  C161  1  0.37260096  0.72688233  0.09251644  1
  C  C162  1  0.87260096  0.77311767  0.90748356  1
  C  C163  1  0.62739904  0.27311767  0.59251644  1
  C  C164  1  0.87260096  0.77311767  0.59251644  1
  C  C165  1  0.62739904  0.27311767  0.90748356  1
  C  C166  1  0.12739904  0.22688233  0.09251644  1
  C  C167  1  0.37260096  0.72688233  0.40748356  1
  C  C168  1  0.44814203  0.86620773  0.59293756  1
  C  C169  1  0.05185797  0.36620773  0.90706244  1
  C  C170  1  0.55185797  0.13379227  0.09293756  1
  C  C171  1  0.94814203  0.63379227  0.40706244  1
  C  C172  1  0.55185797  0.13379227  0.40706244  1
  C  C173  1  0.94814203  0.63379227  0.09293756  1
  C  C174  1  0.44814203  0.86620773  0.90706244  1
  C  C175  1  0.05185797  0.36620773  0.59293756  1
  C  C176  1  0.89061487  0.71971849  0.25000000  1
  C  C177  1  0.60938513  0.21971849  0.25000000  1
  C  C178  1  0.10938513  0.28028151  0.75000000  1
  C  C179  1  0.39061487  0.78028151  0.75000000  1
  C  C180  1  0.03439863  0.28031521  0.25000000  1
  C  C181  1  0.46560137  0.78031521  0.25000000  1
  C  C182  1  0.96560137  0.71968479  0.75000000  1
  C  C183  1  0.53439863  0.21968479  0.75000000  1
  C  C184  1  0.77814051  0.45565145  0.30797301  1
  C  C185  1  0.72185949  0.95565145  0.19202699  1
  C  C186  1  0.22185949  0.54434855  0.80797301  1
  C  C187  1  0.27814051  0.04434855  0.69202699  1
  C  C188  1  0.22185949  0.54434855  0.69202699  1
  C  C189  1  0.27814051  0.04434855  0.80797301  1
  C  C190  1  0.77814051  0.45565145  0.19202699  1
  C  C191  1  0.72185949  0.95565145  0.30797301  1
  C  C192  1  0.11278385  0.55456676  0.31301302  1
  C  C193  1  0.38721615  0.05456676  0.18698698  1
  C  C194  1  0.88721615  0.44543324  0.81301302  1
  C  C195  1  0.61278385  0.94543324  0.68698698  1
  C  C196  1  0.88721615  0.44543324  0.68698698  1
  C  C197  1  0.61278385  0.94543324  0.81301302  1
  C  C198  1  0.11278385  0.55456676  0.18698698  1
  C  C199  1  0.38721615  0.05456676  0.31301302  1
  C  C200  1  0.36116226  0.37425197  0.32449955  1
  C  C201  1  0.13883774  0.87425197  0.17550045  1
  C  C202  1  0.63883774  0.62574803  0.82449955  1
  C  C203  1  0.86116226  0.12574803  0.67550045  1
  C  C204  1  0.63883774  0.62574803  0.67550045  1
  C  C205  1  0.86116226  0.12574803  0.82449955  1
  C  C206  1  0.36116226  0.37425197  0.17550045  1
  C  C207  1  0.13883774  0.87425197  0.32449955  1
