# generated using pymatgen
data_Cu18Ni2C19
_symmetry_space_group_name_H-M   'P 1'
_cell_length_a   5.87637300
_cell_length_b   7.02988213
_cell_length_c   10.60596908
_cell_angle_alpha   71.49842944
_cell_angle_beta   75.21788410
_cell_angle_gamma   71.32066286
_symmetry_Int_Tables_number   1
_chemical_formula_structural   Cu18Ni2C19
_chemical_formula_sum   'Cu18 Ni2 C19'
_cell_volume   387.81504358
_cell_formula_units_Z   1
loop_
 _symmetry_equiv_pos_site_id
 _symmetry_equiv_pos_as_xyz
  1  'x, y, z'
loop_
 _atom_site_type_symbol
 _atom_site_label
 _atom_site_symmetry_multiplicity
 _atom_site_fract_x
 _atom_site_fract_y
 _atom_site_fract_z
 _atom_site_occupancy
  C  C0  1  0.00000000  0.50000000  0.50000000  1
  Ni  Ni1  1  0.67519000  0.42761400  0.81827900  1
  Ni  Ni2  1  0.32481000  0.57238600  0.18172100  1
  Cu  Cu3  1  0.61854700  0.51256600  0.37598100  1
  Cu  Cu4  1  0.38145300  0.48743400  0.62401900  1
  Cu  Cu5  1  0.75707900  0.14191300  0.17203100  1
  Cu  Cu6  1  0.24292100  0.85808700  0.82796900  1
  Cu  Cu7  1  0.11816100  0.52961400  0.71472500  1
  Cu  Cu8  1  0.88183900  0.47038600  0.28527500  1
  Cu  Cu9  1  0.22003700  0.09363300  0.60056600  1
  Cu  Cu10  1  0.77996300  0.90636700  0.39943400  1
  Cu  Cu11  1  0.55938000  0.02124800  0.25161900  1
  Cu  Cu12  1  0.44062000  0.97875200  0.74838100  1
  Cu  Cu13  1  0.21458900  0.11742400  0.44404000  1
  Cu  Cu14  1  0.78541100  0.88257600  0.55596000  1
  Cu  Cu15  1  0.75105600  0.13372900  0.67350900  1
  Cu  Cu16  1  0.24894400  0.86627100  0.32649100  1
  Cu  Cu17  1  0.17952300  0.08407000  0.22676800  1
  Cu  Cu18  1  0.82047700  0.91593000  0.77323200  1
  Cu  Cu19  1  0.33763000  0.21042900  0.97811500  1
  Cu  Cu20  1  0.66237000  0.78957100  0.02188500  1
  C  C21  1  0.73611700  0.01246800  0.23872600  1
  C  C22  1  0.26388300  0.98753200  0.76127400  1
  C  C23  1  0.20704700  0.52800900  0.62186500  1
  C  C24  1  0.79295300  0.47199100  0.37813500  1
  C  C25  1  0.83275700  0.79296000  0.97369600  1
  C  C26  1  0.16724300  0.20704000  0.02630400  1
  C  C27  1  0.20002000  0.19412500  0.51094000  1
  C  C28  1  0.79998000  0.80587500  0.48906000  1
  C  C29  1  0.86031200  0.51874800  0.84564300  1
  C  C30  1  0.13968800  0.48125200  0.15435700  1
  C  C31  1  0.64713200  0.22261500  0.92261600  1
  C  C32  1  0.35286800  0.77738500  0.07738400  1
  C  C33  1  0.25789200  0.01081200  0.30673000  1
  C  C34  1  0.74210800  0.98918800  0.69327000  1
  C  C35  1  0.73940000  0.40210700  0.67275700  1
  C  C36  1  0.26060000  0.59789300  0.32724300  1
  C  C37  1  0.41251700  0.57060600  0.84080900  1
  C  C38  1  0.58748300  0.42939400  0.15919100  1
