# generated using pymatgen
data_CuNiC8
_symmetry_space_group_name_H-M   'P 1'
_cell_length_a   5.15463685
_cell_length_b   5.15463685
_cell_length_c   17.99936000
_cell_angle_alpha   90.00000000
_cell_angle_beta   90.00000000
_cell_angle_gamma   109.08208624
_symmetry_Int_Tables_number   1
_chemical_formula_structural   CuNiC8
_chemical_formula_sum   'Cu4 Ni4 C32'
_cell_volume   451.96888466
_cell_formula_units_Z   4
loop_
 _symmetry_equiv_pos_site_id
 _symmetry_equiv_pos_as_xyz
  1  'x, y, z'
loop_
 _atom_site_type_symbol
 _atom_site_label
 _atom_site_symmetry_multiplicity
 _atom_site_fract_x
 _atom_site_fract_y
 _atom_site_fract_z
 _atom_site_occupancy
  C  C0  1  0.50000000  0.00000000  0.50000000  1
  C  C1  1  0.00000000  0.50000000  0.00000000  1
  C  C2  1  0.50000000  0.00000000  0.00000000  1
  C  C3  1  0.00000000  0.50000000  0.50000000  1
  C  C4  1  0.48268700  0.51731300  0.58408800  1
  C  C5  1  0.51731300  0.48268700  0.41591200  1
  C  C6  1  0.01731300  0.98268700  0.08408800  1
  C  C7  1  0.98268700  0.01731300  0.91591200  1
  Ni  Ni8  1  0.34975700  0.15024300  0.75000000  1
  Ni  Ni9  1  0.65024300  0.84975700  0.25000000  1
  Ni  Ni10  1  0.15024300  0.34975700  0.25000000  1
  Ni  Ni11  1  0.84975700  0.65024300  0.75000000  1
  Cu  Cu12  1  0.35653000  0.64347000  0.84719100  1
  Cu  Cu13  1  0.64347000  0.35653000  0.15280900  1
  Cu  Cu14  1  0.14347000  0.85653000  0.34719100  1
  Cu  Cu15  1  0.85653000  0.14347000  0.65280900  1
  C  C16  1  0.27149300  0.72850700  0.57475900  1
  C  C17  1  0.72850700  0.27149300  0.42524100  1
  C  C18  1  0.22850700  0.77149300  0.07475900  1
  C  C19  1  0.77149300  0.22850700  0.92524100  1
  C  C20  1  0.70612100  0.70612100  0.50000000  1
  C  C21  1  0.29387900  0.29387900  0.50000000  1
  C  C22  1  0.79387900  0.79387900  0.00000000  1
  C  C23  1  0.20612100  0.20612100  0.00000000  1
  C  C24  1  0.23854700  0.76145300  0.92013600  1
  C  C25  1  0.76145300  0.23854700  0.07986400  1
  C  C26  1  0.26145300  0.73854700  0.42013600  1
  C  C27  1  0.73854700  0.26145300  0.57986400  1
  C  C28  1  0.24103300  0.75896700  0.77341700  1
  C  C29  1  0.75896700  0.24103300  0.22658300  1
  C  C30  1  0.25896700  0.74103300  0.27341700  1
  C  C31  1  0.74103300  0.25896700  0.72658300  1
  C  C32  1  0.74294300  0.80016200  0.65591800  1
  C  C33  1  0.25705700  0.19983800  0.34408200  1
  C  C34  1  0.75705700  0.69983800  0.15591800  1
  C  C35  1  0.69983800  0.75705700  0.84408200  1
  C  C36  1  0.24294300  0.30016200  0.84408200  1
  C  C37  1  0.30016200  0.24294300  0.15591800  1
  C  C38  1  0.80016200  0.74294300  0.34408200  1
  C  C39  1  0.19983800  0.25705700  0.65591800  1
