# generated using pymatgen
data_CuNiC8
_symmetry_space_group_name_H-M   'P 1'
_cell_length_a   5.65192603
_cell_length_b   11.10779479
_cell_length_c   8.06011177
_cell_angle_alpha   91.91373220
_cell_angle_beta   89.55555008
_cell_angle_gamma   90.12489451
_symmetry_Int_Tables_number   1
_chemical_formula_structural   CuNiC8
_chemical_formula_sum   'Cu4 Ni4 C32'
_cell_volume   505.71893347
_cell_formula_units_Z   4
loop_
 _symmetry_equiv_pos_site_id
 _symmetry_equiv_pos_as_xyz
  1  'x, y, z'
loop_
 _atom_site_type_symbol
 _atom_site_label
 _atom_site_symmetry_multiplicity
 _atom_site_fract_x
 _atom_site_fract_y
 _atom_site_fract_z
 _atom_site_occupancy
  C  C0  1  0.00199100  0.24963800  0.25108200  1
  C  C1  1  0.50814000  0.48898100  0.74721200  1
  C  C2  1  0.00698500  0.75394000  0.25241700  1
  C  C3  1  0.50123000  0.00029600  0.75115000  1
  C  C4  1  0.99189100  0.76103600  0.75278100  1
  C  C5  1  0.49806600  0.00057300  0.24888600  1
  C  C6  1  0.99864000  0.24965000  0.74900200  1
  C  C7  1  0.49304700  0.49618500  0.24762200  1
  Ni  Ni8  1  0.00031200  0.00170900  0.00040800  1
  Ni  Ni9  1  0.49960100  0.24825200  0.49955100  1
  Ni  Ni10  1  0.00111100  0.50144100  0.00043200  1
  Ni  Ni11  1  0.49889900  0.74856100  0.49954800  1
  Cu  Cu12  1  0.99831000  0.00119500  0.49885100  1
  Cu  Cu13  1  0.50177800  0.24875700  0.00126900  1
  Cu  Cu14  1  0.00074500  0.50173400  0.50184100  1
  Cu  Cu15  1  0.49948700  0.74840700  0.99808500  1
  C  C16  1  0.70819500  0.61321200  0.54906300  1
  C  C17  1  0.21029800  0.86179600  0.04155300  1
  C  C18  1  0.71587500  0.10846300  0.53790300  1
  C  C19  1  0.22376200  0.35792600  0.05159500  1
  C  C20  1  0.22486300  0.64324800  0.45415200  1
  C  C21  1  0.71944800  0.89480900  0.95805300  1
  C  C22  1  0.21332700  0.14251300  0.46448500  1
  C  C23  1  0.72164700  0.38743900  0.95677000  1
  C  C24  1  0.09436800  0.47842000  0.77022100  1
  C  C25  1  0.59161200  0.75218800  0.26728600  1
  C  C26  1  0.07394900  0.00154800  0.74715600  1
  C  C27  1  0.57679000  0.24786000  0.24880800  1
  C  C28  1  0.78053800  0.35511700  0.54194600  1
  C  C29  1  0.27508000  0.60683400  0.04595600  1
  C  C30  1  0.77844500  0.86250100  0.54305300  1
  C  C31  1  0.28661600  0.10754800  0.03551000  1
  C  C32  1  0.90843300  0.49755200  0.23272400  1
  C  C33  1  0.40562700  0.77162000  0.72982900  1
  C  C34  1  0.92312100  0.00209300  0.25112600  1
  C  C35  1  0.42589800  0.24835900  0.75276800  1
  C  C36  1  0.28974800  0.38829900  0.45846000  1
  C  C37  1  0.79181500  0.63681800  0.95098500  1
  C  C38  1  0.27636100  0.89207300  0.44839500  1
  C  C39  1  0.78394800  0.14140700  0.96206900  1
