# generated using pymatgen
data_Cu8NiC20
_symmetry_space_group_name_H-M   'P 1'
_cell_length_a   5.56914706
_cell_length_b   6.91566409
_cell_length_c   13.95505047
_cell_angle_alpha   99.90363841
_cell_angle_beta   98.59283701
_cell_angle_gamma   88.02096409
_symmetry_Int_Tables_number   1
_chemical_formula_structural   Cu8NiC20
_chemical_formula_sum   'Cu8 Ni1 C20'
_cell_volume   523.49584721
_cell_formula_units_Z   1
loop_
 _symmetry_equiv_pos_site_id
 _symmetry_equiv_pos_as_xyz
  1  'x, y, z'
loop_
 _atom_site_type_symbol
 _atom_site_label
 _atom_site_symmetry_multiplicity
 _atom_site_fract_x
 _atom_site_fract_y
 _atom_site_fract_z
 _atom_site_occupancy
  Ni  Ni0  1  0.61653481  0.25582749  0.94154131  1
  Cu  Cu1  1  0.44899433  0.79284951  0.27215598  1
  Cu  Cu2  1  0.46133375  0.27763422  0.26455650  1
  Cu  Cu3  1  0.53489670  0.28927181  0.70883318  1
  Cu  Cu4  1  0.53827157  0.80400387  0.73454987  1
  Cu  Cu5  1  0.81758226  0.53277584  0.54239744  1
  Cu  Cu6  1  0.28943566  0.89607924  0.96117543  1
  Cu  Cu7  1  0.14573762  0.55326524  0.43136884  1
  Cu  Cu8  1  0.83666930  0.95384326  0.06276256  1
  C  C9  1  0.99863111  0.03580484  0.62280074  1
  C  C10  1  0.09948126  0.41673400  0.88649268  1
  C  C11  1  0.88111934  0.46450460  0.13712592  1
  C  C12  1  0.99247718  0.03541197  0.37920345  1
  C  C13  1  0.17084845  0.51367308  0.82898747  1
  C  C14  1  0.01581610  0.21730340  0.65974919  1
  C  C15  1  0.91958042  0.39546759  0.21581428  1
  C  C16  1  0.98507243  0.86138598  0.32908324  1
  C  C17  1  0.46789217  0.00123140  0.18489617  1
  C  C18  1  0.45278280  0.55772250  0.35074244  1
  C  C19  1  0.54428399  0.09063452  0.80788975  1
  C  C20  1  0.53517580  0.53534872  0.63927413  1
  C  C21  1  0.67782652  0.41714121  0.07858364  1
  C  C22  1  0.19220492  0.12699147  0.39845125  1
  C  C23  1  0.79200416  0.95350535  0.60896344  1
  C  C24  1  0.24854167  0.33128627  0.94491680  1
  C  C25  1  0.02589596  0.57637898  0.11438737  1
  C  C26  1  0.80184449  0.11194440  0.40866162  1
  C  C27  1  0.87215310  0.40540357  0.88976039  1
  C  C28  1  0.18453116  0.93916865  0.60008292  1
