# generated using pymatgen
data_Cu7Ni2C
_symmetry_space_group_name_H-M   'P 1'
_cell_length_a   9.89426900
_cell_length_b   12.92300300
_cell_length_c   14.85824400
_cell_angle_alpha   90.00000000
_cell_angle_beta   90.00000000
_cell_angle_gamma   90.00000000
_symmetry_Int_Tables_number   1
_chemical_formula_structural   Cu7Ni2C
_chemical_formula_sum   'Cu84 Ni24 C12'
_cell_volume   1899.82957743
_cell_formula_units_Z   12
loop_
 _symmetry_equiv_pos_site_id
 _symmetry_equiv_pos_as_xyz
  1  'x, y, z'
loop_
 _atom_site_type_symbol
 _atom_site_label
 _atom_site_symmetry_multiplicity
 _atom_site_fract_x
 _atom_site_fract_y
 _atom_site_fract_z
 _atom_site_occupancy
  C  C0  1  0.55979500  0.19803300  0.95965600  1
  C  C1  1  0.94020500  0.80196700  0.45965600  1
  C  C2  1  0.05979500  0.30196700  0.04034400  1
  C  C3  1  0.44020500  0.69803300  0.54034400  1
  C  C4  1  0.88512100  0.18325400  0.38444200  1
  C  C5  1  0.61487900  0.81674600  0.88444200  1
  C  C6  1  0.38512100  0.31674600  0.61555800  1
  C  C7  1  0.11487900  0.68325400  0.11555800  1
  C  C8  1  0.43303900  0.03319700  0.27659100  1
  C  C9  1  0.06696100  0.96680300  0.77659100  1
  C  C10  1  0.93303900  0.46680300  0.72340900  1
  C  C11  1  0.56696100  0.53319700  0.22340900  1
  Ni  Ni12  1  0.16554000  0.90316800  0.27575800  1
  Ni  Ni13  1  0.33446000  0.09683200  0.77575800  1
  Ni  Ni14  1  0.66554000  0.59683200  0.72424200  1
  Ni  Ni15  1  0.83446000  0.40316800  0.22424200  1
  Ni  Ni16  1  0.52035400  0.96832300  0.08637800  1
  Ni  Ni17  1  0.97964600  0.03167700  0.58637800  1
  Ni  Ni18  1  0.02035400  0.53167700  0.91362200  1
  Ni  Ni19  1  0.47964600  0.46832300  0.41362200  1
  Ni  Ni20  1  0.15184500  0.11964900  0.22611600  1
  Ni  Ni21  1  0.34815500  0.88035100  0.72611600  1
  Ni  Ni22  1  0.65184500  0.38035100  0.77388400  1
  Ni  Ni23  1  0.84815500  0.61964900  0.27388400  1
  Ni  Ni24  1  0.69935300  0.10613000  0.17981200  1
  Ni  Ni25  1  0.80064700  0.89387000  0.67981200  1
  Ni  Ni26  1  0.19935300  0.39387000  0.82018800  1
  Ni  Ni27  1  0.30064700  0.60613000  0.32018800  1
  Ni  Ni28  1  0.52805500  0.11503100  0.46162900  1
  Ni  Ni29  1  0.97194500  0.88496900  0.96162900  1
  Ni  Ni30  1  0.02805500  0.38496900  0.53837100  1
  Ni  Ni31  1  0.47194500  0.61503100  0.03837100  1
  Ni  Ni32  1  0.61552800  0.90781400  0.41733300  1
  Ni  Ni33  1  0.88447200  0.09218600  0.91733300  1
  Ni  Ni34  1  0.11552800  0.59218600  0.58266700  1
  Ni  Ni35  1  0.38447200  0.40781400  0.08266700  1
  Cu  Cu36  1  0.56540100  0.12569500  0.22863100  1
  Cu  Cu37  1  0.93459900  0.87430500  0.72863100  1
  Cu  Cu38  1  0.06540100  0.37430500  0.77136900  1
  Cu  Cu39  1  0.43459900  0.62569500  0.27136900  1
  Cu  Cu40  1  0.30625900  0.12696100  0.22500200  1
  Cu  Cu41  1  0.19374100  0.87303900  0.72500200  1
  Cu  Cu42  1  0.80625900  0.37303900  0.77499800  1
  Cu  Cu43  1  0.69374100  0.62696100  0.27499800  1
  Cu  Cu44  1  0.29154500  0.94641600  0.32252400  1
  Cu  Cu45  1  0.20845500  0.05358400  0.82252400  1
  Cu  Cu46  1  0.79154500  0.55358400  0.67747600  1
  Cu  Cu47  1  0.70845500  0.44641600  0.17747600  1
  Cu  Cu48  1  0.47088400  0.05849800  0.04071100  1
  Cu  Cu49  1  0.02911600  0.94150200  0.54071100  1
  Cu  Cu50  1  0.97088400  0.44150200  0.95928900  1
  Cu  Cu51  1  0.52911600  0.55849800  0.45928900  1
  Cu  Cu52  1  0.56899800  0.94302800  0.32471200  1
  Cu  Cu53  1  0.93100200  0.05697200  0.82471200  1
  Cu  Cu54  1  0.06899800  0.55697200  0.67528800  1
  Cu  Cu55  1  0.43100200  0.44302800  0.17528800  1
  Cu  Cu56  1  0.12505600  0.99669900  0.20345900  1
  Cu  Cu57  1  0.37494400  0.00330100  0.70345900  1
  Cu  Cu58  1  0.62505600  0.50330100  0.79654100  1
  Cu  Cu59  1  0.87494400  0.49669900  0.29654100  1
  Cu  Cu60  1  0.43900300  0.94623100  0.17184800  1
  Cu  Cu61  1  0.06099700  0.05376900  0.67184800  1
  Cu  Cu62  1  0.93900300  0.55376900  0.82815200  1
  Cu  Cu63  1  0.56099700  0.44623100  0.32815200  1
  Cu  Cu64  1  0.75940600  0.92036000  0.42366200  1
  Cu  Cu65  1  0.74059400  0.07964000  0.92366200  1
  Cu  Cu66  1  0.25940600  0.57964000  0.57633800  1
  Cu  Cu67  1  0.24059400  0.42036000  0.07633800  1
  Cu  Cu68  1  0.42454300  0.11237700  0.38493900  1
  Cu  Cu69  1  0.07545700  0.88762300  0.88493900  1
  Cu  Cu70  1  0.92454300  0.38762300  0.61506100  1
  Cu  Cu71  1  0.57545700  0.61237700  0.11506100  1
  Cu  Cu72  1  0.19359900  0.81774800  0.21741800  1
  Cu  Cu73  1  0.30640100  0.18225200  0.71741800  1
  Cu  Cu74  1  0.69359900  0.68225200  0.78258200  1
  Cu  Cu75  1  0.80640100  0.31774800  0.28258200  1
  Cu  Cu76  1  0.10035000  0.17114700  0.14816400  1
  Cu  Cu77  1  0.39965000  0.82885300  0.64816400  1
  Cu  Cu78  1  0.60035000  0.32885300  0.85183600  1
  Cu  Cu79  1  0.89965000  0.67114700  0.35183600  1
  Cu  Cu80  1  0.05878400  0.89475900  0.34023800  1
  Cu  Cu81  1  0.44121600  0.10524100  0.84023800  1
  Cu  Cu82  1  0.55878400  0.60524100  0.65976200  1
  Cu  Cu83  1  0.94121600  0.39475900  0.15976200  1
  Cu  Cu84  1  0.46592500  0.15718000  0.54013900  1
  Cu  Cu85  1  0.03407500  0.84282000  0.04013900  1
  Cu  Cu86  1  0.96592500  0.34282000  0.45986100  1
  Cu  Cu87  1  0.53407500  0.65718000  0.95986100  1
  Cu  Cu88  1  0.09702100  0.14283800  0.31327200  1
  Cu  Cu89  1  0.40297900  0.85716200  0.81327200  1
  Cu  Cu90  1  0.59702100  0.35716200  0.68672800  1
  Cu  Cu91  1  0.90297900  0.64283800  0.18672800  1
  Cu  Cu92  1  0.54022400  0.87408100  0.03758800  1
  Cu  Cu93  1  0.95977600  0.12591900  0.53758800  1
  Cu  Cu94  1  0.04022400  0.62591900  0.96241200  1
  Cu  Cu95  1  0.45977600  0.37408100  0.46241200  1
  Cu  Cu96  1  0.54246000  0.99035400  0.48709900  1
  Cu  Cu97  1  0.95754000  0.00964600  0.98709900  1
  Cu  Cu98  1  0.04246000  0.50964600  0.51290100  1
  Cu  Cu99  1  0.45754000  0.49035400  0.01290100  1
  Cu  Cu100  1  0.80797400  0.08223600  0.23996600  1
  Cu  Cu101  1  0.69202600  0.91776400  0.73996600  1
  Cu  Cu102  1  0.30797400  0.41776400  0.76003400  1
  Cu  Cu103  1  0.19202600  0.58223600  0.26003400  1
  Cu  Cu104  1  0.65793800  0.15127200  0.43284100  1
  Cu  Cu105  1  0.84206200  0.84872800  0.93284100  1
  Cu  Cu106  1  0.15793800  0.34872800  0.56715900  1
  Cu  Cu107  1  0.34206200  0.65127200  0.06715900  1
  Cu  Cu108  1  0.71730400  0.18334400  0.11155400  1
  Cu  Cu109  1  0.78269600  0.81665600  0.61155400  1
  Cu  Cu110  1  0.21730400  0.31665600  0.88844600  1
  Cu  Cu111  1  0.28269600  0.68334400  0.38844600  1
  Cu  Cu112  1  0.55766400  0.81073100  0.44309800  1
  Cu  Cu113  1  0.94233600  0.18926900  0.94309800  1
  Cu  Cu114  1  0.05766400  0.68926900  0.55690200  1
  Cu  Cu115  1  0.44233600  0.31073100  0.05690200  1
  Cu  Cu116  1  0.67180200  0.99354500  0.12768800  1
  Cu  Cu117  1  0.82819800  0.00645500  0.62768800  1
  Cu  Cu118  1  0.17180200  0.50645500  0.87231200  1
  Cu  Cu119  1  0.32819800  0.49354500  0.37231200  1
