# generated using pymatgen
data_Cu4NiC15
_symmetry_space_group_name_H-M   'P 1'
_cell_length_a   4.02390000
_cell_length_b   4.02390000
_cell_length_c   16.41464900
_cell_angle_alpha   90.00000000
_cell_angle_beta   90.00000000
_cell_angle_gamma   90.00000000
_symmetry_Int_Tables_number   1
_chemical_formula_structural   Cu4NiC15
_chemical_formula_sum   'Cu4 Ni1 C15'
_cell_volume   265.78224110
_cell_formula_units_Z   1
loop_
 _symmetry_equiv_pos_site_id
 _symmetry_equiv_pos_as_xyz
  1  'x, y, z'
loop_
 _atom_site_type_symbol
 _atom_site_label
 _atom_site_symmetry_multiplicity
 _atom_site_fract_x
 _atom_site_fract_y
 _atom_site_fract_z
 _atom_site_occupancy
  Ni  Ni0  1  0.50000000  0.50000000  0.00000000  1
  Cu  Cu1  1  0.50000000  0.50000000  0.20276400  1
  Cu  Cu2  1  0.50000000  0.50000000  0.40051300  1
  Cu  Cu3  1  0.50000000  0.50000000  0.59948700  1
  Cu  Cu4  1  0.50000000  0.50000000  0.79723600  1
  C  C5  1  0.00000000  0.00000000  0.89361500  1
  C  C6  1  0.00000000  0.00000000  0.10638500  1
  C  C7  1  0.00000000  0.00000000  0.30080200  1
  C  C8  1  0.00000000  0.00000000  0.50000000  1
  C  C9  1  0.00000000  0.00000000  0.69919800  1
  C  C10  1  0.00000000  0.50000000  0.10603700  1
  C  C11  1  0.00000000  0.50000000  0.30112800  1
  C  C12  1  0.00000000  0.50000000  0.50000000  1
  C  C13  1  0.00000000  0.50000000  0.69887200  1
  C  C14  1  0.00000000  0.50000000  0.89396300  1
  C  C15  1  0.50000000  0.00000000  0.10603700  1
  C  C16  1  0.50000000  0.00000000  0.30112800  1
  C  C17  1  0.50000000  0.00000000  0.50000000  1
  C  C18  1  0.50000000  0.00000000  0.69887200  1
  C  C19  1  0.50000000  0.00000000  0.89396300  1
