# generated using pymatgen
data_Cu3Ni4C23
_symmetry_space_group_name_H-M   'P 1'
_cell_length_a   8.72651603
_cell_length_b   8.72651603
_cell_length_c   10.54631678
_cell_angle_alpha   86.38258818
_cell_angle_beta   86.38258818
_cell_angle_gamma   61.47590078
_symmetry_Int_Tables_number   1
_chemical_formula_structural   Cu3Ni4C23
_chemical_formula_sum   'Cu6 Ni8 C46'
_cell_volume   703.73411742
_cell_formula_units_Z   2
loop_
 _symmetry_equiv_pos_site_id
 _symmetry_equiv_pos_as_xyz
  1  'x, y, z'
loop_
 _atom_site_type_symbol
 _atom_site_label
 _atom_site_symmetry_multiplicity
 _atom_site_fract_x
 _atom_site_fract_y
 _atom_site_fract_z
 _atom_site_occupancy
  Ni  Ni0  1  0.93401100  0.65813600  0.42515300  1
  Ni  Ni1  1  0.32208800  0.62952300  0.54544800  1
  Ni  Ni2  1  0.34186400  0.06598900  0.07484700  1
  Ni  Ni3  1  0.37047700  0.67791200  0.95455200  1
  Ni  Ni4  1  0.62952300  0.32208800  0.04544800  1
  Ni  Ni5  1  0.65813600  0.93401100  0.92515300  1
  Ni  Ni6  1  0.06598900  0.34186400  0.57484700  1
  Ni  Ni7  1  0.67791200  0.37047700  0.45455200  1
  C  C8  1  0.00951500  0.70967800  0.76977000  1
  C  C9  1  0.70967800  0.00951500  0.26977000  1
  C  C10  1  0.45650800  0.87413300  0.44493200  1
  C  C11  1  0.87413300  0.45650800  0.94493200  1
  C  C12  1  0.12586700  0.54349200  0.05506800  1
  C  C13  1  0.81699700  0.18300300  0.75000000  1
  C  C14  1  0.18300300  0.81699700  0.25000000  1
  C  C15  1  0.54349200  0.12586700  0.55506800  1
  C  C16  1  0.99048500  0.29032200  0.23023000  1
  C  C17  1  0.29032200  0.99048500  0.73023000  1
  Cu  Cu18  1  0.34241100  0.33285200  0.80170300  1
  Cu  Cu19  1  0.00000000  0.00000000  0.50000000  1
  Cu  Cu20  1  0.00000000  0.00000000  0.00000000  1
  Cu  Cu21  1  0.33285200  0.34241100  0.30170300  1
  Cu  Cu22  1  0.65758900  0.66714800  0.19829700  1
  Cu  Cu23  1  0.66714800  0.65758900  0.69829700  1
  C  C24  1  0.40952700  0.10794200  0.89474000  1
  C  C25  1  0.08988200  0.76149700  0.93833900  1
  C  C26  1  0.24157100  0.56399700  0.20462800  1
  C  C27  1  0.07521600  0.06124200  0.33660000  1
  C  C28  1  0.23850300  0.91011800  0.56166100  1
  C  C29  1  0.93875800  0.92478400  0.16340000  1
  C  C30  1  0.42726800  0.41283700  0.43774000  1
  C  C31  1  0.76309700  0.09070300  0.93596000  1
  C  C32  1  0.23690300  0.90929700  0.06404000  1
  C  C33  1  0.72347400  0.77901000  0.33061100  1
  C  C34  1  0.24336400  0.55010000  0.70004000  1
  C  C35  1  0.27652600  0.22099000  0.66938900  1
  C  C36  1  0.91011800  0.23850300  0.06166100  1
  C  C37  1  0.11177000  0.43879100  0.88977900  1
  C  C38  1  0.44990000  0.75663600  0.79996000  1
  C  C39  1  0.57273200  0.58716300  0.56226000  1
  C  C40  1  0.75663600  0.44990000  0.29996000  1
  C  C41  1  0.56120900  0.88823000  0.61022100  1
  C  C42  1  0.43600300  0.75842900  0.29537200  1
  C  C43  1  0.55010000  0.24336400  0.20004000  1
  C  C44  1  0.10794200  0.40952700  0.39474000  1
  C  C45  1  0.88823000  0.56120900  0.11022100  1
  C  C46  1  0.90929700  0.23690300  0.56404000  1
  C  C47  1  0.41283700  0.42726800  0.93774000  1
  C  C48  1  0.75842900  0.43600300  0.79537200  1
  C  C49  1  0.06124200  0.07521600  0.83660000  1
  C  C50  1  0.77901000  0.72347400  0.83061100  1
  C  C51  1  0.58716300  0.57273200  0.06226000  1
  C  C52  1  0.76149700  0.08988200  0.43833900  1
  C  C53  1  0.43879100  0.11177000  0.38977900  1
  C  C54  1  0.59047300  0.89205800  0.10526000  1
  C  C55  1  0.92478400  0.93875800  0.66340000  1
  C  C56  1  0.09070300  0.76309700  0.43596000  1
  C  C57  1  0.22099000  0.27652600  0.16938900  1
  C  C58  1  0.56399700  0.24157100  0.70462800  1
  C  C59  1  0.89205800  0.59047300  0.60526000  1
