# generated using pymatgen
data_Cu2Ni2C21
_symmetry_space_group_name_H-M   'P 1'
_cell_length_a   8.27030582
_cell_length_b   8.87962864
_cell_length_c   8.95489220
_cell_angle_alpha   86.01125737
_cell_angle_beta   69.65154115
_cell_angle_gamma   85.81740379
_symmetry_Int_Tables_number   1
_chemical_formula_structural   Cu2Ni2C21
_chemical_formula_sum   'Cu4 Ni4 C42'
_cell_volume   614.25430956
_cell_formula_units_Z   2
loop_
 _symmetry_equiv_pos_site_id
 _symmetry_equiv_pos_as_xyz
  1  'x, y, z'
loop_
 _atom_site_type_symbol
 _atom_site_label
 _atom_site_symmetry_multiplicity
 _atom_site_fract_x
 _atom_site_fract_y
 _atom_site_fract_z
 _atom_site_occupancy
  C  C0  1  0.42346600  0.21771200  0.58019600  1
  C  C1  1  0.57653400  0.78228800  0.41980400  1
  C  C2  1  0.18209500  0.78232700  0.26802200  1
  C  C3  1  0.81790500  0.21767300  0.73197800  1
  C  C4  1  0.20604000  0.54482400  0.40675500  1
  C  C5  1  0.79396000  0.45517600  0.59324500  1
  C  C6  1  0.38139100  0.56286700  0.22280700  1
  C  C7  1  0.61860900  0.43713300  0.77719300  1
  C  C8  1  0.40249800  0.80399600  0.00623700  1
  C  C9  1  0.59750200  0.19600400  0.99376300  1
  C  C10  1  0.23954100  0.95379700  0.03864200  1
  C  C11  1  0.76045900  0.04620300  0.96135800  1
  C  C12  1  0.02334700  0.50133600  0.24896600  1
  C  C13  1  0.97665300  0.49866400  0.75103400  1
  C  C14  1  0.18524500  0.37287600  0.22537900  1
  C  C15  1  0.81475500  0.62712400  0.77462100  1
  C  C16  1  0.13864900  0.02579400  0.68040000  1
  C  C17  1  0.86135100  0.97420600  0.31960000  1
  C  C18  1  0.04306700  0.76601300  0.01742100  1
  C  C19  1  0.95693300  0.23398700  0.98257900  1
  C  C20  1  0.20695700  0.79485200  0.85047100  1
  C  C21  1  0.79304300  0.20514800  0.14952900  1
  C  C22  1  0.14320800  0.19593600  0.47232400  1
  C  C23  1  0.85679200  0.80406400  0.52767600  1
  C  C24  1  0.25839800  0.09140400  0.33846600  1
  C  C25  1  0.74160200  0.90859600  0.66153400  1
  C  C26  1  0.22783400  0.90125900  0.56071700  1
  C  C27  1  0.77216600  0.09874100  0.43928300  1
  C  C28  1  0.22158400  0.51624300  0.95586800  1
  C  C29  1  0.77841600  0.48375700  0.04413200  1
  C  C30  1  0.24057700  0.58011400  0.27950800  1
  C  C31  1  0.75942300  0.41988600  0.72049200  1
  C  C32  1  0.26256900  0.83074200  0.05380800  1
  C  C33  1  0.73743100  0.16925800  0.94619200  1
  Ni  Ni34  1  0.15595700  0.48547800  0.20061800  1
  Ni  Ni35  1  0.84404300  0.51452200  0.79938200  1
  Ni  Ni36  1  0.17538200  0.74872300  0.96624200  1
  Ni  Ni37  1  0.82461800  0.25127700  0.03375800  1
  Cu  Cu38  1  0.26734300  0.25412400  0.94770700  1
  Cu  Cu39  1  0.73265700  0.74587600  0.05229300  1
  Cu  Cu40  1  0.29417200  0.54922100  0.67947200  1
  Cu  Cu41  1  0.70582800  0.45077900  0.32052800  1
  C  C42  1  0.28010500  0.86615800  0.34898200  1
  C  C43  1  0.71989500  0.13384200  0.65101800  1
  C  C44  1  0.98509600  0.80360600  0.32655200  1
  C  C45  1  0.01490400  0.19639400  0.67344800  1
  C  C46  1  0.24031700  0.19761000  0.36852100  1
  C  C47  1  0.75968300  0.80239000  0.63147900  1
  C  C48  1  0.22971700  0.94263200  0.66004200  1
  C  C49  1  0.77028300  0.05736800  0.33995800  1
