# generated using pymatgen
data_Cu2NiC
_symmetry_space_group_name_H-M   'P 1'
_cell_length_a   8.32201204
_cell_length_b   8.32201204
_cell_length_c   8.32201204
_cell_angle_alpha   132.00719325
_cell_angle_beta   132.00719325
_cell_angle_gamma   70.21766617
_symmetry_Int_Tables_number   1
_chemical_formula_structural   Cu2NiC
_chemical_formula_sum   'Cu8 Ni4 C4'
_cell_volume   311.91399313
_cell_formula_units_Z   4
loop_
 _symmetry_equiv_pos_site_id
 _symmetry_equiv_pos_as_xyz
  1  'x, y, z'
loop_
 _atom_site_type_symbol
 _atom_site_label
 _atom_site_symmetry_multiplicity
 _atom_site_fract_x
 _atom_site_fract_y
 _atom_site_fract_z
 _atom_site_occupancy
  C  C0  1  0.87500000  0.62500000  0.25000000  1
  C  C1  1  0.37500000  0.62500000  0.75000000  1
  C  C2  1  0.37500000  0.62500000  0.25000000  1
  C  C3  1  0.37500000  0.12500000  0.75000000  1
  Ni  Ni4  1  0.37500000  0.12500000  0.25000000  1
  Ni  Ni5  1  0.87500000  0.12500000  0.75000000  1
  Ni  Ni6  1  0.87500000  0.12500000  0.25000000  1
  Ni  Ni7  1  0.87500000  0.62500000  0.75000000  1
  Cu  Cu8  1  0.16078900  0.36341200  0.20262300  1
  Cu  Cu9  1  0.16078900  0.95816600  0.79737700  1
  Cu  Cu10  1  0.11341200  0.41078900  0.70262300  1
  Cu  Cu11  1  0.58921100  0.88658800  0.29737700  1
  Cu  Cu12  1  0.70816600  0.41078900  0.29737700  1
  Cu  Cu13  1  0.58921100  0.29183400  0.70262300  1
  Cu  Cu14  1  0.63658800  0.83921100  0.79737700  1
  Cu  Cu15  1  0.04183400  0.83921100  0.20262300  1
