# generated using pymatgen
data_Cu8Ni5C26
_symmetry_space_group_name_H-M   'P 1'
_cell_length_a   5.40011600
_cell_length_b   9.47422400
_cell_length_c   18.45646800
_cell_angle_alpha   90.00000000
_cell_angle_beta   90.00000000
_cell_angle_gamma   90.00000000
_symmetry_Int_Tables_number   1
_chemical_formula_structural   Cu8Ni5C26
_chemical_formula_sum   'Cu16 Ni10 C52'
_cell_volume   944.26812908
_cell_formula_units_Z   2
loop_
 _symmetry_equiv_pos_site_id
 _symmetry_equiv_pos_as_xyz
  1  'x, y, z'
loop_
 _atom_site_type_symbol
 _atom_site_label
 _atom_site_symmetry_multiplicity
 _atom_site_fract_x
 _atom_site_fract_y
 _atom_site_fract_z
 _atom_site_occupancy
  C  C0  1  0.00000000  0.50000000  0.23970000  1
  C  C1  1  0.00000000  0.50000000  0.76030000  1
  C  C2  1  0.50000000  0.00000000  0.26030000  1
  C  C3  1  0.50000000  0.00000000  0.73970000  1
  Ni  Ni4  1  0.00000000  0.50000000  0.42124100  1
  Ni  Ni5  1  0.00000000  0.50000000  0.57875900  1
  Ni  Ni6  1  0.50000000  0.00000000  0.07875900  1
  Ni  Ni7  1  0.50000000  0.00000000  0.92124100  1
  Ni  Ni8  1  0.00000000  0.00000000  0.00000000  1
  Ni  Ni9  1  0.50000000  0.50000000  0.50000000  1
  Ni  Ni10  1  0.00000000  0.00000000  0.17853300  1
  Ni  Ni11  1  0.00000000  0.00000000  0.82146700  1
  Ni  Ni12  1  0.50000000  0.50000000  0.32146700  1
  Ni  Ni13  1  0.50000000  0.50000000  0.67853300  1
  Cu  Cu14  1  0.15237300  0.20301200  0.33412500  1
  Cu  Cu15  1  0.84762700  0.79698800  0.66587500  1
  Cu  Cu16  1  0.84762700  0.79698800  0.33412500  1
  Cu  Cu17  1  0.34762700  0.70301200  0.16587500  1
  Cu  Cu18  1  0.15237300  0.20301200  0.66587500  1
  Cu  Cu19  1  0.65237300  0.29698800  0.83412500  1
  Cu  Cu20  1  0.65237300  0.29698800  0.16587500  1
  Cu  Cu21  1  0.34762700  0.70301200  0.83412500  1
  Cu  Cu22  1  0.15920100  0.29017200  0.08325100  1
  Cu  Cu23  1  0.84079900  0.70982800  0.91674900  1
  Cu  Cu24  1  0.84079900  0.70982800  0.08325100  1
  Cu  Cu25  1  0.34079900  0.79017200  0.41674900  1
  Cu  Cu26  1  0.15920100  0.29017200  0.91674900  1
  Cu  Cu27  1  0.65920100  0.20982800  0.58325100  1
  Cu  Cu28  1  0.65920100  0.20982800  0.41674900  1
  Cu  Cu29  1  0.34079900  0.79017200  0.58325100  1
  C  C30  1  0.16510700  0.34660200  0.00000000  1
  C  C31  1  0.83489300  0.65339800  0.00000000  1
  C  C32  1  0.33489300  0.84660200  0.50000000  1
  C  C33  1  0.66510700  0.15339800  0.50000000  1
  C  C34  1  0.40641000  0.14891700  0.37754000  1
  C  C35  1  0.59359000  0.85108300  0.62246000  1
  C  C36  1  0.59359000  0.85108300  0.37754000  1
  C  C37  1  0.09359000  0.64891700  0.12246000  1
  C  C38  1  0.40641000  0.14891700  0.62246000  1
  C  C39  1  0.90641000  0.35108300  0.87754000  1
  C  C40  1  0.90641000  0.35108300  0.12246000  1
  C  C41  1  0.09359000  0.64891700  0.87754000  1
  C  C42  1  0.66003200  0.10453500  0.00000000  1
  C  C43  1  0.33996800  0.89546500  0.00000000  1
  C  C44  1  0.83996800  0.60453500  0.50000000  1
  C  C45  1  0.16003200  0.39546500  0.50000000  1
  C  C46  1  0.18162400  0.12444300  0.25632900  1
  C  C47  1  0.81837600  0.87555700  0.74367100  1
  C  C48  1  0.81837600  0.87555700  0.25632900  1
  C  C49  1  0.31837600  0.62444300  0.24367100  1
  C  C50  1  0.18162400  0.12444300  0.74367100  1
  C  C51  1  0.68162400  0.37555700  0.75632900  1
  C  C52  1  0.68162400  0.37555700  0.24367100  1
  C  C53  1  0.31837600  0.62444300  0.75632900  1
  C  C54  1  0.15353100  0.37724300  0.33260100  1
  C  C55  1  0.84646900  0.62275700  0.66739900  1
  C  C56  1  0.84646900  0.62275700  0.33260100  1
  C  C57  1  0.34646900  0.87724300  0.16739900  1
  C  C58  1  0.15353100  0.37724300  0.66739900  1
  C  C59  1  0.65353100  0.12275700  0.83260100  1
  C  C60  1  0.65353100  0.12275700  0.16739900  1
  C  C61  1  0.34646900  0.87724300  0.83260100  1
  C  C62  1  0.17076100  0.11741200  0.08845200  1
  C  C63  1  0.82923900  0.88258800  0.91154800  1
  C  C64  1  0.82923900  0.88258800  0.08845200  1
  C  C65  1  0.32923900  0.61741200  0.41154800  1
  C  C66  1  0.17076100  0.11741200  0.91154800  1
  C  C67  1  0.67076100  0.38258800  0.58845200  1
  C  C68  1  0.67076100  0.38258800  0.41154800  1
  C  C69  1  0.32923900  0.61741200  0.58845200  1
  C  C70  1  0.39659800  0.35428100  0.12715400  1
  C  C71  1  0.60340200  0.64571900  0.87284600  1
  C  C72  1  0.60340200  0.64571900  0.12715400  1
  C  C73  1  0.10340200  0.85428100  0.37284600  1
  C  C74  1  0.39659800  0.35428100  0.87284600  1
  C  C75  1  0.89659800  0.14571900  0.62715400  1
  C  C76  1  0.89659800  0.14571900  0.37284600  1
  C  C77  1  0.10340200  0.85428100  0.62715400  1
