# generated using pymatgen
data_Cu4Ni2C
_symmetry_space_group_name_H-M   'P 1'
_cell_length_a   25.28914164
_cell_length_b   25.28914164
_cell_length_c   4.09433100
_cell_angle_alpha   90.00000000
_cell_angle_beta   90.00000000
_cell_angle_gamma   119.99999907
_symmetry_Int_Tables_number   1
_chemical_formula_structural   Cu4Ni2C
_chemical_formula_sum   'Cu48 Ni24 C12'
_cell_volume   2267.67996564
_cell_formula_units_Z   12
loop_
 _symmetry_equiv_pos_site_id
 _symmetry_equiv_pos_as_xyz
  1  'x, y, z'
loop_
 _atom_site_type_symbol
 _atom_site_label
 _atom_site_symmetry_multiplicity
 _atom_site_fract_x
 _atom_site_fract_y
 _atom_site_fract_z
 _atom_site_occupancy
  C  C0  1  0.23454200  0.67924600  0.25000000  1
  C  C1  1  0.44470400  0.76545800  0.25000000  1
  C  C2  1  0.32075400  0.55529600  0.25000000  1
  C  C3  1  0.76545800  0.32075400  0.75000000  1
  C  C4  1  0.55529600  0.23454200  0.75000000  1
  C  C5  1  0.67924600  0.44470400  0.75000000  1
  C  C6  1  0.12081100  0.76834100  0.25000000  1
  C  C7  1  0.64752900  0.87918900  0.25000000  1
  C  C8  1  0.23165900  0.35247100  0.25000000  1
  C  C9  1  0.87918900  0.23165900  0.75000000  1
  C  C10  1  0.35247100  0.12081100  0.75000000  1
  C  C11  1  0.76834100  0.64752900  0.75000000  1
  Ni  Ni12  1  0.66854400  0.72773200  0.25000000  1
  Ni  Ni13  1  0.05918800  0.33145600  0.25000000  1
  Ni  Ni14  1  0.27226800  0.94081200  0.25000000  1
  Ni  Ni15  1  0.33145600  0.27226800  0.75000000  1
  Ni  Ni16  1  0.94081200  0.66854400  0.75000000  1
  Ni  Ni17  1  0.72773200  0.05918800  0.75000000  1
  Ni  Ni18  1  0.49736000  0.35068000  0.25000000  1
  Ni  Ni19  1  0.85332000  0.50264000  0.25000000  1
  Ni  Ni20  1  0.64932000  0.14668000  0.25000000  1
  Ni  Ni21  1  0.50264000  0.64932000  0.75000000  1
  Ni  Ni22  1  0.14668000  0.49736000  0.75000000  1
  Ni  Ni23  1  0.35068000  0.85332000  0.75000000  1
  Ni  Ni24  1  0.59289200  0.54054700  0.25000000  1
  Ni  Ni25  1  0.94765500  0.40710800  0.25000000  1
  Ni  Ni26  1  0.45945300  0.05234500  0.25000000  1
  Ni  Ni27  1  0.40710800  0.45945300  0.75000000  1
  Ni  Ni28  1  0.05234500  0.59289200  0.75000000  1
  Ni  Ni29  1  0.54054700  0.94765500  0.75000000  1
  Ni  Ni30  1  0.17680900  0.15423200  0.25000000  1
  Ni  Ni31  1  0.97742400  0.82319100  0.25000000  1
  Ni  Ni32  1  0.84576800  0.02257600  0.25000000  1
  Ni  Ni33  1  0.82319100  0.84576800  0.75000000  1
  Ni  Ni34  1  0.02257600  0.17680900  0.75000000  1
  Ni  Ni35  1  0.15423200  0.97742400  0.75000000  1
  Cu  Cu36  1  0.26951000  0.81925000  0.25000000  1
  Cu  Cu37  1  0.54974000  0.73049000  0.25000000  1
  Cu  Cu38  1  0.18075000  0.45026000  0.25000000  1
  Cu  Cu39  1  0.73049000  0.18075000  0.75000000  1
  Cu  Cu40  1  0.45026000  0.26951000  0.75000000  1
  Cu  Cu41  1  0.81925000  0.54974000  0.75000000  1
  Cu  Cu42  1  0.69781400  0.54586700  0.25000000  1
  Cu  Cu43  1  0.84805300  0.30218600  0.25000000  1
  Cu  Cu44  1  0.45413300  0.15194700  0.25000000  1
  Cu  Cu45  1  0.30218600  0.45413300  0.75000000  1
  Cu  Cu46  1  0.15194700  0.69781400  0.75000000  1
  Cu  Cu47  1  0.54586700  0.84805300  0.75000000  1
  Cu  Cu48  1  0.45298200  0.90620300  0.25000000  1
  Cu  Cu49  1  0.45322100  0.54701800  0.25000000  1
  Cu  Cu50  1  0.09379700  0.54677900  0.25000000  1
  Cu  Cu51  1  0.54701800  0.09379700  0.75000000  1
  Cu  Cu52  1  0.54677900  0.45298200  0.75000000  1
  Cu  Cu53  1  0.90620300  0.45322100  0.75000000  1
  Cu  Cu54  1  0.77973300  0.74361300  0.25000000  1
  Cu  Cu55  1  0.96387900  0.22026700  0.25000000  1
  Cu  Cu56  1  0.25638700  0.03612100  0.25000000  1
  Cu  Cu57  1  0.22026700  0.25638700  0.75000000  1
  Cu  Cu58  1  0.03612100  0.77973300  0.75000000  1
  Cu  Cu59  1  0.74361300  0.96387900  0.75000000  1
  Cu  Cu60  1  0.36689800  0.36684700  0.25000000  1
  Cu  Cu61  1  0.99994900  0.63310200  0.25000000  1
  Cu  Cu62  1  0.63315300  0.00005100  0.25000000  1
  Cu  Cu63  1  0.63310200  0.63315300  0.75000000  1
  Cu  Cu64  1  0.00005100  0.36689800  0.75000000  1
  Cu  Cu65  1  0.36684700  0.99994900  0.75000000  1
  Cu  Cu66  1  0.59542500  0.34475300  0.25000000  1
  Cu  Cu67  1  0.74932800  0.40457500  0.25000000  1
  Cu  Cu68  1  0.65524700  0.25067200  0.25000000  1
  Cu  Cu69  1  0.40457500  0.65524700  0.75000000  1
  Cu  Cu70  1  0.25067200  0.59542500  0.75000000  1
  Cu  Cu71  1  0.34475300  0.74932800  0.75000000  1
  Cu  Cu72  1  0.88127500  0.69262800  0.25000000  1
  Cu  Cu73  1  0.81135400  0.11872500  0.25000000  1
  Cu  Cu74  1  0.30737200  0.18864600  0.25000000  1
  Cu  Cu75  1  0.11872500  0.30737200  0.75000000  1
  Cu  Cu76  1  0.18864600  0.88127500  0.75000000  1
  Cu  Cu77  1  0.69262800  0.81135400  0.75000000  1
  Cu  Cu78  1  0.07439300  0.93907100  0.25000000  1
  Cu  Cu79  1  0.86467800  0.92560700  0.25000000  1
  Cu  Cu80  1  0.06092900  0.13532200  0.25000000  1
  Cu  Cu81  1  0.92560700  0.06092900  0.75000000  1
  Cu  Cu82  1  0.13532200  0.07439300  0.75000000  1
  Cu  Cu83  1  0.93907100  0.86467800  0.75000000  1
