# generated using pymatgen
data_CuNi3C34
_symmetry_space_group_name_H-M   'P 1'
_cell_length_a   6.42464728
_cell_length_b   6.42464728
_cell_length_c   12.85035392
_cell_angle_alpha   83.03394130
_cell_angle_beta   83.03394130
_cell_angle_gamma   83.00535621
_symmetry_Int_Tables_number   1
_chemical_formula_structural   CuNi3C34
_chemical_formula_sum   'Cu1 Ni3 C34'
_cell_volume   519.51575562
_cell_formula_units_Z   1
loop_
 _symmetry_equiv_pos_site_id
 _symmetry_equiv_pos_as_xyz
  1  'x, y, z'
loop_
 _atom_site_type_symbol
 _atom_site_label
 _atom_site_symmetry_multiplicity
 _atom_site_fract_x
 _atom_site_fract_y
 _atom_site_fract_z
 _atom_site_occupancy
  Ni  Ni0  1  0.65865600  0.65865600  0.82931200  1
  Ni  Ni1  1  0.34086400  0.34086400  0.17052000  1
  Ni  Ni2  1  0.34136200  0.34136200  0.67069000  1
  Cu  Cu3  1  0.65823800  0.65823800  0.32912300  1
  C  C4  1  0.00036300  0.00036300  0.24983600  1
  C  C5  1  0.00005000  0.00005000  0.75006100  1
  C  C6  1  0.00031600  0.49968000  0.50035500  1
  C  C7  1  0.00004600  0.50002300  0.99983200  1
  C  C8  1  0.50002300  0.00004600  0.99983200  1
  C  C9  1  0.49968000  0.00031600  0.50035500  1
  C  C10  1  0.29292500  0.70718300  0.99977100  1
  C  C11  1  0.29169500  0.70783600  0.50047000  1
  C  C12  1  0.70788100  0.00074800  0.14568800  1
  C  C13  1  0.70730800  0.99995000  0.64655000  1
  C  C14  1  0.00044700  0.29163800  0.35395900  1
  C  C15  1  0.00003100  0.29270500  0.85361200  1
  C  C16  1  0.29163800  0.00044700  0.35395900  1
  C  C17  1  0.29270500  0.00003100  0.85361200  1
  C  C18  1  0.00074800  0.70788100  0.14568800  1
  C  C19  1  0.99995000  0.70730800  0.64655000  1
  C  C20  1  0.70718300  0.29292500  0.99977100  1
  C  C21  1  0.70783600  0.29169500  0.50047000  1
  C  C22  1  0.90296300  0.90296300  0.45163100  1
  C  C23  1  0.90258100  0.90258100  0.95116500  1
  C  C24  1  0.09759700  0.09759700  0.04849200  1
  C  C25  1  0.09751300  0.09751300  0.54897300  1
  C  C26  1  0.34326200  0.34326200  0.42278000  1
  C  C27  1  0.34404600  0.34404600  0.92251900  1
  C  C28  1  0.34333500  0.84549600  0.17151700  1
  C  C29  1  0.34389500  0.84506300  0.67215900  1
  C  C30  1  0.84549600  0.34333500  0.17151700  1
  C  C31  1  0.84506300  0.34389500  0.67215900  1
  C  C32  1  0.65593300  0.65593300  0.07685600  1
  C  C33  1  0.65616100  0.65616100  0.57813400  1
  C  C34  1  0.65607500  0.15511500  0.32808300  1
  C  C35  1  0.65601200  0.15500800  0.82795800  1
  C  C36  1  0.15511500  0.65607500  0.32808300  1
  C  C37  1  0.15500800  0.65601200  0.82795800  1
