# generated using pymatgen
data_CuNi2C7
_symmetry_space_group_name_H-M   'P 1'
_cell_length_a   5.23413861
_cell_length_b   10.99185954
_cell_length_c   7.52116400
_cell_angle_alpha   90.00081327
_cell_angle_beta   90.00011008
_cell_angle_gamma   85.20313701
_symmetry_Int_Tables_number   1
_chemical_formula_structural   CuNi2C7
_chemical_formula_sum   'Cu4 Ni8 C28'
_cell_volume   431.19889105
_cell_formula_units_Z   4
loop_
 _symmetry_equiv_pos_site_id
 _symmetry_equiv_pos_as_xyz
  1  'x, y, z'
loop_
 _atom_site_type_symbol
 _atom_site_label
 _atom_site_symmetry_multiplicity
 _atom_site_fract_x
 _atom_site_fract_y
 _atom_site_fract_z
 _atom_site_occupancy
  Ni  Ni0  1  0.01993900  0.47450200  0.25005100  1
  Ni  Ni1  1  0.01990200  0.97448400  0.24998800  1
  Ni  Ni2  1  0.98007700  0.02549900  0.74998700  1
  Ni  Ni3  1  0.98011100  0.52552700  0.75005800  1
  Ni  Ni4  1  0.50039100  0.21867100  0.25004000  1
  Ni  Ni5  1  0.50037600  0.71863500  0.24997000  1
  Ni  Ni6  1  0.49961100  0.28132300  0.74996600  1
  Ni  Ni7  1  0.49965700  0.78136000  0.75003700  1
  C  C8  1  0.99996600  0.25001200  0.00000800  1
  C  C9  1  0.99998500  0.75002500  0.00002800  1
  C  C10  1  0.00008600  0.24997000  0.50001900  1
  C  C11  1  0.00010400  0.74997900  0.50000000  1
  Cu  Cu12  1  0.49983000  0.49991500  0.99988400  1
  Cu  Cu13  1  0.50025000  0.49996600  0.50005200  1
  Cu  Cu14  1  0.49972300  0.00014900  0.00002900  1
  Cu  Cu15  1  0.50006600  0.99993500  0.49978800  1
  C  C16  1  0.13774400  0.22290700  0.74999200  1
  C  C17  1  0.13775900  0.72294900  0.75006900  1
  C  C18  1  0.86231800  0.27706700  0.25007100  1
  C  C19  1  0.86228600  0.77703900  0.24999100  1
  C  C20  1  0.62968100  0.03383500  0.24995900  1
  C  C21  1  0.62972600  0.53379700  0.24997400  1
  C  C22  1  0.37030100  0.46616000  0.74998000  1
  C  C23  1  0.37029000  0.96620300  0.74996300  1
  C  C24  1  0.82335800  0.41161800  0.56418100  1
  C  C25  1  0.82334300  0.91158200  0.56421400  1
  C  C26  1  0.17666800  0.08844300  0.43578200  1
  C  C27  1  0.17667700  0.58848200  0.43571900  1
  C  C28  1  0.82327700  0.41157000  0.93575400  1
  C  C29  1  0.82320300  0.91160200  0.93583700  1
  C  C30  1  0.17651200  0.08845600  0.06425900  1
  C  C31  1  0.17659500  0.58841600  0.06418400  1
  C  C32  1  0.30214500  0.33303000  0.42926600  1
  C  C33  1  0.30216400  0.83304600  0.42922300  1
  C  C34  1  0.69786600  0.16694600  0.92925900  1
  C  C35  1  0.69791000  0.66694300  0.92927200  1
  C  C36  1  0.69803900  0.16691500  0.57076200  1
  C  C37  1  0.69805000  0.66690700  0.57079400  1
  C  C38  1  0.30202100  0.33306500  0.07079500  1
  C  C39  1  0.30199300  0.83307000  0.07079500  1
