# generated using pymatgen
data_Cu(NiC5)2
_symmetry_space_group_name_H-M   'P 1'
_cell_length_a   5.54005000
_cell_length_b   7.85381201
_cell_length_c   9.48634306
_cell_angle_alpha   101.27773697
_cell_angle_beta   90.00000000
_cell_angle_gamma   90.00000000
_symmetry_Int_Tables_number   1
_chemical_formula_structural   Cu(NiC5)2
_chemical_formula_sum   'Cu2 Ni4 C20'
_cell_volume   404.78562303
_cell_formula_units_Z   2
loop_
 _symmetry_equiv_pos_site_id
 _symmetry_equiv_pos_as_xyz
  1  'x, y, z'
loop_
 _atom_site_type_symbol
 _atom_site_label
 _atom_site_symmetry_multiplicity
 _atom_site_fract_x
 _atom_site_fract_y
 _atom_site_fract_z
 _atom_site_occupancy
  C  C0  1  0.75000000  0.42637700  0.28368600  1
  C  C1  1  0.25000000  0.57362300  0.71631400  1
  Ni  Ni2  1  0.75000000  0.84331200  0.62619900  1
  Ni  Ni3  1  0.25000000  0.15668800  0.37380100  1
  Ni  Ni4  1  0.75000000  0.34006600  0.85546200  1
  Ni  Ni5  1  0.25000000  0.65993400  0.14453800  1
  Cu  Cu6  1  0.75000000  0.91338500  0.27025900  1
  Cu  Cu7  1  0.25000000  0.08661500  0.72974100  1
  C  C8  1  0.75000000  0.89516700  0.09288900  1
  C  C9  1  0.25000000  0.10483300  0.90711100  1
  C  C10  1  0.75000000  0.63459600  0.56898000  1
  C  C11  1  0.25000000  0.36540400  0.43102000  1
  C  C12  1  0.00289700  0.89958100  0.72559100  1
  C  C13  1  0.99710300  0.10041900  0.27440900  1
  C  C14  1  0.50289700  0.10041900  0.27440900  1
  C  C15  1  0.49710300  0.89958100  0.72559100  1
  C  C16  1  0.75000000  0.55031500  0.88046300  1
  C  C17  1  0.25000000  0.44968500  0.11953700  1
  C  C18  1  0.75000000  0.94149800  0.48614300  1
  C  C19  1  0.25000000  0.05850200  0.51385700  1
  C  C20  1  0.00612900  0.26547600  0.75903800  1
  C  C21  1  0.99387100  0.73452400  0.24096200  1
  C  C22  1  0.50612900  0.73452400  0.24096200  1
  C  C23  1  0.49387100  0.26547600  0.75903800  1
  C  C24  1  0.75000000  0.27606500  0.00634900  1
  C  C25  1  0.25000000  0.72393500  0.99365100  1
