# generated using pymatgen
data_CuNi2C9
_symmetry_space_group_name_H-M   'P 1'
_cell_length_a   10.48095867
_cell_length_b   10.48095867
_cell_length_c   10.48095867
_cell_angle_alpha   137.86464295
_cell_angle_beta   109.95708241
_cell_angle_gamma   85.24597882
_symmetry_Int_Tables_number   1
_chemical_formula_structural   CuNi2C9
_chemical_formula_sum   'Cu4 Ni8 C36'
_cell_volume   699.07620739
_cell_formula_units_Z   4
loop_
 _symmetry_equiv_pos_site_id
 _symmetry_equiv_pos_as_xyz
  1  'x, y, z'
loop_
 _atom_site_type_symbol
 _atom_site_label
 _atom_site_symmetry_multiplicity
 _atom_site_fract_x
 _atom_site_fract_y
 _atom_site_fract_z
 _atom_site_occupancy
  C  C0  1  0.16818200  0.00000000  0.16818200  1
  C  C1  1  0.83181800  0.00000000  0.83181800  1
  C  C2  1  0.59956300  0.55802900  0.66663300  1
  C  C3  1  0.10860400  0.44197100  0.04153400  1
  C  C4  1  0.40043700  0.06707000  0.95846600  1
  C  C5  1  0.89139600  0.93293000  0.33336700  1
  C  C6  1  0.40043700  0.44197100  0.33336700  1
  C  C7  1  0.89139600  0.55802900  0.95846600  1
  C  C8  1  0.59956300  0.93293000  0.04153400  1
  C  C9  1  0.10860400  0.06707000  0.66663300  1
  C  C10  1  0.24356600  0.74356600  0.50000000  1
  C  C11  1  0.75643400  0.25643400  0.50000000  1
  C  C12  1  0.74923600  0.58668500  0.16255100  1
  C  C13  1  0.57586600  0.41331500  0.16255100  1
  C  C14  1  0.25076400  0.41331500  0.83744900  1
  C  C15  1  0.42413400  0.58668500  0.83744900  1
  C  C16  1  0.19817300  0.87154700  0.32662600  1
  C  C17  1  0.45507900  0.12845300  0.32662600  1
  C  C18  1  0.80182700  0.12845300  0.67337400  1
  C  C19  1  0.54492100  0.87154700  0.67337400  1
  C  C20  1  0.00000000  0.50000000  0.50000000  1
  C  C21  1  0.24413600  0.38921200  0.45463700  1
  C  C22  1  0.06542500  0.61078800  0.85492400  1
  C  C23  1  0.75586400  0.21050100  0.14507600  1
  C  C24  1  0.93457500  0.78949900  0.54536300  1
  C  C25  1  0.75586400  0.61078800  0.54536300  1
  C  C26  1  0.93457500  0.38921200  0.14507600  1
  C  C27  1  0.24413600  0.78949900  0.85492400  1
  C  C28  1  0.06542500  0.21050100  0.45463700  1
  C  C29  1  0.86418400  0.86418400  0.00000000  1
  C  C30  1  0.13581600  0.13581600  0.00000000  1
  C  C31  1  0.50000000  0.00000000  0.50000000  1
  C  C32  1  0.59789400  0.36301700  0.76512300  1
  C  C33  1  0.40210600  0.63698300  0.23487700  1
  C  C34  1  0.40210600  0.16722900  0.76512300  1
  C  C35  1  0.59789400  0.83277100  0.23487700  1
  Ni  Ni36  1  0.00000000  0.81465100  0.81465100  1
  Ni  Ni37  1  0.00000000  0.18534900  0.18534900  1
  Ni  Ni38  1  0.69854100  0.69854100  0.00000000  1
  Ni  Ni39  1  0.30145900  0.30145900  0.00000000  1
  Ni  Ni40  1  0.33119000  0.79454700  0.12573700  1
  Ni  Ni41  1  0.33119000  0.20545300  0.53664300  1
  Ni  Ni42  1  0.66881000  0.79454700  0.46335700  1
  Ni  Ni43  1  0.66881000  0.20545300  0.87426300  1
  Cu  Cu44  1  0.02292000  0.71146800  0.31145100  1
  Cu  Cu45  1  0.59998300  0.28853200  0.31145100  1
  Cu  Cu46  1  0.97708000  0.28853200  0.68854900  1
  Cu  Cu47  1  0.40001700  0.71146800  0.68854900  1
