# generated using pymatgen
data_Cu7(NiC3)2
_symmetry_space_group_name_H-M   'P 1'
_cell_length_a   6.93373472
_cell_length_b   6.93373472
_cell_length_c   14.97882226
_cell_angle_alpha   80.80596092
_cell_angle_beta   80.80596092
_cell_angle_gamma   96.52504760
_symmetry_Int_Tables_number   1
_chemical_formula_structural   Cu7(NiC3)2
_chemical_formula_sum   'Cu14 Ni4 C12'
_cell_volume   694.55454087
_cell_formula_units_Z   2
loop_
 _symmetry_equiv_pos_site_id
 _symmetry_equiv_pos_as_xyz
  1  'x, y, z'
loop_
 _atom_site_type_symbol
 _atom_site_label
 _atom_site_symmetry_multiplicity
 _atom_site_fract_x
 _atom_site_fract_y
 _atom_site_fract_z
 _atom_site_occupancy
  C  C0  1  0.02359500  0.73644300  0.58123000  1
  C  C1  1  0.26355700  0.97640500  0.91877000  1
  C  C2  1  0.97640500  0.26355700  0.41877000  1
  C  C3  1  0.73644300  0.02359500  0.08123000  1
  C  C4  1  0.50000000  0.50000000  0.50000000  1
  C  C5  1  0.50000000  0.50000000  0.00000000  1
  C  C6  1  0.96230800  0.51689900  0.14022600  1
  C  C7  1  0.48310100  0.03769200  0.35977400  1
  C  C8  1  0.03769200  0.48310100  0.85977400  1
  C  C9  1  0.51689900  0.96230800  0.64022600  1
  C  C10  1  0.41460200  0.58539800  0.25000000  1
  C  C11  1  0.58539800  0.41460200  0.75000000  1
  Ni  Ni12  1  0.91936200  0.76313600  0.35903800  1
  Ni  Ni13  1  0.23686400  0.08063800  0.14096200  1
  Ni  Ni14  1  0.08063800  0.23686400  0.64096200  1
  Ni  Ni15  1  0.76313600  0.91936200  0.85903800  1
  Cu  Cu16  1  0.73905700  0.87024600  0.47246800  1
  Cu  Cu17  1  0.12975400  0.26094300  0.02753200  1
  Cu  Cu18  1  0.26094300  0.12975400  0.52753200  1
  Cu  Cu19  1  0.87024600  0.73905700  0.97246800  1
  Cu  Cu20  1  0.20142900  0.67776000  0.39203800  1
  Cu  Cu21  1  0.32224000  0.79857100  0.10796200  1
  Cu  Cu22  1  0.79857100  0.32224000  0.60796200  1
  Cu  Cu23  1  0.67776000  0.20142900  0.89203800  1
  Cu  Cu24  1  0.74511400  0.51786000  0.31568000  1
  Cu  Cu25  1  0.48214000  0.25488600  0.18432000  1
  Cu  Cu26  1  0.25488600  0.48214000  0.68432000  1
  Cu  Cu27  1  0.51786000  0.74511400  0.81568000  1
  Cu  Cu28  1  0.95765600  0.04234400  0.25000000  1
  Cu  Cu29  1  0.04234400  0.95765600  0.75000000  1
