# generated using pymatgen
data_Cu2NiC4
_symmetry_space_group_name_H-M   'P 1'
_cell_length_a   4.35211500
_cell_length_b   7.42256100
_cell_length_c   7.72583933
_cell_angle_alpha   72.32166008
_cell_angle_beta   90.00000000
_cell_angle_gamma   90.00000000
_symmetry_Int_Tables_number   1
_chemical_formula_structural   Cu2NiC4
_chemical_formula_sum   'Cu2 Ni1 C4'
_cell_volume   237.78846246
_cell_formula_units_Z   1
loop_
 _symmetry_equiv_pos_site_id
 _symmetry_equiv_pos_as_xyz
  1  'x, y, z'
loop_
 _atom_site_type_symbol
 _atom_site_label
 _atom_site_symmetry_multiplicity
 _atom_site_fract_x
 _atom_site_fract_y
 _atom_site_fract_z
 _atom_site_occupancy
  Ni  Ni0  1  0.00000000  0.50000000  0.50000000  1
  Cu  Cu1  1  0.00000000  0.00000000  0.00000000  1
  Cu  Cu2  1  0.50000000  0.50000000  0.00000000  1
  C  C3  1  0.50000000  0.76222000  0.23971800  1
  C  C4  1  0.00000000  0.25500200  0.23378200  1
  C  C5  1  0.50000000  0.23778000  0.76028200  1
  C  C6  1  0.00000000  0.74499800  0.76621800  1
