# generated using pymatgen
data_Cu2(NiC2)3
_symmetry_space_group_name_H-M   'P 1'
_cell_length_a   3.53775099
_cell_length_b   9.34168896
_cell_length_c   13.87880500
_cell_angle_alpha   90.00000000
_cell_angle_beta   90.00000000
_cell_angle_gamma   79.21833720
_symmetry_Int_Tables_number   1
_chemical_formula_structural   Cu2(NiC2)3
_chemical_formula_sum   'Cu4 Ni6 C12'
_cell_volume   450.57774407
_cell_formula_units_Z   2
loop_
 _symmetry_equiv_pos_site_id
 _symmetry_equiv_pos_as_xyz
  1  'x, y, z'
loop_
 _atom_site_type_symbol
 _atom_site_label
 _atom_site_symmetry_multiplicity
 _atom_site_fract_x
 _atom_site_fract_y
 _atom_site_fract_z
 _atom_site_occupancy
  Ni  Ni0  1  0.44457700  0.10992400  0.24924200  1
  Ni  Ni1  1  0.77494900  0.44816400  0.25016100  1
  Ni  Ni2  1  0.11029700  0.77764900  0.25048300  1
  Ni  Ni3  1  0.88875600  0.22340900  0.74924200  1
  Ni  Ni4  1  0.22303700  0.55568500  0.75048300  1
  Ni  Ni5  1  0.55838400  0.88516900  0.75016100  1
  Cu  Cu6  1  0.44529500  0.10881900  0.03960600  1
  Cu  Cu7  1  0.22111400  0.55824200  0.96038300  1
  Cu  Cu8  1  0.88803800  0.22451400  0.53960600  1
  Cu  Cu9  1  0.11222000  0.77509200  0.46038300  1
  C  C10  1  0.44788600  0.10318100  0.62953600  1
  C  C11  1  0.77331000  0.45233000  0.62873600  1
  C  C12  1  0.11122500  0.77702500  0.63037800  1
  C  C13  1  0.88908500  0.22309000  0.36875200  1
  C  C14  1  0.22619500  0.54866400  0.37131600  1
  C  C15  1  0.55213800  0.89676300  0.37140700  1
  C  C16  1  0.88544700  0.23015200  0.12953600  1
  C  C17  1  0.22210900  0.55630900  0.13037800  1
  C  C18  1  0.56002300  0.88100300  0.12873600  1
  C  C19  1  0.44424800  0.11024300  0.86875200  1
  C  C20  1  0.78119500  0.43657000  0.87140700  1
  C  C21  1  0.10713900  0.78467000  0.87131600  1
