# generated using pymatgen
data_Cu5Ni2C25
_symmetry_space_group_name_H-M   'P 1'
_cell_length_a   3.03599400
_cell_length_b   9.84072530
_cell_length_c   10.12218542
_cell_angle_alpha   76.56803328
_cell_angle_beta   88.28113802
_cell_angle_gamma   86.49882115
_symmetry_Int_Tables_number   1
_chemical_formula_structural   Cu5Ni2C25
_chemical_formula_sum   'Cu5 Ni2 C25'
_cell_volume   293.55424247
_cell_formula_units_Z   1
loop_
 _symmetry_equiv_pos_site_id
 _symmetry_equiv_pos_as_xyz
  1  'x, y, z'
loop_
 _atom_site_type_symbol
 _atom_site_label
 _atom_site_symmetry_multiplicity
 _atom_site_fract_x
 _atom_site_fract_y
 _atom_site_fract_z
 _atom_site_occupancy
  C  C0  1  0.99956200  0.74759700  0.87132800  1
  C  C1  1  0.50330100  0.49904200  0.50320700  1
  C  C2  1  0.00079700  0.24957000  0.12754300  1
  C  C3  1  0.49584000  0.00111400  0.74460500  1
  C  C4  1  0.50378400  0.50129300  0.99883900  1
  C  C5  1  0.00008400  0.25011500  0.62334400  1
  C  C6  1  0.49612500  0.99989100  0.25293500  1
  C  C7  1  0.00002800  0.75210300  0.37832700  1
  C  C8  1  0.49990300  0.75108100  0.62476300  1
  Ni  Ni9  1  0.99757200  0.99707100  0.00018200  1
  Ni  Ni10  1  0.50246000  0.25371300  0.87325700  1
  Cu  Cu11  1  0.00684000  0.50085600  0.25107400  1
  Cu  Cu12  1  0.99945000  0.98990200  0.50278700  1
  Cu  Cu13  1  0.49586600  0.74767500  0.12720500  1
  Cu  Cu14  1  0.00554900  0.51264000  0.74494500  1
  Cu  Cu15  1  0.50036400  0.24811400  0.37599700  1
  C  C16  1  0.47266600  0.87028200  0.94918100  1
  C  C17  1  0.99469800  0.61166700  0.57875400  1
  C  C18  1  0.50478400  0.37121400  0.19824000  1
  C  C19  1  0.97118800  0.12525100  0.82164500  1
  C  C20  1  0.95344400  0.62470800  0.07571400  1
  C  C21  1  0.47416500  0.37878200  0.69689400  1
  C  C22  1  0.00961100  0.12009300  0.32984600  1
  C  C23  1  0.48027200  0.88575900  0.44338700  1
  C  C24  1  0.52535500  0.61580300  0.80594800  1
  C  C25  1  0.99145600  0.37489300  0.42685400  1
  C  C26  1  0.53336800  0.12643600  0.05367600  1
  C  C27  1  0.00338200  0.89073100  0.66970900  1
  C  C28  1  0.02632300  0.38213900  0.92001500  1
  C  C29  1  0.52929100  0.12466100  0.55031400  1
  C  C30  1  0.03841300  0.87034700  0.17764700  1
  C  C31  1  0.48406000  0.62545800  0.30184300  1
