# generated using pymatgen
data_Cu2NiC5
_symmetry_space_group_name_H-M   'P 1'
_cell_length_a   9.43335800
_cell_length_b   5.33394700
_cell_length_c   10.64505023
_cell_angle_alpha   61.62139278
_cell_angle_beta   90.00000000
_cell_angle_gamma   90.00000000
_symmetry_Int_Tables_number   1
_chemical_formula_structural   Cu2NiC5
_chemical_formula_sum   'Cu8 Ni4 C20'
_cell_volume   471.25890238
_cell_formula_units_Z   4
loop_
 _symmetry_equiv_pos_site_id
 _symmetry_equiv_pos_as_xyz
  1  'x, y, z'
loop_
 _atom_site_type_symbol
 _atom_site_label
 _atom_site_symmetry_multiplicity
 _atom_site_fract_x
 _atom_site_fract_y
 _atom_site_fract_z
 _atom_site_occupancy
  C  C0  1  0.31291000  0.91572300  0.16121300  1
  C  C1  1  0.68709000  0.08427700  0.83878700  1
  C  C2  1  0.81291000  0.08427700  0.33878700  1
  C  C3  1  0.18709000  0.91572300  0.66121300  1
  Ni  Ni4  1  0.65299000  0.72955600  0.18660700  1
  Ni  Ni5  1  0.34701000  0.27044400  0.81339300  1
  Ni  Ni6  1  0.15299000  0.27044400  0.31339300  1
  Ni  Ni7  1  0.84701000  0.72955600  0.68660700  1
  Cu  Cu8  1  0.87397600  0.33664600  0.06152600  1
  Cu  Cu9  1  0.12602400  0.66335400  0.93847400  1
  Cu  Cu10  1  0.37397600  0.66335400  0.43847400  1
  Cu  Cu11  1  0.62602400  0.33664600  0.56152600  1
  Cu  Cu12  1  0.92059200  0.87625400  0.31243500  1
  Cu  Cu13  1  0.07940800  0.12374600  0.68756500  1
  Cu  Cu14  1  0.42059200  0.12374600  0.18756500  1
  Cu  Cu15  1  0.57940800  0.87625400  0.81243500  1
  C  C16  1  0.69299700  0.92417400  0.25239200  1
  C  C17  1  0.30700300  0.07582600  0.74760800  1
  C  C18  1  0.19299700  0.07582600  0.24760800  1
  C  C19  1  0.80700300  0.92417400  0.75239200  1
  C  C20  1  0.48861300  0.73076200  0.17562700  1
  C  C21  1  0.51138700  0.26923800  0.82437300  1
  C  C22  1  0.98861300  0.26923800  0.32437300  1
  C  C23  1  0.01138700  0.73076200  0.67562700  1
  C  C24  1  0.70015700  0.42194400  0.28175600  1
  C  C25  1  0.29984300  0.57805600  0.71824400  1
  C  C26  1  0.20015700  0.57805600  0.21824400  1
  C  C27  1  0.79984300  0.42194400  0.78175600  1
  C  C28  1  0.71933800  0.84725900  0.03628300  1
  C  C29  1  0.28066200  0.15274100  0.96371700  1
  C  C30  1  0.21933800  0.15274100  0.46371700  1
  C  C31  1  0.78066200  0.84725900  0.53628300  1
