# generated using pymatgen
data_Cu4Ni2C15
_symmetry_space_group_name_H-M   'P 1'
_cell_length_a   9.27546091
_cell_length_b   9.27546091
_cell_length_c   12.86352319
_cell_angle_alpha   58.71647009
_cell_angle_beta   58.71647009
_cell_angle_gamma   49.53293679
_symmetry_Int_Tables_number   1
_chemical_formula_structural   Cu4Ni2C15
_chemical_formula_sum   'Cu8 Ni4 C30'
_cell_volume   690.69241933
_cell_formula_units_Z   2
loop_
 _symmetry_equiv_pos_site_id
 _symmetry_equiv_pos_as_xyz
  1  'x, y, z'
loop_
 _atom_site_type_symbol
 _atom_site_label
 _atom_site_symmetry_multiplicity
 _atom_site_fract_x
 _atom_site_fract_y
 _atom_site_fract_z
 _atom_site_occupancy
  C  C0  1  0.75742900  0.24257100  0.75000000  1
  C  C1  1  0.24257100  0.75742900  0.25000000  1
  Ni  Ni2  1  0.73564200  0.63369100  0.88791300  1
  Ni  Ni3  1  0.26435800  0.36630900  0.11208700  1
  Ni  Ni4  1  0.63369100  0.73564200  0.38791300  1
  Ni  Ni5  1  0.36630900  0.26435800  0.61208700  1
  Cu  Cu6  1  0.19421100  0.29649000  0.90808600  1
  Cu  Cu7  1  0.80578900  0.70351000  0.09191400  1
  Cu  Cu8  1  0.29649000  0.19421100  0.40808600  1
  Cu  Cu9  1  0.70351000  0.80578900  0.59191400  1
  Cu  Cu10  1  0.76480400  0.30418900  0.39846100  1
  Cu  Cu11  1  0.23519600  0.69581100  0.60153900  1
  Cu  Cu12  1  0.30418900  0.76480400  0.89846100  1
  Cu  Cu13  1  0.69581100  0.23519600  0.10153900  1
  C  C14  1  0.68774300  0.65555700  0.05431200  1
  C  C15  1  0.31225700  0.34444300  0.94568800  1
  C  C16  1  0.65555700  0.68774300  0.55431200  1
  C  C17  1  0.34444300  0.31225700  0.44568800  1
  C  C18  1  0.76167800  0.62276200  0.72936500  1
  C  C19  1  0.23832200  0.37723800  0.27063500  1
  C  C20  1  0.62276200  0.76167800  0.22936500  1
  C  C21  1  0.37723800  0.23832200  0.77063500  1
  C  C22  1  0.97759700  0.46502300  0.15578300  1
  C  C23  1  0.02240300  0.53497700  0.84421700  1
  C  C24  1  0.46502300  0.97759700  0.65578300  1
  C  C25  1  0.53497700  0.02240300  0.34421700  1
  C  C26  1  0.79366800  0.36190300  0.95751300  1
  C  C27  1  0.20633200  0.63809700  0.04248700  1
  C  C28  1  0.36190300  0.79366800  0.45751300  1
  C  C29  1  0.63809700  0.20633200  0.54248700  1
  C  C30  1  0.77655600  0.44004300  0.44538100  1
  C  C31  1  0.22344400  0.55995700  0.55461900  1
  C  C32  1  0.44004300  0.77655600  0.94538100  1
  C  C33  1  0.55995700  0.22344400  0.05461900  1
  C  C34  1  0.99217100  0.09990400  0.37822300  1
  C  C35  1  0.00782900  0.90009600  0.62177700  1
  C  C36  1  0.09990400  0.99217100  0.87822300  1
  C  C37  1  0.90009600  0.00782900  0.12177700  1
  C  C38  1  0.11531900  0.27473000  0.67278000  1
  C  C39  1  0.88468100  0.72527000  0.32722000  1
  C  C40  1  0.27473000  0.11531900  0.17278000  1
  C  C41  1  0.72527000  0.88468100  0.82722000  1
