# generated using pymatgen
data_Cu2Ni4C33
_symmetry_space_group_name_H-M   'P 1'
_cell_length_a   5.83690500
_cell_length_b   9.55743366
_cell_length_c   12.00548064
_cell_angle_alpha   102.06379198
_cell_angle_beta   89.28298771
_cell_angle_gamma   107.64404984
_symmetry_Int_Tables_number   1
_chemical_formula_structural   Cu2Ni4C33
_chemical_formula_sum   'Cu2 Ni4 C33'
_cell_volume   623.20571193
_cell_formula_units_Z   1
loop_
 _symmetry_equiv_pos_site_id
 _symmetry_equiv_pos_as_xyz
  1  'x, y, z'
loop_
 _atom_site_type_symbol
 _atom_site_label
 _atom_site_symmetry_multiplicity
 _atom_site_fract_x
 _atom_site_fract_y
 _atom_site_fract_z
 _atom_site_occupancy
  C  C0  1  0.03196363  0.93106086  0.96475618  1
  Ni  Ni1  1  0.93067780  0.45369778  0.31936368  1
  Ni  Ni2  1  0.53098018  0.57820488  0.25619395  1
  Ni  Ni3  1  0.01525224  0.57198477  0.74755898  1
  Ni  Ni4  1  0.48895352  0.43638462  0.76333611  1
  C  C5  1  0.98500438  0.66738257  0.07929224  1
  C  C6  1  0.31285262  0.29874871  0.42614789  1
  C  C7  1  0.00133362  0.30305392  0.91971263  1
  C  C8  1  0.69718339  0.67539312  0.55593308  1
  C  C9  1  0.51185169  0.81938782  0.88265940  1
  C  C10  1  0.81482270  0.19561880  0.59780792  1
  C  C11  1  0.42710813  0.21738349  0.10076622  1
  C  C12  1  0.27849238  0.83931661  0.38755578  1
  Cu  Cu13  1  0.13730052  0.99417673  0.72116838  1
  Cu  Cu14  1  0.86628867  0.99708267  0.24727407  1
  C  C15  1  0.80779472  0.96794195  0.86219128  1
  C  C16  1  0.87808346  0.02017121  0.62569814  1
  C  C17  1  0.17807758  0.03624302  0.11764057  1
  C  C18  1  0.14776879  0.98392803  0.34802417  1
  C  C19  1  0.80229712  0.77388368  0.18511173  1
  C  C20  1  0.99897935  0.21984790  0.34521076  1
  C  C21  1  0.20440405  0.20096062  0.82960568  1
  C  C22  1  0.97860450  0.77668595  0.66952670  1
  C  C23  1  0.77943464  0.47517105  0.08135731  1
  C  C24  1  0.33239767  0.49908837  0.42694958  1
  C  C25  1  0.18529443  0.49498106  0.90428949  1
  C  C26  1  0.70002379  0.48670915  0.58178054  1
  C  C27  1  0.29973482  0.94409774  0.85813208  1
  C  C28  1  0.37634079  0.03047978  0.63308757  1
  C  C29  1  0.71700112  0.03854995  0.13774184  1
  C  C30  1  0.61573099  0.95854622  0.35765544  1
  C  C31  1  0.84395971  0.71894492  0.95085505  1
  C  C32  1  0.14943165  0.30312860  0.58243424  1
  C  C33  1  0.19787334  0.31574636  0.06852129  1
  C  C34  1  0.89443224  0.68442275  0.42614344  1
  C  C35  1  0.45999447  0.68819324  0.74042660  1
  C  C36  1  0.80164618  0.29560476  0.75170134  1
  C  C37  1  0.49434691  0.30944374  0.25691728  1
  C  C38  1  0.22003322  0.69120961  0.25058336  1
