# generated using pymatgen
data_CuNiC12
_symmetry_space_group_name_H-M   'P 1'
_cell_length_a   7.45908700
_cell_length_b   7.93812758
_cell_length_c   8.25146176
_cell_angle_alpha   78.23759021
_cell_angle_beta   74.83092357
_cell_angle_gamma   84.58683244
_symmetry_Int_Tables_number   1
_chemical_formula_structural   CuNiC12
_chemical_formula_sum   'Cu2 Ni2 C24'
_cell_volume   461.21895495
_cell_formula_units_Z   2
loop_
 _symmetry_equiv_pos_site_id
 _symmetry_equiv_pos_as_xyz
  1  'x, y, z'
loop_
 _atom_site_type_symbol
 _atom_site_label
 _atom_site_symmetry_multiplicity
 _atom_site_fract_x
 _atom_site_fract_y
 _atom_site_fract_z
 _atom_site_occupancy
  Ni  Ni0  1  0.89761600  0.55122600  0.79133100  1
  Ni  Ni1  1  0.10238400  0.44877400  0.20866900  1
  Cu  Cu2  1  0.61491600  0.19087700  0.24391100  1
  Cu  Cu3  1  0.38508400  0.80912300  0.75608900  1
  C  C4  1  0.50000000  0.50000000  0.50000000  1
  C  C5  1  0.00000000  0.00000000  0.00000000  1
  C  C6  1  0.78784600  0.86084700  0.43812400  1
  C  C7  1  0.21215400  0.13915300  0.56187600  1
  C  C8  1  0.21224400  0.85881100  0.34899100  1
  C  C9  1  0.78775600  0.14118900  0.65100900  1
  C  C10  1  0.68955300  0.45471300  0.31417600  1
  C  C11  1  0.31044700  0.54528700  0.68582400  1
  C  C12  1  0.92636900  0.22906200  0.02104400  1
  C  C13  1  0.07363100  0.77093800  0.97895600  1
  C  C14  1  0.64969400  0.31106300  0.67244100  1
  C  C15  1  0.35030600  0.68893700  0.32755900  1
  C  C16  1  0.78131300  0.92113000  0.23990000  1
  C  C17  1  0.21868700  0.07887000  0.76010000  1
  C  C18  1  0.64904900  0.71006300  0.54856200  1
  C  C19  1  0.35095100  0.28993700  0.45143800  1
  C  C20  1  0.99998900  0.79051300  0.45454900  1
  C  C21  1  0.00001100  0.20948700  0.54545100  1
  C  C22  1  0.27980800  0.96639400  0.47341800  1
  C  C23  1  0.72019200  0.03360600  0.52658200  1
  C  C24  1  0.80728400  0.01157600  0.82691100  1
  C  C25  1  0.19271600  0.98842400  0.17308900  1
  C  C26  1  0.56397500  0.74470600  0.97171500  1
  C  C27  1  0.43602500  0.25529400  0.02828500  1
