# generated using pymatgen
data_Cu12Ni3C4
_symmetry_space_group_name_H-M   'P 1'
_cell_length_a   11.40873300
_cell_length_b   11.40873300
_cell_length_c   11.40873295
_cell_angle_alpha   114.87294343
_cell_angle_beta   114.87294343
_cell_angle_gamma   114.87293974
_symmetry_Int_Tables_number   1
_chemical_formula_structural   Cu12Ni3C4
_chemical_formula_sum   'Cu24 Ni6 C8'
_cell_volume   840.60368348
_cell_formula_units_Z   2
loop_
 _symmetry_equiv_pos_site_id
 _symmetry_equiv_pos_as_xyz
  1  'x, y, z'
loop_
 _atom_site_type_symbol
 _atom_site_label
 _atom_site_symmetry_multiplicity
 _atom_site_fract_x
 _atom_site_fract_y
 _atom_site_fract_z
 _atom_site_occupancy
  C  C0  1  0.50037400  0.50037400  0.50037400  1
  C  C1  1  0.00037400  0.00037400  0.00037400  1
  C  C2  1  0.52608300  0.06587300  0.28786000  1
  C  C3  1  0.06587300  0.28786000  0.52608300  1
  C  C4  1  0.28786000  0.52608300  0.06587300  1
  C  C5  1  0.78786000  0.56587300  0.02608300  1
  C  C6  1  0.56587300  0.02608300  0.78786000  1
  C  C7  1  0.02608300  0.78786000  0.56587300  1
  Ni  Ni8  1  0.53020500  0.35533600  0.14346600  1
  Ni  Ni9  1  0.35533600  0.14346600  0.53020500  1
  Ni  Ni10  1  0.14346600  0.53020500  0.35533600  1
  Ni  Ni11  1  0.64346600  0.85533600  0.03020500  1
  Ni  Ni12  1  0.85533600  0.03020500  0.64346600  1
  Ni  Ni13  1  0.03020500  0.64346600  0.85533600  1
  Cu  Cu14  1  0.71939300  0.11711200  0.19100900  1
  Cu  Cu15  1  0.11711200  0.19100900  0.71939300  1
  Cu  Cu16  1  0.19100900  0.71939300  0.11711200  1
  Cu  Cu17  1  0.69100900  0.61711200  0.21939300  1
  Cu  Cu18  1  0.61711200  0.21939300  0.69100900  1
  Cu  Cu19  1  0.21939300  0.69100900  0.61711200  1
  Cu  Cu20  1  0.31006800  0.31534300  0.12890200  1
  Cu  Cu21  1  0.31534300  0.12890200  0.31006800  1
  Cu  Cu22  1  0.12890200  0.31006800  0.31534300  1
  Cu  Cu23  1  0.62890200  0.81534300  0.81006800  1
  Cu  Cu24  1  0.81534300  0.81006800  0.62890200  1
  Cu  Cu25  1  0.81006800  0.62890200  0.81534300  1
  Cu  Cu26  1  0.70541900  0.41494500  0.39083600  1
  Cu  Cu27  1  0.41494500  0.39083600  0.70541900  1
  Cu  Cu28  1  0.39083600  0.70541900  0.41494500  1
  Cu  Cu29  1  0.89083600  0.91494500  0.20541900  1
  Cu  Cu30  1  0.91494500  0.20541900  0.89083600  1
  Cu  Cu31  1  0.20541900  0.89083600  0.91494500  1
  Cu  Cu32  1  0.36323800  0.64135400  0.91018500  1
  Cu  Cu33  1  0.64135400  0.91018500  0.36323800  1
  Cu  Cu34  1  0.91018500  0.36323800  0.64135400  1
  Cu  Cu35  1  0.41018500  0.14135400  0.86323800  1
  Cu  Cu36  1  0.14135400  0.86323800  0.41018500  1
  Cu  Cu37  1  0.86323800  0.41018500  0.14135400  1
