# generated using pymatgen
data_Cu4Ni3C13
_symmetry_space_group_name_H-M   'P 1'
_cell_length_a   6.08707300
_cell_length_b   6.08707300
_cell_length_c   6.08707281
_cell_angle_alpha   103.66016431
_cell_angle_beta   103.66016431
_cell_angle_gamma   103.66016433
_symmetry_Int_Tables_number   1
_chemical_formula_structural   Cu4Ni3C13
_chemical_formula_sum   'Cu4 Ni3 C13'
_cell_volume   202.52763527
_cell_formula_units_Z   1
loop_
 _symmetry_equiv_pos_site_id
 _symmetry_equiv_pos_as_xyz
  1  'x, y, z'
loop_
 _atom_site_type_symbol
 _atom_site_label
 _atom_site_symmetry_multiplicity
 _atom_site_fract_x
 _atom_site_fract_y
 _atom_site_fract_z
 _atom_site_occupancy
  C  C0  1  0.50000000  0.50000000  0.50000000  1
  Ni  Ni1  1  0.04970500  0.95029500  0.50000000  1
  Ni  Ni2  1  0.95029500  0.50000000  0.04970500  1
  Ni  Ni3  1  0.50000000  0.04970500  0.95029500  1
  Cu  Cu4  1  0.44788900  0.55211100  0.00000000  1
  Cu  Cu5  1  0.55211100  0.00000000  0.44788900  1
  Cu  Cu6  1  0.00000000  0.44788900  0.55211100  1
  Cu  Cu7  1  0.00000000  0.00000000  0.00000000  1
  C  C8  1  0.28492900  0.52206600  0.12186700  1
  C  C9  1  0.52206600  0.12186700  0.28492900  1
  C  C10  1  0.71507100  0.87813300  0.47793400  1
  C  C11  1  0.12186700  0.28492900  0.52206600  1
  C  C12  1  0.47793400  0.71507100  0.87813300  1
  C  C13  1  0.87813300  0.47793400  0.71507100  1
  C  C14  1  0.85501900  0.14498100  0.00000000  1
  C  C15  1  0.14498100  0.00000000  0.85501900  1
  C  C16  1  0.00000000  0.85501900  0.14498100  1
  C  C17  1  0.59305700  0.40694300  0.00000000  1
  C  C18  1  0.40694300  0.00000000  0.59305700  1
  C  C19  1  0.00000000  0.59305700  0.40694300  1
