# generated using pymatgen
data_Cu3NiC14
_symmetry_space_group_name_H-M   'P 1'
_cell_length_a   11.42472549
_cell_length_b   11.41716939
_cell_length_c   18.04246999
_cell_angle_alpha   108.42399399
_cell_angle_beta   108.48131282
_cell_angle_gamma   89.86002642
_symmetry_Int_Tables_number   1
_chemical_formula_structural   Cu3NiC14
_chemical_formula_sum   'Cu24 Ni8 C112'
_cell_volume   2105.11415135
_cell_formula_units_Z   8
loop_
 _symmetry_equiv_pos_site_id
 _symmetry_equiv_pos_as_xyz
  1  'x, y, z'
loop_
 _atom_site_type_symbol
 _atom_site_label
 _atom_site_symmetry_multiplicity
 _atom_site_fract_x
 _atom_site_fract_y
 _atom_site_fract_z
 _atom_site_occupancy
  C  C0  1  0.30247132  0.05437394  0.11863043  1
  C  C1  1  0.30412881  0.06112321  0.62018239  1
  C  C2  1  0.30689230  0.55218008  0.11944574  1
  C  C3  1  0.80571819  0.05743123  0.12140195  1
  C  C4  1  0.80497538  0.55490700  0.12010916  1
  C  C5  1  0.80434659  0.55184789  0.61621890  1
  C  C6  1  0.18638720  0.44764691  0.38395838  1
  C  C7  1  0.18630402  0.95217409  0.38649877  1
  C  C8  1  0.18317181  0.94517661  0.87739213  1
  C  C9  1  0.69366981  0.44590577  0.38554524  1
  C  C10  1  0.68424828  0.44261591  0.87886730  1
  C  C11  1  0.69250540  0.94698314  0.38458978  1
  C  C12  1  0.68354339  0.94402183  0.87832828  1
  C  C13  1  0.05824904  0.31291385  0.11850890  1
  C  C14  1  0.05923265  0.81425309  0.11986957  1
  C  C15  1  0.55167529  0.31688621  0.12017989  1
  C  C16  1  0.55072524  0.81260817  0.11957999  1
  C  C17  1  0.55770192  0.81004820  0.61883709  1
  C  C18  1  0.43753010  0.18839473  0.38426928  1
  C  C19  1  0.44174533  0.68863586  0.38542488  1
  C  C20  1  0.43841324  0.69043400  0.87979255  1
  C  C21  1  0.93458156  0.18744753  0.87875520  1
  C  C22  1  0.93992553  0.68785352  0.38476182  1
  C  C23  1  0.93303495  0.68676805  0.87800353  1
  C  C24  1  0.30394124  0.55310785  0.60782693  1
  C  C25  1  0.80767987  0.05427527  0.61182797  1
  C  C26  1  0.19186504  0.43571349  0.88602701  1
  C  C27  1  0.05272399  0.30781001  0.61153204  1
  C  C28  1  0.05504276  0.80236981  0.60952685  1
  C  C29  1  0.54873233  0.30766409  0.60864514  1
  C  C30  1  0.44064546  0.19487781  0.88764824  1
  C  C31  1  0.94470963  0.19500425  0.39347359  1
  Ni  Ni32  1  0.99882741  0.00478978  0.99846974  1
  Ni  Ni33  1  0.99759421  0.50092272  0.99745959  1
  Ni  Ni34  1  0.49605481  0.00385956  0.99880180  1
  Ni  Ni35  1  0.50156564  0.00462562  0.50649936  1
  Ni  Ni36  1  0.48738354  0.49132526  0.99470703  1
  Ni  Ni37  1  0.24223099  0.74220281  0.99055142  1
  Ni  Ni38  1  0.74455446  0.24995082  0.00004089  1
  Ni  Ni39  1  0.74861385  0.75158047  0.00470865  1
  Cu  Cu40  1  0.00115251  0.00524127  0.50836751  1
  Cu  Cu41  1  0.00379854  0.50341447  0.50938049  1
  Cu  Cu42  1  0.49854938  0.50031615  0.50307272  1
  Cu  Cu43  1  0.24510779  0.24574303  0.99528706  1
  Cu  Cu44  1  0.24928960  0.25625440  0.50682821  1
  Cu  Cu45  1  0.24953619  0.75328343  0.50670683  1
  Cu  Cu46  1  0.75215858  0.25160179  0.50614589  1
  Cu  Cu47  1  0.75475335  0.75430573  0.50915543  1
  Cu  Cu48  1  0.11833746  0.10863292  0.25072908  1
  Cu  Cu49  1  0.11733928  0.10611870  0.74520947  1
  Cu  Cu50  1  0.12001993  0.60644229  0.24791605  1
  Cu  Cu51  1  0.12109043  0.59501925  0.75101867  1
  Cu  Cu52  1  0.62038155  0.10566023  0.24836826  1
  Cu  Cu53  1  0.61562219  0.11025936  0.74975164  1
  Cu  Cu54  1  0.62191991  0.60685386  0.24921839  1
  Cu  Cu55  1  0.61027198  0.59378170  0.74335217  1
  Cu  Cu56  1  0.37364260  0.39484560  0.25392048  1
  Cu  Cu57  1  0.36203079  0.39606316  0.74888910  1
  Cu  Cu58  1  0.37156085  0.89475388  0.25387303  1
  Cu  Cu59  1  0.36606555  0.89899008  0.75131287  1
  Cu  Cu60  1  0.87030609  0.38800014  0.24698321  1
  Cu  Cu61  1  0.86755073  0.39108207  0.74824445  1
  Cu  Cu62  1  0.87093782  0.89557099  0.24991737  1
  Cu  Cu63  1  0.86944080  0.90008023  0.74767604  1
  C  C64  1  0.11592156  0.13101788  0.50005292  1
  C  C65  1  0.12158668  0.12669369  0.99377646  1
  C  C66  1  0.12314845  0.62636983  0.50315066  1
  C  C67  1  0.13081042  0.63003697  0.99266825  1
  C  C68  1  0.61587818  0.11875271  0.50274224  1
  C  C69  1  0.62555797  0.13609421  0.99422955  1
  C  C70  1  0.62256582  0.62555840  0.50053093  1
  C  C71  1  0.63254793  0.63761718  0.99589902  1
  C  C72  1  0.10967902  0.38749414  0.99954546  1
  C  C73  1  0.12503696  0.37862756  0.50832072  1
  C  C74  1  0.10477652  0.88382789  0.99991184  1
  C  C75  1  0.12758163  0.87832864  0.50950463  1
  C  C76  1  0.60924506  0.38700636  0.00066133  1
  C  C77  1  0.62545807  0.36948233  0.50609618  1
  C  C78  1  0.60942321  0.88891070  0.00297049  1
  C  C79  1  0.63389874  0.88089176  0.51102245  1
  C  C80  1  0.37062367  0.13131657  0.50136694  1
  C  C81  1  0.37990288  0.11270882  0.99383190  1
  C  C82  1  0.36773856  0.62803294  0.50032574  1
  C  C83  1  0.37707120  0.60796611  0.99042813  1
  C  C84  1  0.87026521  0.12507365  0.49936817  1
  C  C85  1  0.87638307  0.10893375  0.99517446  1
  C  C86  1  0.87655118  0.62525244  0.50179638  1
  C  C87  1  0.88059253  0.61156611  0.99528367  1
  C  C88  1  0.36502323  0.36924629  0.99863422  1
  C  C89  1  0.37409202  0.37967080  0.50723004  1
  C  C90  1  0.35606760  0.86326952  0.00148138  1
  C  C91  1  0.38613981  0.89007340  0.50797168  1
  C  C92  1  0.85825315  0.36348030  0.00125128  1
  C  C93  1  0.88057985  0.37458500  0.50693635  1
  C  C94  1  0.85628502  0.86273293  0.00150285  1
  C  C95  1  0.88101043  0.88147214  0.51169985  1
  C  C96  1  0.06346819  0.08565604  0.13772731  1
  C  C97  1  0.06341916  0.09849827  0.63680648  1
  C  C98  1  0.06437788  0.58438374  0.13506432  1
  C  C99  1  0.08294869  0.58942990  0.64357857  1
  C  C100  1  0.56246019  0.08835140  0.13615944  1
  C  C101  1  0.56871027  0.09841164  0.64047242  1
  C  C102  1  0.56425316  0.58623130  0.13710700  1
  C  C103  1  0.56022989  0.57765586  0.63274610  1
  C  C104  1  0.43088154  0.41536424  0.36541698  1
  C  C105  1  0.42906304  0.40513981  0.85960115  1
  C  C106  1  0.43117064  0.91691394  0.36527303  1
  C  C107  1  0.42606221  0.91991285  0.86399630  1
  C  C108  1  0.92603689  0.39573384  0.35443290  1
  C  C109  1  0.93424973  0.41594067  0.86122075  1
  C  C110  1  0.92642882  0.91025364  0.35925303  1
  C  C111  1  0.92708264  0.91415498  0.85823138  1
  C  C112  1  0.31748582  0.30135200  0.14307100  1
  C  C113  1  0.31811699  0.30669901  0.63792299  1
  C  C114  1  0.31688464  0.79921930  0.14339953  1
  C  C115  1  0.32291643  0.79731242  0.64338876  1
  C  C116  1  0.81258896  0.30036357  0.13374824  1
  C  C117  1  0.82441383  0.29209411  0.63946581  1
  C  C118  1  0.82093184  0.80110283  0.13728599  1
  C  C119  1  0.82791443  0.80046363  0.63988308  1
  C  C120  1  0.17589140  0.20133905  0.36051457  1
  C  C121  1  0.18768316  0.19755784  0.85623799  1
  C  C122  1  0.17586239  0.70153893  0.35698300  1
  C  C123  1  0.18099650  0.69528838  0.86177266  1
  C  C124  1  0.68511895  0.19568989  0.35851650  1
  C  C125  1  0.67537777  0.20006383  0.86190608  1
  C  C126  1  0.67902660  0.69930515  0.35858054  1
  C  C127  1  0.67561093  0.69275544  0.85286783  1
  C  C128  1  0.49019858  0.00646510  0.24970567  1
  C  C129  1  0.48197725  0.02690498  0.75916351  1
  C  C130  1  0.49473248  0.50294507  0.25027298  1
  C  C131  1  0.46306909  0.52323571  0.74273178  1
  C  C132  1  0.98708799  0.02201423  0.25928332  1
  C  C133  1  0.97574526  0.02446981  0.74344649  1
  C  C134  1  0.99381789  0.50171829  0.24960448  1
  C  C135  1  0.97764221  0.51530079  0.74816207  1
  C  C136  1  0.24401267  0.49706680  0.24958320  1
  C  C137  1  0.21182710  0.45202650  0.75238409  1
  C  C138  1  0.23895939  0.99425657  0.24993000  1
  C  C139  1  0.21776990  0.97133625  0.73667414  1
  C  C140  1  0.74508559  0.49620544  0.25017611  1
  C  C141  1  0.71859764  0.46385808  0.73913626  1
  C  C142  1  0.73556314  0.98773261  0.24552866  1
  C  C143  1  0.73434813  0.99317004  0.74799755  1
