# generated using pymatgen
data_Cu4NiC16
_symmetry_space_group_name_H-M   'P 1'
_cell_length_a   6.27562943
_cell_length_b   7.28473288
_cell_length_c   7.01841200
_cell_angle_alpha   90.00000000
_cell_angle_beta   90.00000000
_cell_angle_gamma   87.21734303
_symmetry_Int_Tables_number   1
_chemical_formula_structural   Cu4NiC16
_chemical_formula_sum   'Cu4 Ni1 C16'
_cell_volume   320.47738841
_cell_formula_units_Z   1
loop_
 _symmetry_equiv_pos_site_id
 _symmetry_equiv_pos_as_xyz
  1  'x, y, z'
loop_
 _atom_site_type_symbol
 _atom_site_label
 _atom_site_symmetry_multiplicity
 _atom_site_fract_x
 _atom_site_fract_y
 _atom_site_fract_z
 _atom_site_occupancy
  Ni  Ni0  1  0.05785600  0.79568400  0.25000000  1
  Cu  Cu1  1  0.92293300  0.94523200  0.75000000  1
  Cu  Cu2  1  0.49535100  0.52668100  0.25000000  1
  Cu  Cu3  1  0.57914300  0.44467100  0.75000000  1
  Cu  Cu4  1  0.91739600  0.18562300  0.25000000  1
  C  C5  1  0.04345100  0.48740300  0.53566200  1
  C  C6  1  0.47137600  0.98620200  0.49281500  1
  C  C7  1  0.47137600  0.98620200  0.00718500  1
  C  C8  1  0.04345100  0.48740300  0.96433800  1
  C  C9  1  0.74031800  0.37534700  0.45487200  1
  C  C10  1  0.14659700  0.03210300  0.49899200  1
  C  C11  1  0.79114600  0.94661600  0.05130400  1
  C  C12  1  0.35464600  0.57689800  0.95977500  1
  C  C13  1  0.35464600  0.57689800  0.54022500  1
  C  C14  1  0.79114600  0.94661600  0.44869600  1
  C  C15  1  0.14659700  0.03210300  0.00100800  1
  C  C16  1  0.74031800  0.37534700  0.04512800  1
  C  C17  1  0.14933000  0.42732200  0.25000000  1
  C  C18  1  0.56502600  0.11193600  0.75000000  1
  C  C19  1  0.42138600  0.83779200  0.25000000  1
  C  C20  1  0.85603500  0.64592200  0.75000000  1
