# generated using pymatgen
data_Cu2NiC16
_symmetry_space_group_name_H-M   'P 1'
_cell_length_a   10.11461039
_cell_length_b   10.11461039
_cell_length_c   5.11217000
_cell_angle_alpha   90.00000000
_cell_angle_beta   90.00000000
_cell_angle_gamma   90.11491026
_symmetry_Int_Tables_number   1
_chemical_formula_structural   Cu2NiC16
_chemical_formula_sum   'Cu4 Ni2 C32'
_cell_volume   523.00125526
_cell_formula_units_Z   2
loop_
 _symmetry_equiv_pos_site_id
 _symmetry_equiv_pos_as_xyz
  1  'x, y, z'
loop_
 _atom_site_type_symbol
 _atom_site_label
 _atom_site_symmetry_multiplicity
 _atom_site_fract_x
 _atom_site_fract_y
 _atom_site_fract_z
 _atom_site_occupancy
  Ni  Ni0  1  0.50000000  0.50000000  0.50000000  1
  Ni  Ni1  1  0.00000000  0.00000000  0.50000000  1
  Cu  Cu2  1  0.00000000  0.50000000  0.50000000  1
  Cu  Cu3  1  0.50000000  0.00000000  0.50000000  1
  Cu  Cu4  1  0.75000000  0.75000000  0.50000000  1
  Cu  Cu5  1  0.25000000  0.25000000  0.50000000  1
  C  C6  1  0.75116500  0.02107000  0.99881300  1
  C  C7  1  0.24883500  0.97893000  0.00118700  1
  C  C8  1  0.25116500  0.52107000  0.00118700  1
  C  C9  1  0.74883500  0.47893000  0.99881300  1
  C  C10  1  0.02107000  0.75116500  0.00118700  1
  C  C11  1  0.97893000  0.24883500  0.99881300  1
  C  C12  1  0.52107000  0.25116500  0.99881300  1
  C  C13  1  0.47893000  0.74883500  0.00118700  1
  C  C14  1  0.87094800  0.12905200  0.15673000  1
  C  C15  1  0.37491600  0.87491600  0.16179800  1
  C  C16  1  0.12508400  0.62508400  0.16179800  1
  C  C17  1  0.62905200  0.37094800  0.15673000  1
  C  C18  1  0.12905200  0.87094800  0.84327000  1
  C  C19  1  0.62508400  0.12508400  0.83820200  1
  C  C20  1  0.87491600  0.37491600  0.83820200  1
  C  C21  1  0.37094800  0.62905200  0.84327000  1
  C  C22  1  0.56620300  0.67682500  0.25539100  1
  C  C23  1  0.05989400  0.32769900  0.25804500  1
  C  C24  1  0.44010600  0.17230100  0.25804500  1
  C  C25  1  0.93379700  0.82317500  0.25539100  1
  C  C26  1  0.43379700  0.32317500  0.74460900  1
  C  C27  1  0.94010600  0.67230100  0.74195500  1
  C  C28  1  0.55989400  0.82769900  0.74195500  1
  C  C29  1  0.06620300  0.17682500  0.74460900  1
  C  C30  1  0.67682500  0.56620300  0.74460900  1
  C  C31  1  0.32769900  0.05989400  0.74195500  1
  C  C32  1  0.17230100  0.44010600  0.74195500  1
  C  C33  1  0.82317500  0.93379700  0.74460900  1
  C  C34  1  0.32317500  0.43379700  0.25539100  1
  C  C35  1  0.67230100  0.94010600  0.25804500  1
  C  C36  1  0.82769900  0.55989400  0.25804500  1
  C  C37  1  0.17682500  0.06620300  0.25539100  1
