# generated using pymatgen
data_Cu10Ni2C7
_symmetry_space_group_name_H-M   'P 1'
_cell_length_a   7.51742849
_cell_length_b   9.21456556
_cell_length_c   9.21452470
_cell_angle_alpha   80.52463374
_cell_angle_beta   101.92566843
_cell_angle_gamma   78.07463139
_symmetry_Int_Tables_number   1
_chemical_formula_structural   Cu10Ni2C7
_chemical_formula_sum   'Cu20 Ni4 C14'
_cell_volume   596.53188178
_cell_formula_units_Z   2
loop_
 _symmetry_equiv_pos_site_id
 _symmetry_equiv_pos_as_xyz
  1  'x, y, z'
loop_
 _atom_site_type_symbol
 _atom_site_label
 _atom_site_symmetry_multiplicity
 _atom_site_fract_x
 _atom_site_fract_y
 _atom_site_fract_z
 _atom_site_occupancy
  C  C0  1  0.50000400  0.50000500  0.49999900  1
  C  C1  1  0.99999500  0.99999000  0.99999700  1
  C  C2  1  0.74974800  0.12173800  0.62184600  1
  C  C3  1  0.25028800  0.62185400  0.12174800  1
  C  C4  1  0.25025700  0.87825900  0.37816500  1
  C  C5  1  0.74977500  0.37816400  0.87826600  1
  C  C6  1  0.26869800  0.22742900  0.45193500  1
  C  C7  1  0.76871500  0.72739100  0.95196600  1
  C  C8  1  0.76874100  0.04801900  0.27260900  1
  C  C9  1  0.26866200  0.54808600  0.77256900  1
  C  C10  1  0.73130500  0.77256800  0.54805800  1
  C  C11  1  0.23124100  0.27260500  0.04800100  1
  C  C12  1  0.23125900  0.95198900  0.72739500  1
  C  C13  1  0.73129400  0.45194700  0.22742700  1
  Ni  Ni14  1  0.32909200  0.87368000  0.12633100  1
  Ni  Ni15  1  0.82887900  0.37376800  0.62622400  1
  Ni  Ni16  1  0.17111900  0.62621000  0.37378600  1
  Ni  Ni17  1  0.67090100  0.12631000  0.87369700  1
  Cu  Cu18  1  0.24998900  0.13943600  0.63930900  1
  Cu  Cu19  1  0.75001900  0.63930900  0.13943500  1
  Cu  Cu20  1  0.75001700  0.86056400  0.36069100  1
  Cu  Cu21  1  0.24999300  0.36069400  0.86056100  1
  Cu  Cu22  1  0.47995400  0.27358600  0.51058400  1
  Cu  Cu23  1  0.97986900  0.77335800  0.01047100  1
  Cu  Cu24  1  0.97989800  0.98950900  0.22662700  1
  Cu  Cu25  1  0.47991900  0.48943700  0.72641200  1
  Cu  Cu26  1  0.52005200  0.72641500  0.48941700  1
  Cu  Cu27  1  0.02009000  0.22660900  0.98949500  1
  Cu  Cu28  1  0.02010700  0.01048500  0.77337200  1
  Cu  Cu29  1  0.52005700  0.51061000  0.27360400  1
  Cu  Cu30  1  0.32970600  0.08130100  0.36791100  1
  Cu  Cu31  1  0.82938500  0.58148400  0.86764900  1
  Cu  Cu32  1  0.82937900  0.13234300  0.41851000  1
  Cu  Cu33  1  0.32971800  0.63208200  0.91871400  1
  Cu  Cu34  1  0.67029800  0.91870000  0.63208200  1
  Cu  Cu35  1  0.17064100  0.41849900  0.13233600  1
  Cu  Cu36  1  0.17062800  0.86765700  0.58149500  1
  Cu  Cu37  1  0.67030700  0.36791100  0.08130600  1
