# generated using pymatgen
data_Cu3Ni4C25
_symmetry_space_group_name_H-M   'P 1'
_cell_length_a   6.74979600
_cell_length_b   8.00434304
_cell_length_c   8.01493748
_cell_angle_alpha   67.86580874
_cell_angle_beta   86.64060960
_cell_angle_gamma   86.67912955
_symmetry_Int_Tables_number   1
_chemical_formula_structural   Cu3Ni4C25
_chemical_formula_sum   'Cu3 Ni4 C25'
_cell_volume   400.12571612
_cell_formula_units_Z   1
loop_
 _symmetry_equiv_pos_site_id
 _symmetry_equiv_pos_as_xyz
  1  'x, y, z'
loop_
 _atom_site_type_symbol
 _atom_site_label
 _atom_site_symmetry_multiplicity
 _atom_site_fract_x
 _atom_site_fract_y
 _atom_site_fract_z
 _atom_site_occupancy
  C  C0  1  0.37734200  0.45548800  0.78987800  1
  C  C1  1  0.86949400  0.96216000  0.28665800  1
  C  C2  1  0.13050600  0.03784000  0.71334200  1
  C  C3  1  0.62265800  0.54451200  0.21012200  1
  C  C4  1  0.50000000  0.00000000  0.00000000  1
  Ni  Ni5  1  0.12873800  0.69633100  0.05577200  1
  Ni  Ni6  1  0.62456800  0.19322800  0.55833100  1
  Ni  Ni7  1  0.37543200  0.80677200  0.44166900  1
  Ni  Ni8  1  0.87126200  0.30366900  0.94422800  1
  Cu  Cu9  1  0.00000000  0.50000000  0.50000000  1
  Cu  Cu10  1  0.25095400  0.24808900  0.24922000  1
  Cu  Cu11  1  0.74904600  0.75191100  0.75078000  1
  C  C12  1  0.12608600  0.28659800  0.46291200  1
  C  C13  1  0.62047300  0.80068200  0.95896700  1
  C  C14  1  0.37952700  0.19931800  0.04103300  1
  C  C15  1  0.87391400  0.71340200  0.53708800  1
  C  C16  1  0.53943500  0.85537500  0.26938300  1
  C  C17  1  0.04479400  0.34697800  0.77968100  1
  C  C18  1  0.29789100  0.52768900  0.09784600  1
  C  C19  1  0.79715000  0.02836500  0.59873800  1
  C  C20  1  0.95520600  0.65302200  0.22031900  1
  C  C21  1  0.46056500  0.14462500  0.73061700  1
  C  C22  1  0.20285000  0.97163500  0.40126200  1
  C  C23  1  0.70210900  0.47231100  0.90215400  1
  C  C24  1  0.53157000  0.22842800  0.36058500  1
  C  C25  1  0.03120600  0.73104600  0.86056700  1
  C  C26  1  0.76965600  0.11010900  0.97772800  1
  C  C27  1  0.28358100  0.60850700  0.47764600  1
  C  C28  1  0.96879400  0.26895400  0.13943300  1
  C  C29  1  0.46843000  0.77157200  0.63941500  1
  C  C30  1  0.71641900  0.39149300  0.52235400  1
  C  C31  1  0.23034400  0.88989100  0.02227200  1
