# generated using pymatgen
data_Cu5Ni3C2
_symmetry_space_group_name_H-M   'P 1'
_cell_length_a   8.39775400
_cell_length_b   8.39775400
_cell_length_c   3.24807500
_cell_angle_alpha   90.00000000
_cell_angle_beta   90.00000000
_cell_angle_gamma   90.00000000
_symmetry_Int_Tables_number   1
_chemical_formula_structural   Cu5Ni3C2
_chemical_formula_sum   'Cu10 Ni6 C4'
_cell_volume   229.06162942
_cell_formula_units_Z   2
loop_
 _symmetry_equiv_pos_site_id
 _symmetry_equiv_pos_as_xyz
  1  'x, y, z'
loop_
 _atom_site_type_symbol
 _atom_site_label
 _atom_site_symmetry_multiplicity
 _atom_site_fract_x
 _atom_site_fract_y
 _atom_site_fract_z
 _atom_site_occupancy
  Ni  Ni0  1  0.50000000  0.50000000  0.00000000  1
  Ni  Ni1  1  0.00000000  0.00000000  0.00000000  1
  Ni  Ni2  1  0.82488100  0.32488100  0.00000000  1
  Ni  Ni3  1  0.17511900  0.67511900  0.00000000  1
  Ni  Ni4  1  0.32488100  0.17511900  0.00000000  1
  Ni  Ni5  1  0.67511900  0.82488100  0.00000000  1
  Cu  Cu6  1  0.50000000  0.00000000  0.50000000  1
  Cu  Cu7  1  0.00000000  0.50000000  0.50000000  1
  Cu  Cu8  1  0.72038900  0.56959000  0.50000000  1
  Cu  Cu9  1  0.27961100  0.43041000  0.50000000  1
  Cu  Cu10  1  0.22038900  0.93041000  0.50000000  1
  Cu  Cu11  1  0.77961100  0.06959000  0.50000000  1
  Cu  Cu12  1  0.43041000  0.72038900  0.50000000  1
  Cu  Cu13  1  0.56959000  0.27961100  0.50000000  1
  Cu  Cu14  1  0.06959000  0.22038900  0.50000000  1
  Cu  Cu15  1  0.93041000  0.77961100  0.50000000  1
  C  C16  1  0.61811800  0.11811800  0.00000000  1
  C  C17  1  0.38188200  0.88188200  0.00000000  1
  C  C18  1  0.11811800  0.38188200  0.00000000  1
  C  C19  1  0.88188200  0.61811800  0.00000000  1
