# generated using pymatgen
data_Cu3(NiC4)4
_symmetry_space_group_name_H-M   'P 1'
_cell_length_a   8.29385941
_cell_length_b   8.29385941
_cell_length_c   14.63633200
_cell_angle_alpha   90.00000000
_cell_angle_beta   90.00000000
_cell_angle_gamma   124.33695532
_symmetry_Int_Tables_number   1
_chemical_formula_structural   Cu3(NiC4)4
_chemical_formula_sum   'Cu6 Ni8 C32'
_cell_volume   831.35421126
_cell_formula_units_Z   2
loop_
 _symmetry_equiv_pos_site_id
 _symmetry_equiv_pos_as_xyz
  1  'x, y, z'
loop_
 _atom_site_type_symbol
 _atom_site_label
 _atom_site_symmetry_multiplicity
 _atom_site_fract_x
 _atom_site_fract_y
 _atom_site_fract_z
 _atom_site_occupancy
  C  C0  1  0.93345800  0.06654200  0.08978500  1
  C  C1  1  0.06654200  0.93345800  0.58978500  1
  C  C2  1  0.78241500  0.21758500  0.82493600  1
  C  C3  1  0.21758500  0.78241500  0.32493600  1
  Ni  Ni4  1  0.30288900  0.32826000  0.29456600  1
  Ni  Ni5  1  0.67174000  0.69711100  0.29456600  1
  Ni  Ni6  1  0.69711100  0.67174000  0.79456600  1
  Ni  Ni7  1  0.32826000  0.30288900  0.79456600  1
  Ni  Ni8  1  0.59806800  0.03228200  0.55091700  1
  Ni  Ni9  1  0.96771800  0.40193200  0.55091700  1
  Ni  Ni10  1  0.40193200  0.96771800  0.05091700  1
  Ni  Ni11  1  0.03228200  0.59806800  0.05091700  1
  Cu  Cu12  1  0.88883500  0.11116500  0.39559600  1
  Cu  Cu13  1  0.11116500  0.88883500  0.89559600  1
  Cu  Cu14  1  0.62060600  0.37939400  0.16182200  1
  Cu  Cu15  1  0.37939400  0.62060600  0.66182200  1
  Cu  Cu16  1  0.62594100  0.37405900  0.43357400  1
  Cu  Cu17  1  0.37405900  0.62594100  0.93357400  1
  C  C18  1  0.43378100  0.56621900  0.30276600  1
  C  C19  1  0.56621900  0.43378100  0.80276600  1
  C  C20  1  0.35650100  0.24773200  0.37484600  1
  C  C21  1  0.75226800  0.64349900  0.37484600  1
  C  C22  1  0.64349900  0.75226800  0.87484600  1
  C  C23  1  0.24773200  0.35650100  0.87484600  1
  C  C24  1  0.34169800  0.27722000  0.19913600  1
  C  C25  1  0.72278000  0.65830200  0.19913600  1
  C  C26  1  0.65830200  0.72278000  0.69913600  1
  C  C27  1  0.27722000  0.34169800  0.69913600  1
  C  C28  1  0.09126500  0.26815600  0.29647900  1
  C  C29  1  0.73184400  0.90873500  0.29647900  1
  C  C30  1  0.90873500  0.73184400  0.79647900  1
  C  C31  1  0.26815600  0.09126500  0.79647900  1
  C  C32  1  0.78078700  0.21921300  0.60551500  1
  C  C33  1  0.21921300  0.78078700  0.10551500  1
  C  C34  1  0.46246700  0.89508400  0.62599000  1
  C  C35  1  0.10491600  0.53753300  0.62599000  1
  C  C36  1  0.53753300  0.10491600  0.12599000  1
  C  C37  1  0.89508400  0.46246700  0.12599000  1
  C  C38  1  0.49418300  0.10930300  0.49745600  1
  C  C39  1  0.89069700  0.50581700  0.49745600  1
  C  C40  1  0.50581700  0.89069700  0.99745600  1
  C  C41  1  0.10930300  0.49418300  0.99745600  1
  C  C42  1  0.68150000  0.94320700  0.49104000  1
  C  C43  1  0.05679300  0.31850000  0.49104000  1
  C  C44  1  0.31850000  0.05679300  0.99104000  1
  C  C45  1  0.94320700  0.68150000  0.99104000  1
