# generated using pymatgen
data_Cu4Ni6C
_symmetry_space_group_name_H-M   'P 1'
_cell_length_a   8.41789900
_cell_length_b   8.41789900
_cell_length_c   12.18411514
_cell_angle_alpha   110.20899940
_cell_angle_beta   110.20899940
_cell_angle_gamma   90.00000000
_symmetry_Int_Tables_number   1
_chemical_formula_structural   Cu4Ni6C
_chemical_formula_sum   'Cu8 Ni12 C2'
_cell_volume   753.33686349
_cell_formula_units_Z   2
loop_
 _symmetry_equiv_pos_site_id
 _symmetry_equiv_pos_as_xyz
  1  'x, y, z'
loop_
 _atom_site_type_symbol
 _atom_site_label
 _atom_site_symmetry_multiplicity
 _atom_site_fract_x
 _atom_site_fract_y
 _atom_site_fract_z
 _atom_site_occupancy
  C  C0  1  0.37500000  0.62500000  0.75000000  1
  C  C1  1  0.62500000  0.37500000  0.25000000  1
  Ni  Ni2  1  0.56332200  0.81332200  0.12664400  1
  Ni  Ni3  1  0.81332200  0.56332200  0.62664400  1
  Ni  Ni4  1  0.43667800  0.18667800  0.87335600  1
  Ni  Ni5  1  0.18667800  0.43667800  0.37335600  1
  Ni  Ni6  1  0.80499700  0.23380900  0.96761800  1
  Ni  Ni7  1  0.23380900  0.80499700  0.46761800  1
  Ni  Ni8  1  0.23380900  0.16262200  0.46761800  1
  Ni  Ni9  1  0.16262200  0.23380900  0.96761800  1
  Ni  Ni10  1  0.19500300  0.76619100  0.03238200  1
  Ni  Ni11  1  0.76619100  0.19500300  0.53238200  1
  Ni  Ni12  1  0.76619100  0.83737800  0.53238200  1
  Ni  Ni13  1  0.83737800  0.76619100  0.03238200  1
  Cu  Cu14  1  0.19629700  0.44629700  0.75000000  1
  Cu  Cu15  1  0.19629700  0.80370300  0.75000000  1
  Cu  Cu16  1  0.44629700  0.19629700  0.25000000  1
  Cu  Cu17  1  0.44629700  0.55370300  0.25000000  1
  Cu  Cu18  1  0.55370300  0.44629700  0.75000000  1
  Cu  Cu19  1  0.55370300  0.80370300  0.75000000  1
  Cu  Cu20  1  0.80370300  0.19629700  0.25000000  1
  Cu  Cu21  1  0.80370300  0.55370300  0.25000000  1
