# generated using pymatgen
data_Cu11Ni2C3
_symmetry_space_group_name_H-M   'P 1'
_cell_length_a   7.58682700
_cell_length_b   10.17813100
_cell_length_c   14.57321578
_cell_angle_alpha   59.14956113
_cell_angle_beta   90.00000000
_cell_angle_gamma   90.00000000
_symmetry_Int_Tables_number   1
_chemical_formula_structural   Cu11Ni2C3
_chemical_formula_sum   'Cu44 Ni8 C12'
_cell_volume   966.11397483
_cell_formula_units_Z   4
loop_
 _symmetry_equiv_pos_site_id
 _symmetry_equiv_pos_as_xyz
  1  'x, y, z'
loop_
 _atom_site_type_symbol
 _atom_site_label
 _atom_site_symmetry_multiplicity
 _atom_site_fract_x
 _atom_site_fract_y
 _atom_site_fract_z
 _atom_site_occupancy
  C  C0  1  0.52369600  0.24735900  0.98165300  1
  C  C1  1  0.97630400  0.24735900  0.48165300  1
  C  C2  1  0.47630400  0.75264100  0.01834700  1
  C  C3  1  0.02369600  0.75264100  0.51834700  1
  C  C4  1  0.64187800  0.34048300  0.68135000  1
  C  C5  1  0.85812200  0.34048300  0.18135000  1
  C  C6  1  0.35812200  0.65951700  0.31865000  1
  C  C7  1  0.14187800  0.65951700  0.81865000  1
  C  C8  1  0.59745800  0.03596700  0.41488200  1
  C  C9  1  0.90254200  0.03596700  0.91488200  1
  C  C10  1  0.40254200  0.96403300  0.58511800  1
  C  C11  1  0.09745800  0.96403300  0.08511800  1
  Ni  Ni12  1  0.80457500  0.88964100  0.63278200  1
  Ni  Ni13  1  0.69542500  0.88964100  0.13278200  1
  Ni  Ni14  1  0.19542500  0.11035900  0.36721800  1
  Ni  Ni15  1  0.30457500  0.11035900  0.86721800  1
  Ni  Ni16  1  0.43551200  0.70305500  0.52848700  1
  Ni  Ni17  1  0.06448800  0.70305500  0.02848700  1
  Ni  Ni18  1  0.56448800  0.29694500  0.47151300  1
  Ni  Ni19  1  0.93551200  0.29694500  0.97151300  1
  Cu  Cu20  1  0.73773200  0.08862600  0.29595300  1
  Cu  Cu21  1  0.76226800  0.08862600  0.79595300  1
  Cu  Cu22  1  0.26226800  0.91137400  0.70404700  1
  Cu  Cu23  1  0.23773200  0.91137400  0.20404700  1
  Cu  Cu24  1  0.91339100  0.63116000  0.39540200  1
  Cu  Cu25  1  0.58660900  0.63116000  0.89540200  1
  Cu  Cu26  1  0.08660900  0.36884000  0.60459800  1
  Cu  Cu27  1  0.41339100  0.36884000  0.10459800  1
  Cu  Cu28  1  0.00594900  0.55985300  0.36591200  1
  Cu  Cu29  1  0.49405100  0.55985300  0.86591200  1
  Cu  Cu30  1  0.99405100  0.44014700  0.63408800  1
  Cu  Cu31  1  0.50594900  0.44014700  0.13408800  1
  Cu  Cu32  1  0.38199000  0.15116800  0.32244000  1
  Cu  Cu33  1  0.11801000  0.15116800  0.82244000  1
  Cu  Cu34  1  0.61801000  0.84883200  0.67756000  1
  Cu  Cu35  1  0.88199000  0.84883200  0.17756000  1
  Cu  Cu36  1  0.79804100  0.91228500  0.51892800  1
  Cu  Cu37  1  0.70195900  0.91228500  0.01892800  1
  Cu  Cu38  1  0.20195900  0.08771500  0.48107200  1
  Cu  Cu39  1  0.29804100  0.08771500  0.98107200  1
  Cu  Cu40  1  0.58542300  0.75357400  0.19422500  1
  Cu  Cu41  1  0.91457700  0.75357400  0.69422500  1
  Cu  Cu42  1  0.41457700  0.24642600  0.80577500  1
  Cu  Cu43  1  0.08542300  0.24642600  0.30577500  1
  Cu  Cu44  1  0.86860800  0.02721900  0.62784600  1
  Cu  Cu45  1  0.63139200  0.02721900  0.12784600  1
  Cu  Cu46  1  0.13139200  0.97278100  0.37215400  1
  Cu  Cu47  1  0.36860800  0.97278100  0.87215400  1
  Cu  Cu48  1  0.51346200  0.83607200  0.42609300  1
  Cu  Cu49  1  0.98653800  0.83607200  0.92609300  1
  Cu  Cu50  1  0.48653800  0.16392800  0.57390700  1
  Cu  Cu51  1  0.01346200  0.16392800  0.07390700  1
  Cu  Cu52  1  0.67647300  0.23063000  0.41572200  1
  Cu  Cu53  1  0.82352700  0.23063000  0.91572200  1
  Cu  Cu54  1  0.32352700  0.76937000  0.58427800  1
  Cu  Cu55  1  0.17647300  0.76937000  0.08427800  1
  Cu  Cu56  1  0.57235100  0.60272400  0.59994100  1
  Cu  Cu57  1  0.92764900  0.60272400  0.09994100  1
  Cu  Cu58  1  0.42764900  0.39727600  0.40005900  1
  Cu  Cu59  1  0.07235100  0.39727600  0.90005900  1
  Cu  Cu60  1  0.30821100  0.62802800  0.49415800  1
  Cu  Cu61  1  0.19178900  0.62802800  0.99415800  1
  Cu  Cu62  1  0.69178900  0.37197200  0.50584200  1
  Cu  Cu63  1  0.80821100  0.37197200  0.00584200  1
