# generated using pymatgen
data_Cu2NiC4
_symmetry_space_group_name_H-M   'P 1'
_cell_length_a   3.97035200
_cell_length_b   11.97009900
_cell_length_c   14.28198200
_cell_angle_alpha   90.00000000
_cell_angle_beta   90.00000000
_cell_angle_gamma   90.00000000
_symmetry_Int_Tables_number   1
_chemical_formula_structural   Cu2NiC4
_chemical_formula_sum   'Cu8 Ni4 C16'
_cell_volume   678.75842844
_cell_formula_units_Z   4
loop_
 _symmetry_equiv_pos_site_id
 _symmetry_equiv_pos_as_xyz
  1  'x, y, z'
loop_
 _atom_site_type_symbol
 _atom_site_label
 _atom_site_symmetry_multiplicity
 _atom_site_fract_x
 _atom_site_fract_y
 _atom_site_fract_z
 _atom_site_occupancy
  Ni  Ni0  1  0.25000000  0.75682100  0.33825600  1
  Ni  Ni1  1  0.25000000  0.25682100  0.16174400  1
  Ni  Ni2  1  0.75000000  0.24317900  0.66174400  1
  Ni  Ni3  1  0.75000000  0.74317900  0.83825600  1
  Cu  Cu4  1  0.25000000  0.43111100  0.39047700  1
  Cu  Cu5  1  0.25000000  0.93111100  0.10952300  1
  Cu  Cu6  1  0.75000000  0.56888900  0.60952300  1
  Cu  Cu7  1  0.75000000  0.06888900  0.89047700  1
  Cu  Cu8  1  0.25000000  0.42014300  0.89919700  1
  Cu  Cu9  1  0.25000000  0.92014300  0.60080300  1
  Cu  Cu10  1  0.75000000  0.57985700  0.10080300  1
  Cu  Cu11  1  0.75000000  0.07985700  0.39919700  1
  C  C12  1  0.25000000  0.20809400  0.82753900  1
  C  C13  1  0.25000000  0.70809400  0.67246100  1
  C  C14  1  0.75000000  0.79190600  0.17246100  1
  C  C15  1  0.75000000  0.29190600  0.32753900  1
  C  C16  1  0.25000000  0.12982400  0.52635700  1
  C  C17  1  0.25000000  0.62982400  0.97364300  1
  C  C18  1  0.75000000  0.87017600  0.47364300  1
  C  C19  1  0.75000000  0.37017600  0.02635700  1
  C  C20  1  0.25000000  0.02144400  0.28404800  1
  C  C21  1  0.25000000  0.52144400  0.21595200  1
  C  C22  1  0.75000000  0.97855600  0.71595200  1
  C  C23  1  0.75000000  0.47855600  0.78404800  1
  C  C24  1  0.25000000  0.41590900  0.57821000  1
  C  C25  1  0.25000000  0.91590900  0.92179000  1
  C  C26  1  0.75000000  0.58409100  0.42179000  1
  C  C27  1  0.75000000  0.08409100  0.07821000  1
