# generated using pymatgen
data_Cu4Ni2C19
_symmetry_space_group_name_H-M   'P 1'
_cell_length_a   7.36000286
_cell_length_b   7.52390115
_cell_length_c   7.52390115
_cell_angle_alpha   92.72819170
_cell_angle_beta   115.44143474
_cell_angle_gamma   115.44143474
_symmetry_Int_Tables_number   1
_chemical_formula_structural   Cu4Ni2C19
_chemical_formula_sum   'Cu4 Ni2 C19'
_cell_volume   325.69502449
_cell_formula_units_Z   1
loop_
 _symmetry_equiv_pos_site_id
 _symmetry_equiv_pos_as_xyz
  1  'x, y, z'
loop_
 _atom_site_type_symbol
 _atom_site_label
 _atom_site_symmetry_multiplicity
 _atom_site_fract_x
 _atom_site_fract_y
 _atom_site_fract_z
 _atom_site_occupancy
  C  C0  1  0.00000000  0.00000000  0.00000000  1
  C  C1  1  0.00000000  0.71149900  0.28850100  1
  C  C2  1  0.00000000  0.28850100  0.71149900  1
  Ni  Ni3  1  0.53143000  0.68891500  0.68891500  1
  Ni  Ni4  1  0.46857000  0.31108500  0.31108500  1
  Cu  Cu5  1  0.97516200  0.23594400  0.23594400  1
  Cu  Cu6  1  0.02483800  0.76405600  0.76405600  1
  Cu  Cu7  1  0.50000000  0.83858900  0.16141100  1
  Cu  Cu8  1  0.50000000  0.16141100  0.83858900  1
  C  C9  1  0.76491300  0.36231000  0.10208100  1
  C  C10  1  0.23508700  0.63769000  0.89791900  1
  C  C11  1  0.23508700  0.89791900  0.63769000  1
  C  C12  1  0.76491300  0.10208100  0.36231000  1
  C  C13  1  0.65303900  0.69486800  0.21697800  1
  C  C14  1  0.34696100  0.30513200  0.78302200  1
  C  C15  1  0.34696100  0.78302200  0.30513200  1
  C  C16  1  0.65303900  0.21697800  0.69486800  1
  C  C17  1  0.91270600  0.70838200  0.95295500  1
  C  C18  1  0.08729400  0.29161800  0.04704500  1
  C  C19  1  0.08729400  0.04704500  0.29161800  1
  C  C20  1  0.91270600  0.95295500  0.70838200  1
  C  C21  1  0.66236200  0.98712700  0.98712700  1
  C  C22  1  0.33763800  0.01287300  0.01287300  1
  C  C23  1  0.84925500  0.53681500  0.53681500  1
  C  C24  1  0.15074500  0.46318500  0.46318500  1
