# generated using pymatgen
data_Cu3Ni2C7
_symmetry_space_group_name_H-M   'P 1'
_cell_length_a   4.73365600
_cell_length_b   10.49833300
_cell_length_c   13.29444611
_cell_angle_alpha   90.00000000
_cell_angle_beta   95.27761986
_cell_angle_gamma   90.00000000
_symmetry_Int_Tables_number   1
_chemical_formula_structural   Cu3Ni2C7
_chemical_formula_sum   'Cu12 Ni8 C28'
_cell_volume   657.87331273
_cell_formula_units_Z   4
loop_
 _symmetry_equiv_pos_site_id
 _symmetry_equiv_pos_as_xyz
  1  'x, y, z'
loop_
 _atom_site_type_symbol
 _atom_site_label
 _atom_site_symmetry_multiplicity
 _atom_site_fract_x
 _atom_site_fract_y
 _atom_site_fract_z
 _atom_site_occupancy
  C  C0  1  0.83492300  0.17894200  0.10969100  1
  C  C1  1  0.16507700  0.67894200  0.89030900  1
  C  C2  1  0.78668200  0.29740900  0.01891200  1
  C  C3  1  0.21331800  0.79740900  0.98108800  1
  C  C4  1  0.40214800  0.49810800  0.17856700  1
  C  C5  1  0.59785200  0.99810800  0.82143300  1
  C  C6  1  0.55622500  0.48615900  0.05934000  1
  C  C7  1  0.44377500  0.98615900  0.94066000  1
  C  C8  1  0.57204800  0.17688300  0.23909500  1
  C  C9  1  0.42795200  0.67688300  0.76090400  1
  C  C10  1  0.04046000  0.02255200  0.44901600  1
  C  C11  1  0.95954000  0.52255200  0.55098400  1
  C  C12  1  0.86718100  0.89681900  0.50364100  1
  C  C13  1  0.13281900  0.39681900  0.49635900  1
  C  C14  1  0.83673800  0.71486400  0.27338900  1
  C  C15  1  0.16326200  0.21486500  0.72661100  1
  C  C16  1  0.73122200  0.72054300  0.40061700  1
  C  C17  1  0.26877800  0.22054300  0.59938300  1
  C  C18  1  0.18441500  0.01573500  0.30258000  1
  C  C19  1  0.81558500  0.51573500  0.69742000  1
  Ni  Ni20  1  0.59617200  0.33165100  0.15040200  1
  Ni  Ni21  1  0.40382800  0.83165100  0.84959800  1
  Ni  Ni22  1  0.41284700  0.31610000  0.32342700  1
  Ni  Ni23  1  0.58715300  0.81610000  0.67657300  1
  Ni  Ni24  1  0.95797700  0.87064900  0.35600500  1
  Ni  Ni25  1  0.04202300  0.37064900  0.64399500  1
  Ni  Ni26  1  0.10706300  0.89837100  0.17924900  1
  Ni  Ni27  1  0.89293700  0.39837100  0.82075100  1
  C  C28  1  0.37631400  0.19680300  0.40911600  1
  C  C29  1  0.62368600  0.69680300  0.59088400  1
  C  C30  1  0.31246700  0.46816300  0.33668800  1
  C  C31  1  0.68753300  0.96816300  0.66331200  1
  C  C32  1  0.25335800  0.01648400  0.11272600  1
  C  C33  1  0.74664200  0.51648400  0.88727400  1
  C  C34  1  0.99577500  0.75727200  0.13052300  1
  C  C35  1  0.00422500  0.25727200  0.86947700  1
  Cu  Cu36  1  0.73922200  0.26292500  0.08783800  1
  Cu  Cu37  1  0.26077800  0.76292500  0.91216200  1
  Cu  Cu38  1  0.54341500  0.27359400  0.23937200  1
  Cu  Cu39  1  0.45658500  0.77359400  0.76062800  1
  Cu  Cu40  1  0.50483800  0.44795000  0.12608100  1
  Cu  Cu41  1  0.49516200  0.94795000  0.87391900  1
  Cu  Cu42  1  0.96927400  0.93113600  0.44439500  1
  Cu  Cu43  1  0.03072600  0.43113600  0.55560500  1
  Cu  Cu44  1  0.08759700  0.93049100  0.28076300  1
  Cu  Cu45  1  0.91240300  0.43049100  0.71923700  1
  Cu  Cu46  1  0.82825700  0.75929600  0.34238600  1
  Cu  Cu47  1  0.17174300  0.25929600  0.65761400  1
