# generated using pymatgen
data_Cu6Ni2C
_symmetry_space_group_name_H-M   'P 1'
_cell_length_a   4.97465900
_cell_length_b   5.06733402
_cell_length_c   5.06733400
_cell_angle_alpha   60.00000015
_cell_angle_beta   90.00000000
_cell_angle_gamma   90.00000000
_symmetry_Int_Tables_number   1
_chemical_formula_structural   Cu6Ni2C
_chemical_formula_sum   'Cu6 Ni2 C1'
_cell_volume   110.62493076
_cell_formula_units_Z   1
loop_
 _symmetry_equiv_pos_site_id
 _symmetry_equiv_pos_as_xyz
  1  'x, y, z'
loop_
 _atom_site_type_symbol
 _atom_site_label
 _atom_site_symmetry_multiplicity
 _atom_site_fract_x
 _atom_site_fract_y
 _atom_site_fract_z
 _atom_site_occupancy
  C  C0  1  0.00000000  0.00000000  0.00000000  1
  Ni  Ni1  1  0.74234900  0.33333400  0.33333300  1
  Ni  Ni2  1  0.25765100  0.66666600  0.66666700  1
  Cu  Cu3  1  0.20329600  0.15813100  0.68373800  1
  Cu  Cu4  1  0.20329600  0.15813100  0.15813100  1
  Cu  Cu5  1  0.20329600  0.68373800  0.15813100  1
  Cu  Cu6  1  0.79670400  0.84186900  0.31626200  1
  Cu  Cu7  1  0.79670400  0.84186900  0.84186900  1
  Cu  Cu8  1  0.79670400  0.31626200  0.84186900  1
