# generated using pymatgen
data_Cu15(NiC4)2
_symmetry_space_group_name_H-M   'P 1'
_cell_length_a   8.75751134
_cell_length_b   8.75751134
_cell_length_c   8.25969749
_cell_angle_alpha   76.57434958
_cell_angle_beta   76.57434958
_cell_angle_gamma   115.03629157
_symmetry_Int_Tables_number   1
_chemical_formula_structural   Cu15(NiC4)2
_chemical_formula_sum   'Cu15 Ni2 C8'
_cell_volume   517.53402909
_cell_formula_units_Z   1
loop_
 _symmetry_equiv_pos_site_id
 _symmetry_equiv_pos_as_xyz
  1  'x, y, z'
loop_
 _atom_site_type_symbol
 _atom_site_label
 _atom_site_symmetry_multiplicity
 _atom_site_fract_x
 _atom_site_fract_y
 _atom_site_fract_z
 _atom_site_occupancy
  C  C0  1  0.90330200  0.53785600  0.88781800  1
  C  C1  1  0.97421800  0.68477600  0.31747100  1
  C  C2  1  0.62533800  0.95281000  0.37969200  1
  C  C3  1  0.62253000  0.93781100  0.84366400  1
  C  C4  1  0.46214400  0.09669800  0.11218200  1
  C  C5  1  0.31522400  0.02578200  0.68252900  1
  C  C6  1  0.04719000  0.37466200  0.62030800  1
  C  C7  1  0.06218900  0.37747000  0.15633600  1
  Ni  Ni8  1  0.99342000  0.00658000  0.50000000  1
  Ni  Ni9  1  0.01376400  0.98623600  0.00000000  1
  Cu  Cu10  1  0.13077500  0.77083500  0.76570200  1
  Cu  Cu11  1  0.22916500  0.86922500  0.23429800  1
  Cu  Cu12  1  0.79630000  0.18935900  0.69695000  1
  Cu  Cu13  1  0.81064100  0.20370000  0.30305000  1
  Cu  Cu14  1  0.00346800  0.37769600  0.90831700  1
  Cu  Cu15  1  0.06812600  0.50005000  0.35607400  1
  Cu  Cu16  1  0.44563400  0.04697700  0.88720300  1
  Cu  Cu17  1  0.46098500  0.06747200  0.35876300  1
  Cu  Cu18  1  0.49995000  0.93187400  0.64392600  1
  Cu  Cu19  1  0.62230400  0.99653200  0.09168300  1
  Cu  Cu20  1  0.93252800  0.53901500  0.64123700  1
  Cu  Cu21  1  0.95302300  0.55436600  0.11279700  1
  Cu  Cu22  1  0.46375700  0.53624300  0.50000000  1
  Cu  Cu23  1  0.54820400  0.45179600  0.50000000  1
  Cu  Cu24  1  0.62582100  0.37417900  0.00000000  1
