# generated using pymatgen
data_Cu9NiC8
_symmetry_space_group_name_H-M   'P 1'
_cell_length_a   9.24156823
_cell_length_b   9.24156823
_cell_length_c   7.99094900
_cell_angle_alpha   90.00000000
_cell_angle_beta   90.00000000
_cell_angle_gamma   109.95568430
_symmetry_Int_Tables_number   1
_chemical_formula_structural   Cu9NiC8
_chemical_formula_sum   'Cu18 Ni2 C16'
_cell_volume   641.50144237
_cell_formula_units_Z   2
loop_
 _symmetry_equiv_pos_site_id
 _symmetry_equiv_pos_as_xyz
  1  'x, y, z'
loop_
 _atom_site_type_symbol
 _atom_site_label
 _atom_site_symmetry_multiplicity
 _atom_site_fract_x
 _atom_site_fract_y
 _atom_site_fract_z
 _atom_site_occupancy
  C  C0  1  0.23875900  0.23875900  0.00000000  1
  C  C1  1  0.76124100  0.76124100  0.50000000  1
  C  C2  1  0.99516200  0.73586500  0.05635800  1
  C  C3  1  0.73586500  0.99516200  0.94364200  1
  C  C4  1  0.00483800  0.26413500  0.55635800  1
  C  C5  1  0.26413500  0.00483800  0.44364200  1
  C  C6  1  0.63701600  0.36298400  0.25000000  1
  C  C7  1  0.36298400  0.63701600  0.75000000  1
  C  C8  1  0.35886400  0.64113600  0.25000000  1
  C  C9  1  0.64113600  0.35886400  0.75000000  1
  C  C10  1  0.40406200  0.98496900  0.03137800  1
  C  C11  1  0.98496900  0.40406200  0.96862200  1
  C  C12  1  0.59593800  0.01503100  0.53137800  1
  C  C13  1  0.01503100  0.59593800  0.46862200  1
  C  C14  1  0.62750000  0.62750000  0.00000000  1
  C  C15  1  0.37250000  0.37250000  0.50000000  1
  Ni  Ni16  1  0.95293900  0.04706100  0.25000000  1
  Ni  Ni17  1  0.04706100  0.95293900  0.75000000  1
  Cu  Cu18  1  0.49467400  0.49467400  0.00000000  1
  Cu  Cu19  1  0.50532600  0.50532600  0.50000000  1
  Cu  Cu20  1  0.50934500  0.13202900  0.99209100  1
  Cu  Cu21  1  0.13202900  0.50934500  0.00790900  1
  Cu  Cu22  1  0.49065500  0.86797100  0.49209100  1
  Cu  Cu23  1  0.86797100  0.49065500  0.50790900  1
  Cu  Cu24  1  0.85230700  0.43488000  0.01427800  1
  Cu  Cu25  1  0.43488000  0.85230700  0.98572200  1
  Cu  Cu26  1  0.14769300  0.56512000  0.51427800  1
  Cu  Cu27  1  0.56512000  0.14769300  0.48572200  1
  Cu  Cu28  1  0.31042800  0.30742700  0.65258300  1
  Cu  Cu29  1  0.30742700  0.31042800  0.34741700  1
  Cu  Cu30  1  0.68957200  0.69257300  0.15258300  1
  Cu  Cu31  1  0.69257300  0.68957200  0.84741700  1
  Cu  Cu32  1  0.27022000  0.97128400  0.11922700  1
  Cu  Cu33  1  0.97128400  0.27022000  0.88077300  1
  Cu  Cu34  1  0.72978000  0.02871600  0.61922700  1
  Cu  Cu35  1  0.02871600  0.72978000  0.38077300  1
