# generated using pymatgen
data_Cu14NiC16
_symmetry_space_group_name_H-M   'P 1'
_cell_length_a   8.60185987
_cell_length_b   8.80822931
_cell_length_c   4.43683591
_cell_angle_alpha   90.00000000
_cell_angle_beta   90.00000000
_cell_angle_gamma   90.00000000
_symmetry_Int_Tables_number   1
_chemical_formula_structural   Cu14NiC16
_chemical_formula_sum   'Cu14 Ni1 C16'
_cell_volume   336.16643067
_cell_formula_units_Z   1
loop_
 _symmetry_equiv_pos_site_id
 _symmetry_equiv_pos_as_xyz
  1  'x, y, z'
loop_
 _atom_site_type_symbol
 _atom_site_label
 _atom_site_symmetry_multiplicity
 _atom_site_fract_x
 _atom_site_fract_y
 _atom_site_fract_z
 _atom_site_occupancy
  C  C0  1  0.01773074  0.00000000  -0.00000000  1
  Ni  Ni1  1  0.50349411  0.50000000  -0.00000000  1
  Cu  Cu2  1  0.99724334  0.50000000  -0.00000000  1
  Cu  Cu3  1  0.49216416  0.00000000  -0.00000000  1
  Cu  Cu4  1  0.99921024  0.24951199  0.50000000  1
  Cu  Cu5  1  0.99921024  0.75048801  0.50000000  1
  Cu  Cu6  1  0.50073281  0.23911172  0.50000000  1
  Cu  Cu7  1  0.50073281  0.76088828  0.50000000  1
  Cu  Cu8  1  0.25172715  0.00000000  0.50000000  1
  Cu  Cu9  1  0.24003017  0.50000000  0.50000000  1
  Cu  Cu10  1  0.75259765  0.00000000  0.50000000  1
  Cu  Cu11  1  0.76012423  0.50000000  0.50000000  1
  Cu  Cu12  1  0.24413603  0.25422535  -0.00000000  1
  Cu  Cu13  1  0.24413603  0.74577465  0.00000000  1
  Cu  Cu14  1  0.75754620  0.23955378  0.00000000  1
  Cu  Cu15  1  0.75754620  0.76044622  0.00000000  1
  C  C16  1  0.25423676  0.50000000  -0.00000000  1
  C  C17  1  0.72593922  0.00000000  -0.00000000  1
  C  C18  1  0.74816839  0.50000000  -0.00000000  1
  C  C19  1  0.25126000  0.25579570  0.50000000  1
  C  C20  1  0.25126000  0.74420430  0.50000000  1
  C  C21  1  0.74876246  0.25129694  0.50000000  1
  C  C22  1  0.74876246  0.74870306  0.50000000  1
  C  C23  1  0.99591178  0.00000000  0.50000000  1
  C  C24  1  0.99961519  0.50000000  0.50000000  1
  C  C25  1  0.50149836  0.00000000  0.50000000  1
  C  C26  1  0.50199400  0.50000000  0.50000000  1
  C  C27  1  0.99937561  0.27557766  -0.00000000  1
  C  C28  1  0.99937561  0.72442234  -0.00000000  1
  C  C29  1  0.50273903  0.25750215  -0.00000000  1
  C  C30  1  0.50273903  0.74249785  -0.00000000  1
