# generated using pymatgen
data_CuNiC9
_symmetry_space_group_name_H-M   'P 1'
_cell_length_a   10.79341827
_cell_length_b   10.79341827
_cell_length_c   14.12514003
_cell_angle_alpha   49.56986501
_cell_angle_beta   49.56986501
_cell_angle_gamma   30.68348257
_symmetry_Int_Tables_number   1
_chemical_formula_structural   CuNiC9
_chemical_formula_sum   'Cu4 Ni4 C36'
_cell_volume   621.48284923
_cell_formula_units_Z   4
loop_
 _symmetry_equiv_pos_site_id
 _symmetry_equiv_pos_as_xyz
  1  'x, y, z'
loop_
 _atom_site_type_symbol
 _atom_site_label
 _atom_site_symmetry_multiplicity
 _atom_site_fract_x
 _atom_site_fract_y
 _atom_site_fract_z
 _atom_site_occupancy
  C  C0  1  0.88276100  0.57994500  0.40571800  1
  C  C1  1  0.42005500  0.11723900  0.09428200  1
  C  C2  1  0.11723900  0.42005500  0.59428200  1
  C  C3  1  0.57994500  0.88276100  0.90571800  1
  C  C4  1  0.46286300  0.74507800  0.70088700  1
  C  C5  1  0.25492200  0.53713700  0.79911300  1
  C  C6  1  0.53713800  0.25492200  0.29911300  1
  C  C7  1  0.74507800  0.46286300  0.20088700  1
  Ni  Ni8  1  0.74958900  0.20230000  0.82396900  1
  Ni  Ni9  1  0.79770000  0.25041100  0.67603100  1
  Ni  Ni10  1  0.25041100  0.79770000  0.17603100  1
  Ni  Ni11  1  0.20230000  0.74958900  0.32396900  1
  Cu  Cu12  1  0.27172700  0.96934500  0.43032800  1
  Cu  Cu13  1  0.03065500  0.72827300  0.06967200  1
  Cu  Cu14  1  0.72827300  0.03065500  0.56967200  1
  Cu  Cu15  1  0.96934500  0.27172700  0.93032800  1
  C  C16  1  0.50292200  0.77116600  0.50281700  1
  C  C17  1  0.22883400  0.49707800  0.99718300  1
  C  C18  1  0.49707800  0.22883400  0.49718300  1
  C  C19  1  0.77116600  0.50292200  0.00281700  1
  C  C20  1  0.78815000  0.58584500  0.59899900  1
  C  C21  1  0.41415500  0.21185000  0.90100100  1
  C  C22  1  0.21185000  0.41415500  0.40100100  1
  C  C23  1  0.58584500  0.78815000  0.09899900  1
  C  C24  1  0.01744700  0.22904700  0.49179200  1
  C  C25  1  0.77095300  0.98255300  0.00820800  1
  C  C26  1  0.98255300  0.77095300  0.50820800  1
  C  C27  1  0.22904700  0.01744700  0.99179200  1
  C  C28  1  0.21977300  0.78022700  0.75000000  1
  C  C29  1  0.78022700  0.21977300  0.25000000  1
  C  C30  1  0.67154700  0.32845300  0.75000000  1
  C  C31  1  0.32845300  0.67154700  0.25000000  1
  C  C32  1  0.50144300  0.63466600  0.84862000  1
  C  C33  1  0.36533400  0.49855700  0.65138000  1
  C  C34  1  0.49855700  0.36533400  0.15138000  1
  C  C35  1  0.63466600  0.50144300  0.34862000  1
  C  C36  1  0.38714900  0.05829200  0.28105900  1
  C  C37  1  0.94170800  0.61285100  0.21894100  1
  C  C38  1  0.61285100  0.94170800  0.71894100  1
  C  C39  1  0.05829200  0.38714900  0.78105900  1
  C  C40  1  0.26775700  0.06287300  0.66126200  1
  C  C41  1  0.93712700  0.73224300  0.83873800  1
  C  C42  1  0.73224300  0.93712700  0.33873800  1
  C  C43  1  0.06287300  0.26775700  0.16126200  1
