# generated using pymatgen
data_CuNiC6
_symmetry_space_group_name_H-M   'P 1'
_cell_length_a   7.47442716
_cell_length_b   11.32798200
_cell_length_c   5.99032288
_cell_angle_alpha   90.00000000
_cell_angle_beta   124.28534911
_cell_angle_gamma   90.00000000
_symmetry_Int_Tables_number   1
_chemical_formula_structural   CuNiC6
_chemical_formula_sum   'Cu2 Ni2 C12'
_cell_volume   419.07152704
_cell_formula_units_Z   2
loop_
 _symmetry_equiv_pos_site_id
 _symmetry_equiv_pos_as_xyz
  1  'x, y, z'
loop_
 _atom_site_type_symbol
 _atom_site_label
 _atom_site_symmetry_multiplicity
 _atom_site_fract_x
 _atom_site_fract_y
 _atom_site_fract_z
 _atom_site_occupancy
  C  C0  1  0.37047000  0.25000000  0.31304700  1
  C  C1  1  0.62953000  0.75000000  0.68695300  1
  C  C2  1  0.24318700  0.25000000  0.72557800  1
  C  C3  1  0.75681300  0.75000000  0.27442200  1
  C  C4  1  0.24875300  0.35067600  0.58228000  1
  C  C5  1  0.75124700  0.85067600  0.41772000  1
  C  C6  1  0.75124700  0.64932400  0.41772000  1
  C  C7  1  0.24875300  0.14932400  0.58228000  1
  C  C8  1  0.27848600  0.39532600  0.41501700  1
  C  C9  1  0.72151400  0.89532600  0.58498300  1
  C  C10  1  0.72151400  0.60467400  0.58498300  1
  C  C11  1  0.27848600  0.10467400  0.41501700  1
  Ni  Ni12  1  0.25003000  0.25000000  0.94183500  1
  Ni  Ni13  1  0.74997000  0.75000000  0.05816500  1
  Cu  Cu14  1  0.71284200  0.25000000  0.52584500  1
  Cu  Cu15  1  0.28715800  0.75000000  0.47415500  1
