# generated using pymatgen
data_Cu2(NiC5)3
_symmetry_space_group_name_H-M   'P 1'
_cell_length_a   17.19958466
_cell_length_b   17.19958466
_cell_length_c   17.19958466
_cell_angle_alpha   90.00000000
_cell_angle_beta   90.00000000
_cell_angle_gamma   90.00000000
_symmetry_Int_Tables_number   1
_chemical_formula_structural   Cu2(NiC5)3
_chemical_formula_sum   'Cu32 Ni48 C240'
_cell_volume   5088.07938634
_cell_formula_units_Z   16
loop_
 _symmetry_equiv_pos_site_id
 _symmetry_equiv_pos_as_xyz
  1  'x, y, z'
loop_
 _atom_site_type_symbol
 _atom_site_label
 _atom_site_symmetry_multiplicity
 _atom_site_fract_x
 _atom_site_fract_y
 _atom_site_fract_z
 _atom_site_occupancy
  Ni  Ni0  1  0.49443219  0.74513624  0.99756794  1
  Ni  Ni1  1  0.50556781  0.24513624  0.50243206  1
  Ni  Ni2  1  0.00556781  0.25486376  0.49756794  1
  Ni  Ni3  1  0.99443219  0.75486376  0.00243206  1
  Ni  Ni4  1  0.99756794  0.49443219  0.74513624  1
  Ni  Ni5  1  0.50243206  0.50556781  0.24513624  1
  Ni  Ni6  1  0.49756794  0.00556781  0.25486376  1
  Ni  Ni7  1  0.00243206  0.99443219  0.75486376  1
  Ni  Ni8  1  0.74513624  0.99756794  0.49443219  1
  Ni  Ni9  1  0.24513624  0.50243206  0.50556781  1
  Ni  Ni10  1  0.25486376  0.49756794  0.00556781  1
  Ni  Ni11  1  0.75486376  0.00243206  0.99443219  1
  Ni  Ni12  1  0.50556781  0.25486376  0.00243206  1
  Ni  Ni13  1  0.49443219  0.75486376  0.49756794  1
  Ni  Ni14  1  0.99443219  0.74513624  0.50243206  1
  Ni  Ni15  1  0.00556781  0.24513624  0.99756794  1
  Ni  Ni16  1  0.00243206  0.50556781  0.25486376  1
  Ni  Ni17  1  0.49756794  0.49443219  0.75486376  1
  Ni  Ni18  1  0.50243206  0.99443219  0.74513624  1
  Ni  Ni19  1  0.99756794  0.00556781  0.24513624  1
  Ni  Ni20  1  0.25486376  0.00243206  0.50556781  1
  Ni  Ni21  1  0.75486376  0.49756794  0.49443219  1
  Ni  Ni22  1  0.74513624  0.50243206  0.99443219  1
  Ni  Ni23  1  0.24513624  0.99756794  0.00556781  1
  Ni  Ni24  1  0.36951571  0.63048429  0.13048429  1
  Ni  Ni25  1  0.63048429  0.13048429  0.36951571  1
  Ni  Ni26  1  0.13048429  0.36951571  0.63048429  1
  Ni  Ni27  1  0.86951571  0.86951571  0.86951571  1
  Ni  Ni28  1  0.63048429  0.36951571  0.86951571  1
  Ni  Ni29  1  0.36951571  0.86951571  0.63048429  1
  Ni  Ni30  1  0.86951571  0.63048429  0.36951571  1
  Ni  Ni31  1  0.13048429  0.13048429  0.13048429  1
  Ni  Ni32  1  0.24808283  0.75191717  0.25191717  1
  Ni  Ni33  1  0.75191717  0.25191717  0.24808283  1
  Ni  Ni34  1  0.25191717  0.24808283  0.75191717  1
  Ni  Ni35  1  0.74808283  0.74808283  0.74808283  1
  Ni  Ni36  1  0.75191717  0.24808283  0.74808283  1
  Ni  Ni37  1  0.24808283  0.74808283  0.75191717  1
  Ni  Ni38  1  0.74808283  0.75191717  0.24808283  1
  Ni  Ni39  1  0.25191717  0.25191717  0.25191717  1
  Ni  Ni40  1  0.12465009  0.87534991  0.37534991  1
  Ni  Ni41  1  0.87534991  0.37534991  0.12465009  1
  Ni  Ni42  1  0.37534991  0.12465009  0.87534991  1
  Ni  Ni43  1  0.62465009  0.62465009  0.62465009  1
  Ni  Ni44  1  0.87534991  0.12465009  0.62465009  1
  Ni  Ni45  1  0.12465009  0.62465009  0.87534991  1
  Ni  Ni46  1  0.62465009  0.87534991  0.12465009  1
  Ni  Ni47  1  0.37534991  0.37534991  0.37534991  1
  Cu  Cu48  1  0.28310162  0.99705616  0.25080622  1
  Cu  Cu49  1  0.71689838  0.49705616  0.24919378  1
  Cu  Cu50  1  0.21689838  0.00294384  0.75080622  1
  Cu  Cu51  1  0.78310162  0.50294384  0.74919378  1
  Cu  Cu52  1  0.25080622  0.28310162  0.99705616  1
  Cu  Cu53  1  0.24919378  0.71689838  0.49705616  1
  Cu  Cu54  1  0.75080622  0.21689838  0.00294384  1
  Cu  Cu55  1  0.74919378  0.78310162  0.50294384  1
  Cu  Cu56  1  0.99705616  0.25080622  0.28310162  1
  Cu  Cu57  1  0.49705616  0.24919378  0.71689838  1
  Cu  Cu58  1  0.00294384  0.75080622  0.21689838  1
  Cu  Cu59  1  0.50294384  0.74919378  0.78310162  1
  Cu  Cu60  1  0.71689838  0.00294384  0.74919378  1
  Cu  Cu61  1  0.28310162  0.50294384  0.75080622  1
  Cu  Cu62  1  0.78310162  0.99705616  0.24919378  1
  Cu  Cu63  1  0.21689838  0.49705616  0.25080622  1
  Cu  Cu64  1  0.74919378  0.71689838  0.00294384  1
  Cu  Cu65  1  0.75080622  0.28310162  0.50294384  1
  Cu  Cu66  1  0.24919378  0.78310162  0.99705616  1
  Cu  Cu67  1  0.25080622  0.21689838  0.49705616  1
  Cu  Cu68  1  0.00294384  0.74919378  0.71689838  1
  Cu  Cu69  1  0.50294384  0.75080622  0.28310162  1
  Cu  Cu70  1  0.99705616  0.24919378  0.78310162  1
  Cu  Cu71  1  0.49705616  0.25080622  0.21689838  1
  Cu  Cu72  1  0.50000000  -0.00000000  0.00000000  1
  Cu  Cu73  1  0.50000000  0.50000000  0.50000000  1
  Cu  Cu74  1  0.00000000  -0.00000000  0.50000000  1
  Cu  Cu75  1  0.00000000  0.50000000  0.00000000  1
  Cu  Cu76  1  0.50000000  -0.00000000  0.50000000  1
  Cu  Cu77  1  0.50000000  0.50000000  0.00000000  1
  Cu  Cu78  1  0.00000000  -0.00000000  0.00000000  1
  Cu  Cu79  1  0.00000000  0.50000000  0.50000000  1
  C  C80  1  0.36132615  0.13100911  0.09943616  1
  C  C81  1  0.63867385  0.63100911  0.40056384  1
  C  C82  1  0.13867385  0.86899089  0.59943616  1
  C  C83  1  0.86132615  0.36899089  0.90056384  1
  C  C84  1  0.09943616  0.36132615  0.13100911  1
  C  C85  1  0.40056384  0.63867385  0.63100911  1
  C  C86  1  0.59943616  0.13867385  0.86899089  1
  C  C87  1  0.90056384  0.86132615  0.36899089  1
  C  C88  1  0.13100911  0.09943616  0.36132615  1
  C  C89  1  0.63100911  0.40056384  0.63867385  1
  C  C90  1  0.86899089  0.59943616  0.13867385  1
  C  C91  1  0.36899089  0.90056384  0.86132615  1
  C  C92  1  0.63867385  0.86899089  0.90056384  1
  C  C93  1  0.36132615  0.36899089  0.59943616  1
  C  C94  1  0.86132615  0.13100911  0.40056384  1
  C  C95  1  0.13867385  0.63100911  0.09943616  1
  C  C96  1  0.90056384  0.63867385  0.86899089  1
  C  C97  1  0.59943616  0.36132615  0.36899089  1
  C  C98  1  0.40056384  0.86132615  0.13100911  1
  C  C99  1  0.09943616  0.13867385  0.63100911  1
  C  C100  1  0.86899089  0.90056384  0.63867385  1
  C  C101  1  0.36899089  0.59943616  0.36132615  1
  C  C102  1  0.13100911  0.40056384  0.86132615  1
  C  C103  1  0.63100911  0.09943616  0.13867385  1
  C  C104  1  0.36541860  0.86918576  0.39575713  1
  C  C105  1  0.63458140  0.36918576  0.10424287  1
  C  C106  1  0.13458140  0.13081424  0.89575713  1
  C  C107  1  0.86541860  0.63081424  0.60424287  1
  C  C108  1  0.39575713  0.36541860  0.86918576  1
  C  C109  1  0.10424287  0.63458140  0.36918576  1
  C  C110  1  0.89575713  0.13458140  0.13081424  1
  C  C111  1  0.60424287  0.86541860  0.63081424  1
  C  C112  1  0.86918576  0.39575713  0.36541860  1
  C  C113  1  0.36918576  0.10424287  0.63458140  1
  C  C114  1  0.13081424  0.89575713  0.13458140  1
  C  C115  1  0.63081424  0.60424287  0.86541860  1
  C  C116  1  0.63458140  0.13081424  0.60424287  1
  C  C117  1  0.36541860  0.63081424  0.89575713  1
  C  C118  1  0.86541860  0.86918576  0.10424287  1
  C  C119  1  0.13458140  0.36918576  0.39575713  1
  C  C120  1  0.60424287  0.63458140  0.13081424  1
  C  C121  1  0.89575713  0.36541860  0.63081424  1
  C  C122  1  0.10424287  0.86541860  0.86918576  1
  C  C123  1  0.39575713  0.13458140  0.36918576  1
  C  C124  1  0.13081424  0.60424287  0.63458140  1
  C  C125  1  0.63081424  0.89575713  0.36541860  1
  C  C126  1  0.86918576  0.10424287  0.86541860  1
  C  C127  1  0.36918576  0.39575713  0.13458140  1
  C  C128  1  0.39960184  0.06132962  0.03842294  1
  C  C129  1  0.60039816  0.56132962  0.46157706  1
  C  C130  1  0.10039816  0.93867038  0.53842294  1
  C  C131  1  0.89960184  0.43867038  0.96157706  1
  C  C132  1  0.03842294  0.39960184  0.06132962  1
  C  C133  1  0.46157706  0.60039816  0.56132962  1
  C  C134  1  0.53842294  0.10039816  0.93867038  1
  C  C135  1  0.96157706  0.89960184  0.43867038  1
  C  C136  1  0.06132962  0.03842294  0.39960184  1
  C  C137  1  0.56132962  0.46157706  0.60039816  1
  C  C138  1  0.93867038  0.53842294  0.10039816  1
  C  C139  1  0.43867038  0.96157706  0.89960184  1
  C  C140  1  0.60039816  0.93867038  0.96157706  1
  C  C141  1  0.39960184  0.43867038  0.53842294  1
  C  C142  1  0.89960184  0.06132962  0.46157706  1
  C  C143  1  0.10039816  0.56132962  0.03842294  1
  C  C144  1  0.96157706  0.60039816  0.93867038  1
  C  C145  1  0.53842294  0.39960184  0.43867038  1
  C  C146  1  0.46157706  0.89960184  0.06132962  1
  C  C147  1  0.03842294  0.10039816  0.56132962  1
  C  C148  1  0.93867038  0.96157706  0.60039816  1
  C  C149  1  0.43867038  0.53842294  0.39960184  1
  C  C150  1  0.06132962  0.46157706  0.89960184  1
  C  C151  1  0.56132962  0.03842294  0.10039816  1
  C  C152  1  0.30744480  0.09260442  0.17482155  1
  C  C153  1  0.69255520  0.59260442  0.32517845  1
  C  C154  1  0.19255520  0.90739558  0.67482155  1
  C  C155  1  0.80744480  0.40739558  0.82517845  1
  C  C156  1  0.17482155  0.30744480  0.09260442  1
  C  C157  1  0.32517845  0.69255520  0.59260442  1
  C  C158  1  0.67482155  0.19255520  0.90739558  1
  C  C159  1  0.82517845  0.80744480  0.40739558  1
  C  C160  1  0.09260442  0.17482155  0.30744480  1
  C  C161  1  0.59260442  0.32517845  0.69255520  1
  C  C162  1  0.90739558  0.67482155  0.19255520  1
  C  C163  1  0.40739558  0.82517845  0.80744480  1
  C  C164  1  0.69255520  0.90739558  0.82517845  1
  C  C165  1  0.30744480  0.40739558  0.67482155  1
  C  C166  1  0.80744480  0.09260442  0.32517845  1
  C  C167  1  0.19255520  0.59260442  0.17482155  1
  C  C168  1  0.82517845  0.69255520  0.90739558  1
  C  C169  1  0.67482155  0.30744480  0.40739558  1
  C  C170  1  0.32517845  0.80744480  0.09260442  1
  C  C171  1  0.17482155  0.19255520  0.59260442  1
  C  C172  1  0.90739558  0.82517845  0.69255520  1
  C  C173  1  0.40739558  0.67482155  0.30744480  1
  C  C174  1  0.09260442  0.32517845  0.80744480  1
  C  C175  1  0.59260442  0.17482155  0.19255520  1
  C  C176  1  0.37052695  0.93264357  0.19307498  1
  C  C177  1  0.62947305  0.43264357  0.30692502  1
  C  C178  1  0.12947305  0.06735643  0.69307498  1
  C  C179  1  0.87052695  0.56735643  0.80692502  1
  C  C180  1  0.19307498  0.37052695  0.93264357  1
  C  C181  1  0.30692502  0.62947305  0.43264357  1
  C  C182  1  0.69307498  0.12947305  0.06735643  1
  C  C183  1  0.80692502  0.87052695  0.56735643  1
  C  C184  1  0.93264357  0.19307498  0.37052695  1
  C  C185  1  0.43264357  0.30692502  0.62947305  1
  C  C186  1  0.06735643  0.69307498  0.12947305  1
  C  C187  1  0.56735643  0.80692502  0.87052695  1
  C  C188  1  0.62947305  0.06735643  0.80692502  1
  C  C189  1  0.37052695  0.56735643  0.69307498  1
  C  C190  1  0.87052695  0.93264357  0.30692502  1
  C  C191  1  0.12947305  0.43264357  0.19307498  1
  C  C192  1  0.80692502  0.62947305  0.06735643  1
  C  C193  1  0.69307498  0.37052695  0.56735643  1
  C  C194  1  0.30692502  0.87052695  0.93264357  1
  C  C195  1  0.19307498  0.12947305  0.43264357  1
  C  C196  1  0.06735643  0.80692502  0.62947305  1
  C  C197  1  0.56735643  0.69307498  0.37052695  1
  C  C198  1  0.93264357  0.30692502  0.87052695  1
  C  C199  1  0.43264357  0.19307498  0.12947305  1
  C  C200  1  0.17750497  0.04239469  0.29305774  1
  C  C201  1  0.82249503  0.54239469  0.20694226  1
  C  C202  1  0.32249503  0.95760531  0.79305774  1
  C  C203  1  0.67750497  0.45760531  0.70694226  1
  C  C204  1  0.29305774  0.17750497  0.04239469  1
  C  C205  1  0.20694226  0.82249503  0.54239469  1
  C  C206  1  0.79305774  0.32249503  0.95760531  1
  C  C207  1  0.70694226  0.67750497  0.45760531  1
  C  C208  1  0.04239469  0.29305774  0.17750497  1
  C  C209  1  0.54239469  0.20694226  0.82249503  1
  C  C210  1  0.95760531  0.79305774  0.32249503  1
  C  C211  1  0.45760531  0.70694226  0.67750497  1
  C  C212  1  0.82249503  0.95760531  0.70694226  1
  C  C213  1  0.17750497  0.45760531  0.79305774  1
  C  C214  1  0.67750497  0.04239469  0.20694226  1
  C  C215  1  0.32249503  0.54239469  0.29305774  1
  C  C216  1  0.70694226  0.82249503  0.95760531  1
  C  C217  1  0.79305774  0.17750497  0.45760531  1
  C  C218  1  0.20694226  0.67750497  0.04239469  1
  C  C219  1  0.29305774  0.32249503  0.54239469  1
  C  C220  1  0.95760531  0.70694226  0.82249503  1
  C  C221  1  0.45760531  0.79305774  0.17750497  1
  C  C222  1  0.04239469  0.20694226  0.67750497  1
  C  C223  1  0.54239469  0.29305774  0.32249503  1
  C  C224  1  0.28942348  0.90466344  0.34015671  1
  C  C225  1  0.71057652  0.40466344  0.15984329  1
  C  C226  1  0.21057652  0.09533656  0.84015671  1
  C  C227  1  0.78942348  0.59533656  0.65984329  1
  C  C228  1  0.34015671  0.28942348  0.90466344  1
  C  C229  1  0.15984329  0.71057652  0.40466344  1
  C  C230  1  0.84015671  0.21057652  0.09533656  1
  C  C231  1  0.65984329  0.78942348  0.59533656  1
  C  C232  1  0.90466344  0.34015671  0.28942348  1
  C  C233  1  0.40466344  0.15984329  0.71057652  1
  C  C234  1  0.09533656  0.84015671  0.21057652  1
  C  C235  1  0.59533656  0.65984329  0.78942348  1
  C  C236  1  0.71057652  0.09533656  0.65984329  1
  C  C237  1  0.28942348  0.59533656  0.84015671  1
  C  C238  1  0.78942348  0.90466344  0.15984329  1
  C  C239  1  0.21057652  0.40466344  0.34015671  1
  C  C240  1  0.65984329  0.71057652  0.09533656  1
  C  C241  1  0.84015671  0.28942348  0.59533656  1
  C  C242  1  0.15984329  0.78942348  0.90466344  1
  C  C243  1  0.34015671  0.21057652  0.40466344  1
  C  C244  1  0.09533656  0.65984329  0.71057652  1
  C  C245  1  0.59533656  0.84015671  0.28942348  1
  C  C246  1  0.90466344  0.15984329  0.78942348  1
  C  C247  1  0.40466344  0.34015671  0.21057652  1
  C  C248  1  0.39961757  0.93403258  0.46489752  1
  C  C249  1  0.60038243  0.43403258  0.03510248  1
  C  C250  1  0.10038243  0.06596742  0.96489752  1
  C  C251  1  0.89961757  0.56596742  0.53510248  1
  C  C252  1  0.46489752  0.39961757  0.93403258  1
  C  C253  1  0.03510248  0.60038243  0.43403258  1
  C  C254  1  0.96489752  0.10038243  0.06596742  1
  C  C255  1  0.53510248  0.89961757  0.56596742  1
  C  C256  1  0.93403258  0.46489752  0.39961757  1
  C  C257  1  0.43403258  0.03510248  0.60038243  1
  C  C258  1  0.06596742  0.96489752  0.10038243  1
  C  C259  1  0.56596742  0.53510248  0.89961757  1
  C  C260  1  0.60038243  0.06596742  0.53510248  1
  C  C261  1  0.39961757  0.56596742  0.96489752  1
  C  C262  1  0.89961757  0.93403258  0.03510248  1
  C  C263  1  0.10038243  0.43403258  0.46489752  1
  C  C264  1  0.53510248  0.60038243  0.06596742  1
  C  C265  1  0.96489752  0.39961757  0.56596742  1
  C  C266  1  0.03510248  0.89961757  0.93403258  1
  C  C267  1  0.46489752  0.10038243  0.43403258  1
  C  C268  1  0.06596742  0.53510248  0.60038243  1
  C  C269  1  0.56596742  0.96489752  0.39961757  1
  C  C270  1  0.93403258  0.03510248  0.89961757  1
  C  C271  1  0.43403258  0.46489752  0.10038243  1
  C  C272  1  0.34249864  0.05671952  0.33842671  1
  C  C273  1  0.65750136  0.55671952  0.16157329  1
  C  C274  1  0.15750136  0.94328048  0.83842671  1
  C  C275  1  0.84249864  0.44328048  0.66157329  1
  C  C276  1  0.33842671  0.34249864  0.05671952  1
  C  C277  1  0.16157329  0.65750136  0.55671952  1
  C  C278  1  0.83842671  0.15750136  0.94328048  1
  C  C279  1  0.66157329  0.84249864  0.44328048  1
  C  C280  1  0.05671952  0.33842671  0.34249864  1
  C  C281  1  0.55671952  0.16157329  0.65750136  1
  C  C282  1  0.94328048  0.83842671  0.15750136  1
  C  C283  1  0.44328048  0.66157329  0.84249864  1
  C  C284  1  0.65750136  0.94328048  0.66157329  1
  C  C285  1  0.34249864  0.44328048  0.83842671  1
  C  C286  1  0.84249864  0.05671952  0.16157329  1
  C  C287  1  0.15750136  0.55671952  0.33842671  1
  C  C288  1  0.66157329  0.65750136  0.94328048  1
  C  C289  1  0.83842671  0.34249864  0.44328048  1
  C  C290  1  0.16157329  0.84249864  0.05671952  1
  C  C291  1  0.33842671  0.15750136  0.55671952  1
  C  C292  1  0.94328048  0.66157329  0.65750136  1
  C  C293  1  0.44328048  0.83842671  0.34249864  1
  C  C294  1  0.05671952  0.16157329  0.84249864  1
  C  C295  1  0.55671952  0.33842671  0.15750136  1
  C  C296  1  0.20882343  0.94645748  0.17013202  1
  C  C297  1  0.79117657  0.44645748  0.32986798  1
  C  C298  1  0.29117657  0.05354252  0.67013202  1
  C  C299  1  0.70882343  0.55354252  0.82986798  1
  C  C300  1  0.17013202  0.20882343  0.94645748  1
  C  C301  1  0.32986798  0.79117657  0.44645748  1
  C  C302  1  0.67013202  0.29117657  0.05354252  1
  C  C303  1  0.82986798  0.70882343  0.55354252  1
  C  C304  1  0.94645748  0.17013202  0.20882343  1
  C  C305  1  0.44645748  0.32986798  0.79117657  1
  C  C306  1  0.05354252  0.67013202  0.29117657  1
  C  C307  1  0.55354252  0.82986798  0.70882343  1
  C  C308  1  0.79117657  0.05354252  0.82986798  1
  C  C309  1  0.20882343  0.55354252  0.67013202  1
  C  C310  1  0.70882343  0.94645748  0.32986798  1
  C  C311  1  0.29117657  0.44645748  0.17013202  1
  C  C312  1  0.82986798  0.79117657  0.05354252  1
  C  C313  1  0.67013202  0.20882343  0.55354252  1
  C  C314  1  0.32986798  0.70882343  0.94645748  1
  C  C315  1  0.17013202  0.29117657  0.44645748  1
  C  C316  1  0.05354252  0.82986798  0.79117657  1
  C  C317  1  0.55354252  0.67013202  0.20882343  1
  C  C318  1  0.94645748  0.32986798  0.70882343  1
  C  C319  1  0.44645748  0.17013202  0.29117657  1
