# generated using pymatgen
data_Cu3Ni2C19
_symmetry_space_group_name_H-M   'P 1'
_cell_length_a   12.39251600
_cell_length_b   12.39251600
_cell_length_c   16.82496449
_cell_angle_alpha   47.50573819
_cell_angle_beta   47.50573819
_cell_angle_gamma   26.09571142
_symmetry_Int_Tables_number   1
_chemical_formula_structural   Cu3Ni2C19
_chemical_formula_sum   'Cu6 Ni4 C38'
_cell_volume   818.94386476
_cell_formula_units_Z   2
loop_
 _symmetry_equiv_pos_site_id
 _symmetry_equiv_pos_as_xyz
  1  'x, y, z'
loop_
 _atom_site_type_symbol
 _atom_site_label
 _atom_site_symmetry_multiplicity
 _atom_site_fract_x
 _atom_site_fract_y
 _atom_site_fract_z
 _atom_site_occupancy
  Ni  Ni0  1  0.10837100  0.56037000  0.57411700  1
  Ni  Ni1  1  0.43963000  0.89162900  0.92588300  1
  Ni  Ni2  1  0.89162900  0.43963000  0.42588300  1
  Ni  Ni3  1  0.56037000  0.10837100  0.07411700  1
  Cu  Cu4  1  0.24937900  0.75062100  0.25000000  1
  Cu  Cu5  1  0.75062100  0.24937900  0.75000000  1
  Cu  Cu6  1  0.24955400  0.74835200  0.58593400  1
  Cu  Cu7  1  0.25164800  0.75044600  0.91406600  1
  Cu  Cu8  1  0.75044600  0.25164800  0.41406600  1
  Cu  Cu9  1  0.74835200  0.24955400  0.08593400  1
  C  C10  1  0.66529700  0.06393600  0.40355200  1
  C  C11  1  0.93606400  0.33470300  0.09644800  1
  C  C12  1  0.33470300  0.93606400  0.59644800  1
  C  C13  1  0.06393600  0.66529700  0.90355200  1
  C  C14  1  0.16263100  0.57207700  0.19667800  1
  C  C15  1  0.42792300  0.83736900  0.30332200  1
  C  C16  1  0.83736900  0.42792300  0.80332200  1
  C  C17  1  0.57207700  0.16263100  0.69667800  1
  C  C18  1  0.00000000  0.50000000  0.50000000  1
  C  C19  1  0.50000000  0.00000000  0.00000000  1
  C  C20  1  0.00340900  0.49694300  0.16872000  1
  C  C21  1  0.50305700  0.99659100  0.33128000  1
  C  C22  1  0.99659100  0.50305700  0.83128000  1
  C  C23  1  0.49694400  0.00340900  0.66872000  1
  C  C24  1  0.47822100  0.37548300  0.38477400  1
  C  C25  1  0.62451700  0.52177900  0.11522600  1
  C  C26  1  0.52177900  0.62451700  0.61522600  1
  C  C27  1  0.37548300  0.47822100  0.88477400  1
  C  C28  1  0.00335800  0.85407400  0.75703600  1
  C  C29  1  0.14592600  0.99664200  0.74296400  1
  C  C30  1  0.99664200  0.14592600  0.24296400  1
  C  C31  1  0.85407400  0.00335800  0.25703600  1
  C  C32  1  0.93076800  0.89690600  0.42661100  1
  C  C33  1  0.10309400  0.06923200  0.07338900  1
  C  C34  1  0.06923200  0.10309400  0.57338900  1
  C  C35  1  0.89690600  0.93076800  0.92661100  1
  C  C36  1  0.98313500  0.87848300  0.09043600  1
  C  C37  1  0.12151700  0.01686500  0.40956400  1
  C  C38  1  0.01686500  0.12151700  0.90956400  1
  C  C39  1  0.87848300  0.98313500  0.59043600  1
  C  C40  1  0.35322800  0.51378100  0.21104000  1
  C  C41  1  0.48621900  0.64677200  0.28896000  1
  C  C42  1  0.64677200  0.48621900  0.78896000  1
  C  C43  1  0.51378100  0.35322800  0.71104000  1
  C  C44  1  0.40000100  0.43118900  0.57671500  1
  C  C45  1  0.56881100  0.59999900  0.92328500  1
  C  C46  1  0.59999900  0.56881100  0.42328500  1
  C  C47  1  0.43118900  0.40000100  0.07671500  1
