# generated using pymatgen
data_Cu6Ni2C9
_symmetry_space_group_name_H-M   'P 1'
_cell_length_a   16.22613346
_cell_length_b   16.22613346
_cell_length_c   16.22613346
_cell_angle_alpha   60.00000000
_cell_angle_beta   60.00000000
_cell_angle_gamma   60.00000000
_symmetry_Int_Tables_number   1
_chemical_formula_structural   Cu6Ni2C9
_chemical_formula_sum   'Cu48 Ni16 C72'
_cell_volume   3020.85676219
_cell_formula_units_Z   8
loop_
 _symmetry_equiv_pos_site_id
 _symmetry_equiv_pos_as_xyz
  1  'x, y, z'
loop_
 _atom_site_type_symbol
 _atom_site_label
 _atom_site_symmetry_multiplicity
 _atom_site_fract_x
 _atom_site_fract_y
 _atom_site_fract_z
 _atom_site_occupancy
  C  C0  1  0.87500000  0.37500000  0.37500000  1
  C  C1  1  0.37500000  0.87500000  0.37500000  1
  C  C2  1  0.37500000  0.37500000  0.87500000  1
  C  C3  1  0.37500000  0.37500000  0.37500000  1
  C  C4  1  0.37500000  0.87500000  0.87500000  1
  C  C5  1  0.87500000  0.87500000  0.37500000  1
  C  C6  1  0.87500000  0.37500000  0.87500000  1
  C  C7  1  0.87500000  0.87500000  0.87500000  1
  C  C8  1  0.35902800  0.21365700  0.21365700  1
  C  C9  1  0.21365700  0.35902800  0.21365700  1
  C  C10  1  0.21365700  0.21365700  0.35902800  1
  C  C11  1  0.21365700  0.21365700  0.21365700  1
  C  C12  1  0.39097200  0.53634300  0.53634300  1
  C  C13  1  0.53634300  0.39097200  0.53634300  1
  C  C14  1  0.53634300  0.53634300  0.39097200  1
  C  C15  1  0.53634300  0.53634300  0.53634300  1
  C  C16  1  0.85902800  0.71365700  0.71365700  1
  C  C17  1  0.71365700  0.71365700  0.85902800  1
  C  C18  1  0.71365700  0.85902800  0.71365700  1
  C  C19  1  0.71365700  0.71365700  0.71365700  1
  C  C20  1  0.89097200  0.03634300  0.03634300  1
  C  C21  1  0.03634300  0.03634300  0.89097200  1
  C  C22  1  0.03634300  0.89097200  0.03634300  1
  C  C23  1  0.03634300  0.03634300  0.03634300  1
  C  C24  1  0.54612200  0.91806000  0.07200600  1
  C  C25  1  0.91806000  0.54612200  0.46381200  1
  C  C26  1  0.07200600  0.46381200  0.54612200  1
  C  C27  1  0.46381200  0.07200600  0.91806000  1
  C  C28  1  0.91806000  0.07200600  0.54612200  1
  C  C29  1  0.54612200  0.46381200  0.91806000  1
  C  C30  1  0.46381200  0.54612200  0.07200600  1
  C  C31  1  0.07200600  0.91806000  0.46381200  1
  C  C32  1  0.07200600  0.54612200  0.91806000  1
  C  C33  1  0.46381200  0.91806000  0.54612200  1
  C  C34  1  0.54612200  0.07200600  0.46381200  1
  C  C35  1  0.91806000  0.46381200  0.07200600  1
  C  C36  1  0.20387800  0.83194000  0.67799400  1
  C  C37  1  0.83194000  0.20387800  0.28618800  1
  C  C38  1  0.67799400  0.28618800  0.20387800  1
  C  C39  1  0.28618800  0.67799400  0.83194000  1
  C  C40  1  0.83194000  0.67799400  0.20387800  1
  C  C41  1  0.20387800  0.28618800  0.83194000  1
  C  C42  1  0.28618800  0.20387800  0.67799400  1
  C  C43  1  0.67799400  0.83194000  0.28618800  1
  C  C44  1  0.67799400  0.20387800  0.83194000  1
  C  C45  1  0.28618800  0.83194000  0.20387800  1
  C  C46  1  0.20387800  0.67799400  0.28618800  1
  C  C47  1  0.83194000  0.28618800  0.67799400  1
  C  C48  1  0.04612200  0.57200600  0.41806000  1
  C  C49  1  0.41806000  0.96381200  0.04612200  1
  C  C50  1  0.57200600  0.04612200  0.96381200  1
  C  C51  1  0.96381200  0.41806000  0.57200600  1
  C  C52  1  0.41806000  0.04612200  0.57200600  1
  C  C53  1  0.04612200  0.41806000  0.96381200  1
  C  C54  1  0.96381200  0.57200600  0.04612200  1
  C  C55  1  0.57200600  0.96381200  0.41806000  1
  C  C56  1  0.57200600  0.41806000  0.04612200  1
  C  C57  1  0.96381200  0.04612200  0.41806000  1
  C  C58  1  0.04612200  0.96381200  0.57200600  1
  C  C59  1  0.41806000  0.57200600  0.96381200  1
  C  C60  1  0.70387800  0.17799400  0.33194000  1
  C  C61  1  0.33194000  0.78618800  0.70387800  1
  C  C62  1  0.17799400  0.70387800  0.78618800  1
  C  C63  1  0.78618800  0.33194000  0.17799400  1
  C  C64  1  0.33194000  0.70387800  0.17799400  1
  C  C65  1  0.70387800  0.33194000  0.78618800  1
  C  C66  1  0.78618800  0.17799400  0.70387800  1
  C  C67  1  0.17799400  0.78618800  0.33194000  1
  C  C68  1  0.17799400  0.33194000  0.70387800  1
  C  C69  1  0.78618800  0.70387800  0.33194000  1
  C  C70  1  0.70387800  0.78618800  0.17799400  1
  C  C71  1  0.33194000  0.17799400  0.78618800  1
  Ni  Ni72  1  0.25000000  0.25000000  0.25000000  1
  Ni  Ni73  1  0.50000000  0.50000000  0.50000000  1
  Ni  Ni74  1  0.75000000  0.75000000  0.75000000  1
  Ni  Ni75  1  0.00000000  0.00000000  0.00000000  1
  Ni  Ni76  1  0.50000000  0.50000000  0.00000000  1
  Ni  Ni77  1  0.00000000  0.00000000  0.50000000  1
  Ni  Ni78  1  0.50000000  0.00000000  0.50000000  1
  Ni  Ni79  1  0.00000000  0.50000000  0.00000000  1
  Ni  Ni80  1  0.00000000  0.50000000  0.50000000  1
  Ni  Ni81  1  0.50000000  0.00000000  0.00000000  1
  Ni  Ni82  1  0.25000000  0.25000000  0.75000000  1
  Ni  Ni83  1  0.75000000  0.75000000  0.25000000  1
  Ni  Ni84  1  0.25000000  0.75000000  0.25000000  1
  Ni  Ni85  1  0.75000000  0.25000000  0.75000000  1
  Ni  Ni86  1  0.75000000  0.25000000  0.25000000  1
  Ni  Ni87  1  0.25000000  0.75000000  0.75000000  1
  Cu  Cu88  1  0.98815500  0.47292400  0.30318000  1
  Cu  Cu89  1  0.47292400  0.98815500  0.23574100  1
  Cu  Cu90  1  0.30318000  0.23574100  0.98815500  1
  Cu  Cu91  1  0.23574100  0.30318000  0.47292400  1
  Cu  Cu92  1  0.47292400  0.30318000  0.98815500  1
  Cu  Cu93  1  0.98815500  0.23574100  0.47292400  1
  Cu  Cu94  1  0.23574100  0.98815500  0.30318000  1
  Cu  Cu95  1  0.30318000  0.47292400  0.23574100  1
  Cu  Cu96  1  0.30318000  0.98815500  0.47292400  1
  Cu  Cu97  1  0.23574100  0.47292400  0.98815500  1
  Cu  Cu98  1  0.98815500  0.30318000  0.23574100  1
  Cu  Cu99  1  0.47292400  0.23574100  0.30318000  1
  Cu  Cu100  1  0.76184500  0.27707600  0.44682000  1
  Cu  Cu101  1  0.27707600  0.76184500  0.51425900  1
  Cu  Cu102  1  0.44682000  0.51425900  0.76184500  1
  Cu  Cu103  1  0.51425900  0.44682000  0.27707600  1
  Cu  Cu104  1  0.27707600  0.44682000  0.76184500  1
  Cu  Cu105  1  0.76184500  0.51425900  0.27707600  1
  Cu  Cu106  1  0.51425900  0.76184500  0.44682000  1
  Cu  Cu107  1  0.44682000  0.27707600  0.51425900  1
  Cu  Cu108  1  0.44682000  0.76184500  0.27707600  1
  Cu  Cu109  1  0.51425900  0.27707600  0.76184500  1
  Cu  Cu110  1  0.76184500  0.44682000  0.51425900  1
  Cu  Cu111  1  0.27707600  0.51425900  0.44682000  1
  Cu  Cu112  1  0.48815500  0.80318000  0.97292400  1
  Cu  Cu113  1  0.97292400  0.73574100  0.48815500  1
  Cu  Cu114  1  0.80318000  0.48815500  0.73574100  1
  Cu  Cu115  1  0.73574100  0.97292400  0.80318000  1
  Cu  Cu116  1  0.97292400  0.48815500  0.80318000  1
  Cu  Cu117  1  0.48815500  0.97292400  0.73574100  1
  Cu  Cu118  1  0.73574100  0.80318000  0.48815500  1
  Cu  Cu119  1  0.80318000  0.73574100  0.97292400  1
  Cu  Cu120  1  0.80318000  0.97292400  0.48815500  1
  Cu  Cu121  1  0.73574100  0.48815500  0.97292400  1
  Cu  Cu122  1  0.48815500  0.73574100  0.80318000  1
  Cu  Cu123  1  0.97292400  0.80318000  0.73574100  1
  Cu  Cu124  1  0.26184500  0.94682000  0.77707600  1
  Cu  Cu125  1  0.77707600  0.01425900  0.26184500  1
  Cu  Cu126  1  0.94682000  0.26184500  0.01425900  1
  Cu  Cu127  1  0.01425900  0.77707600  0.94682000  1
  Cu  Cu128  1  0.77707600  0.26184500  0.94682000  1
  Cu  Cu129  1  0.26184500  0.77707600  0.01425900  1
  Cu  Cu130  1  0.01425900  0.94682000  0.26184500  1
  Cu  Cu131  1  0.94682000  0.01425900  0.77707600  1
  Cu  Cu132  1  0.94682000  0.77707600  0.26184500  1
  Cu  Cu133  1  0.01425900  0.26184500  0.77707600  1
  Cu  Cu134  1  0.26184500  0.01425900  0.94682000  1
  Cu  Cu135  1  0.77707600  0.94682000  0.01425900  1
