# generated using pymatgen
data_Cu4Ni29C13
_symmetry_space_group_name_H-M   'P 1'
_cell_length_a   11.12821700
_cell_length_b   11.12821700
_cell_length_c   7.81931600
_cell_angle_alpha   90.00000000
_cell_angle_beta   90.00000000
_cell_angle_gamma   90.00000000
_symmetry_Int_Tables_number   1
_chemical_formula_structural   Cu4Ni29C13
_chemical_formula_sum   'Cu8 Ni58 C26'
_cell_volume   968.32230569
_cell_formula_units_Z   2
loop_
 _symmetry_equiv_pos_site_id
 _symmetry_equiv_pos_as_xyz
  1  'x, y, z'
loop_
 _atom_site_type_symbol
 _atom_site_label
 _atom_site_symmetry_multiplicity
 _atom_site_fract_x
 _atom_site_fract_y
 _atom_site_fract_z
 _atom_site_occupancy
  C  C0  1  0.25000000  0.75000000  0.00000000  1
  C  C1  1  0.25000000  0.25000000  0.00000000  1
  C  C2  1  0.75000000  0.75000000  0.00000000  1
  C  C3  1  0.75000000  0.25000000  0.00000000  1
  C  C4  1  0.00000000  0.00000000  0.50000000  1
  C  C5  1  0.50000000  0.50000000  0.50000000  1
  Ni  Ni6  1  0.33845800  0.67436200  0.33652200  1
  Ni  Ni7  1  0.27249700  0.00000000  0.52615600  1
  Ni  Ni8  1  0.50000000  0.77249700  0.52615600  1
  Ni  Ni9  1  0.50000000  0.22750300  0.52615600  1
  Ni  Ni10  1  0.83538900  0.50000000  0.97067200  1
  Ni  Ni11  1  0.00000000  0.66461100  0.97067200  1
  Ni  Ni12  1  0.00000000  0.33538900  0.97067200  1
  Ni  Ni13  1  0.16461100  0.50000000  0.97067200  1
  Ni  Ni14  1  0.66461100  0.00000000  0.02932800  1
  Ni  Ni15  1  0.33538900  0.00000000  0.02932800  1
  Ni  Ni16  1  0.50000000  0.83538900  0.02932800  1
  Ni  Ni17  1  0.50000000  0.16461100  0.02932800  1
  Ni  Ni18  1  0.88461000  0.38461000  0.24958000  1
  Ni  Ni19  1  0.88461000  0.61539000  0.24958000  1
  Ni  Ni20  1  0.11539000  0.38461000  0.24958000  1
  Ni  Ni21  1  0.11539000  0.61539000  0.24958000  1
  Ni  Ni22  1  0.61539000  0.88461000  0.75042000  1
  Ni  Ni23  1  0.38461000  0.11539000  0.75042000  1
  Ni  Ni24  1  0.38461000  0.88461000  0.75042000  1
  Ni  Ni25  1  0.61539000  0.11539000  0.75042000  1
  Ni  Ni26  1  0.89003500  0.39003500  0.69851400  1
  Ni  Ni27  1  0.89003500  0.60996500  0.69851400  1
  Ni  Ni28  1  0.10996500  0.39003500  0.69851400  1
  Ni  Ni29  1  0.10996500  0.60996500  0.69851400  1
  Ni  Ni30  1  0.60996500  0.89003500  0.30148600  1
  Ni  Ni31  1  0.39003500  0.10996500  0.30148600  1
  Ni  Ni32  1  0.39003500  0.89003500  0.30148600  1
  Ni  Ni33  1  0.60996500  0.10996500  0.30148600  1
  Ni  Ni34  1  0.33845800  0.32563800  0.33652200  1
  Ni  Ni35  1  0.82563800  0.16154200  0.33652200  1
  Ni  Ni36  1  0.17436200  0.83845800  0.33652200  1
  Ni  Ni37  1  0.66154200  0.67436200  0.33652200  1
  Ni  Ni38  1  0.16154200  0.82563800  0.66347800  1
  Ni  Ni39  1  0.83845800  0.17436200  0.66347800  1
  Ni  Ni40  1  0.32563800  0.33845800  0.66347800  1
  Ni  Ni41  1  0.61015500  0.50000000  0.88867000  1
  Ni  Ni42  1  0.16154200  0.17436200  0.66347800  1
  Ni  Ni43  1  0.67436200  0.33845800  0.66347800  1
  Ni  Ni44  1  0.32563800  0.66154200  0.66347800  1
  Ni  Ni45  1  0.83845800  0.82563800  0.66347800  1
  Ni  Ni46  1  0.72750300  0.00000000  0.52615600  1
  Ni  Ni47  1  0.00000000  0.88984500  0.88867000  1
  Ni  Ni48  1  0.17436200  0.16154200  0.33652200  1
  Ni  Ni49  1  0.82563800  0.83845800  0.33652200  1
  Ni  Ni50  1  0.00000000  0.11015500  0.88867000  1
  Ni  Ni51  1  0.38984500  0.50000000  0.88867000  1
  Ni  Ni52  1  0.50000000  0.00000000  0.53330600  1
  Ni  Ni53  1  0.00000000  0.50000000  0.46669400  1
  Ni  Ni54  1  0.11015500  0.00000000  0.11133000  1
  Ni  Ni55  1  0.22750300  0.50000000  0.47384400  1
  Ni  Ni56  1  0.00000000  0.27249700  0.47384400  1
  Ni  Ni57  1  0.00000000  0.72750300  0.47384400  1
  Ni  Ni58  1  0.77249700  0.50000000  0.47384400  1
  Ni  Ni59  1  0.50000000  0.61015500  0.11133000  1
  Ni  Ni60  1  0.50000000  0.38984500  0.11133000  1
  Ni  Ni61  1  0.88984500  0.00000000  0.11133000  1
  Ni  Ni62  1  0.67436200  0.66154200  0.66347800  1
  Ni  Ni63  1  0.66154200  0.32563800  0.33652200  1
  Cu  Cu64  1  0.50000000  0.68221200  0.82465600  1
  Cu  Cu65  1  0.31778800  0.50000000  0.17534400  1
  Cu  Cu66  1  0.00000000  0.18221200  0.17534400  1
  Cu  Cu67  1  0.00000000  0.81778800  0.17534400  1
  Cu  Cu68  1  0.68221200  0.50000000  0.17534400  1
  Cu  Cu69  1  0.18221200  0.00000000  0.82465600  1
  Cu  Cu70  1  0.81778800  0.00000000  0.82465600  1
  Cu  Cu71  1  0.50000000  0.31778800  0.82465600  1
  C  C72  1  0.68591400  0.18591400  0.51812400  1
  C  C73  1  0.31408600  0.81408600  0.51812400  1
  C  C74  1  0.31408600  0.18591400  0.51812400  1
  C  C75  1  0.68591400  0.81408600  0.51812400  1
  C  C76  1  0.18591400  0.68591400  0.48187600  1
  C  C77  1  0.18591400  0.31408600  0.48187600  1
  C  C78  1  0.50000000  0.25609700  0.26324400  1
  C  C79  1  0.50000000  0.74390300  0.26324400  1
  C  C80  1  0.24390300  0.00000000  0.26324400  1
  C  C81  1  0.75609700  0.00000000  0.26324400  1
  C  C82  1  0.25609700  0.50000000  0.73675600  1
  C  C83  1  0.00000000  0.24390300  0.73675600  1
  C  C84  1  0.00000000  0.75609700  0.73675600  1
  C  C85  1  0.74390300  0.50000000  0.73675600  1
  C  C86  1  0.50000000  0.00000000  0.14860000  1
  C  C87  1  0.00000000  0.50000000  0.85140000  1
  C  C88  1  0.50000000  0.00000000  0.89276900  1
  C  C89  1  0.00000000  0.50000000  0.10723100  1
  C  C90  1  0.81408600  0.68591400  0.48187600  1
  C  C91  1  0.81408600  0.31408600  0.48187600  1
