# generated using pymatgen
data_Cu2Ni3C4
_symmetry_space_group_name_H-M   'P 1'
_cell_length_a   6.32188797
_cell_length_b   3.59187840
_cell_length_c   9.77062669
_cell_angle_alpha   89.99999817
_cell_angle_beta   50.30656371
_cell_angle_gamma   73.49596984
_symmetry_Int_Tables_number   1
_chemical_formula_structural   Cu2Ni3C4
_chemical_formula_sum   'Cu2 Ni3 C4'
_cell_volume   158.65908451
_cell_formula_units_Z   1
loop_
 _symmetry_equiv_pos_site_id
 _symmetry_equiv_pos_as_xyz
  1  'x, y, z'
loop_
 _atom_site_type_symbol
 _atom_site_label
 _atom_site_symmetry_multiplicity
 _atom_site_fract_x
 _atom_site_fract_y
 _atom_site_fract_z
 _atom_site_occupancy
  C  C0  1  0.23331500  0.88334200  0.64944200  1
  C  C1  1  0.76668500  0.11665800  0.35055800  1
  C  C2  1  0.57412600  0.71293700  0.15086900  1
  C  C3  1  0.42587400  0.28706300  0.84913100  1
  Ni  Ni4  1  0.00000000  0.00000000  0.00000000  1
  Ni  Ni5  1  0.78672000  0.60664000  0.78185900  1
  Ni  Ni6  1  0.21328000  0.39336000  0.21814100  1
  Cu  Cu7  1  0.54887200  0.72556400  0.36566200  1
  Cu  Cu8  1  0.45112800  0.27443600  0.63433800  1
