# generated using pymatgen
data_Cu3NiC13
_symmetry_space_group_name_H-M   'P 1'
_cell_length_a   9.01078579
_cell_length_b   9.01078579
_cell_length_c   11.17113138
_cell_angle_alpha   87.43737616
_cell_angle_beta   87.43737616
_cell_angle_gamma   80.13976187
_symmetry_Int_Tables_number   1
_chemical_formula_structural   Cu3NiC13
_chemical_formula_sum   'Cu12 Ni4 C52'
_cell_volume   892.10687263
_cell_formula_units_Z   4
loop_
 _symmetry_equiv_pos_site_id
 _symmetry_equiv_pos_as_xyz
  1  'x, y, z'
loop_
 _atom_site_type_symbol
 _atom_site_label
 _atom_site_symmetry_multiplicity
 _atom_site_fract_x
 _atom_site_fract_y
 _atom_site_fract_z
 _atom_site_occupancy
  C  C0  1  0.73651900  0.63723700  0.84545100  1
  C  C1  1  0.36276300  0.26348100  0.65454900  1
  C  C2  1  0.26348100  0.36276300  0.15454900  1
  C  C3  1  0.63723700  0.73651900  0.34545100  1
  Ni  Ni4  1  0.83085900  0.17103600  0.02751000  1
  Ni  Ni5  1  0.82896400  0.16914100  0.47249000  1
  Ni  Ni6  1  0.16914100  0.82896400  0.97249000  1
  Ni  Ni7  1  0.17103600  0.83085900  0.52751000  1
  Cu  Cu8  1  0.43658800  0.84112800  0.63801100  1
  Cu  Cu9  1  0.15887200  0.56341200  0.86198900  1
  Cu  Cu10  1  0.56341200  0.15887200  0.36198900  1
  Cu  Cu11  1  0.84112800  0.43658800  0.13801100  1
  Cu  Cu12  1  0.86020700  0.88360900  0.57626100  1
  Cu  Cu13  1  0.11639100  0.13979300  0.92373900  1
  Cu  Cu14  1  0.13979300  0.11639100  0.42373900  1
  Cu  Cu15  1  0.88360900  0.86020700  0.07626100  1
  Cu  Cu16  1  0.57167000  0.27436600  0.91957600  1
  Cu  Cu17  1  0.72563400  0.42833000  0.58042400  1
  Cu  Cu18  1  0.42833000  0.72563400  0.08042400  1
  Cu  Cu19  1  0.27436600  0.57167000  0.41957600  1
  C  C20  1  0.52226800  0.83707500  0.52294200  1
  C  C21  1  0.16292500  0.47773200  0.97705800  1
  C  C22  1  0.47773200  0.16292500  0.47705800  1
  C  C23  1  0.83707500  0.52226800  0.02294200  1
  C  C24  1  0.39814900  0.99444400  0.68179900  1
  C  C25  1  0.00555600  0.60185100  0.81820100  1
  C  C26  1  0.60185100  0.00555600  0.31820100  1
  C  C27  1  0.99444400  0.39814900  0.18179900  1
  C  C28  1  0.51026300  0.73356700  0.72745200  1
  C  C29  1  0.26643300  0.48973700  0.77254800  1
  C  C30  1  0.48973700  0.26643300  0.27254800  1
  C  C31  1  0.73356700  0.51026300  0.22745200  1
  C  C32  1  0.28526700  0.78599800  0.61692300  1
  C  C33  1  0.21400200  0.71473300  0.88307700  1
  C  C34  1  0.71473300  0.21400200  0.38307700  1
  C  C35  1  0.78599800  0.28526700  0.11692300  1
  C  C36  1  0.79672000  0.83203800  0.68788300  1
  C  C37  1  0.16796200  0.20328000  0.81211700  1
  C  C38  1  0.20328000  0.16796200  0.31211700  1
  C  C39  1  0.83203800  0.79672000  0.18788300  1
  C  C40  1  0.84183800  0.80368400  0.46911400  1
  C  C41  1  0.19631600  0.15816200  0.03088600  1
  C  C42  1  0.15816200  0.19631600  0.53088600  1
  C  C43  1  0.80368400  0.84183800  0.96911400  1
  C  C44  1  0.78894800  0.05044200  0.56063600  1
  C  C45  1  0.94955800  0.21105200  0.93936400  1
  C  C46  1  0.21105200  0.94955800  0.43936400  1
  C  C47  1  0.05044200  0.78894800  0.06063600  1
  C  C48  1  0.02769000  0.88711100  0.59534800  1
  C  C49  1  0.11288900  0.97231000  0.90465200  1
  C  C50  1  0.97231000  0.11288900  0.40465200  1
  C  C51  1  0.88711100  0.02769000  0.09534800  1
  C  C52  1  0.70280400  0.14896900  0.95891500  1
  C  C53  1  0.85103100  0.29719600  0.54108500  1
  C  C54  1  0.29719600  0.85103100  0.04108500  1
  C  C55  1  0.14896900  0.70280400  0.45891500  1
  C  C56  1  0.50499000  0.20450400  0.82389900  1
  C  C57  1  0.79549600  0.49501000  0.67610100  1
  C  C58  1  0.49501000  0.79549600  0.17610100  1
  C  C59  1  0.20450400  0.50499000  0.32389900  1
  C  C60  1  0.63404800  0.40777100  0.87922000  1
  C  C61  1  0.59222900  0.36595200  0.62078000  1
  C  C62  1  0.36595200  0.59222900  0.12078000  1
  C  C63  1  0.40777100  0.63404800  0.37922000  1
  C  C64  1  0.46694800  0.30071100  0.02309400  1
  C  C65  1  0.69928900  0.53305200  0.47690600  1
  C  C66  1  0.53305200  0.69928900  0.97690600  1
  C  C67  1  0.30071100  0.46694800  0.52309400  1
