# generated using pymatgen
data_Cu8Ni10C17
_symmetry_space_group_name_H-M   'P 1'
_cell_length_a   12.96748200
_cell_length_b   5.68607100
_cell_length_c   9.41024988
_cell_angle_alpha   83.72485293
_cell_angle_beta   90.00000000
_cell_angle_gamma   90.00000000
_symmetry_Int_Tables_number   1
_chemical_formula_structural   Cu8Ni10C17
_chemical_formula_sum   'Cu16 Ni20 C34'
_cell_volume   689.69832146
_cell_formula_units_Z   2
loop_
 _symmetry_equiv_pos_site_id
 _symmetry_equiv_pos_as_xyz
  1  'x, y, z'
loop_
 _atom_site_type_symbol
 _atom_site_label
 _atom_site_symmetry_multiplicity
 _atom_site_fract_x
 _atom_site_fract_y
 _atom_site_fract_z
 _atom_site_occupancy
  C  C0  1  0.61264800  0.01191900  0.95878900  1
  C  C1  1  0.11264800  0.98808100  0.54121100  1
  C  C2  1  0.38735200  0.98808100  0.04121100  1
  C  C3  1  0.88735200  0.01191900  0.45878900  1
  C  C4  1  0.50000000  0.50000000  0.00000000  1
  C  C5  1  0.00000000  0.50000000  0.50000000  1
  Ni  Ni6  1  0.58452000  0.56384900  0.38231600  1
  Ni  Ni7  1  0.08452000  0.43615100  0.11768400  1
  Ni  Ni8  1  0.41548000  0.43615100  0.61768400  1
  Ni  Ni9  1  0.91548000  0.56384900  0.88231600  1
  Ni  Ni10  1  0.51082600  0.75530600  0.43423200  1
  Ni  Ni11  1  0.01082600  0.24469400  0.06576800  1
  Ni  Ni12  1  0.48917400  0.24469400  0.56576800  1
  Ni  Ni13  1  0.98917400  0.75530600  0.93423200  1
  Ni  Ni14  1  0.94344800  0.17667900  0.84974700  1
  Ni  Ni15  1  0.44344800  0.82332100  0.65025300  1
  Ni  Ni16  1  0.05655200  0.82332100  0.15025300  1
  Ni  Ni17  1  0.55655200  0.17667900  0.34974700  1
  Ni  Ni18  1  0.85958500  0.11723700  0.96697300  1
  Ni  Ni19  1  0.35958500  0.88276300  0.53302700  1
  Ni  Ni20  1  0.14041500  0.88276300  0.03302700  1
  Ni  Ni21  1  0.64041500  0.11723700  0.46697300  1
  Ni  Ni22  1  0.53653100  0.78868100  0.19216100  1
  Ni  Ni23  1  0.03653100  0.21131900  0.30783900  1
  Ni  Ni24  1  0.46346900  0.21131900  0.80784000  1
  Ni  Ni25  1  0.96346900  0.78868100  0.69216000  1
  Cu  Cu26  1  0.71290100  0.36810500  0.74064200  1
  Cu  Cu27  1  0.21290100  0.63189500  0.75935800  1
  Cu  Cu28  1  0.28709900  0.63189500  0.25935800  1
  Cu  Cu29  1  0.78709900  0.36810500  0.24064200  1
  Cu  Cu30  1  0.70780900  0.46291300  0.13940300  1
  Cu  Cu31  1  0.20780900  0.53708700  0.36059700  1
  Cu  Cu32  1  0.29219100  0.53708700  0.86059700  1
  Cu  Cu33  1  0.79219100  0.46291300  0.63940300  1
  Cu  Cu34  1  0.75836000  0.69546300  0.12459600  1
  Cu  Cu35  1  0.25836000  0.30453700  0.37540400  1
  Cu  Cu36  1  0.24164000  0.30453700  0.87540400  1
  Cu  Cu37  1  0.74164000  0.69546300  0.62459600  1
  Cu  Cu38  1  0.83764600  0.60431500  0.23082000  1
  Cu  Cu39  1  0.33764600  0.39568500  0.26918000  1
  Cu  Cu40  1  0.16235400  0.39568500  0.76918000  1
  Cu  Cu41  1  0.66235400  0.60431500  0.73082000  1
  C  C42  1  0.70138600  0.16473100  0.80561900  1
  C  C43  1  0.20138600  0.83526900  0.69438100  1
  C  C44  1  0.29861400  0.83526900  0.19438100  1
  C  C45  1  0.79861400  0.16473100  0.30561900  1
  C  C46  1  0.62835900  0.36613900  0.09230600  1
  C  C47  1  0.12835900  0.63386100  0.40769400  1
  C  C48  1  0.37164100  0.63386100  0.90769400  1
  C  C49  1  0.87164100  0.36613900  0.59230600  1
  C  C50  1  0.74386000  0.89411900  0.05325800  1
  C  C51  1  0.24386000  0.10588100  0.44674200  1
  C  C52  1  0.25614000  0.10588100  0.94674200  1
  C  C53  1  0.75614000  0.89411900  0.55325800  1
  C  C54  1  0.58710100  0.69183000  0.78968000  1
  C  C55  1  0.08710100  0.30817000  0.71032000  1
  C  C56  1  0.41289900  0.30817000  0.21032000  1
  C  C57  1  0.91289900  0.69183000  0.28968000  1
  C  C58  1  0.56608400  0.73253800  0.36342400  1
  C  C59  1  0.06608400  0.26746200  0.13657600  1
  C  C60  1  0.43391600  0.26746200  0.63657600  1
  C  C61  1  0.93391600  0.73253800  0.86342400  1
  C  C62  1  0.91521600  0.23009300  0.93713900  1
  C  C63  1  0.41521600  0.76990700  0.56286100  1
  C  C64  1  0.08478400  0.76990700  0.06286100  1
  C  C65  1  0.58478400  0.23009300  0.43713900  1
  C  C66  1  0.51845800  0.80908600  0.08648500  1
  C  C67  1  0.01845800  0.19091400  0.41351500  1
  C  C68  1  0.48154200  0.19091400  0.91351500  1
  C  C69  1  0.98154200  0.80908600  0.58648500  1
