# generated using pymatgen
data_CuNiC8
_symmetry_space_group_name_H-M   'P 1'
_cell_length_a   5.58912673
_cell_length_b   18.16371429
_cell_length_c   5.60863852
_cell_angle_alpha   81.56220116
_cell_angle_beta   60.49074796
_cell_angle_gamma   90.99303471
_symmetry_Int_Tables_number   1
_chemical_formula_structural   CuNiC8
_chemical_formula_sum   'Cu4 Ni4 C32'
_cell_volume   487.49592866
_cell_formula_units_Z   4
loop_
 _symmetry_equiv_pos_site_id
 _symmetry_equiv_pos_as_xyz
  1  'x, y, z'
loop_
 _atom_site_type_symbol
 _atom_site_label
 _atom_site_symmetry_multiplicity
 _atom_site_fract_x
 _atom_site_fract_y
 _atom_site_fract_z
 _atom_site_occupancy
  C  C0  1  0.81202900  0.43735300  0.37578600  1
  C  C1  1  0.06263500  0.18748800  0.88202200  1
  C  C2  1  0.56135000  0.68754900  0.87528000  1
  C  C3  1  0.31646700  0.93763100  0.36810500  1
  C  C4  1  0.93853300  0.81247600  0.11795900  1
  C  C5  1  0.18696100  0.56270600  0.62363000  1
  C  C6  1  0.68435500  0.06245500  0.63244700  1
  C  C7  1  0.43812900  0.31240800  0.12437700  1
  Ni  Ni8  1  0.87418400  0.62506600  0.25011800  1
  Ni  Ni9  1  0.12471400  0.37492100  0.74974900  1
  Ni  Ni10  1  0.62409200  0.87502100  0.74689400  1
  Ni  Ni11  1  0.37723500  0.12500300  0.25327400  1
  Cu  Cu12  1  0.49953300  0.49992100  0.99984800  1
  Cu  Cu13  1  0.24983000  0.75021300  0.49730400  1
  Cu  Cu14  1  0.75056800  0.24988800  0.50247000  1
  Cu  Cu15  1  0.00042100  0.99994800  0.00031900  1
  C  C16  1  0.57050300  0.68765000  0.29695300  1
  C  C17  1  0.82057500  0.43757800  0.79804400  1
  C  C18  1  0.31851400  0.93712300  0.79310700  1
  C  C19  1  0.07141000  0.18706300  0.30489900  1
  C  C20  1  0.13084500  0.68706600  0.88114400  1
  C  C21  1  0.38265100  0.43572000  0.37913900  1
  C  C22  1  0.88422800  0.93627700  0.36051300  1
  C  C23  1  0.63531600  0.18729500  0.88383000  1
  C  C24  1  0.99719600  0.68827900  0.44818800  1
  C  C25  1  0.24890900  0.43847500  0.94655500  1
  C  C26  1  0.73782900  0.93915100  0.93657500  1
  C  C27  1  0.49800300  0.18819000  0.45156700  1
  C  C28  1  0.61585600  0.56414000  0.62018200  1
  C  C29  1  0.86838300  0.31313900  0.11927400  1
  C  C30  1  0.36662000  0.81272600  0.11653300  1
  C  C31  1  0.11575800  0.06372100  0.63955200  1
  C  C32  1  0.75111600  0.56128600  0.05258900  1
  C  C33  1  0.00054700  0.31232500  0.55131000  1
  C  C34  1  0.50280600  0.81154200  0.54939300  1
  C  C35  1  0.26344400  0.06073400  0.06382500  1
  C  C36  1  0.17734300  0.56217500  0.20263100  1
  C  C37  1  0.42814900  0.31211400  0.70249100  1
  C  C38  1  0.93176000  0.81358900  0.69348400  1
  C  C39  1  0.68120200  0.06259500  0.20864200  1
