# generated using pymatgen
data_CuNiC3
_symmetry_space_group_name_H-M   'P 1'
_cell_length_a   6.45244500
_cell_length_b   7.54967200
_cell_length_c   12.42932300
_cell_angle_alpha   90.00000000
_cell_angle_beta   90.00000000
_cell_angle_gamma   90.00000000
_symmetry_Int_Tables_number   1
_chemical_formula_structural   CuNiC3
_chemical_formula_sum   'Cu8 Ni8 C24'
_cell_volume   605.48009354
_cell_formula_units_Z   8
loop_
 _symmetry_equiv_pos_site_id
 _symmetry_equiv_pos_as_xyz
  1  'x, y, z'
loop_
 _atom_site_type_symbol
 _atom_site_label
 _atom_site_symmetry_multiplicity
 _atom_site_fract_x
 _atom_site_fract_y
 _atom_site_fract_z
 _atom_site_occupancy
  Ni  Ni0  1  0.87882200  0.89081700  0.41001300  1
  Ni  Ni1  1  0.37882200  0.10918300  0.08998700  1
  Ni  Ni2  1  0.62117800  0.39081700  0.58998700  1
  Ni  Ni3  1  0.12117800  0.60918300  0.91001300  1
  Ni  Ni4  1  0.12117800  0.10918300  0.58998700  1
  Ni  Ni5  1  0.62117800  0.89081700  0.91001300  1
  Ni  Ni6  1  0.37882200  0.60918300  0.41001300  1
  Ni  Ni7  1  0.87882200  0.39081700  0.08998700  1
  Cu  Cu8  1  0.90783300  0.94182000  0.14398300  1
  Cu  Cu9  1  0.40783300  0.05818000  0.35601700  1
  Cu  Cu10  1  0.59216700  0.44182000  0.85601700  1
  Cu  Cu11  1  0.09216700  0.55818000  0.64398300  1
  Cu  Cu12  1  0.09216700  0.05818000  0.85601700  1
  Cu  Cu13  1  0.59216700  0.94182000  0.64398300  1
  Cu  Cu14  1  0.40783300  0.55818000  0.14398300  1
  Cu  Cu15  1  0.90783300  0.44182000  0.35601700  1
  C  C16  1  0.52521500  0.34224500  0.08892600  1
  C  C17  1  0.02521500  0.65775500  0.41107400  1
  C  C18  1  0.97478500  0.84224500  0.91107400  1
  C  C19  1  0.47478500  0.15775500  0.58892600  1
  C  C20  1  0.47478500  0.65775500  0.91107400  1
  C  C21  1  0.97478500  0.34224500  0.58892600  1
  C  C22  1  0.02521500  0.15775500  0.08892600  1
  C  C23  1  0.52521500  0.84224500  0.41107400  1
  C  C24  1  0.65363900  0.46077900  0.43404900  1
  C  C25  1  0.15363900  0.53922100  0.06595100  1
  C  C26  1  0.84636100  0.96077900  0.56595100  1
  C  C27  1  0.34636100  0.03922100  0.93404900  1
  C  C28  1  0.34636100  0.53922100  0.56595100  1
  C  C29  1  0.84636100  0.46077900  0.93404900  1
  C  C30  1  0.15363900  0.03922100  0.43404900  1
  C  C31  1  0.65363900  0.96077900  0.06595100  1
  C  C32  1  0.79956600  0.52821200  0.22339600  1
  C  C33  1  0.29956600  0.47178800  0.27660400  1
  C  C34  1  0.70043400  0.02821200  0.77660400  1
  C  C35  1  0.20043400  0.97178800  0.72339600  1
  C  C36  1  0.20043400  0.47178800  0.77660400  1
  C  C37  1  0.70043400  0.52821200  0.72339600  1
  C  C38  1  0.29956600  0.97178800  0.22339600  1
  C  C39  1  0.79956600  0.02821200  0.27660400  1
