# generated using pymatgen
data_Cu3Ni3C10
_symmetry_space_group_name_H-M   'P 1'
_cell_length_a   7.04996400
_cell_length_b   7.99545512
_cell_length_c   13.96633785
_cell_angle_alpha   102.91383983
_cell_angle_beta   93.25886886
_cell_angle_gamma   95.98972044
_symmetry_Int_Tables_number   1
_chemical_formula_structural   Cu3Ni3C10
_chemical_formula_sum   'Cu6 Ni6 C20'
_cell_volume   760.53486378
_cell_formula_units_Z   2
loop_
 _symmetry_equiv_pos_site_id
 _symmetry_equiv_pos_as_xyz
  1  'x, y, z'
loop_
 _atom_site_type_symbol
 _atom_site_label
 _atom_site_symmetry_multiplicity
 _atom_site_fract_x
 _atom_site_fract_y
 _atom_site_fract_z
 _atom_site_occupancy
  Ni  Ni0  1  0.00932700  0.87482800  0.79713200  1
  Ni  Ni1  1  0.99067300  0.12517200  0.20286800  1
  Ni  Ni2  1  0.27355200  0.43697000  0.84289500  1
  Ni  Ni3  1  0.72644800  0.56303000  0.15710500  1
  Ni  Ni4  1  0.68197900  0.81346500  0.51593400  1
  Ni  Ni5  1  0.31802100  0.18653500  0.48406600  1
  Cu  Cu6  1  0.63261300  0.08482100  0.91117900  1
  Cu  Cu7  1  0.36738700  0.91517900  0.08882100  1
  Cu  Cu8  1  0.74026100  0.27595700  0.75879900  1
  Cu  Cu9  1  0.25973900  0.72404300  0.24120100  1
  Cu  Cu10  1  0.89610300  0.38294500  0.58594700  1
  Cu  Cu11  1  0.10389700  0.61705500  0.41405300  1
  C  C12  1  0.07539800  0.78578500  0.33759200  1
  C  C13  1  0.92460200  0.21421500  0.66240800  1
  C  C14  1  0.16966100  0.74990000  0.11378900  1
  C  C15  1  0.83033900  0.25010000  0.88621100  1
  C  C16  1  0.32862800  0.50576600  0.38258500  1
  C  C17  1  0.67137200  0.49423400  0.61741500  1
  C  C18  1  0.29736800  0.48586500  0.23098900  1
  C  C19  1  0.70263200  0.51413500  0.76901100  1
  C  C20  1  0.50930800  0.85758900  0.28128800  1
  C  C21  1  0.49069200  0.14241100  0.71871200  1
  C  C22  1  0.47866800  0.05856500  0.21226000  1
  C  C23  1  0.52133200  0.94143500  0.78774000  1
  C  C24  1  0.53544500  0.77351200  0.01388200  1
  C  C25  1  0.46455500  0.22648800  0.98611800  1
  C  C26  1  0.24202300  0.05448200  0.01544000  1
  C  C27  1  0.75797700  0.94551800  0.98456000  1
  C  C28  1  0.13850400  0.73220200  0.55027000  1
  C  C29  1  0.86149600  0.26779800  0.44973000  1
  C  C30  1  0.13557600  0.52763500  0.62308400  1
  C  C31  1  0.86442400  0.47236500  0.37691600  1
