# generated using pymatgen
data_Cu2NiC5
_symmetry_space_group_name_H-M   'P 1'
_cell_length_a   7.82507153
_cell_length_b   7.82507153
_cell_length_c   7.82507153
_cell_angle_alpha   96.17452874
_cell_angle_beta   96.17452874
_cell_angle_gamma   141.71006414
_symmetry_Int_Tables_number   1
_chemical_formula_structural   Cu2NiC5
_chemical_formula_sum   'Cu4 Ni2 C10'
_cell_volume   280.47578066
_cell_formula_units_Z   2
loop_
 _symmetry_equiv_pos_site_id
 _symmetry_equiv_pos_as_xyz
  1  'x, y, z'
loop_
 _atom_site_type_symbol
 _atom_site_label
 _atom_site_symmetry_multiplicity
 _atom_site_fract_x
 _atom_site_fract_y
 _atom_site_fract_z
 _atom_site_occupancy
  C  C0  1  0.57409600  0.71465200  0.28874800  1
  C  C1  1  0.42590400  0.28534800  0.71125200  1
  C  C2  1  0.75000000  0.25000000  0.50000000  1
  C  C3  1  0.25000000  0.75000000  0.50000000  1
  C  C4  1  0.71465200  0.42590400  0.14055600  1
  C  C5  1  0.28534800  0.57409600  0.85944400  1
  C  C6  1  0.92590400  0.21465200  0.14055600  1
  C  C7  1  0.21465200  0.07409600  0.28874800  1
  C  C8  1  0.07409600  0.78534800  0.85944400  1
  C  C9  1  0.78534800  0.92590400  0.71125200  1
  Ni  Ni10  1  0.75000000  0.75000000  0.00000000  1
  Ni  Ni11  1  0.25000000  0.25000000  0.00000000  1
  Cu  Cu12  1  0.33595900  0.83595900  0.17191800  1
  Cu  Cu13  1  0.16404100  0.33595900  0.50000000  1
  Cu  Cu14  1  0.66404100  0.16404100  0.82808200  1
  Cu  Cu15  1  0.83595900  0.66404100  0.50000000  1
