# generated using pymatgen
data_Cu12NiC5
_symmetry_space_group_name_H-M   'P 1'
_cell_length_a   11.04224356
_cell_length_b   11.04224356
_cell_length_c   11.04224399
_cell_angle_alpha   41.13111217
_cell_angle_beta   41.13111217
_cell_angle_gamma   41.13111475
_symmetry_Int_Tables_number   1
_chemical_formula_structural   Cu12NiC5
_chemical_formula_sum   'Cu24 Ni2 C10'
_cell_volume   526.05641225
_cell_formula_units_Z   2
loop_
 _symmetry_equiv_pos_site_id
 _symmetry_equiv_pos_as_xyz
  1  'x, y, z'
loop_
 _atom_site_type_symbol
 _atom_site_label
 _atom_site_symmetry_multiplicity
 _atom_site_fract_x
 _atom_site_fract_y
 _atom_site_fract_z
 _atom_site_occupancy
  C  C0  1  0.00000000  0.00000000  0.00000000  1
  C  C1  1  0.50000000  0.50000000  0.50000000  1
  C  C2  1  0.13859000  0.13859000  0.13859000  1
  C  C3  1  0.86141000  0.86141000  0.86141000  1
  C  C4  1  0.57527100  0.57527100  0.02808300  1
  C  C5  1  0.02808300  0.57527100  0.57527100  1
  C  C6  1  0.57527100  0.02808300  0.57527100  1
  C  C7  1  0.42472900  0.97191700  0.42472900  1
  C  C8  1  0.97191700  0.42472900  0.42472900  1
  C  C9  1  0.42472900  0.42472900  0.97191700  1
  Ni  Ni10  1  0.28706700  0.28706700  0.28706700  1
  Ni  Ni11  1  0.71293300  0.71293300  0.71293300  1
  Cu  Cu12  1  0.37246300  0.70774600  0.70774600  1
  Cu  Cu13  1  0.70774600  0.37246300  0.70774600  1
  Cu  Cu14  1  0.70774600  0.70774600  0.37246300  1
  Cu  Cu15  1  0.62753700  0.29225400  0.29225400  1
  Cu  Cu16  1  0.29225400  0.62753700  0.29225400  1
  Cu  Cu17  1  0.29225400  0.29225400  0.62753700  1
  Cu  Cu18  1  0.09045700  0.59831400  0.09045700  1
  Cu  Cu19  1  0.09045700  0.09045700  0.59831400  1
  Cu  Cu20  1  0.00000000  0.35280100  0.64719900  1
  Cu  Cu21  1  0.35280100  0.64719900  0.00000000  1
  Cu  Cu22  1  0.64719900  0.00000000  0.35280100  1
  Cu  Cu23  1  0.00000000  0.64719900  0.35280100  1
  Cu  Cu24  1  0.64719900  0.35280100  0.00000000  1
  Cu  Cu25  1  0.35280100  0.00000000  0.64719900  1
  Cu  Cu26  1  0.08297800  0.64635600  0.64635600  1
  Cu  Cu27  1  0.64635600  0.64635600  0.08297800  1
  Cu  Cu28  1  0.64635600  0.08297800  0.64635600  1
  Cu  Cu29  1  0.35364400  0.91702200  0.35364400  1
  Cu  Cu30  1  0.91702200  0.35364400  0.35364400  1
  Cu  Cu31  1  0.35364400  0.35364400  0.91702200  1
  Cu  Cu32  1  0.90954300  0.40168600  0.90954300  1
  Cu  Cu33  1  0.40168600  0.90954300  0.90954300  1
  Cu  Cu34  1  0.90954300  0.90954300  0.40168600  1
  Cu  Cu35  1  0.59831400  0.09045700  0.09045700  1
