# generated using pymatgen
data_CuNiC3
_symmetry_space_group_name_H-M   'P 1'
_cell_length_a   5.17564903
_cell_length_b   5.17564903
_cell_length_c   5.17564898
_cell_angle_alpha   55.59903088
_cell_angle_beta   55.59903088
_cell_angle_gamma   55.59903478
_symmetry_Int_Tables_number   1
_chemical_formula_structural   CuNiC3
_chemical_formula_sum   'Cu2 Ni2 C6'
_cell_volume   88.02147690
_cell_formula_units_Z   2
loop_
 _symmetry_equiv_pos_site_id
 _symmetry_equiv_pos_as_xyz
  1  'x, y, z'
loop_
 _atom_site_type_symbol
 _atom_site_label
 _atom_site_symmetry_multiplicity
 _atom_site_fract_x
 _atom_site_fract_y
 _atom_site_fract_z
 _atom_site_occupancy
  Ni  Ni0  1  0.85258500  0.85258500  0.85258500  1
  Ni  Ni1  1  0.14741500  0.14741500  0.14741500  1
  Cu  Cu2  1  0.34483700  0.34483700  0.34483700  1
  Cu  Cu3  1  0.65516300  0.65516300  0.65516300  1
  C  C4  1  0.44616200  0.75206100  0.05499400  1
  C  C5  1  0.24793900  0.94500600  0.55383800  1
  C  C6  1  0.05499400  0.44616200  0.75206100  1
  C  C7  1  0.94500600  0.55383800  0.24793900  1
  C  C8  1  0.75206100  0.05499400  0.44616200  1
  C  C9  1  0.55383800  0.24793900  0.94500600  1
