# generated using pymatgen
data_CuNiC
_symmetry_space_group_name_H-M   'P 1'
_cell_length_a   3.17415600
_cell_length_b   8.96769500
_cell_length_c   15.60782200
_cell_angle_alpha   90.00000000
_cell_angle_beta   90.00000000
_cell_angle_gamma   90.00000000
_symmetry_Int_Tables_number   1
_chemical_formula_structural   CuNiC
_chemical_formula_sum   'Cu12 Ni12 C12'
_cell_volume   444.27451325
_cell_formula_units_Z   12
loop_
 _symmetry_equiv_pos_site_id
 _symmetry_equiv_pos_as_xyz
  1  'x, y, z'
loop_
 _atom_site_type_symbol
 _atom_site_label
 _atom_site_symmetry_multiplicity
 _atom_site_fract_x
 _atom_site_fract_y
 _atom_site_fract_z
 _atom_site_occupancy
  Ni  Ni0  1  0.00000000  0.80147500  0.49518400  1
  Ni  Ni1  1  0.00000000  0.19852500  0.50481600  1
  Ni  Ni2  1  0.00000000  0.30147500  0.00481600  1
  Ni  Ni3  1  0.00000000  0.69852500  0.99518400  1
  Ni  Ni4  1  0.00000000  0.51596900  0.59434400  1
  Ni  Ni5  1  0.00000000  0.48403100  0.40565600  1
  Ni  Ni6  1  0.00000000  0.01596900  0.90565600  1
  Ni  Ni7  1  0.00000000  0.98403100  0.09434400  1
  Ni  Ni8  1  0.00000000  0.68491100  0.20391700  1
  Ni  Ni9  1  0.00000000  0.31508900  0.79608300  1
  Ni  Ni10  1  0.00000000  0.18491100  0.29608300  1
  Ni  Ni11  1  0.00000000  0.81508900  0.70391700  1
  C  C12  1  0.50000000  0.60517300  0.49633100  1
  C  C13  1  0.50000000  0.39482700  0.50366900  1
  C  C14  1  0.50000000  0.10517300  0.00366900  1
  C  C15  1  0.50000000  0.89482700  0.99633100  1
  C  C16  1  0.00000000  0.61151900  0.83219700  1
  C  C17  1  0.00000000  0.38848100  0.16780300  1
  C  C18  1  0.00000000  0.11151900  0.66780300  1
  C  C19  1  0.00000000  0.88848100  0.33219700  1
  C  C20  1  0.50000000  0.71595300  0.59936500  1
  C  C21  1  0.50000000  0.28404700  0.40063500  1
  C  C22  1  0.50000000  0.21595300  0.90063500  1
  C  C23  1  0.50000000  0.78404700  0.09936500  1
  Cu  Cu24  1  0.50000000  0.71894800  0.35610300  1
  Cu  Cu25  1  0.50000000  0.28105200  0.64389700  1
  Cu  Cu26  1  0.50000000  0.21894800  0.14389700  1
  Cu  Cu27  1  0.50000000  0.78105200  0.85610300  1
  Cu  Cu28  1  0.50000000  0.51614600  0.09527800  1
  Cu  Cu29  1  0.50000000  0.48385400  0.90472200  1
  Cu  Cu30  1  0.50000000  0.01614600  0.40472200  1
  Cu  Cu31  1  0.50000000  0.98385400  0.59527800  1
  Cu  Cu32  1  0.50000000  0.56484200  0.73465400  1
  Cu  Cu33  1  0.50000000  0.43515800  0.26534600  1
  Cu  Cu34  1  0.50000000  0.06484200  0.76534600  1
  Cu  Cu35  1  0.50000000  0.93515800  0.23465400  1
