# generated using pymatgen
data_CuNiC7
_symmetry_space_group_name_H-M   'P 1'
_cell_length_a   7.38258940
_cell_length_b   7.38258940
_cell_length_c   7.38258940
_cell_angle_alpha   120.62971298
_cell_angle_beta   119.68163962
_cell_angle_gamma   89.73254177
_symmetry_Int_Tables_number   1
_chemical_formula_structural   CuNiC7
_chemical_formula_sum   'Cu2 Ni2 C14'
_cell_volume   283.82165189
_cell_formula_units_Z   2
loop_
 _symmetry_equiv_pos_site_id
 _symmetry_equiv_pos_as_xyz
  1  'x, y, z'
loop_
 _atom_site_type_symbol
 _atom_site_label
 _atom_site_symmetry_multiplicity
 _atom_site_fract_x
 _atom_site_fract_y
 _atom_site_fract_z
 _atom_site_occupancy
  Ni  Ni0  1  0.70871000  0.90215100  0.30655900  1
  Ni  Ni1  1  0.40440800  0.09784900  0.80655900  1
  Cu  Cu2  1  0.00095300  0.00000000  0.00095300  1
  Cu  Cu3  1  0.00095300  0.50000000  0.50095300  1
  C  C4  1  0.50149400  0.49813800  0.50335600  1
  C  C5  1  0.00521800  0.50186200  0.00335600  1
  C  C6  1  0.69236800  0.44190700  0.75046100  1
  C  C7  1  0.07244100  0.82512600  0.74731500  1
  C  C8  1  0.06347300  0.43276800  0.75239600  1
  C  C9  1  0.68022000  0.81193200  0.74596700  1
  C  C10  1  0.06347300  0.81107800  0.13070600  1
  C  C11  1  0.68022000  0.43425300  0.36828800  1
  C  C12  1  0.30855400  0.55809300  0.25046100  1
  C  C13  1  0.92218900  0.17487400  0.24731500  1
  C  C14  1  0.93403500  0.56574700  0.24596700  1
  C  C15  1  0.31962800  0.18892200  0.25239600  1
  C  C16  1  0.93403500  0.18806800  0.86828800  1
  C  C17  1  0.31962800  0.56723200  0.63070600  1
