# generated using pymatgen
data_CuNiC7
_symmetry_space_group_name_H-M   'P 1'
_cell_length_a   7.83821321
_cell_length_b   8.22955323
_cell_length_c   7.89986220
_cell_angle_alpha   118.67761763
_cell_angle_beta   92.76313081
_cell_angle_gamma   88.66982319
_symmetry_Int_Tables_number   1
_chemical_formula_structural   CuNiC7
_chemical_formula_sum   'Cu4 Ni4 C28'
_cell_volume   446.55240730
_cell_formula_units_Z   4
loop_
 _symmetry_equiv_pos_site_id
 _symmetry_equiv_pos_as_xyz
  1  'x, y, z'
loop_
 _atom_site_type_symbol
 _atom_site_label
 _atom_site_symmetry_multiplicity
 _atom_site_fract_x
 _atom_site_fract_y
 _atom_site_fract_z
 _atom_site_occupancy
  C  C0  1  0.22640800  0.22115400  0.87059300  1
  C  C1  1  0.72639100  0.22124700  0.37055800  1
  C  C2  1  0.22646800  0.77882700  0.14908800  1
  C  C3  1  0.72650100  0.77894300  0.64921300  1
  C  C4  1  0.26112800  0.77884800  0.61722200  1
  C  C5  1  0.76107000  0.77894700  0.11715900  1
  C  C6  1  0.26036600  0.22116000  0.33795000  1
  C  C7  1  0.76043600  0.22123900  0.83810400  1
  Ni  Ni8  1  0.44030400  0.49997000  0.76694200  1
  Ni  Ni9  1  0.94029800  0.49997400  0.26694500  1
  Ni  Ni10  1  0.01626300  0.50001500  0.68978400  1
  Ni  Ni11  1  0.51626200  0.50000000  0.18978000  1
  Cu  Cu12  1  0.50009700  0.99980300  0.00026300  1
  Cu  Cu13  1  0.99981600  0.99974800  0.99978400  1
  Cu  Cu14  1  0.00005300  0.99981100  0.50026100  1
  Cu  Cu15  1  0.49993200  0.99972600  0.49979900  1
  C  C16  1  0.23980100  0.49991200  0.63875700  1
  C  C17  1  0.73979900  0.49995200  0.13878000  1
  C  C18  1  0.38895800  0.49997600  0.98923600  1
  C  C19  1  0.88895300  0.49998100  0.48924100  1
  C  C20  1  0.97504200  0.29351000  0.69493800  1
  C  C21  1  0.47499800  0.29347200  0.19488000  1
  C  C22  1  0.54942000  0.70629600  0.82896000  1
  C  C23  1  0.04943000  0.70625500  0.32893000  1
  C  C24  1  0.54864400  0.29312800  0.62207900  1
  C  C25  1  0.04866300  0.29310300  0.12207500  1
  C  C26  1  0.97606100  0.70623900  0.90202800  1
  C  C27  1  0.47610200  0.70622300  0.40204500  1
  C  C28  1  0.49596100  0.96772600  0.23389900  1
  C  C29  1  0.99599400  0.96777100  0.73395500  1
  C  C30  1  0.24999100  0.03196300  0.51452500  1
  C  C31  1  0.75005500  0.03231600  0.01469600  1
  C  C32  1  0.99804200  0.03170400  0.26592900  1
  C  C33  1  0.49805000  0.03166600  0.76596800  1
  C  C34  1  0.25004200  0.96768500  0.98026800  1
  C  C35  1  0.74999300  0.96804800  0.48041400  1
