# generated using pymatgen
data_CuNiC6
_symmetry_space_group_name_H-M   'P 1'
_cell_length_a   5.39282600
_cell_length_b   7.44995900
_cell_length_c   11.60051500
_cell_angle_alpha   90.00000000
_cell_angle_beta   90.00000000
_cell_angle_gamma   90.00000000
_symmetry_Int_Tables_number   1
_chemical_formula_structural   CuNiC6
_chemical_formula_sum   'Cu2 Ni2 C12'
_cell_volume   466.06614890
_cell_formula_units_Z   2
loop_
 _symmetry_equiv_pos_site_id
 _symmetry_equiv_pos_as_xyz
  1  'x, y, z'
loop_
 _atom_site_type_symbol
 _atom_site_label
 _atom_site_symmetry_multiplicity
 _atom_site_fract_x
 _atom_site_fract_y
 _atom_site_fract_z
 _atom_site_occupancy
  Ni  Ni0  1  0.50000000  0.50000000  0.83796700  1
  Ni  Ni1  1  0.50000000  0.00000000  0.33796700  1
  Cu  Cu2  1  0.50000000  0.50000000  0.34526800  1
  Cu  Cu3  1  0.50000000  0.00000000  0.84526800  1
  C  C4  1  0.50000000  0.25503200  0.08440400  1
  C  C5  1  0.50000000  0.74496800  0.08440400  1
  C  C6  1  0.00000000  0.24395100  0.92293700  1
  C  C7  1  0.00000000  0.75604900  0.92293700  1
  C  C8  1  0.00000000  0.50000000  0.15649900  1
  C  C9  1  0.00000000  0.50000000  0.64558900  1
  C  C10  1  0.50000000  0.75503200  0.58440400  1
  C  C11  1  0.50000000  0.24496800  0.58440400  1
  C  C12  1  0.00000000  0.74395100  0.42293700  1
  C  C13  1  0.00000000  0.25604900  0.42293700  1
  C  C14  1  0.00000000  0.00000000  0.65649900  1
  C  C15  1  0.00000000  0.00000000  0.14558900  1
