# generated using pymatgen
data_Cu4NiC30
_symmetry_space_group_name_H-M   'P 1'
_cell_length_a   6.61724600
_cell_length_b   8.14442962
_cell_length_c   9.44430318
_cell_angle_alpha   95.93508005
_cell_angle_beta   102.32247494
_cell_angle_gamma   91.98609405
_symmetry_Int_Tables_number   1
_chemical_formula_structural   Cu4NiC30
_chemical_formula_sum   'Cu4 Ni1 C30'
_cell_volume   493.75338691
_cell_formula_units_Z   1
loop_
 _symmetry_equiv_pos_site_id
 _symmetry_equiv_pos_as_xyz
  1  'x, y, z'
loop_
 _atom_site_type_symbol
 _atom_site_label
 _atom_site_symmetry_multiplicity
 _atom_site_fract_x
 _atom_site_fract_y
 _atom_site_fract_z
 _atom_site_occupancy
  Ni  Ni0  1  0.00000000  0.00000000  0.00000000  1
  Cu  Cu1  1  0.61591300  0.28254500  0.42455500  1
  Cu  Cu2  1  0.38408700  0.71745500  0.57544600  1
  Cu  Cu3  1  0.19261500  0.43413300  0.16221900  1
  Cu  Cu4  1  0.80738500  0.56586700  0.83778100  1
  C  C5  1  0.85610400  0.72138700  0.50647300  1
  C  C6  1  0.14389600  0.27861300  0.49352700  1
  C  C7  1  0.46007900  0.14344700  0.70178000  1
  C  C8  1  0.53992100  0.85655300  0.29822000  1
  C  C9  1  0.72639100  0.55886000  0.20760900  1
  C  C10  1  0.27360900  0.44114000  0.79239100  1
  C  C11  1  0.29402400  0.36453900  0.41730300  1
  C  C12  1  0.70597600  0.63546100  0.58269700  1
  C  C13  1  0.93142400  0.23133800  0.40415700  1
  C  C14  1  0.06857600  0.76866200  0.59584300  1
  C  C15  1  0.74411300  0.87356300  0.43566500  1
  C  C16  1  0.25588700  0.12643700  0.56433500  1
  C  C17  1  0.88531100  0.60179100  0.36457700  1
  C  C18  1  0.11468900  0.39820900  0.63542300  1
  C  C19  1  0.51289500  0.02181200  0.24815500  1
  C  C20  1  0.48710500  0.97818800  0.75184500  1
  C  C21  1  0.36594400  0.76025700  0.34280500  1
  C  C22  1  0.63405600  0.23974300  0.65719500  1
  C  C23  1  0.62374500  0.73178500  0.17757800  1
  C  C24  1  0.37625500  0.26821500  0.82242200  1
  C  C25  1  0.85670800  0.51800000  0.09757700  1
  C  C26  1  0.14329200  0.48200000  0.90242300  1
  C  C27  1  0.56248800  0.43153500  0.22461800  1
  C  C28  1  0.43751200  0.56846500  0.77538200  1
  C  C29  1  0.17916400  0.16753300  0.10976800  1
  C  C30  1  0.82083600  0.83246700  0.89023200  1
  C  C31  1  0.19492800  0.86905500  0.95358900  1
  C  C32  1  0.80507200  0.13094500  0.04641100  1
  C  C33  1  0.01048700  0.99152400  0.19370300  1
  C  C34  1  0.98951300  0.00847600  0.80629700  1
