# generated using pymatgen
data_Cu8Ni2C
_symmetry_space_group_name_H-M   'P 1'
_cell_length_a   9.23509100
_cell_length_b   9.64414500
_cell_length_c   13.82739100
_cell_angle_alpha   90.00000000
_cell_angle_beta   90.00000000
_cell_angle_gamma   90.00000000
_symmetry_Int_Tables_number   1
_chemical_formula_structural   Cu8Ni2C
_chemical_formula_sum   'Cu64 Ni16 C8'
_cell_volume   1231.53044962
_cell_formula_units_Z   8
loop_
 _symmetry_equiv_pos_site_id
 _symmetry_equiv_pos_as_xyz
  1  'x, y, z'
loop_
 _atom_site_type_symbol
 _atom_site_label
 _atom_site_symmetry_multiplicity
 _atom_site_fract_x
 _atom_site_fract_y
 _atom_site_fract_z
 _atom_site_occupancy
  C  C0  1  0.78040000  0.03550800  0.10313800  1
  C  C1  1  0.71960000  0.53550800  0.89686200  1
  C  C2  1  0.28040000  0.96449200  0.39686200  1
  C  C3  1  0.21960000  0.46449200  0.60313800  1
  C  C4  1  0.21960000  0.96449200  0.89686200  1
  C  C5  1  0.28040000  0.46449200  0.10313800  1
  C  C6  1  0.71960000  0.03550800  0.60313800  1
  C  C7  1  0.78040000  0.53550800  0.39686200  1
  Ni  Ni8  1  0.99519000  0.72272800  0.05810700  1
  Ni  Ni9  1  0.50481000  0.22272800  0.94189300  1
  Ni  Ni10  1  0.49519000  0.27727200  0.44189300  1
  Ni  Ni11  1  0.00481000  0.77727200  0.55810700  1
  Ni  Ni12  1  0.00481000  0.27727200  0.94189300  1
  Ni  Ni13  1  0.49519000  0.77727200  0.05810700  1
  Ni  Ni14  1  0.50481000  0.72272800  0.55810700  1
  Ni  Ni15  1  0.99519000  0.22272800  0.44189300  1
  Ni  Ni16  1  0.82118500  0.89635200  0.84386800  1
  Ni  Ni17  1  0.67881500  0.39635200  0.15613200  1
  Ni  Ni18  1  0.32118500  0.10364800  0.65613200  1
  Ni  Ni19  1  0.17881500  0.60364800  0.34386800  1
  Ni  Ni20  1  0.17881500  0.10364800  0.15613200  1
  Ni  Ni21  1  0.32118500  0.60364800  0.84386800  1
  Ni  Ni22  1  0.67881500  0.89635200  0.34386800  1
  Ni  Ni23  1  0.82118500  0.39635200  0.65613200  1
  Cu  Cu24  1  0.89507400  0.80385900  0.11950500  1
  Cu  Cu25  1  0.60492600  0.30385900  0.88049500  1
  Cu  Cu26  1  0.39507400  0.19614100  0.38049500  1
  Cu  Cu27  1  0.10492600  0.69614100  0.61950500  1
  Cu  Cu28  1  0.10492600  0.19614100  0.88049500  1
  Cu  Cu29  1  0.39507400  0.69614100  0.11950500  1
  Cu  Cu30  1  0.60492600  0.80385900  0.61950500  1
  Cu  Cu31  1  0.89507400  0.30385900  0.38049500  1
  Cu  Cu32  1  0.91535300  0.64335700  0.98343200  1
  Cu  Cu33  1  0.58464700  0.14335700  0.01656800  1
  Cu  Cu34  1  0.41535300  0.35664300  0.51656800  1
  Cu  Cu35  1  0.08464700  0.85664300  0.48343200  1
  Cu  Cu36  1  0.08464700  0.35664300  0.01656800  1
  Cu  Cu37  1  0.41535300  0.85664300  0.98343200  1
  Cu  Cu38  1  0.58464700  0.64335700  0.48343200  1
  Cu  Cu39  1  0.91535300  0.14335700  0.51656800  1
  Cu  Cu40  1  0.08024800  0.62479500  0.11812400  1
  Cu  Cu41  1  0.41975200  0.12479500  0.88187600  1
  Cu  Cu42  1  0.58024800  0.37520500  0.38187600  1
  Cu  Cu43  1  0.91975200  0.87520500  0.61812400  1
  Cu  Cu44  1  0.91975200  0.37520500  0.88187600  1
  Cu  Cu45  1  0.58024800  0.87520500  0.11812400  1
  Cu  Cu46  1  0.41975200  0.62479500  0.61812400  1
  Cu  Cu47  1  0.08024800  0.12479500  0.38187600  1
  Cu  Cu48  1  0.09644600  0.82113300  0.00948400  1
  Cu  Cu49  1  0.40355400  0.32113300  0.99051600  1
  Cu  Cu50  1  0.59644600  0.17886700  0.49051600  1
  Cu  Cu51  1  0.90355400  0.67886700  0.50948400  1
  Cu  Cu52  1  0.90355400  0.17886700  0.99051600  1
  Cu  Cu53  1  0.59644600  0.67886700  0.00948400  1
  Cu  Cu54  1  0.40355400  0.82113300  0.50948400  1
  Cu  Cu55  1  0.09644600  0.32113300  0.49051600  1
  Cu  Cu56  1  0.77402700  0.92783700  0.94414000  1
  Cu  Cu57  1  0.72597300  0.42783700  0.05586000  1
  Cu  Cu58  1  0.27402700  0.07216300  0.55586000  1
  Cu  Cu59  1  0.22597300  0.57216300  0.44414000  1
  Cu  Cu60  1  0.22597300  0.07216300  0.05586000  1
  Cu  Cu61  1  0.27402700  0.57216300  0.94414000  1
  Cu  Cu62  1  0.72597300  0.92783700  0.44414000  1
  Cu  Cu63  1  0.77402700  0.42783700  0.55586000  1
  Cu  Cu64  1  0.74773500  0.99013700  0.77461500  1
  Cu  Cu65  1  0.75226500  0.49013700  0.22538500  1
  Cu  Cu66  1  0.24773500  0.00986300  0.72538500  1
  Cu  Cu67  1  0.25226500  0.50986300  0.27461500  1
  Cu  Cu68  1  0.25226500  0.00986300  0.22538500  1
  Cu  Cu69  1  0.24773500  0.50986300  0.77461500  1
  Cu  Cu70  1  0.75226500  0.99013700  0.27461500  1
  Cu  Cu71  1  0.74773500  0.49013700  0.72538500  1
  Cu  Cu72  1  0.78037600  0.75106500  0.82035500  1
  Cu  Cu73  1  0.71962400  0.25106500  0.17964500  1
  Cu  Cu74  1  0.28037600  0.24893500  0.67964500  1
  Cu  Cu75  1  0.21962400  0.74893500  0.32035500  1
  Cu  Cu76  1  0.21962400  0.24893500  0.17964500  1
  Cu  Cu77  1  0.28037600  0.74893500  0.82035500  1
  Cu  Cu78  1  0.71962400  0.75106500  0.32035500  1
  Cu  Cu79  1  0.78037600  0.25106500  0.67964500  1
  Cu  Cu80  1  0.98026600  0.91522300  0.83560000  1
  Cu  Cu81  1  0.51973400  0.41522300  0.16440000  1
  Cu  Cu82  1  0.48026600  0.08477700  0.66440000  1
  Cu  Cu83  1  0.01973400  0.58477700  0.33560000  1
  Cu  Cu84  1  0.01973400  0.08477700  0.16440000  1
  Cu  Cu85  1  0.48026600  0.58477700  0.83560000  1
  Cu  Cu86  1  0.51973400  0.91522300  0.33560000  1
  Cu  Cu87  1  0.98026600  0.41522300  0.66440000  1
