# generated using pymatgen
data_Cu4NiC5
_symmetry_space_group_name_H-M   'P 1'
_cell_length_a   7.06992508
_cell_length_b   7.06992508
_cell_length_c   10.00083607
_cell_angle_alpha   61.90201458
_cell_angle_beta   61.90201458
_cell_angle_gamma   33.55831580
_symmetry_Int_Tables_number   1
_chemical_formula_structural   Cu4NiC5
_chemical_formula_sum   'Cu4 Ni1 C5'
_cell_volume   240.58026149
_cell_formula_units_Z   1
loop_
 _symmetry_equiv_pos_site_id
 _symmetry_equiv_pos_as_xyz
  1  'x, y, z'
loop_
 _atom_site_type_symbol
 _atom_site_label
 _atom_site_symmetry_multiplicity
 _atom_site_fract_x
 _atom_site_fract_y
 _atom_site_fract_z
 _atom_site_occupancy
  Ni  Ni0  1  0.00047200  0.00047200  0.99926100  1
  Cu  Cu1  1  0.60062900  0.60062900  0.59830900  1
  Cu  Cu2  1  0.19896300  0.19896300  0.20130200  1
  Cu  Cu3  1  0.80060300  0.80060300  0.79882000  1
  Cu  Cu4  1  0.39959200  0.39959200  0.40185900  1
  C  C5  1  0.79959000  0.79959000  0.55072800  1
  C  C6  1  0.39686200  0.39686200  0.15523200  1
  C  C7  1  0.00069800  0.00069800  0.74598500  1
  C  C8  1  0.59958300  0.59958300  0.34928500  1
  C  C9  1  0.20300900  0.20300900  0.94921800  1
