# generated using pymatgen
data_CuNi3C8
_symmetry_space_group_name_H-M   'P 1'
_cell_length_a   8.42167000
_cell_length_b   8.54700200
_cell_length_c   12.18399300
_cell_angle_alpha   90.00000000
_cell_angle_beta   90.00000000
_cell_angle_gamma   90.00000000
_symmetry_Int_Tables_number   1
_chemical_formula_structural   CuNi3C8
_chemical_formula_sum   'Cu4 Ni12 C32'
_cell_volume   877.00418572
_cell_formula_units_Z   4
loop_
 _symmetry_equiv_pos_site_id
 _symmetry_equiv_pos_as_xyz
  1  'x, y, z'
loop_
 _atom_site_type_symbol
 _atom_site_label
 _atom_site_symmetry_multiplicity
 _atom_site_fract_x
 _atom_site_fract_y
 _atom_site_fract_z
 _atom_site_occupancy
  C  C0  1  0.89115400  0.08155100  0.18191900  1
  C  C1  1  0.10884600  0.91844900  0.81808100  1
  C  C2  1  0.39115400  0.41844900  0.81808100  1
  C  C3  1  0.60884600  0.58155100  0.18191900  1
  C  C4  1  0.60884600  0.58155100  0.31808100  1
  C  C5  1  0.39115400  0.41844900  0.68191900  1
  C  C6  1  0.10884600  0.91844900  0.68191900  1
  C  C7  1  0.89115400  0.08155100  0.31808100  1
  C  C8  1  0.88272000  0.09225500  0.67585700  1
  C  C9  1  0.11728000  0.90774500  0.32414300  1
  C  C10  1  0.38272000  0.40774500  0.32414300  1
  C  C11  1  0.61728000  0.59225500  0.67585700  1
  C  C12  1  0.61728000  0.59225500  0.82414300  1
  C  C13  1  0.38272000  0.40774500  0.17585700  1
  C  C14  1  0.11728000  0.90774500  0.17585700  1
  C  C15  1  0.88272000  0.09225500  0.82414300  1
  C  C16  1  0.04160300  0.16223700  0.25000000  1
  C  C17  1  0.95839700  0.83776300  0.75000000  1
  C  C18  1  0.54160300  0.33776300  0.75000000  1
  C  C19  1  0.45839700  0.66223700  0.25000000  1
  C  C20  1  0.04620500  0.17620300  0.75000000  1
  C  C21  1  0.95379500  0.82379700  0.25000000  1
  C  C22  1  0.54620500  0.32379700  0.25000000  1
  C  C23  1  0.45379500  0.67620300  0.75000000  1
  C  C24  1  0.50000000  0.00000000  0.00000000  1
  C  C25  1  0.00000000  0.50000000  0.00000000  1
  C  C26  1  0.00000000  0.50000000  0.50000000  1
  C  C27  1  0.50000000  0.00000000  0.50000000  1
  C  C28  1  0.95557100  0.08458700  0.75000000  1
  C  C29  1  0.04442900  0.91541300  0.25000000  1
  C  C30  1  0.45557100  0.41541300  0.25000000  1
  C  C31  1  0.54442900  0.58458700  0.75000000  1
  Ni  Ni32  1  0.19902400  0.20047100  0.01757100  1
  Ni  Ni33  1  0.80097600  0.79952900  0.98242900  1
  Ni  Ni34  1  0.69902400  0.29952900  0.98242900  1
  Ni  Ni35  1  0.30097600  0.70047100  0.01757100  1
  Ni  Ni36  1  0.30097600  0.70047100  0.48242900  1
  Ni  Ni37  1  0.69902400  0.29952900  0.51757100  1
  Ni  Ni38  1  0.80097600  0.79952900  0.51757100  1
  Ni  Ni39  1  0.19902400  0.20047100  0.48242900  1
  Ni  Ni40  1  0.43870700  0.02426100  0.75000000  1
  Ni  Ni41  1  0.56129300  0.97573900  0.25000000  1
  Ni  Ni42  1  0.93870700  0.47573900  0.25000000  1
  Ni  Ni43  1  0.06129300  0.52426100  0.75000000  1
  Cu  Cu44  1  0.96305100  0.06995100  0.25000000  1
  Cu  Cu45  1  0.03694900  0.93004900  0.75000000  1
  Cu  Cu46  1  0.46305100  0.43004900  0.75000000  1
  Cu  Cu47  1  0.53694900  0.56995100  0.25000000  1
