# generated using pymatgen
data_CuNi3C2
_symmetry_space_group_name_H-M   'P 1'
_cell_length_a   4.11558025
_cell_length_b   6.37260611
_cell_length_c   6.66367722
_cell_angle_alpha   92.26925365
_cell_angle_beta   94.79343684
_cell_angle_gamma   95.33102106
_symmetry_Int_Tables_number   1
_chemical_formula_structural   CuNi3C2
_chemical_formula_sum   'Cu2 Ni6 C4'
_cell_volume   173.20585413
_cell_formula_units_Z   2
loop_
 _symmetry_equiv_pos_site_id
 _symmetry_equiv_pos_as_xyz
  1  'x, y, z'
loop_
 _atom_site_type_symbol
 _atom_site_label
 _atom_site_symmetry_multiplicity
 _atom_site_fract_x
 _atom_site_fract_y
 _atom_site_fract_z
 _atom_site_occupancy
  C  C0  1  0.53515500  0.62898300  0.75623400  1
  C  C1  1  0.46484500  0.37101700  0.24376600  1
  C  C2  1  0.68347600  0.85755600  0.27918400  1
  C  C3  1  0.31652400  0.14244400  0.72081600  1
  Ni  Ni4  1  0.59861300  0.96914400  0.77165100  1
  Ni  Ni5  1  0.40138700  0.03085600  0.22834900  1
  Ni  Ni6  1  0.60978600  0.67016800  0.07861900  1
  Ni  Ni7  1  0.39021400  0.32983200  0.92138100  1
  Ni  Ni8  1  0.48404500  0.67668700  0.43095400  1
  Ni  Ni9  1  0.51595500  0.32331300  0.56904600  1
  Cu  Cu10  1  0.03539400  0.64949900  0.74224800  1
  Cu  Cu11  1  0.96460600  0.35050100  0.25775200  1
