# generated using pymatgen
data_Cu3NiC10
_symmetry_space_group_name_H-M   'P 1'
_cell_length_a   6.63800164
_cell_length_b   13.70394678
_cell_length_c   5.78529600
_cell_angle_alpha   90.00000000
_cell_angle_beta   90.00000000
_cell_angle_gamma   89.69683044
_symmetry_Int_Tables_number   1
_chemical_formula_structural   Cu3NiC10
_chemical_formula_sum   'Cu6 Ni2 C20'
_cell_volume   526.26261946
_cell_formula_units_Z   2
loop_
 _symmetry_equiv_pos_site_id
 _symmetry_equiv_pos_as_xyz
  1  'x, y, z'
loop_
 _atom_site_type_symbol
 _atom_site_label
 _atom_site_symmetry_multiplicity
 _atom_site_fract_x
 _atom_site_fract_y
 _atom_site_fract_z
 _atom_site_occupancy
  Ni  Ni0  1  0.25000000  0.25000000  0.50000000  1
  Ni  Ni1  1  0.75000000  0.75000000  0.50000000  1
  Cu  Cu2  1  0.03941600  0.24907600  0.98670800  1
  Cu  Cu3  1  0.96058400  0.75092400  0.98670800  1
  Cu  Cu4  1  0.46058400  0.25092400  0.01329200  1
  Cu  Cu5  1  0.53941600  0.74907600  0.01329200  1
  Cu  Cu6  1  0.75000000  0.25000000  0.50000000  1
  Cu  Cu7  1  0.25000000  0.75000000  0.50000000  1
  C  C8  1  0.00000000  0.00000000  0.34563700  1
  C  C9  1  0.50000000  0.50000000  0.65436300  1
  C  C10  1  0.00000000  0.50000000  0.02316200  1
  C  C11  1  0.50000000  0.00000000  0.97683800  1
  C  C12  1  0.25553500  0.36505600  0.83947900  1
  C  C13  1  0.74446500  0.63494400  0.83947900  1
  C  C14  1  0.75381800  0.15858800  0.15704300  1
  C  C15  1  0.24618200  0.84141200  0.15704300  1
  C  C16  1  0.24446500  0.13494400  0.16052100  1
  C  C17  1  0.75553500  0.86505600  0.16052100  1
  C  C18  1  0.74618200  0.34141200  0.84295700  1
  C  C19  1  0.25381800  0.65858800  0.84295700  1
  C  C20  1  0.98915100  0.14395500  0.67538400  1
  C  C21  1  0.01084900  0.85604500  0.67538400  1
  C  C22  1  0.51084900  0.35604500  0.32461600  1
  C  C23  1  0.48915100  0.64395500  0.32461600  1
  C  C24  1  0.99190300  0.35369300  0.32204200  1
  C  C25  1  0.00809700  0.64630700  0.32204200  1
  C  C26  1  0.50809700  0.14630700  0.67795800  1
  C  C27  1  0.49190300  0.85369300  0.67795800  1
