# generated using pymatgen
data_Cu2NiC7
_symmetry_space_group_name_H-M   'P 1'
_cell_length_a   8.80175700
_cell_length_b   5.33480500
_cell_length_c   9.37432554
_cell_angle_alpha   78.07247249
_cell_angle_beta   90.00000000
_cell_angle_gamma   90.00000000
_symmetry_Int_Tables_number   1
_chemical_formula_structural   Cu2NiC7
_chemical_formula_sum   'Cu8 Ni4 C28'
_cell_volume   430.67409533
_cell_formula_units_Z   4
loop_
 _symmetry_equiv_pos_site_id
 _symmetry_equiv_pos_as_xyz
  1  'x, y, z'
loop_
 _atom_site_type_symbol
 _atom_site_label
 _atom_site_symmetry_multiplicity
 _atom_site_fract_x
 _atom_site_fract_y
 _atom_site_fract_z
 _atom_site_occupancy
  C  C0  1  0.00261200  0.99066200  0.24767000  1
  C  C1  1  0.50261200  0.50933800  0.75233000  1
  C  C2  1  0.99738800  0.00933800  0.75233000  1
  C  C3  1  0.49738800  0.49066200  0.24767000  1
  Ni  Ni4  1  0.64728100  0.98754800  0.25031200  1
  Ni  Ni5  1  0.85271900  0.48754800  0.25031200  1
  Ni  Ni6  1  0.35271900  0.01245200  0.74968800  1
  Ni  Ni7  1  0.14728100  0.51245200  0.74968800  1
  Cu  Cu8  1  0.66135200  0.77091000  0.95218000  1
  Cu  Cu9  1  0.66090000  0.20912000  0.54739700  1
  Cu  Cu10  1  0.16090000  0.29088000  0.45260300  1
  Cu  Cu11  1  0.33910000  0.79088000  0.45260300  1
  Cu  Cu12  1  0.83910000  0.70912000  0.54739700  1
  Cu  Cu13  1  0.16135200  0.72909000  0.04782000  1
  Cu  Cu14  1  0.83864800  0.27091000  0.95218000  1
  Cu  Cu15  1  0.33864800  0.22909000  0.04782000  1
  C  C16  1  0.49687800  0.22919800  0.62239900  1
  C  C17  1  0.77092400  0.41873300  0.60324200  1
  C  C18  1  0.27092400  0.08126700  0.39675800  1
  C  C19  1  0.22907600  0.58126700  0.39675800  1
  C  C20  1  0.72907600  0.91873300  0.60324200  1
  C  C21  1  0.23353000  0.97373600  0.10715500  1
  C  C22  1  0.73353000  0.52626400  0.89284500  1
  C  C23  1  0.76647000  0.02626400  0.89284500  1
  C  C24  1  0.26647000  0.47373600  0.10715500  1
  C  C25  1  0.83594700  0.77231500  0.36645600  1
  C  C26  1  0.99687800  0.27080200  0.37760100  1
  C  C27  1  0.50312200  0.77080200  0.37760100  1
  C  C28  1  0.33379500  0.29440300  0.86732000  1
  C  C29  1  0.83379500  0.20559700  0.13268000  1
  C  C30  1  0.66620500  0.70559700  0.13268000  1
  C  C31  1  0.16620500  0.79440300  0.86732000  1
  C  C32  1  0.16405300  0.22768500  0.63354400  1
  C  C33  1  0.33594700  0.72768500  0.63354400  1
  C  C34  1  0.99317400  0.69778500  0.11792500  1
  C  C35  1  0.66405300  0.27231500  0.36645600  1
  C  C36  1  0.50682600  0.19778500  0.11792500  1
  C  C37  1  0.00682600  0.30221500  0.88207500  1
  C  C38  1  0.49317400  0.80221500  0.88207500  1
  C  C39  1  0.00312200  0.72919800  0.62239900  1
