# generated using pymatgen
data_CuNiC6
_symmetry_space_group_name_H-M   'P 1'
_cell_length_a   5.25538100
_cell_length_b   10.48941300
_cell_length_c   16.09384200
_cell_angle_alpha   90.00000000
_cell_angle_beta   90.00000000
_cell_angle_gamma   90.00000000
_symmetry_Int_Tables_number   1
_chemical_formula_structural   CuNiC6
_chemical_formula_sum   'Cu8 Ni8 C48'
_cell_volume   887.18690962
_cell_formula_units_Z   8
loop_
 _symmetry_equiv_pos_site_id
 _symmetry_equiv_pos_as_xyz
  1  'x, y, z'
loop_
 _atom_site_type_symbol
 _atom_site_label
 _atom_site_symmetry_multiplicity
 _atom_site_fract_x
 _atom_site_fract_y
 _atom_site_fract_z
 _atom_site_occupancy
  Ni  Ni0  1  0.52753800  0.36844200  0.55689200  1
  Ni  Ni1  1  0.02753800  0.13155800  0.55689200  1
  Ni  Ni2  1  0.02753800  0.63155800  0.94310800  1
  Ni  Ni3  1  0.97246200  0.36844200  0.05689200  1
  Ni  Ni4  1  0.47246200  0.13155800  0.05689200  1
  Ni  Ni5  1  0.97246200  0.86844200  0.44310800  1
  Ni  Ni6  1  0.47246200  0.63155800  0.44310800  1
  Ni  Ni7  1  0.52753800  0.86844200  0.94310800  1
  Cu  Cu8  1  0.97809500  0.85862500  0.77758100  1
  Cu  Cu9  1  0.02190500  0.14137500  0.22241900  1
  Cu  Cu10  1  0.52190500  0.35862500  0.22241900  1
  Cu  Cu11  1  0.02190500  0.64137500  0.27758100  1
  Cu  Cu12  1  0.47809500  0.14137500  0.72241900  1
  Cu  Cu13  1  0.47809500  0.64137500  0.77758100  1
  Cu  Cu14  1  0.52190500  0.85862500  0.27758100  1
  Cu  Cu15  1  0.97809500  0.35862500  0.72241900  1
  C  C16  1  0.99186700  0.37765500  0.41627600  1
  C  C17  1  0.50813300  0.87765500  0.58372400  1
  C  C18  1  0.00813300  0.62234500  0.58372400  1
  C  C19  1  0.49186700  0.12234500  0.41627600  1
  C  C20  1  0.00813300  0.12234500  0.91627600  1
  C  C21  1  0.99186700  0.87765500  0.08372400  1
  C  C22  1  0.50813300  0.37765500  0.91627600  1
  C  C23  1  0.49186700  0.62234500  0.08372400  1
  C  C24  1  0.91482400  0.32773700  0.30468900  1
  C  C25  1  0.28083200  0.02925100  0.95286900  1
  C  C26  1  0.21916800  0.52925100  0.04713100  1
  C  C27  1  0.29359400  0.78339100  0.85384300  1
  C  C28  1  0.20640600  0.28339100  0.14615700  1
  C  C29  1  0.91482400  0.82773700  0.19531100  1
  C  C30  1  0.20640600  0.78339100  0.35384300  1
  C  C31  1  0.58517600  0.82773700  0.69531100  1
  C  C32  1  0.28083200  0.52925100  0.54713100  1
  C  C33  1  0.08517600  0.67226300  0.69531100  1
  C  C34  1  0.58517600  0.32773700  0.80468900  1
  C  C35  1  0.75075800  0.21939600  0.47046900  1
  C  C36  1  0.78083200  0.97074900  0.54713100  1
  C  C37  1  0.70640600  0.71660900  0.35384300  1
  C  C38  1  0.20214500  0.02066500  0.12158700  1
  C  C39  1  0.78083200  0.47074900  0.95286900  1
  C  C40  1  0.08517600  0.17226300  0.80468900  1
  C  C41  1  0.79359400  0.21660900  0.64615700  1
  C  C42  1  0.25075800  0.78060400  0.02953100  1
  C  C43  1  0.21916800  0.02925100  0.45286900  1
  C  C44  1  0.24924200  0.78060400  0.52953100  1
  C  C45  1  0.79785500  0.97933500  0.87841300  1
  C  C46  1  0.70640600  0.21660900  0.14615700  1
  C  C47  1  0.70214500  0.97933500  0.37841300  1
  C  C48  1  0.24924200  0.28060400  0.97046900  1
  C  C49  1  0.25075800  0.28060400  0.47046900  1
  C  C50  1  0.71916800  0.47074900  0.45286900  1
  C  C51  1  0.71916800  0.97074900  0.04713100  1
  C  C52  1  0.70214500  0.47933500  0.12158700  1
  C  C53  1  0.74924200  0.71939600  0.52953100  1
  C  C54  1  0.74924200  0.21939600  0.97046900  1
  C  C55  1  0.75075800  0.71939600  0.02953100  1
  C  C56  1  0.79785500  0.47933500  0.62158700  1
  C  C57  1  0.79359400  0.71660900  0.85384300  1
  C  C58  1  0.29359400  0.28339100  0.64615700  1
  C  C59  1  0.20214500  0.52066500  0.37841300  1
  C  C60  1  0.29785500  0.52066500  0.87841300  1
  C  C61  1  0.41482400  0.17226300  0.30468900  1
  C  C62  1  0.29785500  0.02066500  0.62158700  1
  C  C63  1  0.41482400  0.67226300  0.19531100  1
