# generated using pymatgen
data_Cu10Ni2C
_symmetry_space_group_name_H-M   'P 1'
_cell_length_a   8.79651300
_cell_length_b   6.42311600
_cell_length_c   15.01268922
_cell_angle_alpha   71.52652394
_cell_angle_beta   90.00000000
_cell_angle_gamma   90.00000000
_symmetry_Int_Tables_number   1
_chemical_formula_structural   Cu10Ni2C
_chemical_formula_sum   'Cu40 Ni8 C4'
_cell_volume   804.52327021
_cell_formula_units_Z   4
loop_
 _symmetry_equiv_pos_site_id
 _symmetry_equiv_pos_as_xyz
  1  'x, y, z'
loop_
 _atom_site_type_symbol
 _atom_site_label
 _atom_site_symmetry_multiplicity
 _atom_site_fract_x
 _atom_site_fract_y
 _atom_site_fract_z
 _atom_site_occupancy
  C  C0  1  0.91378700  0.13781600  0.85129500  1
  C  C1  1  0.58621300  0.13781600  0.35129500  1
  C  C2  1  0.08621300  0.86218400  0.14870500  1
  C  C3  1  0.41378700  0.86218400  0.64870500  1
  Ni  Ni4  1  0.87835600  0.44205300  0.66875600  1
  Ni  Ni5  1  0.62164400  0.44205300  0.16875600  1
  Ni  Ni6  1  0.12164400  0.55794700  0.33124400  1
  Ni  Ni7  1  0.37835600  0.55794700  0.83124400  1
  Ni  Ni8  1  0.23933800  0.98884400  0.91884300  1
  Ni  Ni9  1  0.26066200  0.98884400  0.41884300  1
  Ni  Ni10  1  0.76066200  0.01115600  0.08115700  1
  Ni  Ni11  1  0.73933800  0.01115600  0.58115700  1
  Cu  Cu12  1  0.00012700  0.42960100  0.71763400  1
  Cu  Cu13  1  0.49987300  0.42960100  0.21763400  1
  Cu  Cu14  1  0.99987300  0.57039900  0.28236600  1
  Cu  Cu15  1  0.50012700  0.57039900  0.78236600  1
  Cu  Cu16  1  0.76529300  0.32538900  0.71207700  1
  Cu  Cu17  1  0.73470700  0.32538900  0.21207700  1
  Cu  Cu18  1  0.23470700  0.67461100  0.28792300  1
  Cu  Cu19  1  0.26529300  0.67461100  0.78792300  1
  Cu  Cu20  1  0.87090300  0.55685600  0.58621700  1
  Cu  Cu21  1  0.62909700  0.55685600  0.08621700  1
  Cu  Cu22  1  0.12909700  0.44314400  0.41378300  1
  Cu  Cu23  1  0.37090300  0.44314400  0.91378300  1
  Cu  Cu24  1  0.14165300  0.95091400  0.98721400  1
  Cu  Cu25  1  0.35834700  0.95091400  0.48721400  1
  Cu  Cu26  1  0.85834700  0.04908600  0.01278600  1
  Cu  Cu27  1  0.64165300  0.04908600  0.51278600  1
  Cu  Cu28  1  0.18341500  0.09028500  0.83780800  1
  Cu  Cu29  1  0.31658500  0.09028500  0.33780800  1
  Cu  Cu30  1  0.81658500  0.90971500  0.16219200  1
  Cu  Cu31  1  0.68341500  0.90971500  0.66219200  1
  Cu  Cu32  1  0.37172100  0.93126100  0.93119000  1
  Cu  Cu33  1  0.12827900  0.93126100  0.43119000  1
  Cu  Cu34  1  0.62827900  0.06873900  0.06881000  1
  Cu  Cu35  1  0.87172100  0.06873900  0.56881000  1
  Cu  Cu36  1  0.79239800  0.68651000  0.84862400  1
  Cu  Cu37  1  0.70760200  0.68651000  0.34862400  1
  Cu  Cu38  1  0.20760200  0.31349000  0.15137600  1
  Cu  Cu39  1  0.29239800  0.31349000  0.65137600  1
  Cu  Cu40  1  0.72029000  0.78630600  0.89850400  1
  Cu  Cu41  1  0.77971000  0.78630600  0.39850400  1
  Cu  Cu42  1  0.27971000  0.21369400  0.10149600  1
  Cu  Cu43  1  0.22029000  0.21369400  0.60149600  1
  Cu  Cu44  1  0.03359800  0.50678300  0.96309500  1
  Cu  Cu45  1  0.46640200  0.50678300  0.46309500  1
  Cu  Cu46  1  0.96640200  0.49321700  0.03690500  1
  Cu  Cu47  1  0.53359800  0.49321700  0.53690500  1
  Cu  Cu48  1  0.89572000  0.80281300  0.79198100  1
  Cu  Cu49  1  0.60428000  0.80281300  0.29198100  1
  Cu  Cu50  1  0.10428000  0.19718700  0.20801900  1
  Cu  Cu51  1  0.39572000  0.19718700  0.70801900  1
