# generated using pymatgen
data_CuNiC7
_symmetry_space_group_name_H-M   'P 1'
_cell_length_a   7.47338743
_cell_length_b   7.47338743
_cell_length_c   7.47338743
_cell_angle_alpha   120.36787284
_cell_angle_beta   119.78326927
_cell_angle_gamma   89.86990417
_symmetry_Int_Tables_number   1
_chemical_formula_structural   CuNiC7
_chemical_formula_sum   'Cu2 Ni2 C14'
_cell_volume   294.79882841
_cell_formula_units_Z   2
loop_
 _symmetry_equiv_pos_site_id
 _symmetry_equiv_pos_as_xyz
  1  'x, y, z'
loop_
 _atom_site_type_symbol
 _atom_site_label
 _atom_site_symmetry_multiplicity
 _atom_site_fract_x
 _atom_site_fract_y
 _atom_site_fract_z
 _atom_site_occupancy
  C  C0  1  0.62400100  0.87400100  0.75000000  1
  C  C1  1  0.37599900  0.12599900  0.25000000  1
  Ni  Ni2  1  0.50000000  0.50000000  0.00000000  1
  Ni  Ni3  1  0.00000000  0.50000000  0.50000000  1
  Cu  Cu4  1  0.00000000  0.50000000  0.00000000  1
  Cu  Cu5  1  0.00000000  0.00000000  0.50000000  1
  C  C6  1  0.05953700  0.80953700  0.25000000  1
  C  C7  1  0.68832000  0.43832000  0.25000000  1
  C  C8  1  0.05957500  0.81706300  0.62128800  1
  C  C9  1  0.69577500  0.43828600  0.87871200  1
  C  C10  1  0.69577500  0.81706300  0.25748800  1
  C  C11  1  0.05957500  0.43828600  0.24251200  1
  C  C12  1  0.94046300  0.19046300  0.75000000  1
  C  C13  1  0.31168000  0.56168000  0.75000000  1
  C  C14  1  0.94042500  0.18293700  0.37871200  1
  C  C15  1  0.30422500  0.56171400  0.12128800  1
  C  C16  1  0.30422500  0.18293700  0.74251200  1
  C  C17  1  0.94042500  0.56171400  0.75748800  1
