# generated using pymatgen
data_Cu7NiC32
_symmetry_space_group_name_H-M   'P 1'
_cell_length_a   10.83644522
_cell_length_b   15.17831508
_cell_length_c   10.69197158
_cell_angle_alpha   90.00000000
_cell_angle_beta   90.02142782
_cell_angle_gamma   90.00000000
_symmetry_Int_Tables_number   1
_chemical_formula_structural   Cu7NiC32
_chemical_formula_sum   'Cu28 Ni4 C128'
_cell_volume   1758.60445498
_cell_formula_units_Z   4
loop_
 _symmetry_equiv_pos_site_id
 _symmetry_equiv_pos_as_xyz
  1  'x, y, z'
loop_
 _atom_site_type_symbol
 _atom_site_label
 _atom_site_symmetry_multiplicity
 _atom_site_fract_x
 _atom_site_fract_y
 _atom_site_fract_z
 _atom_site_occupancy
  C  C0  1  0.02234095  0.12500000  0.49686532  1
  C  C1  1  0.01968719  0.12500000  0.99467072  1
  C  C2  1  0.02243848  0.62500000  0.49570498  1
  C  C3  1  0.02264273  0.62500000  0.99624538  1
  C  C4  1  0.52305679  0.12500000  0.49564245  1
  C  C5  1  0.52366768  0.12500000  0.99552886  1
  C  C6  1  0.52255349  0.62500000  0.49561200  1
  C  C7  1  0.52248834  0.62500000  0.99557728  1
  C  C8  1  0.47881210  0.37600155  0.00420852  1
  C  C9  1  0.47775838  0.37482860  0.50499698  1
  C  C10  1  0.47881210  0.87399845  0.00420852  1
  C  C11  1  0.47775838  0.87517140  0.50499698  1
  C  C12  1  0.97704377  0.37560266  0.00369531  1
  C  C13  1  0.97733876  0.37549157  0.50494652  1
  C  C14  1  0.97704377  0.87439734  0.00369531  1
  C  C15  1  0.97733876  0.87450843  0.50494652  1
  C  C16  1  0.22874548  0.37642788  0.24614047  1
  C  C17  1  0.22766513  0.37535624  0.74491390  1
  C  C18  1  0.22874548  0.87357212  0.24614047  1
  C  C19  1  0.22766513  0.87464376  0.74491490  1
  C  C20  1  0.72704418  0.37511817  0.24572349  1
  C  C21  1  0.72743305  0.37481495  0.74534058  1
  C  C22  1  0.72704418  0.87488183  0.24572349  1
  C  C23  1  0.72743305  0.87518505  0.74534158  1
  C  C24  1  0.27383863  0.12500000  0.25552918  1
  C  C25  1  0.27264499  0.12500000  0.75267005  1
  C  C26  1  0.27227175  0.62500000  0.25380856  1
  C  C27  1  0.27254128  0.62500000  0.75431945  1
  C  C28  1  0.76944168  0.12500000  0.25433189  1
  C  C29  1  0.77244004  0.12500000  0.75505831  1
  C  C30  1  0.77281567  0.62500000  0.25435224  1
  C  C31  1  0.77243919  0.62500000  0.75441740  1
  Ni  Ni32  1  0.99898629  0.99918679  0.24994122  1
  Ni  Ni33  1  0.25004634  0.99936048  0.99972995  1
  Ni  Ni34  1  0.25004634  0.25063952  0.99972995  1
  Ni  Ni35  1  0.99898629  0.25081321  0.24994122  1
  Cu  Cu36  1  0.00025979  0.00034754  0.74906849  1
  Cu  Cu37  1  0.00048924  0.50072662  0.25068988  1
  Cu  Cu38  1  0.99984703  0.49987316  0.74997242  1
  Cu  Cu39  1  0.50006355  0.99963044  0.25117488  1
  Cu  Cu40  1  0.50132987  0.00042742  0.74992597  1
  Cu  Cu41  1  0.49980479  0.50015009  0.25005531  1
  Cu  Cu42  1  0.50032579  0.49993215  0.74992195  1
  Cu  Cu43  1  0.25120471  0.00023131  0.50012238  1
  Cu  Cu44  1  0.25020874  0.50074015  0.99902300  1
  Cu  Cu45  1  0.25027083  0.49994344  0.50016385  1
  Cu  Cu46  1  0.74891930  0.99945160  0.00020981  1
  Cu  Cu47  1  0.74999631  0.00028864  0.50124872  1
  Cu  Cu48  1  0.75012169  0.50009061  0.00027507  1
  Cu  Cu49  1  0.74989580  0.49987551  0.49998902  1
  Cu  Cu50  1  0.25120471  0.24976869  0.50012238  1
  Cu  Cu51  1  0.25020874  0.74925985  0.99902300  1
  Cu  Cu52  1  0.25027083  0.75005656  0.50016385  1
  Cu  Cu53  1  0.74891930  0.25054840  0.00020981  1
  Cu  Cu54  1  0.74999631  0.24971136  0.50124872  1
  Cu  Cu55  1  0.75012169  0.74990939  0.00027507  1
  Cu  Cu56  1  0.74989580  0.75012449  0.49998902  1
  Cu  Cu57  1  0.00025979  0.24965246  0.74906849  1
  Cu  Cu58  1  0.00048924  0.74927338  0.25068988  1
  Cu  Cu59  1  0.99984703  0.75012684  0.74997242  1
  Cu  Cu60  1  0.50006355  0.25036956  0.25117488  1
  Cu  Cu61  1  0.50132987  0.24957258  0.74992597  1
  Cu  Cu62  1  0.49980479  0.74984991  0.25005531  1
  Cu  Cu63  1  0.50032579  0.75006785  0.74992195  1
  C  C64  1  0.10511178  0.26969104  0.10453487  1
  C  C65  1  0.10384302  0.27003611  0.60223326  1
  C  C66  1  0.10429778  0.77055010  0.10325579  1
  C  C67  1  0.10397136  0.77026230  0.60299535  1
  C  C68  1  0.60272599  0.27036997  0.10270085  1
  C  C69  1  0.60373106  0.27033839  0.60279944  1
  C  C70  1  0.60395458  0.77020635  0.10306884  1
  C  C71  1  0.60389456  0.77023925  0.60298660  1
  C  C72  1  0.39682711  0.22943277  0.39755916  1
  C  C73  1  0.39663102  0.23078666  0.89351416  1
  C  C74  1  0.39602720  0.72976469  0.39695579  1
  C  C75  1  0.39650629  0.72932701  0.89678152  1
  C  C76  1  0.89292904  0.23073799  0.39751156  1
  C  C77  1  0.89618371  0.22998835  0.89711134  1
  C  C78  1  0.89608508  0.72941423  0.39728213  1
  C  C79  1  0.89609228  0.72977411  0.89703577  1
  C  C80  1  0.14634372  0.23081659  0.35560006  1
  C  C81  1  0.14358357  0.23053061  0.85247660  1
  C  C82  1  0.14653698  0.72938194  0.35315331  1
  C  C83  1  0.14611042  0.72943377  0.85273297  1
  C  C84  1  0.64649397  0.22970467  0.35300132  1
  C  C85  1  0.64666729  0.22954459  0.85259434  1
  C  C86  1  0.64607461  0.72973621  0.35298178  1
  C  C87  1  0.64601262  0.72972366  0.85300891  1
  C  C88  1  0.35638910  0.26930798  0.14750218  1
  C  C89  1  0.35384285  0.27006791  0.64742306  1
  C  C90  1  0.35428975  0.77034251  0.14669504  1
  C  C91  1  0.35385328  0.77021638  0.64692711  1
  C  C92  1  0.85265790  0.26941653  0.14411595  1
  C  C93  1  0.85365046  0.27043390  0.64729090  1
  C  C94  1  0.85395854  0.77046017  0.14705475  1
  C  C95  1  0.85398608  0.77031456  0.64707620  1
  C  C96  1  0.35428975  0.47965649  0.14669504  1
  C  C97  1  0.35385328  0.47978262  0.64692711  1
  C  C98  1  0.35638910  0.98069102  0.14750218  1
  C  C99  1  0.35384285  0.97993109  0.64742306  1
  C  C100  1  0.85395954  0.47953883  0.14705475  1
  C  C101  1  0.85398708  0.47968444  0.64707520  1
  C  C102  1  0.85265790  0.98058247  0.14411595  1
  C  C103  1  0.85365046  0.97956510  0.64729090  1
  C  C104  1  0.14634372  0.01918241  0.35560006  1
  C  C105  1  0.14358357  0.01946839  0.85247660  1
  C  C106  1  0.14653698  0.52061706  0.35315331  1
  C  C107  1  0.14611042  0.52056523  0.85273297  1
  C  C108  1  0.64649297  0.02029433  0.35300132  1
  C  C109  1  0.64666629  0.02045441  0.85259434  1
  C  C110  1  0.64607361  0.52026279  0.35298178  1
  C  C111  1  0.64601162  0.52027534  0.85300891  1
  C  C112  1  0.39682711  0.02056623  0.39755916  1
  C  C113  1  0.39663102  0.01921234  0.89351416  1
  C  C114  1  0.39602720  0.52023431  0.39695579  1
  C  C115  1  0.39650629  0.52067199  0.89678152  1
  C  C116  1  0.89292804  0.01926101  0.39751256  1
  C  C117  1  0.89618271  0.02001065  0.89711134  1
  C  C118  1  0.89608508  0.52058477  0.39728213  1
  C  C119  1  0.89609228  0.52022489  0.89703577  1
  C  C120  1  0.10429778  0.47944890  0.10325679  1
  C  C121  1  0.10397136  0.47973670  0.60299535  1
  C  C122  1  0.10511178  0.98030796  0.10453487  1
  C  C123  1  0.10384302  0.97996289  0.60223326  1
  C  C124  1  0.60395458  0.47979265  0.10306784  1
  C  C125  1  0.60389456  0.47975975  0.60298560  1
  C  C126  1  0.60272599  0.97962903  0.10270185  1
  C  C127  1  0.60373106  0.97966061  0.60279944  1
  C  C128  1  0.00830084  0.37726100  0.28710705  1
  C  C129  1  0.00996784  0.37485680  0.78892505  1
  C  C130  1  0.00830184  0.87273900  0.28710705  1
  C  C131  1  0.00996884  0.87514320  0.78892505  1
  C  C132  1  0.51003238  0.37525063  0.28970386  1
  C  C133  1  0.50959371  0.37482800  0.78943893  1
  C  C134  1  0.51003238  0.87474937  0.28970386  1
  C  C135  1  0.50959371  0.87517200  0.78943893  1
  C  C136  1  0.49004359  0.12500000  0.21106410  1
  C  C137  1  0.49034508  0.12500000  0.71016346  1
  C  C138  1  0.49027529  0.62500000  0.21078980  1
  C  C139  1  0.49023738  0.62500000  0.71077823  1
  C  C140  1  0.99199367  0.12500000  0.21313457  1
  C  C141  1  0.98942042  0.12500000  0.71001723  1
  C  C142  1  0.99021516  0.62500000  0.21052849  1
  C  C143  1  0.99031694  0.62500000  0.71074721  1
  C  C144  1  0.24100435  0.12500000  0.03681928  1
  C  C145  1  0.24039636  0.12500000  0.53941197  1
  C  C146  1  0.24035258  0.62500000  0.03948231  1
  C  C147  1  0.24025298  0.62500000  0.53928534  1
  C  C148  1  0.74052647  0.12500000  0.03952826  1
  C  C149  1  0.73946451  0.12500000  0.54029851  1
  C  C150  1  0.74016541  0.62500000  0.03917407  1
  C  C151  1  0.74031852  0.62500000  0.53917491  1
  C  C152  1  0.25956755  0.37481513  0.46067117  1
  C  C153  1  0.25893771  0.37728941  0.96298030  1
  C  C154  1  0.25956855  0.87518487  0.46067217  1
  C  C155  1  0.25893871  0.87271059  0.96298130  1
  C  C156  1  0.75995318  0.37486572  0.46087152  1
  C  C157  1  0.75944013  0.37521182  0.96050659  1
  C  C158  1  0.75995318  0.87513428  0.46087152  1
  C  C159  1  0.75944013  0.87478818  0.96050759  1
