# generated using pymatgen
data_Cu2NiC
_symmetry_space_group_name_H-M   'P 1'
_cell_length_a   4.16873200
_cell_length_b   4.18785800
_cell_length_c   8.50322410
_cell_angle_alpha   90.00000000
_cell_angle_beta   104.18931265
_cell_angle_gamma   90.00000000
_symmetry_Int_Tables_number   1
_chemical_formula_structural   Cu2NiC
_chemical_formula_sum   'Cu4 Ni2 C2'
_cell_volume   143.92073570
_cell_formula_units_Z   2
loop_
 _symmetry_equiv_pos_site_id
 _symmetry_equiv_pos_as_xyz
  1  'x, y, z'
loop_
 _atom_site_type_symbol
 _atom_site_label
 _atom_site_symmetry_multiplicity
 _atom_site_fract_x
 _atom_site_fract_y
 _atom_site_fract_z
 _atom_site_occupancy
  C  C0  1  0.89209100  0.75000000  0.78418200  1
  C  C1  1  0.10790900  0.25000000  0.21581800  1
  Ni  Ni2  1  0.68199000  0.75000000  0.36398000  1
  Ni  Ni3  1  0.31801000  0.25000000  0.63602000  1
  Cu  Cu4  1  0.54507300  0.75000000  0.09014600  1
  Cu  Cu5  1  0.45492700  0.25000000  0.90985400  1
  Cu  Cu6  1  0.25117300  0.75000000  0.50234600  1
  Cu  Cu7  1  0.74882700  0.25000000  0.49765400  1
