# generated using pymatgen
data_Cu(NiC4)3
_symmetry_space_group_name_H-M   'P 1'
_cell_length_a   10.03684300
_cell_length_b   10.29133330
_cell_length_c   10.93264895
_cell_angle_alpha   90.87090560
_cell_angle_beta   105.86370582
_cell_angle_gamma   95.90602100
_symmetry_Int_Tables_number   1
_chemical_formula_structural   Cu(NiC4)3
_chemical_formula_sum   'Cu6 Ni18 C72'
_cell_volume   1079.37818074
_cell_formula_units_Z   6
loop_
 _symmetry_equiv_pos_site_id
 _symmetry_equiv_pos_as_xyz
  1  'x, y, z'
loop_
 _atom_site_type_symbol
 _atom_site_label
 _atom_site_symmetry_multiplicity
 _atom_site_fract_x
 _atom_site_fract_y
 _atom_site_fract_z
 _atom_site_occupancy
  C  C0  1  0.53336100  0.15274500  0.45114200  1
  C  C1  1  0.46663900  0.84725500  0.54885800  1
  C  C2  1  0.74680800  0.88635800  0.73568000  1
  C  C3  1  0.25319200  0.11364200  0.26432000  1
  C  C4  1  0.25595700  0.27885400  0.71575300  1
  C  C5  1  0.74404300  0.72114600  0.28424700  1
  C  C6  1  0.59053900  0.11947300  0.22342400  1
  C  C7  1  0.40946100  0.88052700  0.77657600  1
  C  C8  1  0.92114200  0.20370100  0.80832000  1
  C  C9  1  0.07885800  0.79629900  0.19168000  1
  C  C10  1  0.47852400  0.50505700  0.60789600  1
  C  C11  1  0.52147600  0.49494300  0.39210400  1
  C  C12  1  0.84517500  0.32928300  0.13999900  1
  C  C13  1  0.15482500  0.67071700  0.86000100  1
  C  C14  1  0.00263800  0.01544000  0.89858600  1
  C  C15  1  0.99736200  0.98456000  0.10141400  1
  C  C16  1  0.00616100  0.03013000  0.73757800  1
  C  C17  1  0.99383900  0.96987000  0.26242200  1
  C  C18  1  0.98005000  0.87201400  0.79860900  1
  C  C19  1  0.01995000  0.12798600  0.20139100  1
  C  C20  1  0.82683700  0.39461500  0.83212700  1
  C  C21  1  0.17316300  0.60538500  0.16787300  1
  C  C22  1  0.65417700  0.31466600  0.77404500  1
  C  C23  1  0.34582300  0.68533400  0.22595500  1
  C  C24  1  0.75070300  0.36069600  0.66448200  1
  C  C25  1  0.24929700  0.63930400  0.33551800  1
  C  C26  1  0.16759900  0.07219400  0.64050300  1
  C  C27  1  0.83240100  0.92780600  0.35949700  1
  C  C28  1  0.23660300  0.08768100  0.50786100  1
  C  C29  1  0.76339700  0.91231900  0.49213900  1
  C  C30  1  0.07747000  0.15424400  0.50495200  1
  C  C31  1  0.92253000  0.84575600  0.49504800  1
  C  C32  1  0.50069400  0.55208900  0.81720000  1
  C  C33  1  0.49930600  0.44791100  0.18280000  1
  C  C34  1  0.46250500  0.38270700  0.83823100  1
  C  C35  1  0.53749500  0.61729300  0.16176900  1
  C  C36  1  0.32443300  0.48345800  0.79433200  1
  C  C37  1  0.67556700  0.51654200  0.20566800  1
  C  C38  1  0.53610200  0.12496200  0.00550600  1
  C  C39  1  0.46389800  0.87503800  0.99449400  1
  C  C40  1  0.71789000  0.11985300  0.02502100  1
  C  C41  1  0.28211000  0.88014700  0.97497900  1
  C  C42  1  0.64560000  0.27288300  0.01557900  1
  C  C43  1  0.35440000  0.72711700  0.98442100  1
  C  C44  1  0.93641700  0.50308700  0.33881600  1
  C  C45  1  0.06358300  0.49691300  0.66118400  1
  C  C46  1  0.02181900  0.36556300  0.40385100  1
  C  C47  1  0.97818100  0.63443700  0.59614900  1
  C  C48  1  0.04992500  0.43158500  0.26233300  1
  C  C49  1  0.95007500  0.56841500  0.73766700  1
  Ni  Ni50  1  0.74011500  0.08150300  0.74452400  1
  Ni  Ni51  1  0.25988500  0.91849700  0.25547600  1
  Ni  Ni52  1  0.95686900  0.97342100  0.80112000  1
  Ni  Ni53  1  0.04313100  0.02657900  0.19888000  1
  Ni  Ni54  1  0.75859000  0.32422900  0.76010600  1
  Ni  Ni55  1  0.24141000  0.67577100  0.23989400  1
  Ni  Ni56  1  0.34334100  0.33917400  0.57505200  1
  Ni  Ni57  1  0.65665900  0.66082600  0.42494800  1
  Ni  Ni58  1  0.18111200  0.13704300  0.56521800  1
  Ni  Ni59  1  0.81888800  0.86295700  0.43478200  1
  Ni  Ni60  1  0.42584400  0.46583000  0.78090100  1
  Ni  Ni61  1  0.57415600  0.53417000  0.21909900  1
  Ni  Ni62  1  0.76366300  0.24765900  0.27652200  1
  Ni  Ni63  1  0.23633700  0.75234100  0.72347800  1
  Ni  Ni64  1  0.64024600  0.17391900  0.05204900  1
  Ni  Ni65  1  0.35975400  0.82608100  0.94795100  1
  Ni  Ni66  1  0.97271900  0.41099800  0.31525500  1
  Ni  Ni67  1  0.02728100  0.58900200  0.68474500  1
  Cu  Cu68  1  0.56006100  0.06784000  0.68736100  1
  Cu  Cu69  1  0.43993900  0.93216000  0.31263900  1
  Cu  Cu70  1  0.35185200  0.31863000  0.42023700  1
  Cu  Cu71  1  0.64814800  0.68137000  0.57976300  1
  Cu  Cu72  1  0.77555700  0.24099400  0.43536700  1
  Cu  Cu73  1  0.22444300  0.75900600  0.56463300  1
  C  C74  1  0.80665700  0.97387700  0.76082800  1
  C  C75  1  0.19334300  0.02612300  0.23917200  1
  C  C76  1  0.81493400  0.19887700  0.77500600  1
  C  C77  1  0.18506600  0.80112300  0.22499400  1
  C  C78  1  0.26223100  0.25726100  0.62600600  1
  C  C79  1  0.73776900  0.74273900  0.37399400  1
  C  C80  1  0.41871400  0.44144100  0.64800600  1
  C  C81  1  0.58128600  0.55855900  0.35199400  1
  C  C82  1  0.65875500  0.17753900  0.18856700  1
  C  C83  1  0.34124500  0.82246100  0.81143300  1
  C  C84  1  0.85961000  0.32189700  0.23543900  1
  C  C85  1  0.14039000  0.67810300  0.76456100  1
  C  C86  1  0.81937900  0.67606200  0.01212000  1
  C  C87  1  0.18062100  0.32393800  0.98788000  1
  C  C88  1  0.85922900  0.72879200  0.14591500  1
  C  C89  1  0.14077100  0.27120800  0.85408500  1
  C  C90  1  0.77631200  0.53591500  0.00942300  1
  C  C91  1  0.22368800  0.46408500  0.99057700  1
  C  C92  1  0.94097400  0.69961900  0.96306700  1
  C  C93  1  0.05902600  0.30038100  0.03693300  1
  C  C94  1  0.70477700  0.74239400  0.93681100  1
  C  C95  1  0.29522300  0.25760600  0.06318900  1
