# generated using pymatgen
data_CuNiC19
_symmetry_space_group_name_H-M   'P 1'
_cell_length_a   8.86880803
_cell_length_b   8.86880803
_cell_length_c   8.86880830
_cell_angle_alpha   60.69155040
_cell_angle_beta   60.69155040
_cell_angle_gamma   60.69155288
_symmetry_Int_Tables_number   1
_chemical_formula_structural   CuNiC19
_chemical_formula_sum   'Cu2 Ni2 C38'
_cell_volume   500.96507536
_cell_formula_units_Z   2
loop_
 _symmetry_equiv_pos_site_id
 _symmetry_equiv_pos_as_xyz
  1  'x, y, z'
loop_
 _atom_site_type_symbol
 _atom_site_label
 _atom_site_symmetry_multiplicity
 _atom_site_fract_x
 _atom_site_fract_y
 _atom_site_fract_z
 _atom_site_occupancy
  C  C0  1  0.49801300  0.49801300  0.49801300  1
  C  C1  1  0.99801300  0.99801300  0.99801300  1
  C  C2  1  0.74407300  0.11660700  0.38612400  1
  C  C3  1  0.38612400  0.74407300  0.11660700  1
  C  C4  1  0.11660700  0.38612400  0.74407300  1
  C  C5  1  0.88612400  0.61660700  0.24407300  1
  C  C6  1  0.24407300  0.88612400  0.61660700  1
  C  C7  1  0.61660700  0.24407300  0.88612400  1
  Ni  Ni8  1  0.64913600  0.64913600  0.64913600  1
  Ni  Ni9  1  0.14913600  0.14913600  0.14913600  1
  Cu  Cu10  1  0.35151400  0.35151400  0.35151400  1
  Cu  Cu11  1  0.85151400  0.85151400  0.85151400  1
  C  C12  1  0.75175400  0.45538600  0.04577500  1
  C  C13  1  0.04577500  0.75175400  0.45538600  1
  C  C14  1  0.45538600  0.04577500  0.75175400  1
  C  C15  1  0.54577500  0.95538600  0.25175400  1
  C  C16  1  0.25175400  0.54577500  0.95538600  1
  C  C17  1  0.95538600  0.25175400  0.54577500  1
  C  C18  1  0.11973600  0.28879500  0.51832500  1
  C  C19  1  0.51832500  0.11973600  0.28879500  1
  C  C20  1  0.28879500  0.51832500  0.11973600  1
  C  C21  1  0.01832500  0.78879500  0.61973600  1
  C  C22  1  0.61973600  0.01832500  0.78879500  1
  C  C23  1  0.78879500  0.61973600  0.01832500  1
  C  C24  1  0.87587200  0.71603100  0.48412300  1
  C  C25  1  0.48412300  0.87587200  0.71603100  1
  C  C26  1  0.71603100  0.48412300  0.87587200  1
  C  C27  1  0.98412300  0.21603100  0.37587200  1
  C  C28  1  0.37587200  0.98412300  0.21603100  1
  C  C29  1  0.21603100  0.37587200  0.98412300  1
  C  C30  1  0.22411900  0.58731100  0.43024900  1
  C  C31  1  0.43024900  0.22411900  0.58731100  1
  C  C32  1  0.58731100  0.43024900  0.22411900  1
  C  C33  1  0.93024900  0.08731100  0.72411900  1
  C  C34  1  0.72411900  0.93024900  0.08731100  1
  C  C35  1  0.08731100  0.72411900  0.93024900  1
  C  C36  1  0.77384400  0.41964000  0.56363800  1
  C  C37  1  0.56363800  0.77384400  0.41964000  1
  C  C38  1  0.41964000  0.56363800  0.77384400  1
  C  C39  1  0.06363800  0.91964000  0.27384400  1
  C  C40  1  0.27384400  0.06363800  0.91964000  1
  C  C41  1  0.91964000  0.27384400  0.06363800  1
