# generated using pymatgen
data_Cu3NiC8
_symmetry_space_group_name_H-M   'P 1'
_cell_length_a   10.29665629
_cell_length_b   10.29665629
_cell_length_c   5.86717500
_cell_angle_alpha   90.00000000
_cell_angle_beta   90.00000000
_cell_angle_gamma   120.00000184
_symmetry_Int_Tables_number   1
_chemical_formula_structural   Cu3NiC8
_chemical_formula_sum   'Cu6 Ni2 C16'
_cell_volume   538.70635298
_cell_formula_units_Z   2
loop_
 _symmetry_equiv_pos_site_id
 _symmetry_equiv_pos_as_xyz
  1  'x, y, z'
loop_
 _atom_site_type_symbol
 _atom_site_label
 _atom_site_symmetry_multiplicity
 _atom_site_fract_x
 _atom_site_fract_y
 _atom_site_fract_z
 _atom_site_occupancy
  Ni  Ni0  1  0.00000000  0.00000000  0.47960000  1
  Ni  Ni1  1  0.00000000  0.00000000  0.97960000  1
  Cu  Cu2  1  0.76926200  0.13017900  0.75128200  1
  Cu  Cu3  1  0.36091600  0.23073800  0.75128200  1
  Cu  Cu4  1  0.86982100  0.63908400  0.75128200  1
  Cu  Cu5  1  0.23073800  0.86982100  0.25128200  1
  Cu  Cu6  1  0.63908400  0.76926200  0.25128200  1
  Cu  Cu7  1  0.13017900  0.36091600  0.25128200  1
  C  C8  1  0.66666700  0.33333300  0.33409300  1
  C  C9  1  0.33333300  0.66666700  0.83409300  1
  C  C10  1  0.66666700  0.33333300  0.95768000  1
  C  C11  1  0.33333300  0.66666700  0.45768000  1
  C  C12  1  0.74099100  0.83524600  0.72635900  1
  C  C13  1  0.09425500  0.25900900  0.72635900  1
  C  C14  1  0.16475400  0.90574500  0.72635900  1
  C  C15  1  0.25900900  0.16475400  0.22635900  1
  C  C16  1  0.90574500  0.74099100  0.22635900  1
  C  C17  1  0.83524600  0.09425500  0.22635900  1
  C  C18  1  0.58529200  0.47975800  0.48950500  1
  C  C19  1  0.89446600  0.41470800  0.48950500  1
  C  C20  1  0.52024200  0.10553400  0.48950500  1
  C  C21  1  0.41470800  0.52024200  0.98950500  1
  C  C22  1  0.10553400  0.58529200  0.98950500  1
  C  C23  1  0.47975800  0.89446600  0.98950500  1
