# generated using pymatgen
data_Cu4NiC32
_symmetry_space_group_name_H-M   'P 1'
_cell_length_a   9.09142785
_cell_length_b   9.09345760
_cell_length_c   9.09943605
_cell_angle_alpha   57.50181572
_cell_angle_beta   57.51992157
_cell_angle_gamma   57.65757488
_symmetry_Int_Tables_number   1
_chemical_formula_structural   Cu4NiC32
_chemical_formula_sum   'Cu4 Ni1 C32'
_cell_volume   502.08991330
_cell_formula_units_Z   1
loop_
 _symmetry_equiv_pos_site_id
 _symmetry_equiv_pos_as_xyz
  1  'x, y, z'
loop_
 _atom_site_type_symbol
 _atom_site_label
 _atom_site_symmetry_multiplicity
 _atom_site_fract_x
 _atom_site_fract_y
 _atom_site_fract_z
 _atom_site_occupancy
  Ni  Ni0  1  0.25010675  0.24981123  0.25005725  1
  Cu  Cu1  1  0.13365051  0.13437305  0.13381650  1
  Cu  Cu2  1  0.36562692  0.36643732  0.36606189  1
  Cu  Cu3  1  0.65012584  0.64884961  0.64572264  1
  Cu  Cu4  1  0.85048757  0.85059812  0.85433117  1
  C  C5  1  0.00096095  0.99764740  0.99694939  1
  C  C6  1  0.50154855  0.49928962  0.50361949  1
  C  C7  1  0.03416560  0.75019709  0.46628659  1
  C  C8  1  0.46533460  0.03472012  0.74995535  1
  C  C9  1  0.74980993  0.46602494  0.03350333  1
  C  C10  1  0.25104438  0.54804830  0.95276738  1
  C  C11  1  0.54741150  0.95277669  0.25030419  1
  C  C12  1  0.95177113  0.24866633  0.54714132  1
  C  C13  1  0.11926018  0.28831822  0.50263133  1
  C  C14  1  0.29063531  0.50260413  0.12016590  1
  C  C15  1  0.04766806  0.90263526  0.26516399  1
  C  C16  1  0.50465588  0.12210872  0.28531327  1
  C  C17  1  0.98247681  0.83307427  0.60206108  1
  C  C18  1  0.23408003  0.59693422  0.45332405  1
  C  C19  1  0.26274884  0.04891647  0.90191559  1
  C  C20  1  0.45070943  0.23758414  0.59823809  1
  C  C21  1  0.21045026  0.38104925  0.99773226  1
  C  C22  1  0.59699149  0.45290130  0.23401809  1
  C  C23  1  0.08600432  0.73662329  0.92852878  1
  C  C24  1  0.37811006  0.99559578  0.21503937  1
  C  C25  1  0.59762328  0.98340638  0.83655241  1
  C  C26  1  0.90338202  0.26651982  0.04630250  1
  C  C27  1  0.41792645  0.57073504  0.76460888  1
  C  C28  1  0.83420965  0.60133898  0.98363985  1
  C  C29  1  0.57305968  0.76594465  0.41768870  1
  C  C30  1  0.73439935  0.92665593  0.08329074  1
  C  C31  1  0.76343454  0.41372054  0.57216756  1
  C  C32  1  0.99670847  0.21027957  0.37922440  1
  C  C33  1  0.51730394  0.90215181  0.66364079  1
  C  C34  1  0.92899648  0.08129238  0.73490742  1
  C  C35  1  0.66743066  0.51721675  0.89723939  1
  C  C36  1  0.89969057  0.66495329  0.51608909  1
