# generated using pymatgen
data_Cu2NiC20
_symmetry_space_group_name_H-M   'P 1'
_cell_length_a   13.83551267
_cell_length_b   13.83551267
_cell_length_c   5.80977383
_cell_angle_alpha   89.06148073
_cell_angle_beta   89.06148073
_cell_angle_gamma   16.52147531
_symmetry_Int_Tables_number   1
_chemical_formula_structural   Cu2NiC20
_chemical_formula_sum   'Cu2 Ni1 C20'
_cell_volume   316.21408263
_cell_formula_units_Z   1
loop_
 _symmetry_equiv_pos_site_id
 _symmetry_equiv_pos_as_xyz
  1  'x, y, z'
loop_
 _atom_site_type_symbol
 _atom_site_label
 _atom_site_symmetry_multiplicity
 _atom_site_fract_x
 _atom_site_fract_y
 _atom_site_fract_z
 _atom_site_occupancy
  C  C0  1  0.10152600  0.10152600  0.99533600  1
  C  C1  1  0.89847400  0.89847400  0.00466400  1
  C  C2  1  0.39799500  0.39799500  0.50675900  1
  C  C3  1  0.60200500  0.60200500  0.49324100  1
  C  C4  1  0.50000000  0.50000000  0.00000000  1
  C  C5  1  0.29268500  0.29268500  0.01304500  1
  C  C6  1  0.70731500  0.70731500  0.98695500  1
  Ni  Ni7  1  0.00000000  0.00000000  0.50000000  1
  Cu  Cu8  1  0.80642800  0.80642800  0.50202300  1
  Cu  Cu9  1  0.19357200  0.19357200  0.49797700  1
  C  C10  1  0.44975100  0.44975100  0.73891200  1
  C  C11  1  0.55024900  0.55024900  0.26108800  1
  C  C12  1  0.55066600  0.55066600  0.73450600  1
  C  C13  1  0.44933400  0.44933400  0.26549400  1
  C  C14  1  0.89066400  0.89066400  0.50485000  1
  C  C15  1  0.10933600  0.10933600  0.49515000  1
  C  C16  1  0.66371500  0.66371500  0.72240700  1
  C  C17  1  0.33628500  0.33628500  0.27759300  1
  C  C18  1  0.22037600  0.22037600  0.94604700  1
  C  C19  1  0.77962400  0.77962400  0.05395300  1
  C  C20  1  0.33788100  0.33788100  0.76107900  1
  C  C21  1  0.66211900  0.66211900  0.23892100  1
  C  C22  1  0.00000000  0.00000000  0.00000000  1
