# generated using pymatgen
data_Cu(NiC3)2
_symmetry_space_group_name_H-M   'P 1'
_cell_length_a   4.72051032
_cell_length_b   4.72051032
_cell_length_c   6.51204000
_cell_angle_alpha   90.00000000
_cell_angle_beta   90.00000000
_cell_angle_gamma   120.11108684
_symmetry_Int_Tables_number   1
_chemical_formula_structural   Cu(NiC3)2
_chemical_formula_sum   'Cu1 Ni2 C6'
_cell_volume   125.52735035
_cell_formula_units_Z   1
loop_
 _symmetry_equiv_pos_site_id
 _symmetry_equiv_pos_as_xyz
  1  'x, y, z'
loop_
 _atom_site_type_symbol
 _atom_site_label
 _atom_site_symmetry_multiplicity
 _atom_site_fract_x
 _atom_site_fract_y
 _atom_site_fract_z
 _atom_site_occupancy
  Ni  Ni0  1  0.50000000  0.00000000  0.66655400  1
  Ni  Ni1  1  0.00000000  0.50000000  0.33344600  1
  C  C2  1  0.16570100  0.83429900  0.00000000  1
  C  C3  1  0.15613500  0.31657800  0.66746900  1
  C  C4  1  0.68342200  0.84386500  0.33253100  1
  C  C5  1  0.83429900  0.16570100  0.00000000  1
  C  C6  1  0.84386500  0.68342200  0.66746900  1
  C  C7  1  0.31657800  0.15613500  0.33253100  1
  Cu  Cu8  1  0.50000000  0.50000000  0.00000000  1
