# generated using pymatgen
data_Cu6NiC21
_symmetry_space_group_name_H-M   'P 1'
_cell_length_a   8.13606262
_cell_length_b   8.13606262
_cell_length_c   16.29708000
_cell_angle_alpha   90.00000000
_cell_angle_beta   90.00000000
_cell_angle_gamma   127.62127284
_symmetry_Int_Tables_number   1
_chemical_formula_structural   Cu6NiC21
_chemical_formula_sum   'Cu12 Ni2 C42'
_cell_volume   854.47255526
_cell_formula_units_Z   2
loop_
 _symmetry_equiv_pos_site_id
 _symmetry_equiv_pos_as_xyz
  1  'x, y, z'
loop_
 _atom_site_type_symbol
 _atom_site_label
 _atom_site_symmetry_multiplicity
 _atom_site_fract_x
 _atom_site_fract_y
 _atom_site_fract_z
 _atom_site_occupancy
  C  C0  1  0.98561000  0.49642000  0.61361200  1
  C  C1  1  0.50358000  0.01439000  0.38638800  1
  C  C2  1  0.50358000  0.01439000  0.11361200  1
  C  C3  1  0.98561000  0.49642000  0.88638800  1
  C  C4  1  0.02142600  0.03955400  0.25000000  1
  C  C5  1  0.96044600  0.97857400  0.75000000  1
  C  C6  1  0.99943700  0.00056300  0.00000000  1
  C  C7  1  0.99943700  0.00056300  0.50000000  1
  Ni  Ni8  1  0.52250700  0.47749300  0.00000000  1
  Ni  Ni9  1  0.52250700  0.47749300  0.50000000  1
  Cu  Cu10  1  0.65499000  0.41890700  0.25000000  1
  Cu  Cu11  1  0.58109300  0.34501000  0.75000000  1
  Cu  Cu12  1  0.43264100  0.60771400  0.25000000  1
  Cu  Cu13  1  0.39228600  0.56735900  0.75000000  1
  Cu  Cu14  1  0.13461600  0.39513100  0.08988500  1
  Cu  Cu15  1  0.60486900  0.86538400  0.91011500  1
  Cu  Cu16  1  0.60486900  0.86538400  0.58988500  1
  Cu  Cu17  1  0.13461600  0.39513100  0.41011500  1
  Cu  Cu18  1  0.93988700  0.62631500  0.09473300  1
  Cu  Cu19  1  0.37368500  0.06011300  0.90526700  1
  Cu  Cu20  1  0.37368500  0.06011300  0.59473300  1
  Cu  Cu21  1  0.93988700  0.62631500  0.40526700  1
  C  C22  1  0.23438900  0.37500300  0.00721900  1
  C  C23  1  0.62499700  0.76561100  0.99278100  1
  C  C24  1  0.62499700  0.76561100  0.50721900  1
  C  C25  1  0.23438900  0.37500300  0.49278100  1
  C  C26  1  0.29353100  0.46894500  0.16975300  1
  C  C27  1  0.53105500  0.70646900  0.83024700  1
  C  C28  1  0.53105500  0.70646900  0.66975300  1
  C  C29  1  0.29353100  0.46894500  0.33024700  1
  C  C30  1  0.11460700  0.58532700  0.07504100  1
  C  C31  1  0.41467300  0.88539300  0.92495900  1
  C  C32  1  0.41467300  0.88539300  0.57504100  1
  C  C33  1  0.11460700  0.58532700  0.42495900  1
  C  C34  1  0.51604600  0.84264200  0.25000000  1
  C  C35  1  0.15735800  0.48395400  0.75000000  1
  C  C36  1  0.81096700  0.57570700  0.01000700  1
  C  C37  1  0.42429300  0.18903300  0.98999300  1
  C  C38  1  0.42429300  0.18903300  0.51000700  1
  C  C39  1  0.81096700  0.57570700  0.48999300  1
  C  C40  1  0.63869400  0.61158900  0.25000000  1
  C  C41  1  0.38841100  0.36130600  0.75000000  1
  C  C42  1  0.06548100  0.86562400  0.12087200  1
  C  C43  1  0.13437600  0.93451900  0.87912800  1
  C  C44  1  0.13437600  0.93451900  0.62087200  1
  C  C45  1  0.06548100  0.86562400  0.37912800  1
  C  C46  1  0.79008800  0.45354100  0.16733100  1
  C  C47  1  0.54645900  0.20991200  0.83266900  1
  C  C48  1  0.54645900  0.20991200  0.66733100  1
  C  C49  1  0.79008800  0.45354100  0.33266900  1
  C  C50  1  0.44306900  0.18842300  0.25000000  1
  C  C51  1  0.81157700  0.55693100  0.75000000  1
  C  C52  1  0.91883700  0.17056200  0.10867200  1
  C  C53  1  0.82943800  0.08116300  0.89132800  1
  C  C54  1  0.82943800  0.08116300  0.60867200  1
  C  C55  1  0.91883700  0.17056200  0.39132800  1
