# generated using pymatgen
data_Cu2Ni2C3
_symmetry_space_group_name_H-M   'P 1'
_cell_length_a   6.95717289
_cell_length_b   6.89797399
_cell_length_c   4.08605866
_cell_angle_alpha   73.64260816
_cell_angle_beta   72.05617698
_cell_angle_gamma   34.30121486
_symmetry_Int_Tables_number   1
_chemical_formula_structural   Cu2Ni2C3
_chemical_formula_sum   'Cu2 Ni2 C3'
_cell_volume   104.99639574
_cell_formula_units_Z   1
loop_
 _symmetry_equiv_pos_site_id
 _symmetry_equiv_pos_as_xyz
  1  'x, y, z'
loop_
 _atom_site_type_symbol
 _atom_site_label
 _atom_site_symmetry_multiplicity
 _atom_site_fract_x
 _atom_site_fract_y
 _atom_site_fract_z
 _atom_site_occupancy
  C  C0  1  0.15005800  0.15176400  0.84994200  1
  C  C1  1  0.84823600  0.84994200  0.15176400  1
  C  C2  1  0.47398400  0.52601600  0.52601600  1
  Ni  Ni3  1  0.51639800  0.48360200  0.19527600  1
  Ni  Ni4  1  0.80472400  0.19527600  0.48360200  1
  Cu  Cu5  1  0.75330000  0.74670000  0.74670000  1
  Cu  Cu6  1  0.25330000  0.24670000  0.24670000  1
