# generated using pymatgen
data_CuNiC4
_symmetry_space_group_name_H-M   'P 1'
_cell_length_a   14.01606100
_cell_length_b   7.20992300
_cell_length_c   7.60720775
_cell_angle_alpha   61.73702038
_cell_angle_beta   90.00000000
_cell_angle_gamma   90.00000000
_symmetry_Int_Tables_number   1
_chemical_formula_structural   CuNiC4
_chemical_formula_sum   'Cu8 Ni8 C32'
_cell_volume   677.09724742
_cell_formula_units_Z   8
loop_
 _symmetry_equiv_pos_site_id
 _symmetry_equiv_pos_as_xyz
  1  'x, y, z'
loop_
 _atom_site_type_symbol
 _atom_site_label
 _atom_site_symmetry_multiplicity
 _atom_site_fract_x
 _atom_site_fract_y
 _atom_site_fract_z
 _atom_site_occupancy
  C  C0  1  0.64328600  0.79402900  0.51063200  1
  C  C1  1  0.35671400  0.20597100  0.48936800  1
  C  C2  1  0.14328600  0.70597100  0.48936800  1
  C  C3  1  0.85671400  0.29402900  0.51063200  1
  Ni  Ni4  1  0.49834000  0.21170100  0.03778900  1
  Ni  Ni5  1  0.50166000  0.78829900  0.96221100  1
  Ni  Ni6  1  0.99834000  0.28829900  0.96221100  1
  Ni  Ni7  1  0.00166000  0.71170100  0.03778900  1
  Ni  Ni8  1  0.74403500  0.80629100  0.00211100  1
  Ni  Ni9  1  0.25596500  0.19370900  0.99788900  1
  Ni  Ni10  1  0.24403500  0.69370900  0.99788900  1
  Ni  Ni11  1  0.75596500  0.30629100  0.00211100  1
  Cu  Cu12  1  0.39072300  0.79831600  0.27672900  1
  Cu  Cu13  1  0.60927700  0.20168400  0.72327100  1
  Cu  Cu14  1  0.89072300  0.70168400  0.72327100  1
  Cu  Cu15  1  0.10927700  0.29831600  0.27672900  1
  Cu  Cu16  1  0.88337000  0.88649800  0.27653900  1
  Cu  Cu17  1  0.11663000  0.11350200  0.72346100  1
  Cu  Cu18  1  0.38337000  0.61350200  0.72346100  1
  Cu  Cu19  1  0.61663000  0.38649800  0.27653900  1
  C  C20  1  0.98359200  0.77403200  0.27457500  1
  C  C21  1  0.01640800  0.22596800  0.72542500  1
  C  C22  1  0.48359200  0.72596800  0.72542500  1
  C  C23  1  0.51640800  0.27403200  0.27457500  1
  C  C24  1  0.37162800  0.69889500  0.12430800  1
  C  C25  1  0.62837200  0.30110500  0.87569200  1
  C  C26  1  0.87162800  0.80110500  0.87569200  1
  C  C27  1  0.12837200  0.19889500  0.12430800  1
  C  C28  1  0.79029500  0.74870800  0.27302100  1
  C  C29  1  0.20970500  0.25129200  0.72697900  1
  C  C30  1  0.29029500  0.75129200  0.72697900  1
  C  C31  1  0.70970500  0.24870800  0.27302100  1
  C  C32  1  0.49987200  0.89217100  0.22741000  1
  C  C33  1  0.50012800  0.10782900  0.77259000  1
  C  C34  1  0.99987200  0.60782900  0.77259000  1
  C  C35  1  0.00012800  0.39217100  0.22741000  1
  C  C36  1  0.31176700  0.97471400  0.25738800  1
  C  C37  1  0.68823300  0.02528600  0.74261200  1
  C  C38  1  0.81176700  0.52528600  0.74261200  1
  C  C39  1  0.18823300  0.47471400  0.25738800  1
  C  C40  1  0.87853700  0.90172800  0.49123900  1
  C  C41  1  0.12146300  0.09827200  0.50876100  1
  C  C42  1  0.37853700  0.59827200  0.50876100  1
  C  C43  1  0.62146300  0.40172800  0.49123900  1
  C  C44  1  0.62361100  0.62786200  0.09172700  1
  C  C45  1  0.37638900  0.37213800  0.90827300  1
  C  C46  1  0.12361100  0.87213800  0.90827300  1
  C  C47  1  0.87638900  0.12786200  0.09172700  1
