# generated using pymatgen
data_Cu4Ni3C13
_symmetry_space_group_name_H-M   'P 1'
_cell_length_a   6.05903114
_cell_length_b   6.05903114
_cell_length_c   6.05903067
_cell_angle_alpha   104.04828848
_cell_angle_beta   104.04828848
_cell_angle_gamma   104.04828196
_symmetry_Int_Tables_number   1
_chemical_formula_structural   Cu4Ni3C13
_chemical_formula_sum   'Cu4 Ni3 C13'
_cell_volume   198.28559255
_cell_formula_units_Z   1
loop_
 _symmetry_equiv_pos_site_id
 _symmetry_equiv_pos_as_xyz
  1  'x, y, z'
loop_
 _atom_site_type_symbol
 _atom_site_label
 _atom_site_symmetry_multiplicity
 _atom_site_fract_x
 _atom_site_fract_y
 _atom_site_fract_z
 _atom_site_occupancy
  C  C0  1  0.50000000  0.50000000  0.50000000  1
  Ni  Ni1  1  0.04778700  0.95221300  0.50000000  1
  Ni  Ni2  1  0.95221300  0.50000000  0.04778700  1
  Ni  Ni3  1  0.50000000  0.04778700  0.95221300  1
  Cu  Cu4  1  0.45037400  0.54962600  0.00000000  1
  Cu  Cu5  1  0.54962600  0.00000000  0.45037400  1
  Cu  Cu6  1  0.00000000  0.45037400  0.54962600  1
  Cu  Cu7  1  0.00000000  0.00000000  0.00000000  1
  C  C8  1  0.29346600  0.52456800  0.13071900  1
  C  C9  1  0.52456800  0.13071900  0.29346600  1
  C  C10  1  0.70653400  0.86928100  0.47543200  1
  C  C11  1  0.13071900  0.29346600  0.52456800  1
  C  C12  1  0.47543200  0.70653400  0.86928100  1
  C  C13  1  0.86928100  0.47543200  0.70653400  1
  C  C14  1  0.85500700  0.14499300  0.00000000  1
  C  C15  1  0.14499300  0.00000000  0.85500700  1
  C  C16  1  0.00000000  0.85500700  0.14499300  1
  C  C17  1  0.59493100  0.40506900  0.00000000  1
  C  C18  1  0.40506900  0.00000000  0.59493100  1
  C  C19  1  0.00000000  0.59493100  0.40506900  1
