# generated using pymatgen
data_CuNi2C7
_symmetry_space_group_name_H-M   'P 1'
_cell_length_a   5.33382700
_cell_length_b   8.74307575
_cell_length_c   9.70514497
_cell_angle_alpha   89.60577265
_cell_angle_beta   74.62183909
_cell_angle_gamma   89.32110415
_symmetry_Int_Tables_number   1
_chemical_formula_structural   CuNi2C7
_chemical_formula_sum   'Cu4 Ni8 C28'
_cell_volume   436.35204575
_cell_formula_units_Z   4
loop_
 _symmetry_equiv_pos_site_id
 _symmetry_equiv_pos_as_xyz
  1  'x, y, z'
loop_
 _atom_site_type_symbol
 _atom_site_label
 _atom_site_symmetry_multiplicity
 _atom_site_fract_x
 _atom_site_fract_y
 _atom_site_fract_z
 _atom_site_occupancy
  C  C0  1  0.23841100  0.68908600  0.00431500  1
  C  C1  1  0.75171800  0.18807000  0.48894000  1
  C  C2  1  0.74793600  0.31133100  0.00387600  1
  C  C3  1  0.26293100  0.81208900  0.48452400  1
  Ni  Ni4  1  0.92062200  0.90512800  0.28908800  1
  Ni  Ni5  1  0.07682500  0.40360900  0.21487300  1
  Ni  Ni6  1  0.41643500  0.10008800  0.28839200  1
  Ni  Ni7  1  0.92468100  0.59738800  0.78668900  1
  Ni  Ni8  1  0.24685100  0.09064600  0.00217000  1
  Ni  Ni9  1  0.77695600  0.59143000  0.49284200  1
  Ni  Ni10  1  0.75006200  0.90827900  0.00488600  1
  Ni  Ni11  1  0.24819600  0.40759500  0.50150600  1
  Cu  Cu12  1  0.42416400  0.40231200  0.78951800  1
  Cu  Cu13  1  0.56849200  0.90160100  0.71417100  1
  Cu  Cu14  1  0.06537200  0.09331500  0.71362300  1
  Cu  Cu15  1  0.57812500  0.59774400  0.21142600  1
  C  C16  1  0.01995000  0.92298200  0.09832100  1
  C  C17  1  0.96442200  0.72772000  0.36411400  1
  C  C18  1  0.60883300  0.97742000  0.36421200  1
  C  C19  1  0.50930000  0.41902900  0.61193300  1
  C  C20  1  0.44853400  0.23240700  0.85670000  1
  C  C21  1  0.13175000  0.47405000  0.85699300  1
  C  C22  1  0.47971600  0.91308100  0.88946900  1
  C  C23  1  0.57639000  0.73989200  0.63330200  1
  C  C24  1  0.85381500  0.98747700  0.65518500  1
  C  C25  1  0.97636700  0.41466600  0.40300100  1
  C  C26  1  0.06276300  0.23573100  0.12307500  1
  C  C27  1  0.38296700  0.48985900  0.14814800  1
  C  C28  1  0.98373800  0.08696500  0.88819800  1
  C  C29  1  0.06243100  0.25534200  0.63428300  1
  C  C30  1  0.35337600  0.00692300  0.65401900  1
  C  C31  1  0.50088000  0.58702900  0.38943000  1
  C  C32  1  0.55448700  0.76535000  0.13990800  1
  C  C33  1  0.86861700  0.52500500  0.14329400  1
  C  C34  1  0.52024400  0.07700700  0.09598400  1
  C  C35  1  0.44839300  0.27634700  0.36811100  1
  C  C36  1  0.10747500  0.02742200  0.36478600  1
  C  C37  1  0.03296600  0.57803300  0.59927200  1
  C  C38  1  0.93785000  0.76883500  0.87376900  1
  C  C39  1  0.61695900  0.51171600  0.85365600  1
