# generated using pymatgen
data_Cu4(NiC10)3
_symmetry_space_group_name_H-M   'P 1'
_cell_length_a   7.13646200
_cell_length_b   8.46430028
_cell_length_c   10.32983148
_cell_angle_alpha   103.84381022
_cell_angle_beta   104.48958329
_cell_angle_gamma   101.46313512
_symmetry_Int_Tables_number   1
_chemical_formula_structural   Cu4(NiC10)3
_chemical_formula_sum   'Cu4 Ni3 C30'
_cell_volume   563.94801921
_cell_formula_units_Z   1
loop_
 _symmetry_equiv_pos_site_id
 _symmetry_equiv_pos_as_xyz
  1  'x, y, z'
loop_
 _atom_site_type_symbol
 _atom_site_label
 _atom_site_symmetry_multiplicity
 _atom_site_fract_x
 _atom_site_fract_y
 _atom_site_fract_z
 _atom_site_occupancy
  Ni  Ni0  1  0.00000000  0.50000000  0.50000000  1
  Ni  Ni1  1  0.27061300  0.27249700  0.78454000  1
  Ni  Ni2  1  0.72938700  0.72750300  0.21546000  1
  Cu  Cu3  1  0.38232100  0.95950900  0.60637800  1
  Cu  Cu4  1  0.61767900  0.04049100  0.39362200  1
  Cu  Cu5  1  0.04694200  0.20032000  0.01386400  1
  Cu  Cu6  1  0.95305800  0.79968000  0.98613600  1
  C  C7  1  0.77718100  0.34382100  0.73036600  1
  C  C8  1  0.22281900  0.65617900  0.26963400  1
  C  C9  1  0.90011600  0.90308300  0.66551500  1
  C  C10  1  0.40596100  0.71894800  0.87790800  1
  C  C11  1  0.09988400  0.09691700  0.33448500  1
  C  C12  1  0.59403900  0.28105200  0.12209200  1
  C  C13  1  0.89565600  0.69078100  0.56633500  1
  C  C14  1  0.10434400  0.30921900  0.43366500  1
  C  C15  1  0.28522100  0.50320700  0.76074100  1
  C  C16  1  0.71477900  0.49679300  0.23925900  1
  C  C17  1  0.79041400  0.32720800  0.55338100  1
  C  C18  1  0.20958600  0.67279200  0.44661900  1
  C  C19  1  0.67148800  0.97646600  0.58565900  1
  C  C20  1  0.32851200  0.02353400  0.41434100  1
  C  C21  1  0.64060200  0.73121800  0.01249100  1
  C  C22  1  0.35939800  0.26878200  0.98750900  1
  C  C23  1  0.47363100  0.75915400  0.26796400  1
  C  C24  1  0.52636900  0.24084600  0.73203600  1
  C  C25  1  0.14610700  0.03750200  0.65853900  1
  C  C26  1  0.06729300  0.04566000  0.14027900  1
  C  C27  1  0.93270700  0.95434000  0.85972100  1
  C  C28  1  0.55328100  0.14572400  0.22824600  1
  C  C29  1  0.44671900  0.85427600  0.77175400  1
  C  C30  1  0.17398900  0.43704100  0.17866900  1
  C  C31  1  0.82601100  0.56295900  0.82133100  1
  C  C32  1  0.98846700  0.27746800  0.82545900  1
  C  C33  1  0.01153300  0.72253200  0.17454100  1
  C  C34  1  0.23341500  0.77793800  0.96653800  1
  C  C35  1  0.76658500  0.22206200  0.03346200  1
  C  C36  1  0.85389300  0.96249800  0.34146100  1
