# generated using pymatgen
data_Cu8Ni6C5
_symmetry_space_group_name_H-M   'P 1'
_cell_length_a   5.97908944
_cell_length_b   8.13559489
_cell_length_c   11.40081900
_cell_angle_alpha   90.00000000
_cell_angle_beta   90.00000000
_cell_angle_gamma   105.43502383
_symmetry_Int_Tables_number   1
_chemical_formula_structural   Cu8Ni6C5
_chemical_formula_sum   'Cu16 Ni12 C10'
_cell_volume   534.57324228
_cell_formula_units_Z   2
loop_
 _symmetry_equiv_pos_site_id
 _symmetry_equiv_pos_as_xyz
  1  'x, y, z'
loop_
 _atom_site_type_symbol
 _atom_site_label
 _atom_site_symmetry_multiplicity
 _atom_site_fract_x
 _atom_site_fract_y
 _atom_site_fract_z
 _atom_site_occupancy
  C  C0  1  0.85658400  0.61523300  0.14955800  1
  C  C1  1  0.14341600  0.38476700  0.85044200  1
  C  C2  1  0.14341600  0.88476700  0.64955800  1
  C  C3  1  0.85658400  0.11523300  0.35044200  1
  C  C4  1  0.74778000  0.60002900  0.85024400  1
  C  C5  1  0.25222000  0.39997100  0.14975600  1
  C  C6  1  0.25222000  0.89997100  0.35024400  1
  C  C7  1  0.74778000  0.10002900  0.64975600  1
  C  C8  1  0.50000000  0.00000000  0.00000000  1
  C  C9  1  0.50000000  0.50000000  0.50000000  1
  Ni  Ni10  1  0.77717400  0.99582200  0.93554300  1
  Ni  Ni11  1  0.22282600  0.00417800  0.06445700  1
  Ni  Ni12  1  0.22282600  0.50417800  0.43554300  1
  Ni  Ni13  1  0.77717400  0.49582200  0.56445700  1
  Ni  Ni14  1  0.45517700  0.65166900  0.60604000  1
  Ni  Ni15  1  0.54482300  0.34833100  0.39396000  1
  Ni  Ni16  1  0.54482300  0.84833100  0.10604000  1
  Ni  Ni17  1  0.45517700  0.15166900  0.89396000  1
  Ni  Ni18  1  0.33983700  0.85203200  0.89723300  1
  Ni  Ni19  1  0.66016300  0.14796800  0.10276700  1
  Ni  Ni20  1  0.66016300  0.64796800  0.39723300  1
  Ni  Ni21  1  0.33983700  0.35203200  0.60276700  1
  Cu  Cu22  1  0.91572200  0.59240400  0.74713900  1
  Cu  Cu23  1  0.08427800  0.40759600  0.25286100  1
  Cu  Cu24  1  0.08427800  0.90759600  0.24713900  1
  Cu  Cu25  1  0.91572200  0.09240400  0.75286100  1
  Cu  Cu26  1  0.87151100  0.75469800  0.93489600  1
  Cu  Cu27  1  0.12848900  0.24530200  0.06510400  1
  Cu  Cu28  1  0.12848900  0.74530200  0.43489600  1
  Cu  Cu29  1  0.87151100  0.25469800  0.56510400  1
  Cu  Cu30  1  0.71687800  0.94069900  0.57072800  1
  Cu  Cu31  1  0.28312200  0.05930100  0.42927200  1
  Cu  Cu32  1  0.28312200  0.55930100  0.07072800  1
  Cu  Cu33  1  0.71687800  0.44069900  0.92927200  1
  Cu  Cu34  1  0.51743800  0.62776500  0.80255800  1
  Cu  Cu35  1  0.48256200  0.37223500  0.19744200  1
  Cu  Cu36  1  0.48256200  0.87223500  0.30255800  1
  Cu  Cu37  1  0.51743800  0.12776500  0.69744200  1
