# generated using pymatgen
data_Cu5NiC12
_symmetry_space_group_name_H-M   'P 1'
_cell_length_a   11.86931944
_cell_length_b   11.86931944
_cell_length_c   13.94522300
_cell_angle_alpha   90.00000000
_cell_angle_beta   90.00000000
_cell_angle_gamma   119.99999688
_symmetry_Int_Tables_number   1
_chemical_formula_structural   Cu5NiC12
_chemical_formula_sum   'Cu40 Ni8 C96'
_cell_volume   1701.40515894
_cell_formula_units_Z   8
loop_
 _symmetry_equiv_pos_site_id
 _symmetry_equiv_pos_as_xyz
  1  'x, y, z'
loop_
 _atom_site_type_symbol
 _atom_site_label
 _atom_site_symmetry_multiplicity
 _atom_site_fract_x
 _atom_site_fract_y
 _atom_site_fract_z
 _atom_site_occupancy
  C  C0  1  0.33333300  0.66666700  0.75000000  1
  C  C1  1  0.66666700  0.33333300  0.25000000  1
  C  C2  1  0.82911900  0.66956500  0.75000000  1
  C  C3  1  0.33043500  0.15955400  0.75000000  1
  C  C4  1  0.84044600  0.17088100  0.75000000  1
  C  C5  1  0.17088100  0.33043500  0.25000000  1
  C  C6  1  0.66956500  0.84044600  0.25000000  1
  C  C7  1  0.15955400  0.82911900  0.25000000  1
  Ni  Ni8  1  0.66666700  0.33333300  0.75000000  1
  Ni  Ni9  1  0.33333300  0.66666700  0.25000000  1
  Ni  Ni10  1  0.15820400  0.82719200  0.75000000  1
  Ni  Ni11  1  0.17280800  0.33101200  0.75000000  1
  Ni  Ni12  1  0.66898800  0.84179600  0.75000000  1
  Ni  Ni13  1  0.84179600  0.17280800  0.25000000  1
  Ni  Ni14  1  0.82719200  0.66898800  0.25000000  1
  Ni  Ni15  1  0.33101200  0.15820400  0.25000000  1
  Cu  Cu16  1  0.00000000  0.00000000  0.64870700  1
  Cu  Cu17  1  0.00000000  0.00000000  0.14870700  1
  Cu  Cu18  1  0.00000000  0.00000000  0.35129300  1
  Cu  Cu19  1  0.00000000  0.00000000  0.85129300  1
  Cu  Cu20  1  0.97233300  0.73253300  0.50122100  1
  Cu  Cu21  1  0.26746700  0.23979900  0.50122100  1
  Cu  Cu22  1  0.76020100  0.02766700  0.50122100  1
  Cu  Cu23  1  0.02766700  0.26746700  0.00122100  1
  Cu  Cu24  1  0.73253300  0.76020100  0.00122100  1
  Cu  Cu25  1  0.23979900  0.97233300  0.00122100  1
  Cu  Cu26  1  0.02766700  0.26746700  0.49877900  1
  Cu  Cu27  1  0.73253300  0.76020100  0.49877900  1
  Cu  Cu28  1  0.23979900  0.97233300  0.49877900  1
  Cu  Cu29  1  0.97233300  0.73253300  0.99877900  1
  Cu  Cu30  1  0.26746700  0.23979900  0.99877900  1
  Cu  Cu31  1  0.76020100  0.02766700  0.99877900  1
  Cu  Cu32  1  0.50443300  0.50544900  0.65124700  1
  Cu  Cu33  1  0.49455100  0.99898400  0.65124700  1
  Cu  Cu34  1  0.00101600  0.49556700  0.65124700  1
  Cu  Cu35  1  0.49556700  0.49455100  0.15124700  1
  Cu  Cu36  1  0.50544900  0.00101600  0.15124700  1
  Cu  Cu37  1  0.99898400  0.50443300  0.15124700  1
  Cu  Cu38  1  0.49556700  0.49455100  0.34875300  1
  Cu  Cu39  1  0.50544900  0.00101600  0.34875300  1
  Cu  Cu40  1  0.99898400  0.50443300  0.34875300  1
  Cu  Cu41  1  0.50443300  0.50544900  0.84875300  1
  Cu  Cu42  1  0.49455100  0.99898400  0.84875300  1
  Cu  Cu43  1  0.00101600  0.49556700  0.84875300  1
  Cu  Cu44  1  0.75452800  0.50979900  0.49920400  1
  Cu  Cu45  1  0.49020100  0.24472800  0.49920400  1
  Cu  Cu46  1  0.75527200  0.24547200  0.49920400  1
  Cu  Cu47  1  0.24547200  0.49020100  0.99920400  1
  Cu  Cu48  1  0.50979900  0.75527200  0.99920400  1
  Cu  Cu49  1  0.24472800  0.75452800  0.99920400  1
  Cu  Cu50  1  0.24547200  0.49020100  0.50079600  1
  Cu  Cu51  1  0.50979900  0.75527200  0.50079600  1
  Cu  Cu52  1  0.24472800  0.75452800  0.50079600  1
  Cu  Cu53  1  0.75452800  0.50979900  0.00079600  1
  Cu  Cu54  1  0.49020100  0.24472800  0.00079600  1
  Cu  Cu55  1  0.75527200  0.24547200  0.00079600  1
  C  C56  1  0.89724500  0.82874400  0.57711000  1
  C  C57  1  0.17125600  0.06850100  0.57711000  1
  C  C58  1  0.93149900  0.10275500  0.57711000  1
  C  C59  1  0.10275500  0.17125600  0.07711000  1
  C  C60  1  0.82874400  0.93149900  0.07711000  1
  C  C61  1  0.06850100  0.89724500  0.07711000  1
  C  C62  1  0.10275500  0.17125600  0.42289000  1
  C  C63  1  0.82874400  0.93149900  0.42289000  1
  C  C64  1  0.06850100  0.89724500  0.42289000  1
  C  C65  1  0.89724500  0.82874400  0.92289000  1
  C  C66  1  0.17125600  0.06850100  0.92289000  1
  C  C67  1  0.93149900  0.10275500  0.92289000  1
  C  C68  1  0.41627800  0.83011100  0.57648200  1
  C  C69  1  0.16988900  0.58616700  0.57648200  1
  C  C70  1  0.41383300  0.58372200  0.57648200  1
  C  C71  1  0.58372200  0.16988900  0.07648200  1
  C  C72  1  0.83011100  0.41383300  0.07648200  1
  C  C73  1  0.58616700  0.41627800  0.07648200  1
  C  C74  1  0.58372200  0.16988900  0.42351800  1
  C  C75  1  0.83011100  0.41383300  0.42351800  1
  C  C76  1  0.58616700  0.41627800  0.42351800  1
  C  C77  1  0.41627800  0.83011100  0.92351800  1
  C  C78  1  0.16988900  0.58616700  0.92351800  1
  C  C79  1  0.41383300  0.58372200  0.92351800  1
  C  C80  1  0.42349300  0.33149800  0.58906300  1
  C  C81  1  0.66850200  0.09199500  0.58906300  1
  C  C82  1  0.90800500  0.57650700  0.58906300  1
  C  C83  1  0.57650700  0.66850200  0.08906300  1
  C  C84  1  0.33149800  0.90800500  0.08906300  1
  C  C85  1  0.09199500  0.42349300  0.08906300  1
  C  C86  1  0.57650700  0.66850200  0.41093700  1
  C  C87  1  0.33149800  0.90800500  0.41093700  1
  C  C88  1  0.09199500  0.42349300  0.41093700  1
  C  C89  1  0.42349300  0.33149800  0.91093700  1
  C  C90  1  0.66850200  0.09199500  0.91093700  1
  C  C91  1  0.90800500  0.57650700  0.91093700  1
  C  C92  1  0.92641000  0.33497600  0.57239400  1
  C  C93  1  0.66502400  0.59143300  0.57239400  1
  C  C94  1  0.40856700  0.07359000  0.57239400  1
  C  C95  1  0.07359000  0.66502400  0.07239400  1
  C  C96  1  0.33497600  0.40856700  0.07239400  1
  C  C97  1  0.59143300  0.92641000  0.07239400  1
  C  C98  1  0.07359000  0.66502400  0.42760600  1
  C  C99  1  0.33497600  0.40856700  0.42760600  1
  C  C100  1  0.59143300  0.92641000  0.42760600  1
  C  C101  1  0.92641000  0.33497600  0.92760600  1
  C  C102  1  0.66502400  0.59143300  0.92760600  1
  C  C103  1  0.40856700  0.07359000  0.92760600  1
  C  C104  1  0.06045000  0.91623400  0.75000000  1
  C  C105  1  0.08376600  0.14421600  0.75000000  1
  C  C106  1  0.85578400  0.93955000  0.75000000  1
  C  C107  1  0.93955000  0.08376600  0.25000000  1
  C  C108  1  0.91623400  0.85578400  0.25000000  1
  C  C109  1  0.14421600  0.06045000  0.25000000  1
  C  C110  1  0.58677800  0.43992800  0.75000000  1
  C  C111  1  0.56007200  0.14685000  0.75000000  1
  C  C112  1  0.85315000  0.41322200  0.75000000  1
  C  C113  1  0.41322200  0.56007200  0.25000000  1
  C  C114  1  0.43992800  0.85315000  0.25000000  1
  C  C115  1  0.14685000  0.58677800  0.25000000  1
  C  C116  1  0.57017800  0.92938700  0.75000000  1
  C  C117  1  0.07061300  0.64079000  0.75000000  1
  C  C118  1  0.35921000  0.42982200  0.75000000  1
  C  C119  1  0.42982200  0.07061300  0.25000000  1
  C  C120  1  0.92938700  0.35921000  0.25000000  1
  C  C121  1  0.64079000  0.57017800  0.25000000  1
  C  C122  1  0.34437500  0.91960900  0.75000000  1
  C  C123  1  0.08039100  0.42476600  0.75000000  1
  C  C124  1  0.57523400  0.65562500  0.75000000  1
  C  C125  1  0.65562500  0.08039100  0.25000000  1
  C  C126  1  0.91960900  0.57523400  0.25000000  1
  C  C127  1  0.42476600  0.34437500  0.25000000  1
  C  C128  1  0.66666700  0.33333300  0.92833600  1
  C  C129  1  0.33333300  0.66666700  0.42833600  1
  C  C130  1  0.33333300  0.66666700  0.07166400  1
  C  C131  1  0.66666700  0.33333300  0.57166400  1
  C  C132  1  0.14050400  0.81248100  0.91726500  1
  C  C133  1  0.18751900  0.32802300  0.91726500  1
  C  C134  1  0.67197700  0.85949600  0.91726500  1
  C  C135  1  0.85949600  0.18751900  0.41726500  1
  C  C136  1  0.81248100  0.67197700  0.41726500  1
  C  C137  1  0.32802300  0.14050400  0.41726500  1
  C  C138  1  0.85949600  0.18751900  0.08273500  1
  C  C139  1  0.81248100  0.67197700  0.08273500  1
  C  C140  1  0.32802300  0.14050400  0.08273500  1
  C  C141  1  0.14050400  0.81248100  0.58273500  1
  C  C142  1  0.18751900  0.32802300  0.58273500  1
  C  C143  1  0.67197700  0.85949600  0.58273500  1
