# generated using pymatgen
data_CuNi3C16
_symmetry_space_group_name_H-M   'P 1'
_cell_length_a   9.83193765
_cell_length_b   9.82940211
_cell_length_c   13.16974553
_cell_angle_alpha   89.99999998
_cell_angle_beta   90.03686355
_cell_angle_gamma   119.99146201
_symmetry_Int_Tables_number   1
_chemical_formula_structural   CuNi3C16
_chemical_formula_sum   'Cu4 Ni12 C64'
_cell_volume   1102.32960372
_cell_formula_units_Z   4
loop_
 _symmetry_equiv_pos_site_id
 _symmetry_equiv_pos_as_xyz
  1  'x, y, z'
loop_
 _atom_site_type_symbol
 _atom_site_label
 _atom_site_symmetry_multiplicity
 _atom_site_fract_x
 _atom_site_fract_y
 _atom_site_fract_z
 _atom_site_occupancy
  C  C0  1  0.99979852  0.00054209  0.49989503  1
  C  C1  1  0.99979852  0.99925643  0.99989503  1
  C  C2  1  0.33360591  0.66665202  0.65834568  1
  C  C3  1  0.33360591  0.66695388  0.15834568  1
  Ni  Ni4  1  0.68246328  0.60090107  0.60175528  1
  Ni  Ni5  1  0.39978303  0.08178416  0.60109526  1
  Ni  Ni6  1  0.91899492  0.31778516  0.60132635  1
  Ni  Ni7  1  0.68246328  0.08156221  0.10175528  1
  Ni  Ni8  1  0.91899492  0.60120976  0.10132635  1
  Ni  Ni9  1  0.39978303  0.31799887  0.10109526  1
  Ni  Ni10  1  0.31991921  0.39827031  0.39753777  1
  Ni  Ni11  1  0.60184043  0.92210189  0.39802128  1
  Ni  Ni12  1  0.07875004  0.68042394  0.39803517  1
  Ni  Ni13  1  0.31991921  0.92164890  0.89753777  1
  Ni  Ni14  1  0.07875004  0.39832610  0.89803517  1
  Ni  Ni15  1  0.60184043  0.67973855  0.89802128  1
  Cu  Cu16  1  0.00067454  0.00073857  0.74977759  1
  Cu  Cu17  1  0.00067454  0.99993596  0.24977759  1
  Cu  Cu18  1  0.66785140  0.33639715  0.35325620  1
  Cu  Cu19  1  0.66785140  0.33145425  0.85325620  1
  C  C20  1  0.31440678  0.88105299  0.71831486  1
  C  C21  1  0.11958830  0.43394710  0.71798644  1
  C  C22  1  0.56645152  0.68555545  0.71786821  1
  C  C23  1  0.31440678  0.43335380  0.21831486  1
  C  C24  1  0.56645152  0.88089608  0.21786821  1
  C  C25  1  0.11958830  0.68564120  0.21798644  1
  C  C26  1  0.69067799  0.15096806  0.28780973  1
  C  C27  1  0.85065357  0.54280998  0.28645654  1
  C  C28  1  0.46043308  0.30771287  0.28692578  1
  C  C29  1  0.69067799  0.53970993  0.78780973  1
  C  C30  1  0.46043308  0.15272021  0.78692578  1
  C  C31  1  0.85065357  0.30784359  0.78645654  1
  C  C32  1  0.19115055  0.87960305  0.52005483  1
  C  C33  1  0.12044318  0.31174012  0.51956449  1
  C  C34  1  0.68804596  0.80853676  0.51961368  1
  C  C35  1  0.19115055  0.31154750  0.02005483  1
  C  C36  1  0.68804596  0.87950920  0.01961368  1
  C  C37  1  0.12044318  0.80870306  0.01956449  1
  C  C38  1  0.80867834  0.11940683  0.48053432  1
  C  C39  1  0.88009170  0.68821277  0.48060937  1
  C  C40  1  0.31085733  0.19150670  0.48034500  1
  C  C41  1  0.80867834  0.68927151  0.98053432  1
  C  C42  1  0.31085733  0.11935063  0.98034500  1
  C  C43  1  0.88009170  0.19187893  0.98060937  1
  C  C44  1  0.89330430  0.80907287  0.65996627  1
  C  C45  1  0.19150690  0.08515652  0.66016762  1
  C  C46  1  0.91629008  0.10604360  0.65929543  1
  C  C47  1  0.89330430  0.08423143  0.15996627  1
  C  C48  1  0.91629008  0.81024648  0.15929543  1
  C  C49  1  0.19150690  0.10635038  0.16016762  1
  C  C50  1  0.10658950  0.18827084  0.34138522  1
  C  C51  1  0.81146528  0.91943593  0.34077418  1
  C  C52  1  0.07975765  0.89155598  0.34154576  1
  C  C53  1  0.10658950  0.91831866  0.84138522  1
  C  C54  1  0.07975765  0.18820167  0.84154576  1
  C  C55  1  0.81146528  0.89202935  0.84077418  1
  C  C56  1  0.11059022  0.57945595  0.54661275  1
  C  C57  1  0.42021813  0.53104514  0.54620883  1
  C  C58  1  0.46849919  0.88843466  0.54695083  1
  C  C59  1  0.11059022  0.53113427  0.04661275  1
  C  C60  1  0.46849919  0.58006453  0.04695083  1
  C  C61  1  0.42021813  0.88917299  0.04620883  1
  C  C62  1  0.86255719  0.40366342  0.44651793  1
  C  C63  1  0.59491503  0.45905113  0.44686472  1
  C  C64  1  0.53906346  0.13359721  0.44725552  1
  C  C65  1  0.86255719  0.45889377  0.94651793  1
  C  C66  1  0.53906346  0.40546626  0.94725552  1
  C  C67  1  0.59491503  0.13586389  0.94686472  1
  C  C68  1  0.51260197  0.34190745  0.63366240  1
  C  C69  1  0.65857234  0.17099911  0.63422929  1
  C  C70  1  0.82937886  0.48716674  0.63441128  1
  C  C71  1  0.51260197  0.17069453  0.13366240  1
  C  C72  1  0.82937886  0.34221212  0.13441128  1
  C  C73  1  0.65857234  0.48757323  0.13422929  1
  C  C74  1  0.48865334  0.65941815  0.36275540  1
  C  C75  1  0.34031810  0.82886410  0.36295699  1
  C  C76  1  0.17055887  0.51126485  0.36331071  1
  C  C77  1  0.48865334  0.82923519  0.86275540  1
  C  C78  1  0.17055887  0.65929402  0.86331071  1
  C  C79  1  0.34031810  0.51145400  0.86295699  1
