# generated using pymatgen
data_Cu4Ni4C29
_symmetry_space_group_name_H-M   'P 1'
_cell_length_a   5.44280198
_cell_length_b   9.21006543
_cell_length_c   12.60794500
_cell_angle_alpha   92.54691800
_cell_angle_beta   91.66514633
_cell_angle_gamma   104.66346600
_symmetry_Int_Tables_number   1
_chemical_formula_structural   Cu4Ni4C29
_chemical_formula_sum   'Cu4 Ni4 C29'
_cell_volume   610.29747920
_cell_formula_units_Z   1
loop_
 _symmetry_equiv_pos_site_id
 _symmetry_equiv_pos_as_xyz
  1  'x, y, z'
loop_
 _atom_site_type_symbol
 _atom_site_label
 _atom_site_symmetry_multiplicity
 _atom_site_fract_x
 _atom_site_fract_y
 _atom_site_fract_z
 _atom_site_occupancy
  C  C0  1  0.48122521  0.49006350  0.48896814  1
  C  C1  1  0.48986931  0.50132188  0.77533147  1
  C  C2  1  0.99235199  0.99466328  0.78263408  1
  C  C3  1  0.51893917  0.49822470  0.21529337  1
  C  C4  1  0.01444469  0.00355365  0.21514388  1
  Ni  Ni5  1  0.38902274  0.72910032  0.94356121  1
  Ni  Ni6  1  0.91887975  0.19097055  0.60281069  1
  Ni  Ni7  1  0.61164733  0.26267793  0.05028438  1
  Ni  Ni8  1  0.05818848  0.81086539  0.40486233  1
  Cu  Cu9  1  0.54199173  0.74126042  0.81113164  1
  Cu  Cu10  1  0.07009018  0.22695869  0.74040647  1
  Cu  Cu11  1  0.45844426  0.25734319  0.18247761  1
  Cu  Cu12  1  0.94194020  0.77316942  0.26204448  1
  C  C13  1  0.62683173  0.59146673  0.80458927  1
  C  C14  1  0.13985725  0.07526322  0.75770066  1
  C  C15  1  0.38051352  0.40939658  0.18533773  1
  C  C16  1  0.86742579  0.92193862  0.23928835  1
  C  C17  1  0.77228425  0.86013501  0.82746105  1
  C  C18  1  0.30781498  0.33764352  0.72952735  1
  C  C19  1  0.22449256  0.14080406  0.16789060  1
  C  C20  1  0.70677896  0.65790531  0.26459081  1
  C  C21  1  0.35228207  0.74677370  0.73141916  1
  C  C22  1  0.88195146  0.25397661  0.81018652  1
  C  C23  1  0.64628774  0.25217519  0.26308378  1
  C  C24  1  0.14938306  0.75165588  0.20139096  1
  C  C25  1  0.29638394  0.85013728  0.96023494  1
  C  C26  1  0.85947929  0.31736939  0.57285479  1
  C  C27  1  0.70089909  0.13996797  0.03644356  1
  C  C28  1  0.10658586  0.68488928  0.44155832  1
  C  C29  1  0.19808574  0.60299949  0.94247979  1
  C  C30  1  0.70535894  0.07840372  0.60329955  1
  C  C31  1  0.80470024  0.38748287  0.04964477  1
  C  C32  1  0.27347886  0.92268565  0.41174759  1
  C  C33  1  0.56186766  0.72564465  0.02142301  1
  C  C34  1  0.08012441  0.15359476  0.53396242  1
  C  C35  1  0.43970800  0.26470795  0.97171905  1
  C  C36  1  0.88038955  0.84995262  0.46388323  1
