# generated using pymatgen
data_CuNiC8
_symmetry_space_group_name_H-M   'P 1'
_cell_length_a   7.74956700
_cell_length_b   7.69490200
_cell_length_c   7.73024857
_cell_angle_alpha   89.85552722
_cell_angle_beta   90.00000000
_cell_angle_gamma   90.00000000
_symmetry_Int_Tables_number   1
_chemical_formula_structural   CuNiC8
_chemical_formula_sum   'Cu4 Ni4 C32'
_cell_volume   460.96994364
_cell_formula_units_Z   4
loop_
 _symmetry_equiv_pos_site_id
 _symmetry_equiv_pos_as_xyz
  1  'x, y, z'
loop_
 _atom_site_type_symbol
 _atom_site_label
 _atom_site_symmetry_multiplicity
 _atom_site_fract_x
 _atom_site_fract_y
 _atom_site_fract_z
 _atom_site_occupancy
  Ni  Ni0  1  0.00000000  0.25254300  0.74846200  1
  Ni  Ni1  1  0.00000000  0.74733100  0.74828700  1
  Ni  Ni2  1  0.50000000  0.74726300  0.74839400  1
  Ni  Ni3  1  0.50000000  0.25269700  0.25158600  1
  Cu  Cu4  1  0.00000000  0.25295400  0.25133600  1
  Cu  Cu5  1  0.00000000  0.74715000  0.25129000  1
  Cu  Cu6  1  0.50000000  0.25274600  0.74866600  1
  Cu  Cu7  1  0.50000000  0.74732300  0.25133000  1
  C  C8  1  0.25006300  0.00001100  0.00133100  1
  C  C9  1  0.25001900  0.49997800  0.00175800  1
  C  C10  1  0.25006100  0.99997500  0.49876100  1
  C  C11  1  0.74993700  0.00001100  0.00133100  1
  C  C12  1  0.74998100  0.49997800  0.00175800  1
  C  C13  1  0.74993900  0.99997500  0.49876100  1
  C  C14  1  0.25008900  0.49974600  0.49904000  1
  C  C15  1  0.74991100  0.49974600  0.49904000  1
  C  C16  1  0.00000000  0.00002900  0.00489100  1
  C  C17  1  0.00000000  0.49994800  0.00517400  1
  C  C18  1  0.00000000  0.00007700  0.49514000  1
  C  C19  1  0.00000000  0.50093100  0.49297900  1
  C  C20  1  0.50000000  0.99991700  0.00124800  1
  C  C21  1  0.50000000  0.50007700  0.00113400  1
  C  C22  1  0.50000000  0.99986400  0.49869300  1
  C  C23  1  0.50000000  0.49994100  0.49906900  1
  C  C24  1  0.25186900  0.00225900  0.74846100  1
  C  C25  1  0.25221800  0.49884800  0.74548800  1
  C  C26  1  0.24832000  0.99791100  0.25155300  1
  C  C27  1  0.24793400  0.50097600  0.25446200  1
  C  C28  1  0.74813100  0.00225900  0.74846100  1
  C  C29  1  0.74778200  0.49884800  0.74548800  1
  C  C30  1  0.75168000  0.99791100  0.25155300  1
  C  C31  1  0.75206600  0.50097600  0.25446200  1
  C  C32  1  0.24992500  0.25059000  0.00095400  1
  C  C33  1  0.25006000  0.74941400  0.00507400  1
  C  C34  1  0.24990600  0.25838200  0.49803100  1
  C  C35  1  0.25008700  0.74151500  0.49624700  1
  C  C36  1  0.75007500  0.25059000  0.00095400  1
  C  C37  1  0.74994000  0.74941400  0.00507400  1
  C  C38  1  0.75009400  0.25838200  0.49803100  1
  C  C39  1  0.74991300  0.74151500  0.49624700  1
