# generated using pymatgen
data_Cu5Ni2C25
_symmetry_space_group_name_H-M   'P 1'
_cell_length_a   5.14441155
_cell_length_b   10.06751240
_cell_length_c   5.93830496
_cell_angle_alpha   87.80948295
_cell_angle_beta   71.11925673
_cell_angle_gamma   79.16834078
_symmetry_Int_Tables_number   1
_chemical_formula_structural   Cu5Ni2C25
_chemical_formula_sum   'Cu5 Ni2 C25'
_cell_volume   285.73600326
_cell_formula_units_Z   1
loop_
 _symmetry_equiv_pos_site_id
 _symmetry_equiv_pos_as_xyz
  1  'x, y, z'
loop_
 _atom_site_type_symbol
 _atom_site_label
 _atom_site_symmetry_multiplicity
 _atom_site_fract_x
 _atom_site_fract_y
 _atom_site_fract_z
 _atom_site_occupancy
  C  C0  1  0.99828400  0.00291000  0.50046200  1
  C  C1  1  0.99710600  0.25869600  0.25468600  1
  C  C2  1  0.50949400  0.87240500  0.62586100  1
  C  C3  1  0.49212300  0.12466500  0.37850900  1
  C  C4  1  0.00333400  0.73969800  0.74496800  1
  C  C5  1  0.50065800  0.62163400  0.86203800  1
  C  C6  1  0.00324100  0.49763300  0.00191500  1
  C  C7  1  0.49720300  0.38104300  0.13295900  1
  C  C8  1  0.99992900  0.50079800  0.49907300  1
  Ni  Ni9  1  0.99916100  0.00148800  0.00003700  1
  Ni  Ni10  1  0.00088700  0.74524600  0.25350900  1
  Cu  Cu11  1  0.00027200  0.25161600  0.74884200  1
  Cu  Cu12  1  0.49988200  0.87597400  0.12347000  1
  Cu  Cu13  1  0.49878700  0.12505300  0.87730000  1
  Cu  Cu14  1  0.50341200  0.37929600  0.62008100  1
  Cu  Cu15  1  0.49719600  0.62109400  0.37645100  1
  C  C16  1  0.77195800  0.93297800  0.29940600  1
  C  C17  1  0.77300800  0.18458700  0.04268700  1
  C  C18  1  0.25463100  0.80238700  0.40600500  1
  C  C19  1  0.28112400  0.05693000  0.17303900  1
  C  C20  1  0.76424700  0.69350700  0.54304600  1
  C  C21  1  0.27695300  0.56248400  0.66905500  1
  C  C22  1  0.75471000  0.41664000  0.80308000  1
  C  C23  1  0.24530700  0.29857800  0.91666200  1
  C  C24  1  0.22705600  0.07132100  0.70257700  1
  C  C25  1  0.24355700  0.30723500  0.47056100  1
  C  C26  1  0.71646000  0.94461400  0.83009300  1
  C  C27  1  0.75562800  0.19140500  0.59431300  1
  C  C28  1  0.22542300  0.81894700  0.95175000  1
  C  C29  1  0.74654500  0.69794600  0.09276800  1
  C  C30  1  0.24066800  0.57555600  0.18407100  1
  C  C31  1  0.72175600  0.44563700  0.32072600  1
