# generated using pymatgen
data_Cu8Ni7C4
_symmetry_space_group_name_H-M   'P 1'
_cell_length_a   4.16048000
_cell_length_b   13.28463837
_cell_length_c   13.65896366
_cell_angle_alpha   98.64603010
_cell_angle_beta   90.00000000
_cell_angle_gamma   90.00000000
_symmetry_Int_Tables_number   1
_chemical_formula_structural   Cu8Ni7C4
_chemical_formula_sum   'Cu16 Ni14 C8'
_cell_volume   746.35820952
_cell_formula_units_Z   2
loop_
 _symmetry_equiv_pos_site_id
 _symmetry_equiv_pos_as_xyz
  1  'x, y, z'
loop_
 _atom_site_type_symbol
 _atom_site_label
 _atom_site_symmetry_multiplicity
 _atom_site_fract_x
 _atom_site_fract_y
 _atom_site_fract_z
 _atom_site_occupancy
  C  C0  1  0.75000000  0.21281600  0.56463100  1
  C  C1  1  0.25000000  0.78718400  0.43536900  1
  C  C2  1  0.75000000  0.51386200  0.70898100  1
  C  C3  1  0.25000000  0.48613800  0.29101900  1
  C  C4  1  0.75000000  0.28577800  0.89575900  1
  C  C5  1  0.25000000  0.71422200  0.10424100  1
  C  C6  1  0.75000000  0.10267000  0.20595900  1
  C  C7  1  0.25000000  0.89733000  0.79404100  1
  Ni  Ni8  1  0.75000000  0.74448200  0.91756800  1
  Ni  Ni9  1  0.25000000  0.25551800  0.08243200  1
  Ni  Ni10  1  0.75000000  0.90461400  0.58677200  1
  Ni  Ni11  1  0.25000000  0.09538600  0.41322800  1
  Ni  Ni12  1  0.75000000  0.53020500  0.12813100  1
  Ni  Ni13  1  0.25000000  0.46979500  0.87186900  1
  Ni  Ni14  1  0.75000000  0.84814400  0.27986400  1
  Ni  Ni15  1  0.25000000  0.15185600  0.72013600  1
  Ni  Ni16  1  0.75000000  0.60914300  0.43658400  1
  Ni  Ni17  1  0.25000000  0.39085700  0.56341600  1
  Ni  Ni18  1  0.75000000  0.31078600  0.31046400  1
  Ni  Ni19  1  0.25000000  0.68921400  0.68953600  1
  Ni  Ni20  1  0.75000000  0.05743600  0.89981400  1
  Ni  Ni21  1  0.25000000  0.94256400  0.10018600  1
  Cu  Cu22  1  0.75000000  0.34449800  0.13860700  1
  Cu  Cu23  1  0.25000000  0.65550200  0.86139300  1
  Cu  Cu24  1  0.75000000  0.72190200  0.60218900  1
  Cu  Cu25  1  0.25000000  0.27809800  0.39781100  1
  Cu  Cu26  1  0.75000000  0.92032300  0.00198100  1
  Cu  Cu27  1  0.25000000  0.07967700  0.99801900  1
  Cu  Cu28  1  0.75000000  0.42625400  0.47145800  1
  Cu  Cu29  1  0.25000000  0.57374600  0.52854200  1
  Cu  Cu30  1  0.75000000  0.05514200  0.72042400  1
  Cu  Cu31  1  0.25000000  0.94485800  0.27957600  1
  Cu  Cu32  1  0.75000000  0.55360200  0.95173000  1
  Cu  Cu33  1  0.25000000  0.44639800  0.04827000  1
  Cu  Cu34  1  0.75000000  0.66518400  0.27147400  1
  Cu  Cu35  1  0.25000000  0.33481600  0.72852600  1
  Cu  Cu36  1  0.75000000  0.98473700  0.42759200  1
  Cu  Cu37  1  0.25000000  0.01526300  0.57240800  1
