# generated using pymatgen
data_CuNiC7
_symmetry_space_group_name_H-M   'P 1'
_cell_length_a   4.61730000
_cell_length_b   4.61732900
_cell_length_c   9.23950900
_cell_angle_alpha   90.00320685
_cell_angle_beta   89.99952235
_cell_angle_gamma   90.00250660
_symmetry_Int_Tables_number   1
_chemical_formula_structural   CuNiC7
_chemical_formula_sum   'Cu2 Ni2 C14'
_cell_volume   196.98257292
_cell_formula_units_Z   2
loop_
 _symmetry_equiv_pos_site_id
 _symmetry_equiv_pos_as_xyz
  1  'x, y, z'
loop_
 _atom_site_type_symbol
 _atom_site_label
 _atom_site_symmetry_multiplicity
 _atom_site_fract_x
 _atom_site_fract_y
 _atom_site_fract_z
 _atom_site_occupancy
  Ni  Ni0  1  0.50000000  0.49999300  0.50033900  1
  Ni  Ni1  1  0.99999700  0.99999900  0.00042600  1
  Cu  Cu2  1  0.00000700  0.99999700  0.66761100  1
  Cu  Cu3  1  0.50001400  0.50001300  0.16748800  1
  C  C4  1  0.49999600  0.49999100  0.83357700  1
  C  C5  1  0.00000300  0.99998900  0.33341500  1
  C  C6  1  0.19291100  0.80710400  0.16398100  1
  C  C7  1  0.80709500  0.19291200  0.16398300  1
  C  C8  1  0.30718600  0.30720100  0.66396700  1
  C  C9  1  0.69279600  0.69281600  0.66396900  1
  C  C10  1  0.20079200  0.79920700  0.49928200  1
  C  C11  1  0.79920000  0.20079500  0.49926600  1
  C  C12  1  0.29926200  0.29925200  0.99931600  1
  C  C13  1  0.70073900  0.70075100  0.99930200  1
  C  C14  1  0.19299100  0.80700400  0.83603000  1
  C  C15  1  0.80700000  0.19298400  0.83603400  1
  C  C16  1  0.30698500  0.30697200  0.33600400  1
  C  C17  1  0.69302700  0.69301900  0.33600800  1
