# generated using pymatgen
data_CuNiC
_symmetry_space_group_name_H-M   'P 1'
_cell_length_a   4.42656800
_cell_length_b   7.14871200
_cell_length_c   7.65022700
_cell_angle_alpha   90.00000000
_cell_angle_beta   90.00000000
_cell_angle_gamma   90.00000000
_symmetry_Int_Tables_number   1
_chemical_formula_structural   CuNiC
_chemical_formula_sum   'Cu4 Ni4 C4'
_cell_volume   242.08577057
_cell_formula_units_Z   4
loop_
 _symmetry_equiv_pos_site_id
 _symmetry_equiv_pos_as_xyz
  1  'x, y, z'
loop_
 _atom_site_type_symbol
 _atom_site_label
 _atom_site_symmetry_multiplicity
 _atom_site_fract_x
 _atom_site_fract_y
 _atom_site_fract_z
 _atom_site_occupancy
  C  C0  1  0.75000000  0.49798600  0.20359800  1
  C  C1  1  0.75000000  0.99798600  0.29640200  1
  C  C2  1  0.25000000  0.50201400  0.79640200  1
  C  C3  1  0.25000000  0.00201400  0.70359800  1
  Ni  Ni4  1  0.75000000  0.81285300  0.91241000  1
  Ni  Ni5  1  0.75000000  0.31285300  0.58759000  1
  Ni  Ni6  1  0.25000000  0.18714700  0.08759000  1
  Ni  Ni7  1  0.25000000  0.68714700  0.41241000  1
  Cu  Cu8  1  0.75000000  0.20518200  0.91620700  1
  Cu  Cu9  1  0.75000000  0.70518200  0.58379300  1
  Cu  Cu10  1  0.25000000  0.79481800  0.08379300  1
  Cu  Cu11  1  0.25000000  0.29481800  0.41620700  1
