# generated using pymatgen
data_Cu6Ni22C9
_symmetry_space_group_name_H-M   'P 1'
_cell_length_a   7.39620400
_cell_length_b   9.42834860
_cell_length_c   10.91275350
_cell_angle_alpha   101.77939898
_cell_angle_beta   90.00000000
_cell_angle_gamma   90.00000000
_symmetry_Int_Tables_number   1
_chemical_formula_structural   Cu6Ni22C9
_chemical_formula_sum   'Cu12 Ni44 C18'
_cell_volume   744.96404248
_cell_formula_units_Z   2
loop_
 _symmetry_equiv_pos_site_id
 _symmetry_equiv_pos_as_xyz
  1  'x, y, z'
loop_
 _atom_site_type_symbol
 _atom_site_label
 _atom_site_symmetry_multiplicity
 _atom_site_fract_x
 _atom_site_fract_y
 _atom_site_fract_z
 _atom_site_occupancy
  Ni  Ni0  1  0.24250400  0.83105500  0.19861700  1
  Ni  Ni1  1  0.74250400  0.16894500  0.80138300  1
  Ni  Ni2  1  0.26458500  0.91902900  0.35942900  1
  Ni  Ni3  1  0.76458500  0.08097100  0.64057100  1
  Ni  Ni4  1  0.42177300  0.77882300  0.29284300  1
  Ni  Ni5  1  0.92177300  0.22117700  0.70715700  1
  Ni  Ni6  1  0.26785100  0.20012500  0.33333300  1
  Ni  Ni7  1  0.76785100  0.79987500  0.66666700  1
  Ni  Ni8  1  0.49426800  0.26496800  0.36829200  1
  Ni  Ni9  1  0.99426800  0.73503200  0.63170800  1
  Ni  Ni10  1  0.40154300  0.13194500  0.44607100  1
  Ni  Ni11  1  0.90154300  0.86805500  0.55392900  1
  Ni  Ni12  1  0.79624600  0.06283000  0.34278900  1
  Ni  Ni13  1  0.29624600  0.93717000  0.65721100  1
  Ni  Ni14  1  0.76424100  0.87294300  0.27976400  1
  Ni  Ni15  1  0.26424100  0.12705700  0.72023600  1
  Ni  Ni16  1  0.64689300  0.95823100  0.41954400  1
  Ni  Ni17  1  0.14689300  0.04176900  0.58045600  1
  Ni  Ni18  1  0.52627900  0.36950600  0.80702300  1
  Ni  Ni19  1  0.02627900  0.63049400  0.19297700  1
  Ni  Ni20  1  0.67385100  0.48595500  0.73917600  1
  Ni  Ni21  1  0.17385100  0.51404500  0.26082400  1
  Ni  Ni22  1  0.50673200  0.37538300  0.64507900  1
  Ni  Ni23  1  0.00673200  0.62461700  0.35492100  1
  Ni  Ni24  1  0.02919200  0.52911900  0.74968900  1
  Ni  Ni25  1  0.52919200  0.47088100  0.25031100  1
  Ni  Ni26  1  0.15326200  0.38827700  0.80043400  1
  Ni  Ni27  1  0.65326200  0.61172300  0.19956600  1
  Ni  Ni28  1  0.16905200  0.40856900  0.64095200  1
  Ni  Ni29  1  0.66905200  0.59143100  0.35904800  1
  Ni  Ni30  1  0.50987600  0.68903100  0.60071400  1
  Ni  Ni31  1  0.00987600  0.31096900  0.39928600  1
  Ni  Ni32  1  0.26862000  0.70933500  0.59637400  1
  Ni  Ni33  1  0.76862100  0.29066500  0.40362600  1
  Ni  Ni34  1  0.36862800  0.53530700  0.54336300  1
  Ni  Ni35  1  0.86862800  0.46469300  0.45663700  1
  Ni  Ni36  1  0.55316600  0.23044100  0.09414500  1
  Ni  Ni37  1  0.05316600  0.76955900  0.90585500  1
  Ni  Ni38  1  0.72284700  0.12063800  0.05784600  1
  Ni  Ni39  1  0.22284700  0.87936200  0.94215400  1
  Ni  Ni40  1  0.33390400  0.46031100  0.00088500  1
  Ni  Ni41  1  0.83390400  0.53968900  0.99911500  1
  Ni  Ni42  1  0.26737200  0.62106600  0.04461600  1
  Ni  Ni43  1  0.76737200  0.37893400  0.95538400  1
  C  C44  1  0.49856300  0.01513700  0.21468100  1
  C  C45  1  0.99856300  0.98486300  0.78531900  1
  C  C46  1  0.36343300  0.60656000  0.79031600  1
  C  C47  1  0.86343300  0.39344000  0.20968400  1
  Cu  Cu48  1  0.33899000  0.86881300  0.27481300  1
  Cu  Cu49  1  0.83899000  0.13118700  0.72518700  1
  Cu  Cu50  1  0.40455800  0.17046800  0.35773700  1
  Cu  Cu51  1  0.90455800  0.82953200  0.64226300  1
  Cu  Cu52  1  0.69910700  0.97307600  0.32899000  1
  Cu  Cu53  1  0.19910700  0.02692400  0.67101000  1
  Cu  Cu54  1  0.53763500  0.43946100  0.73828800  1
  Cu  Cu55  1  0.03763500  0.56053900  0.26171200  1
  Cu  Cu56  1  0.15557100  0.46641500  0.73847600  1
  Cu  Cu57  1  0.65557100  0.53358500  0.26152400  1
  Cu  Cu58  1  0.37936800  0.63781800  0.61190900  1
  Cu  Cu59  1  0.87936800  0.36218200  0.38809100  1
  C  C60  1  0.70514700  0.81849100  0.94792500  1
  C  C61  1  0.20514700  0.18150900  0.05207500  1
  C  C62  1  0.66531100  0.19025900  0.12844500  1
  C  C63  1  0.16531100  0.80974100  0.87155500  1
  C  C64  1  0.60214300  0.83288100  0.06618600  1
  C  C65  1  0.10214300  0.16711900  0.93381400  1
  C  C66  1  0.78725000  0.96285400  0.93844000  1
  C  C67  1  0.28725000  0.03714600  0.06156000  1
  C  C68  1  0.85545300  0.71120400  0.94735300  1
  C  C69  1  0.35545300  0.28879600  0.05264700  1
  C  C70  1  0.58479100  0.77180300  0.83781100  1
  C  C71  1  0.08479100  0.22819700  0.16218900  1
  C  C72  1  0.35189400  0.56120500  0.98858300  1
  C  C73  1  0.85189400  0.43879500  0.01141700  1
