# generated using pymatgen
data_Cu10Ni22C27
_symmetry_space_group_name_H-M   'P 1'
_cell_length_a   11.45223400
_cell_length_b   7.34393400
_cell_length_c   15.71891187
_cell_angle_alpha   75.59946720
_cell_angle_beta   90.00000000
_cell_angle_gamma   90.00000000
_symmetry_Int_Tables_number   1
_chemical_formula_structural   Cu10Ni22C27
_chemical_formula_sum   'Cu20 Ni44 C54'
_cell_volume   1280.49337299
_cell_formula_units_Z   2
loop_
 _symmetry_equiv_pos_site_id
 _symmetry_equiv_pos_as_xyz
  1  'x, y, z'
loop_
 _atom_site_type_symbol
 _atom_site_label
 _atom_site_symmetry_multiplicity
 _atom_site_fract_x
 _atom_site_fract_y
 _atom_site_fract_z
 _atom_site_occupancy
  C  C0  1  0.34226900  0.50000000  0.75000000  1
  C  C1  1  0.65773100  0.50000000  0.25000000  1
  C  C2  1  0.32558900  0.66434700  0.88949000  1
  C  C3  1  0.32558900  0.33565300  0.61051000  1
  C  C4  1  0.67441100  0.33565300  0.11051000  1
  C  C5  1  0.67441100  0.66434700  0.38949000  1
  C  C6  1  0.31909800  0.43917700  0.93077400  1
  C  C7  1  0.31909800  0.56082300  0.56922600  1
  C  C8  1  0.68090200  0.56082300  0.06922600  1
  C  C9  1  0.68090200  0.43917700  0.43077400  1
  C  C10  1  0.54098100  0.33444600  0.87747800  1
  C  C11  1  0.54098100  0.66555400  0.62252200  1
  C  C12  1  0.45901900  0.66555400  0.12252200  1
  C  C13  1  0.45901900  0.33444600  0.37747800  1
  C  C14  1  0.92914000  0.43049500  0.89246600  1
  C  C15  1  0.92914000  0.56950500  0.60753400  1
  C  C16  1  0.07086000  0.56950500  0.10753400  1
  C  C17  1  0.07086000  0.43049500  0.39246600  1
  C  C18  1  0.75598300  0.32853600  0.88367600  1
  C  C19  1  0.75598300  0.67146400  0.61632400  1
  C  C20  1  0.24401700  0.67146400  0.11632400  1
  C  C21  1  0.24401700  0.32853600  0.38367600  1
  C  C22  1  0.14235100  0.43190200  0.88606400  1
  C  C23  1  0.14235100  0.56809800  0.61393600  1
  C  C24  1  0.85764900  0.56809800  0.11393600  1
  C  C25  1  0.85764900  0.43190200  0.38606400  1
  C  C26  1  0.52511600  0.88578100  0.80341700  1
  C  C27  1  0.52511600  0.11421900  0.69658300  1
  C  C28  1  0.47488400  0.11421900  0.19658300  1
  C  C29  1  0.47488400  0.88578100  0.30341700  1
  C  C30  1  0.53164000  0.70198900  0.95710600  1
  C  C31  1  0.53164000  0.29801100  0.54289400  1
  C  C32  1  0.46836000  0.29801100  0.04289400  1
  C  C33  1  0.46836000  0.70198900  0.45710600  1
  C  C34  1  0.89781000  0.97355000  0.82156000  1
  C  C35  1  0.89781000  0.02645000  0.67844000  1
  C  C36  1  0.10219000  0.02645000  0.17844000  1
  C  C37  1  0.10219000  0.97355000  0.32156000  1
  C  C38  1  0.88893500  0.78323800  0.97307100  1
  C  C39  1  0.88893500  0.21676200  0.52692900  1
  C  C40  1  0.11106500  0.21676200  0.02692900  1
  C  C41  1  0.11106500  0.78323800  0.47307100  1
  Ni  Ni42  1  0.59158500  0.40860300  0.82083600  1
  Ni  Ni43  1  0.59158500  0.59139700  0.67916400  1
  Ni  Ni44  1  0.40841500  0.59139700  0.17916400  1
  Ni  Ni45  1  0.40841500  0.40860300  0.32083600  1
  Ni  Ni46  1  0.77766500  0.50000000  0.75000000  1
  Ni  Ni47  1  0.22233500  0.50000000  0.25000000  1
  Ni  Ni48  1  0.90684000  0.50000000  0.75000000  1
  Ni  Ni49  1  0.09316000  0.50000000  0.25000000  1
  Ni  Ni50  1  0.97131000  0.46139600  0.82837300  1
  Ni  Ni51  1  0.97131000  0.53860400  0.67162700  1
  Ni  Ni52  1  0.02869000  0.53860400  0.17162700  1
  Ni  Ni53  1  0.02869000  0.46139600  0.32837300  1
  Ni  Ni54  1  0.71287700  0.40589900  0.82375100  1
  Ni  Ni55  1  0.71287700  0.59410100  0.67624900  1
  Ni  Ni56  1  0.28712300  0.59410100  0.17624900  1
  Ni  Ni57  1  0.28712300  0.40589900  0.32375100  1
  Ni  Ni58  1  0.09250500  0.46200000  0.82539500  1
  Ni  Ni59  1  0.09250500  0.53800000  0.67460500  1
  Ni  Ni60  1  0.90749500  0.53800000  0.17460500  1
  Ni  Ni61  1  0.90749500  0.46200000  0.32539500  1
  Ni  Ni62  1  0.60802600  0.87004700  0.83834700  1
  Ni  Ni63  1  0.60802600  0.12995300  0.66165300  1
  Ni  Ni64  1  0.39197400  0.12995300  0.16165300  1
  Ni  Ni65  1  0.39197400  0.87004700  0.33834700  1
  Ni  Ni66  1  0.61147200  0.76547600  0.92505900  1
  Ni  Ni67  1  0.61147200  0.23452400  0.57494100  1
  Ni  Ni68  1  0.38852800  0.23452400  0.07494100  1
  Ni  Ni69  1  0.38852800  0.76547600  0.42505900  1
  Ni  Ni70  1  0.81385000  0.91525100  0.84741100  1
  Ni  Ni71  1  0.81385000  0.08474900  0.65258900  1
  Ni  Ni72  1  0.18615000  0.08474900  0.15258900  1
  Ni  Ni73  1  0.18615000  0.91525100  0.34741100  1
  Ni  Ni74  1  0.71158700  0.94631800  0.79658600  1
  Ni  Ni75  1  0.71158700  0.05368200  0.70341400  1
  Ni  Ni76  1  0.28841300  0.05368200  0.20341400  1
  Ni  Ni77  1  0.28841300  0.94631800  0.29658600  1
  Ni  Ni78  1  0.80910400  0.80815400  0.93399200  1
  Ni  Ni79  1  0.80910400  0.19184600  0.56600800  1
  Ni  Ni80  1  0.19089600  0.19184600  0.06600800  1
  Ni  Ni81  1  0.19089600  0.80815400  0.43399200  1
  Ni  Ni82  1  0.30073400  0.07532800  0.84912300  1
  Ni  Ni83  1  0.30073400  0.92467200  0.65087700  1
  Ni  Ni84  1  0.69926600  0.92467200  0.15087700  1
  Ni  Ni85  1  0.69926600  0.07532800  0.34912300  1
  Cu  Cu86  1  0.15740300  0.88664500  0.91814400  1
  Cu  Cu87  1  0.15740300  0.11335500  0.58185600  1
  Cu  Cu88  1  0.84259700  0.11335500  0.08185600  1
  Cu  Cu89  1  0.84259700  0.88664500  0.41814400  1
  Cu  Cu90  1  0.52962300  0.50000000  0.75000000  1
  Cu  Cu91  1  0.47037700  0.50000000  0.25000000  1
  Cu  Cu92  1  0.15443000  0.50000000  0.75000000  1
  Cu  Cu93  1  0.84557000  0.50000000  0.25000000  1
  Cu  Cu94  1  0.33213000  0.22145400  0.80550600  1
  Cu  Cu95  1  0.33213000  0.77854600  0.69449400  1
  Cu  Cu96  1  0.66787000  0.77854600  0.19449400  1
  Cu  Cu97  1  0.66787000  0.22145400  0.30550600  1
  Cu  Cu98  1  0.27553600  0.90808600  0.89915900  1
  Cu  Cu99  1  0.27553600  0.09191400  0.60084100  1
  Cu  Cu100  1  0.72446400  0.09191400  0.10084100  1
  Cu  Cu101  1  0.72446400  0.90808600  0.39915900  1
  Cu  Cu102  1  0.70984000  0.73175600  0.97301900  1
  Cu  Cu103  1  0.70984000  0.26824400  0.52698100  1
  Cu  Cu104  1  0.29016000  0.26824400  0.02698100  1
  Cu  Cu105  1  0.29016000  0.73175600  0.47301900  1
  C  C106  1  0.34899900  0.54131700  0.87946700  1
  C  C107  1  0.34899900  0.45868300  0.62053300  1
  C  C108  1  0.65100100  0.45868300  0.12053300  1
  C  C109  1  0.65100100  0.54131700  0.37946700  1
  C  C110  1  0.12839000  0.73294500  0.96798400  1
  C  C111  1  0.12839000  0.26705500  0.53201600  1
  C  C112  1  0.87161000  0.26705500  0.03201600  1
  C  C113  1  0.87161000  0.73294500  0.46798400  1
  C  C114  1  0.08724900  0.01574400  0.88597600  1
  C  C115  1  0.08724900  0.98425600  0.61402400  1
  C  C116  1  0.91275100  0.98425600  0.11402400  1
  C  C117  1  0.91275100  0.01574400  0.38597600  1
