# generated using pymatgen
data_CuNi13
_symmetry_space_group_name_H-M   'P 1'
_cell_length_a   9.56583529
_cell_length_b   9.56583529
_cell_length_c   9.56583529
_cell_angle_alpha   60.00000000
_cell_angle_beta   60.00000000
_cell_angle_gamma   60.00000000
_symmetry_Int_Tables_number   1
_chemical_formula_structural   CuNi13
_chemical_formula_sum   'Cu4 Ni52'
_cell_volume   618.94733585
_cell_formula_units_Z   4
loop_
 _symmetry_equiv_pos_site_id
 _symmetry_equiv_pos_as_xyz
  1  'x, y, z'
loop_
 _atom_site_type_symbol
 _atom_site_label
 _atom_site_symmetry_multiplicity
 _atom_site_fract_x
 _atom_site_fract_y
 _atom_site_fract_z
 _atom_site_occupancy
  Ni  Ni0  1  0.50000000  0.50000000  0.50000000  1
  Ni  Ni1  1  0.75000000  0.75000000  0.75000000  1
  Ni  Ni2  1  0.73704100  0.50538800  0.50538800  1
  Ni  Ni3  1  0.50538800  0.73704100  0.25218200  1
  Ni  Ni4  1  0.50538800  0.25218200  0.73704100  1
  Ni  Ni5  1  0.50538800  0.73704100  0.50538800  1
  Ni  Ni6  1  0.51295900  0.74461200  0.99781800  1
  Ni  Ni7  1  0.51295900  0.74461200  0.74461200  1
  Ni  Ni8  1  0.25218200  0.50538800  0.50538800  1
  Ni  Ni9  1  0.25218200  0.50538800  0.73704100  1
  Ni  Ni10  1  0.74461200  0.51295900  0.74461200  1
  Ni  Ni11  1  0.74461200  0.51295900  0.99781800  1
  Ni  Ni12  1  0.73704100  0.50538800  0.25218200  1
  Ni  Ni13  1  0.74461200  0.99781800  0.74461200  1
  Ni  Ni14  1  0.74461200  0.99781800  0.51295900  1
  Ni  Ni15  1  0.50538800  0.25218200  0.50538800  1
  Ni  Ni16  1  0.99781800  0.74461200  0.51295900  1
  Ni  Ni17  1  0.99781800  0.74461200  0.74461200  1
  Ni  Ni18  1  0.50538800  0.50538800  0.73704100  1
  Ni  Ni19  1  0.25218200  0.73704100  0.50538800  1
  Ni  Ni20  1  0.50538800  0.50538800  0.25218200  1
  Ni  Ni21  1  0.73704100  0.25218200  0.50538800  1
  Ni  Ni22  1  0.99781800  0.51295900  0.74461200  1
  Ni  Ni23  1  0.74461200  0.74461200  0.51295900  1
  Ni  Ni24  1  0.51295900  0.99781800  0.74461200  1
  Ni  Ni25  1  0.74461200  0.74461200  0.99781800  1
  Ni  Ni26  1  0.00000000  0.00000000  0.00000000  1
  Ni  Ni27  1  0.25000000  0.25000000  0.25000000  1
  Ni  Ni28  1  0.24874700  0.24874700  0.85835500  1
  Ni  Ni29  1  0.24874700  0.24874700  0.64415000  1
  Ni  Ni30  1  0.85835500  0.64415000  0.24874700  1
  Ni  Ni31  1  0.85835500  0.24874700  0.24874700  1
  Ni  Ni32  1  0.00125300  0.00125300  0.60585000  1
  Ni  Ni33  1  0.00125300  0.00125300  0.39164500  1
  Ni  Ni34  1  0.64415000  0.85835500  0.24874700  1
  Ni  Ni35  1  0.64415000  0.24874700  0.24874700  1
  Ni  Ni36  1  0.24874700  0.85835500  0.64415000  1
  Ni  Ni37  1  0.39164500  0.60585000  0.00125300  1
  Ni  Ni38  1  0.24874700  0.64415000  0.85835500  1
  Ni  Ni39  1  0.60585000  0.39164500  0.00125300  1
  Ni  Ni40  1  0.24874700  0.85835500  0.24874700  1
  Ni  Ni41  1  0.39164500  0.00125300  0.60585000  1
  Ni  Ni42  1  0.39164500  0.00125300  0.00125300  1
  Ni  Ni43  1  0.64415000  0.24874700  0.85835500  1
  Ni  Ni44  1  0.00125300  0.39164500  0.00125300  1
  Ni  Ni45  1  0.00125300  0.39164500  0.60585000  1
  Ni  Ni46  1  0.85835500  0.24874700  0.64415000  1
  Ni  Ni47  1  0.00125300  0.60585000  0.00125300  1
  Ni  Ni48  1  0.00125300  0.60585000  0.39164500  1
  Ni  Ni49  1  0.24874700  0.64415000  0.24874700  1
  Ni  Ni50  1  0.60585000  0.00125300  0.39164500  1
  Ni  Ni51  1  0.60585000  0.00125300  0.00125300  1
  Cu  Cu52  1  0.12500000  0.12500000  0.12500000  1
  Cu  Cu53  1  0.12500000  0.12500000  0.62500000  1
  Cu  Cu54  1  0.12500000  0.62500000  0.12500000  1
  Cu  Cu55  1  0.62500000  0.12500000  0.12500000  1
