# generated using pymatgen
data_Cu10Ni2C
_symmetry_space_group_name_H-M   'P 1'
_cell_length_a   13.05375157
_cell_length_b   13.05375157
_cell_length_c   18.32446384
_cell_angle_alpha   90.00000000
_cell_angle_beta   90.00000000
_cell_angle_gamma   119.99999802
_symmetry_Int_Tables_number   1
_chemical_formula_structural   Cu10Ni2C
_chemical_formula_sum   'Cu120 Ni24 C12'
_cell_volume   2704.16136195
_cell_formula_units_Z   12
loop_
 _symmetry_equiv_pos_site_id
 _symmetry_equiv_pos_as_xyz
  1  'x, y, z'
loop_
 _atom_site_type_symbol
 _atom_site_label
 _atom_site_symmetry_multiplicity
 _atom_site_fract_x
 _atom_site_fract_y
 _atom_site_fract_z
 _atom_site_occupancy
  C  C0  1  0.00105161  0.99784850  0.66622852  1
  C  C1  1  0.00215150  0.00320311  0.33289452  1
  C  C2  1  0.99679689  0.99894839  0.99956152  1
  C  C3  1  0.00272824  0.50063720  0.66422877  1
  C  C4  1  0.49936280  0.50209104  0.33089477  1
  C  C5  1  0.49790896  0.99727176  0.99756177  1
  C  C6  1  0.99748347  0.49726057  0.99759667  1
  C  C7  1  0.50273943  0.50022291  0.66426267  1
  C  C8  1  0.49977709  0.00251653  0.33092967  1
  C  C9  1  0.99887580  0.50163888  0.32864070  1
  C  C10  1  0.49836112  0.49723692  0.99530670  1
  C  C11  1  0.50276308  0.00112420  0.66197370  1
  Ni  Ni12  1  0.30851574  0.45926774  0.16199742  1
  Ni  Ni13  1  0.54073226  0.84924800  0.82866342  1
  Ni  Ni14  1  0.15075200  0.69148426  0.49533042  1
  Ni  Ni15  1  0.18966274  0.53838797  0.16242592  1
  Ni  Ni16  1  0.46161203  0.65127477  0.82909192  1
  Ni  Ni17  1  0.34872523  0.81033726  0.49575892  1
  Ni  Ni18  1  0.84804091  0.04088695  0.16741253  1
  Ni  Ni19  1  0.95911305  0.80715396  0.83407853  1
  Ni  Ni20  1  0.19284604  0.15195909  0.50074553  1
  Ni  Ni21  1  0.65016725  0.96158501  0.16595068  1
  Ni  Ni22  1  0.03841499  0.68858224  0.83261668  1
  Ni  Ni23  1  0.31141776  0.34983275  0.49928368  1
  Ni  Ni24  1  0.46296193  0.14873829  0.82922499  1
  Ni  Ni25  1  0.85126171  0.31422363  0.49589099  1
  Ni  Ni26  1  0.68577637  0.53703807  0.16255799  1
  Ni  Ni27  1  0.54008183  0.34638902  0.82870866  1
  Ni  Ni28  1  0.65361098  0.19369281  0.49537466  1
  Ni  Ni29  1  0.80630719  0.45991817  0.16204166  1
  Ni  Ni30  1  0.03699939  0.18737717  0.83254456  1
  Ni  Ni31  1  0.81262283  0.84962222  0.49921056  1
  Ni  Ni32  1  0.15037778  0.96300061  0.16587756  1
  Ni  Ni33  1  0.95984761  0.30794464  0.83202903  1
  Ni  Ni34  1  0.69205536  0.65190297  0.49869503  1
  Ni  Ni35  1  0.34809703  0.04015239  0.16536203  1
  Cu  Cu36  1  0.38139088  0.50847045  0.22844553  1
  Cu  Cu37  1  0.49152955  0.87292043  0.89511153  1
  Cu  Cu38  1  0.12707957  0.61860912  0.56177853  1
  Cu  Cu39  1  0.37917839  0.50966461  0.09475123  1
  Cu  Cu40  1  0.49033539  0.86951378  0.76141723  1
  Cu  Cu41  1  0.13048622  0.62082161  0.42808423  1
  Cu  Cu42  1  0.23421267  0.33174036  0.16190285  1
  Cu  Cu43  1  0.66825964  0.90247230  0.82856885  1
  Cu  Cu44  1  0.09752770  0.76578733  0.49523585  1
  Cu  Cu45  1  0.11497552  0.48482894  0.09698772  1
  Cu  Cu46  1  0.51517106  0.63014657  0.76365372  1
  Cu  Cu47  1  0.36985343  0.88502448  0.43032072  1
  Cu  Cu48  1  0.12099003  0.49271389  0.23073098  1
  Cu  Cu49  1  0.50728611  0.62827614  0.89739698  1
  Cu  Cu50  1  0.37172386  0.87900997  0.56406398  1
  Cu  Cu51  1  0.26264711  0.66600846  0.15948682  1
  Cu  Cu52  1  0.33399154  0.59663865  0.82615282  1
  Cu  Cu53  1  0.40336135  0.73735289  0.49281982  1
  Cu  Cu54  1  0.87212886  0.99121397  0.10133943  1
  Cu  Cu55  1  0.00878603  0.88091489  0.76800543  1
  Cu  Cu56  1  0.11908511  0.12787114  0.43467243  1
  Cu  Cu57  1  0.86830679  0.99075267  0.23477806  1
  Cu  Cu58  1  0.00924733  0.87755413  0.90144406  1
  Cu  Cu59  1  0.12244587  0.13169321  0.56811106  1
  Cu  Cu60  1  0.90152351  0.16837455  0.16734396  1
  Cu  Cu61  1  0.83162545  0.73314896  0.83400996  1
  Cu  Cu62  1  0.26685104  0.09847649  0.50067696  1
  Cu  Cu63  1  0.62888250  0.01593193  0.23086150  1
  Cu  Cu64  1  0.98406807  0.61295057  0.89752750  1
  Cu  Cu65  1  0.38704943  0.37111750  0.56419450  1
  Cu  Cu66  1  0.62722551  0.00618912  0.09723193  1
  Cu  Cu67  1  0.99381088  0.62103639  0.76389793  1
  Cu  Cu68  1  0.37896361  0.37277449  0.43056493  1
  Cu  Cu69  1  0.59578020  0.83399043  0.16935778  1
  Cu  Cu70  1  0.16600957  0.76178977  0.83602378  1
  Cu  Cu71  1  0.23821023  0.40421980  0.50269078  1
  Cu  Cu72  1  0.50847550  0.12654724  0.89783642  1
  Cu  Cu73  1  0.87345276  0.38192826  0.56450242  1
  Cu  Cu74  1  0.61807174  0.49152450  0.23116942  1
  Cu  Cu75  1  0.51775468  0.12887152  0.76395691  1
  Cu  Cu76  1  0.87112848  0.38888316  0.43062291  1
  Cu  Cu77  1  0.61111684  0.48224532  0.09728991  1
  Cu  Cu78  1  0.33535409  0.09327028  0.82596849  1
  Cu  Cu79  1  0.90672972  0.24208381  0.49263449  1
  Cu  Cu80  1  0.75791619  0.66464591  0.15930149  1
  Cu  Cu81  1  0.48880726  0.36600654  0.76160704  1
  Cu  Cu82  1  0.63399346  0.12280071  0.42827304  1
  Cu  Cu83  1  0.87719929  0.51119274  0.09494004  1
  Cu  Cu84  1  0.49037123  0.36947496  0.89521316  1
  Cu  Cu85  1  0.63052504  0.12089626  0.56187916  1
  Cu  Cu86  1  0.87910374  0.50962877  0.22854616  1
  Cu  Cu87  1  0.66768602  0.40142765  0.82830846  1
  Cu  Cu88  1  0.59857235  0.26625837  0.49497446  1
  Cu  Cu89  1  0.73374163  0.33231398  0.16164146  1
  Cu  Cu90  1  0.99082114  0.11864569  0.76432239  1
  Cu  Cu91  1  0.88135431  0.87217545  0.43098839  1
  Cu  Cu92  1  0.12782455  0.00917886  0.09765539  1
  Cu  Cu93  1  0.98266586  0.11347074  0.89820252  1
  Cu  Cu94  1  0.88652926  0.86919512  0.56486852  1
  Cu  Cu95  1  0.13080488  0.01733414  0.23153552  1
  Cu  Cu96  1  0.16465164  0.25918776  0.83547855  1
  Cu  Cu97  1  0.74081224  0.90546388  0.50214455  1
  Cu  Cu98  1  0.09453612  0.83534836  0.16881155  1
  Cu  Cu99  1  0.01143098  0.37933833  0.89887663  1
  Cu  Cu100  1  0.62066167  0.63209265  0.56554263  1
  Cu  Cu101  1  0.36790735  0.98856902  0.23220963  1
  Cu  Cu102  1  0.00871966  0.37995829  0.76519593  1
  Cu  Cu103  1  0.62004171  0.62876137  0.43186193  1
  Cu  Cu104  1  0.37123863  0.99128034  0.09852893  1
  Cu  Cu105  1  0.83224266  0.23494416  0.83277326  1
  Cu  Cu106  1  0.76505584  0.59729850  0.49943926  1
  Cu  Cu107  1  0.40270150  0.16775734  0.16610626  1
  Cu  Cu108  1  0.86553850  0.22461829  0.31537325  1
  Cu  Cu109  1  0.77538171  0.64092021  0.98203925  1
  Cu  Cu110  1  0.35907979  0.13446150  0.64870625  1
  Cu  Cu111  1  0.27715468  0.63578644  0.68325686  1
  Cu  Cu112  1  0.36421356  0.64136823  0.34992286  1
  Cu  Cu113  1  0.35863177  0.72284532  0.01658986  1
  Cu  Cu114  1  0.27731605  0.13437601  0.68253839  1
  Cu  Cu115  1  0.86562399  0.14294003  0.34920439  1
  Cu  Cu116  1  0.85705997  0.72268395  0.01587139  1
  Cu  Cu117  1  0.14139270  0.36476516  0.64457671  1
  Cu  Cu118  1  0.63523484  0.77662753  0.31124271  1
  Cu  Cu119  1  0.22337247  0.85860730  0.97790971  1
  Cu  Cu120  1  0.87436120  0.65227954  0.34928986  1
  Cu  Cu121  1  0.34772046  0.22208167  0.01595586  1
  Cu  Cu122  1  0.77791833  0.12563880  0.68262286  1
  Cu  Cu123  1  0.87649120  0.72779533  0.30775596  1
  Cu  Cu124  1  0.27220467  0.14869586  0.97442196  1
  Cu  Cu125  1  0.85130414  0.12350880  0.64108896  1
  Cu  Cu126  1  0.71960532  0.34985057  0.97862261  1
  Cu  Cu127  1  0.65014943  0.36975474  0.64528861  1
  Cu  Cu128  1  0.63024526  0.28039468  0.31195561  1
  Cu  Cu129  1  0.14965608  0.77863256  0.01703886  1
  Cu  Cu130  1  0.22136744  0.37102352  0.68370486  1
  Cu  Cu131  1  0.62897648  0.85034392  0.35037186  1
  Cu  Cu132  1  0.21997905  0.35706629  0.97765665  1
  Cu  Cu133  1  0.64293371  0.86291275  0.64432265  1
  Cu  Cu134  1  0.13708725  0.78002095  0.31098965  1
  Cu  Cu135  1  0.63417987  0.35906601  0.35135418  1
  Cu  Cu136  1  0.64093399  0.27511387  0.01802018  1
  Cu  Cu137  1  0.72488613  0.36582013  0.68468718  1
  Cu  Cu138  1  0.13750070  0.85835092  0.34900688  1
  Cu  Cu139  1  0.14164908  0.27914977  0.01567288  1
  Cu  Cu140  1  0.72085023  0.86249930  0.68233988  1
  Cu  Cu141  1  0.36557557  0.22471258  0.31018823  1
  Cu  Cu142  1  0.77528742  0.14086298  0.97685423  1
  Cu  Cu143  1  0.85913702  0.63442443  0.64352123  1
  Cu  Cu144  1  0.64777613  0.77043851  0.01898986  1
  Cu  Cu145  1  0.22956149  0.87733762  0.68565586  1
  Cu  Cu146  1  0.12266238  0.35222387  0.35232286  1
  Cu  Cu147  1  0.72455126  0.85021585  0.98185345  1
  Cu  Cu148  1  0.14978415  0.87433540  0.64851945  1
  Cu  Cu149  1  0.12566460  0.27544874  0.31518645  1
  Cu  Cu150  1  0.35102229  0.62982583  0.64409305  1
  Cu  Cu151  1  0.37017417  0.72119646  0.31075905  1
  Cu  Cu152  1  0.27880354  0.64897771  0.97742605  1
  Cu  Cu153  1  0.78058130  0.62957422  0.68342318  1
  Cu  Cu154  1  0.37042578  0.15100707  0.35008918  1
  Cu  Cu155  1  0.84899293  0.21941870  0.01675618  1
