# generated using pymatgen
data_CuNiC12
_symmetry_space_group_name_H-M   'P 1'
_cell_length_a   6.28447300
_cell_length_b   7.24748800
_cell_length_c   14.20242800
_cell_angle_alpha   90.00000000
_cell_angle_beta   90.00000000
_cell_angle_gamma   90.00000000
_symmetry_Int_Tables_number   1
_chemical_formula_structural   CuNiC12
_chemical_formula_sum   'Cu4 Ni4 C48'
_cell_volume   646.87291293
_cell_formula_units_Z   4
loop_
 _symmetry_equiv_pos_site_id
 _symmetry_equiv_pos_as_xyz
  1  'x, y, z'
loop_
 _atom_site_type_symbol
 _atom_site_label
 _atom_site_symmetry_multiplicity
 _atom_site_fract_x
 _atom_site_fract_y
 _atom_site_fract_z
 _atom_site_occupancy
  Ni  Ni0  1  0.75000000  0.40900700  0.22400200  1
  Ni  Ni1  1  0.75000000  0.09099300  0.72400200  1
  Ni  Ni2  1  0.25000000  0.59099300  0.77599800  1
  Ni  Ni3  1  0.25000000  0.90900700  0.27599800  1
  C  C4  1  0.75000000  0.85447700  0.11783000  1
  C  C5  1  0.25000000  0.14552300  0.88217000  1
  C  C6  1  0.25000000  0.35447700  0.38217000  1
  C  C7  1  0.75000000  0.64552300  0.61783000  1
  Cu  Cu8  1  0.00000000  0.50000000  0.00000000  1
  Cu  Cu9  1  0.00000000  0.00000000  0.50000000  1
  Cu  Cu10  1  0.50000000  0.00000000  0.50000000  1
  Cu  Cu11  1  0.50000000  0.50000000  0.00000000  1
  C  C12  1  0.25000000  0.85755500  0.07010500  1
  C  C13  1  0.75000000  0.14244500  0.92989500  1
  C  C14  1  0.75000000  0.35755500  0.42989500  1
  C  C15  1  0.25000000  0.64244500  0.57010500  1
  C  C16  1  0.75000000  0.88143200  0.30372000  1
  C  C17  1  0.25000000  0.11856800  0.69628000  1
  C  C18  1  0.25000000  0.38143200  0.19628000  1
  C  C19  1  0.75000000  0.61856800  0.80372000  1
  C  C20  1  0.46096900  0.11027200  0.63829800  1
  C  C21  1  0.96096900  0.88972800  0.36170200  1
  C  C22  1  0.53903100  0.61027200  0.86170200  1
  C  C23  1  0.03903100  0.38972800  0.13829800  1
  C  C24  1  0.53903100  0.88972800  0.36170200  1
  C  C25  1  0.03903100  0.11027200  0.63829800  1
  C  C26  1  0.46096900  0.38972800  0.13829800  1
  C  C27  1  0.96096900  0.61027200  0.86170200  1
  C  C28  1  0.25000000  0.83340800  0.52183000  1
  C  C29  1  0.75000000  0.16659200  0.47817000  1
  C  C30  1  0.75000000  0.33340800  0.97817000  1
  C  C31  1  0.25000000  0.66659200  0.02183000  1
  C  C32  1  0.75000000  0.63352200  0.04910800  1
  C  C33  1  0.25000000  0.36647800  0.95089200  1
  C  C34  1  0.25000000  0.13352200  0.45089200  1
  C  C35  1  0.75000000  0.86647800  0.54910800  1
  C  C36  1  0.75000000  0.69992500  0.24265500  1
  C  C37  1  0.25000000  0.30007500  0.75734500  1
  C  C38  1  0.25000000  0.19992500  0.25734500  1
  C  C39  1  0.75000000  0.80007500  0.74265500  1
  C  C40  1  0.06261400  0.62809800  0.64040600  1
  C  C41  1  0.56261400  0.37190200  0.35959400  1
  C  C42  1  0.93738600  0.12809800  0.85959400  1
  C  C43  1  0.43738600  0.87190200  0.14040600  1
  C  C44  1  0.93738600  0.37190200  0.35959400  1
  C  C45  1  0.43738600  0.62809800  0.64040600  1
  C  C46  1  0.06261400  0.87190200  0.14040600  1
  C  C47  1  0.56261400  0.12809800  0.85959400  1
  C  C48  1  0.75000000  0.46245500  0.72743200  1
  C  C49  1  0.25000000  0.53754500  0.27256800  1
  C  C50  1  0.25000000  0.96245500  0.77256800  1
  C  C51  1  0.75000000  0.03754500  0.22743200  1
  C  C52  1  0.75000000  0.50677700  0.50370100  1
  C  C53  1  0.25000000  0.49322300  0.49629900  1
  C  C54  1  0.25000000  0.00677700  0.99629900  1
  C  C55  1  0.75000000  0.99322300  0.00370100  1
