# generated using pymatgen
data_Cu3(Ni3C16)2
_symmetry_space_group_name_H-M   'P 1'
_cell_length_a   7.83427843
_cell_length_b   7.69740098
_cell_length_c   23.14424758
_cell_angle_alpha   108.96135666
_cell_angle_beta   110.35384111
_cell_angle_gamma   109.43561701
_symmetry_Int_Tables_number   1
_chemical_formula_structural   Cu3(Ni3C16)2
_chemical_formula_sum   'Cu6 Ni12 C64'
_cell_volume   1069.77939941
_cell_formula_units_Z   2
loop_
 _symmetry_equiv_pos_site_id
 _symmetry_equiv_pos_as_xyz
  1  'x, y, z'
loop_
 _atom_site_type_symbol
 _atom_site_label
 _atom_site_symmetry_multiplicity
 _atom_site_fract_x
 _atom_site_fract_y
 _atom_site_fract_z
 _atom_site_occupancy
  C  C0  1  0.00263500  0.01434800  0.90318300  1
  C  C1  1  0.01397400  0.73307400  0.67211500  1
  C  C2  1  0.28415400  0.28188000  0.76742400  1
  C  C3  1  0.02127500  0.70825600  0.33412100  1
  C  C4  1  0.01350000  0.99254500  0.23508200  1
  C  C5  1  0.01833700  0.99786300  0.55876000  1
  C  C6  1  0.29600400  0.28995100  0.42903000  1
  C  C7  1  0.70410600  0.98249700  0.68652900  1
  C  C8  1  0.29751700  0.30427700  0.09818900  1
  C  C9  1  0.68244300  0.98743600  0.33161300  1
  C  C10  1  0.71574900  0.00572900  0.99824500  1
  C  C11  1  0.99032000  0.70585700  0.99780300  1
  Ni  Ni12  1  0.24185700  0.50249000  0.91896000  1
  Ni  Ni13  1  0.49015200  0.24777800  0.91370700  1
  Ni  Ni14  1  0.48911700  0.73837000  0.75424200  1
  Ni  Ni15  1  0.25043300  0.75704000  0.50084100  1
  Ni  Ni16  1  0.74335600  0.25063800  0.83380300  1
  Ni  Ni17  1  0.74216300  0.49656600  0.74982600  1
  Ni  Ni18  1  0.49659000  0.73708700  0.41748000  1
  Ni  Ni19  1  0.25047900  0.75768800  0.16595800  1
  Ni  Ni20  1  0.74401900  0.49165100  0.41525800  1
  Ni  Ni21  1  0.75305500  0.23708300  0.49851000  1
  Ni  Ni22  1  0.75207800  0.24160500  0.16457800  1
  Ni  Ni23  1  0.74792700  0.49788300  0.08072400  1
  Cu  Cu24  1  0.23858800  0.74572200  0.83314000  1
  Cu  Cu25  1  0.25318700  0.50121500  0.58336800  1
  Cu  Cu26  1  0.51201700  0.26273200  0.58404200  1
  Cu  Cu27  1  0.25787600  0.50088800  0.24918700  1
  Cu  Cu28  1  0.50288500  0.74989300  0.08406800  1
  Cu  Cu29  1  0.51292900  0.26304800  0.25017500  1
  C  C30  1  0.65817800  0.64788000  0.87857200  1
  C  C31  1  0.37467600  0.05162900  0.67744600  1
  C  C32  1  0.39406200  0.04804200  0.34975100  1
  C  C33  1  0.37016700  0.04099200  0.01543100  1
  C  C34  1  0.42228000  0.98395600  0.90043700  1
  C  C35  1  0.27115000  0.56915600  0.85383100  1
  C  C36  1  0.89574900  0.07428300  0.63640000  1
  C  C37  1  0.98229200  0.99371600  0.39399300  1
  C  C38  1  0.01664400  0.42115200  0.57178700  1
  C  C39  1  0.27589100  0.28306600  0.90756400  1
  C  C40  1  0.26101900  0.70383800  0.76135800  1
  C  C41  1  0.99623900  0.71351700  0.47842200  1
  C  C42  1  0.42992500  0.02411300  0.57334100  1
  C  C43  1  0.41598600  0.69349900  0.66533800  1
  C  C44  1  0.22841900  0.00726000  0.66408700  1
  C  C45  1  0.70878800  0.99233800  0.80917900  1
  C  C46  1  0.29069300  0.57470600  0.52814900  1
  C  C47  1  0.77200500  0.77792600  0.92239200  1
  C  C48  1  0.97406600  0.17555400  0.33070300  1
  C  C49  1  0.01286500  0.01606000  0.07605600  1
  C  C50  1  0.54404900  0.27457200  0.84832400  1
  C  C51  1  0.01932500  0.42041500  0.23676300  1
  C  C52  1  0.30143800  0.29816200  0.56993500  1
  C  C53  1  0.27751200  0.71391600  0.42646500  1
  C  C54  1  0.54667000  0.54283800  0.76041700  1
  C  C55  1  0.71172000  0.26981500  0.75625200  1
  C  C56  1  0.42570800  0.70020900  0.32982100  1
  C  C57  1  0.43768300  0.02294000  0.23903200  1
  C  C58  1  0.24698300  0.00182500  0.33500300  1
  C  C59  1  0.70989700  0.44835800  0.66364000  1
  C  C60  1  0.72258100  0.98683600  0.47798400  1
  C  C61  1  0.29446100  0.57736900  0.19411000  1
  C  C62  1  0.78554500  0.85262700  0.59407300  1
  C  C63  1  0.00844000  0.23018900  0.00328000  1
  C  C64  1  0.00485300  0.00002500  0.74153700  1
  C  C65  1  0.99402900  0.44693700  0.90831200  1
  C  C66  1  0.00332000  0.71576400  0.81221800  1
  C  C67  1  0.57711100  0.29009200  0.52585000  1
  C  C68  1  0.30067700  0.72432000  0.09544400  1
  C  C69  1  0.54597700  0.53651900  0.42318200  1
  C  C70  1  0.30496500  0.29859700  0.23884600  1
  C  C71  1  0.44504900  0.72849900  0.00579100  1
  C  C72  1  0.70906800  0.26413600  0.42316400  1
  C  C73  1  0.22400800  0.00307200  0.00053200  1
  C  C74  1  0.71422300  0.43925900  0.32987500  1
  C  C75  1  0.71223300  0.98539500  0.14671700  1
  C  C76  1  0.80323500  0.81216800  0.27125000  1
  C  C77  1  0.57959500  0.29360700  0.19300500  1
  C  C78  1  0.56200300  0.57094100  0.09346900  1
  C  C79  1  0.70078700  0.26899100  0.08971700  1
  C  C80  1  0.71952700  0.43450700  0.99721000  1
  C  C81  1  0.00137200  0.71939300  0.14727300  1
