# generated using pymatgen
data_Cu(NiC8)2
_symmetry_space_group_name_H-M   'P 1'
_cell_length_a   6.06762549
_cell_length_b   7.86372172
_cell_length_c   11.54471300
_cell_angle_alpha   90.00000000
_cell_angle_beta   90.00000000
_cell_angle_gamma   109.54316191
_symmetry_Int_Tables_number   1
_chemical_formula_structural   Cu(NiC8)2
_chemical_formula_sum   'Cu2 Ni4 C32'
_cell_volume   519.11144449
_cell_formula_units_Z   2
loop_
 _symmetry_equiv_pos_site_id
 _symmetry_equiv_pos_as_xyz
  1  'x, y, z'
loop_
 _atom_site_type_symbol
 _atom_site_label
 _atom_site_symmetry_multiplicity
 _atom_site_fract_x
 _atom_site_fract_y
 _atom_site_fract_z
 _atom_site_occupancy
  C  C0  1  0.83102000  0.61823300  0.14433600  1
  C  C1  1  0.16898000  0.38176700  0.85566400  1
  C  C2  1  0.16898000  0.88176700  0.64433600  1
  C  C3  1  0.83102000  0.11823300  0.35566400  1
  Ni  Ni4  1  0.78005300  0.62525500  0.82660300  1
  Ni  Ni5  1  0.21994700  0.37474500  0.17339700  1
  Ni  Ni6  1  0.21994700  0.87474500  0.32660300  1
  Ni  Ni7  1  0.78005300  0.12525500  0.67339700  1
  Cu  Cu8  1  0.50000000  0.00000000  0.00000000  1
  Cu  Cu9  1  0.50000000  0.50000000  0.50000000  1
  C  C10  1  0.64647400  0.93949100  0.90600100  1
  C  C11  1  0.35352600  0.06050900  0.09399900  1
  C  C12  1  0.35352600  0.56050900  0.40600100  1
  C  C13  1  0.64647400  0.43949100  0.59399900  1
  C  C14  1  0.59132200  0.73973600  0.58137500  1
  C  C15  1  0.40867800  0.26026400  0.41862500  1
  C  C16  1  0.40867800  0.76026400  0.08137500  1
  C  C17  1  0.59132200  0.23973600  0.91862500  1
  C  C18  1  0.51606400  0.86233400  0.90464700  1
  C  C19  1  0.48393600  0.13766600  0.09535300  1
  C  C20  1  0.48393600  0.63766600  0.40464700  1
  C  C21  1  0.51606400  0.36233400  0.59535300  1
  C  C22  1  0.55235300  0.63115500  0.78336300  1
  C  C23  1  0.44764700  0.36884500  0.21663700  1
  C  C24  1  0.44764700  0.86884500  0.28336300  1
  C  C25  1  0.55235300  0.13115500  0.71663700  1
  C  C26  1  0.89572800  0.72366400  0.93028300  1
  C  C27  1  0.10427200  0.27633600  0.06971700  1
  C  C28  1  0.10427200  0.77633600  0.43028300  1
  C  C29  1  0.89572800  0.22366400  0.56971700  1
  C  C30  1  0.63586200  0.87221200  0.57284600  1
  C  C31  1  0.36413800  0.12778800  0.42715400  1
  C  C32  1  0.36413800  0.62778800  0.07284600  1
  C  C33  1  0.63586200  0.37221200  0.92715400  1
  C  C34  1  0.93051800  0.56639200  0.74422600  1
  C  C35  1  0.06948200  0.43360800  0.25577400  1
  C  C36  1  0.06948200  0.93360800  0.24422600  1
  C  C37  1  0.93051800  0.06639200  0.75577400  1
