# generated using pymatgen
data_Cu10Ni4C13
_symmetry_space_group_name_H-M   'P 1'
_cell_length_a   8.11205500
_cell_length_b   9.38491796
_cell_length_c   11.60167623
_cell_angle_alpha   113.40783494
_cell_angle_beta   98.37314326
_cell_angle_gamma   100.57526639
_symmetry_Int_Tables_number   1
_chemical_formula_structural   Cu10Ni4C13
_chemical_formula_sum   'Cu20 Ni8 C26'
_cell_volume   773.05669140
_cell_formula_units_Z   2
loop_
 _symmetry_equiv_pos_site_id
 _symmetry_equiv_pos_as_xyz
  1  'x, y, z'
loop_
 _atom_site_type_symbol
 _atom_site_label
 _atom_site_symmetry_multiplicity
 _atom_site_fract_x
 _atom_site_fract_y
 _atom_site_fract_z
 _atom_site_occupancy
  Ni  Ni0  1  0.77886200  0.66530600  0.75542700  1
  Ni  Ni1  1  0.22113800  0.33469400  0.24457300  1
  Ni  Ni2  1  0.26795700  0.67439300  0.24502300  1
  Ni  Ni3  1  0.55730000  0.23412000  0.25032400  1
  Ni  Ni4  1  0.91665800  0.77229200  0.25132200  1
  Ni  Ni5  1  0.73204300  0.32560700  0.75497700  1
  Ni  Ni6  1  0.44270000  0.76588000  0.74967600  1
  Ni  Ni7  1  0.08334200  0.22770800  0.74867800  1
  Cu  Cu8  1  0.11075400  0.95212500  0.64163900  1
  Cu  Cu9  1  0.15912800  0.49259700  0.91663600  1
  Cu  Cu10  1  0.57663000  0.96305900  0.16101100  1
  Cu  Cu11  1  0.33406600  0.93879100  0.43272800  1
  Cu  Cu12  1  0.21382200  0.10112700  0.07014600  1
  Cu  Cu13  1  0.15082700  0.80284800  0.92860300  1
  Cu  Cu14  1  0.32020000  0.50947100  0.56951300  1
  Cu  Cu15  1  0.84917300  0.19715200  0.07139700  1
  Cu  Cu16  1  0.84087200  0.50740300  0.08336400  1
  Cu  Cu17  1  0.67980000  0.49052900  0.43048700  1
  Cu  Cu18  1  0.78617800  0.89887300  0.92985400  1
  Cu  Cu19  1  0.98599400  0.38931100  0.42905000  1
  Cu  Cu20  1  0.56093200  0.64778900  0.08398800  1
  Cu  Cu21  1  0.43906800  0.35221100  0.91601200  1
  Cu  Cu22  1  0.63293400  0.78920400  0.44799100  1
  Cu  Cu23  1  0.42337000  0.03694100  0.83898900  1
  Cu  Cu24  1  0.66593400  0.06120900  0.56727200  1
  Cu  Cu25  1  0.88924600  0.04787500  0.35836100  1
  Cu  Cu26  1  0.01400600  0.61068900  0.57095000  1
  Cu  Cu27  1  0.36706600  0.21079600  0.55200900  1
  C  C28  1  0.59473500  0.36329500  0.61322500  1
  C  C29  1  0.62005000  0.31772700  0.11444900  1
  C  C30  1  0.72455000  0.20488200  0.37707400  1
  C  C31  1  0.35635300  0.77016000  0.12341400  1
  C  C32  1  0.83066900  0.49590100  0.76345400  1
  C  C33  1  0.88385800  0.68903400  0.89020300  1
  C  C34  1  0.18583300  0.08935400  0.87932100  1
  C  C35  1  0.27545000  0.79511800  0.62292600  1
  C  C36  1  0.64364700  0.22984000  0.87658600  1
  C  C37  1  0.40526500  0.63670500  0.38677500  1
  C  C38  1  0.43332600  0.35618900  0.25489700  1
  C  C39  1  0.16933100  0.50409900  0.23654600  1
  C  C40  1  0.11614200  0.31096600  0.10979700  1
  C  C41  1  0.81416700  0.91064600  0.12067900  1
  C  C42  1  0.17464100  0.19350000  0.37313700  1
  C  C43  1  0.82535900  0.80650000  0.62686300  1
  C  C44  1  0.18342100  0.40368800  0.73465200  1
  C  C45  1  0.56173800  0.93249700  0.74388400  1
  C  C46  1  0.93356100  0.80962700  0.38038700  1
  C  C47  1  0.11286800  0.77692000  0.23175800  1
  C  C48  1  0.88713200  0.22308000  0.76824200  1
  C  C49  1  0.37995000  0.68227300  0.88555100  1
  C  C50  1  0.06643900  0.19037300  0.61961300  1
  C  C51  1  0.81657900  0.59631200  0.26534800  1
  C  C52  1  0.43826200  0.06750300  0.25611600  1
  C  C53  1  0.56667400  0.64381100  0.74510300  1
