# generated using pymatgen
data_CuNi10C7
_symmetry_space_group_name_H-M   'P 1'
_cell_length_a   9.17999300
_cell_length_b   9.18521900
_cell_length_c   10.53311100
_cell_angle_alpha   90.00000000
_cell_angle_beta   90.00000000
_cell_angle_gamma   90.00000000
_symmetry_Int_Tables_number   1
_chemical_formula_structural   CuNi10C7
_chemical_formula_sum   'Cu4 Ni40 C28'
_cell_volume   888.15451197
_cell_formula_units_Z   4
loop_
 _symmetry_equiv_pos_site_id
 _symmetry_equiv_pos_as_xyz
  1  'x, y, z'
loop_
 _atom_site_type_symbol
 _atom_site_label
 _atom_site_symmetry_multiplicity
 _atom_site_fract_x
 _atom_site_fract_y
 _atom_site_fract_z
 _atom_site_occupancy
  C  C0  1  0.52228900  0.23076200  0.00000000  1
  C  C1  1  0.47771100  0.76923800  0.00000000  1
  C  C2  1  0.02228900  0.26923800  0.50000000  1
  C  C3  1  0.97771100  0.73076200  0.50000000  1
  C  C4  1  0.24034900  0.51446100  0.00000000  1
  C  C5  1  0.75965100  0.48553900  0.00000000  1
  C  C6  1  0.25965100  0.01446100  0.50000000  1
  C  C7  1  0.74034900  0.98553900  0.50000000  1
  C  C8  1  0.94172100  0.18467900  0.00000000  1
  C  C9  1  0.05827900  0.81532100  0.00000000  1
  C  C10  1  0.44172100  0.31532100  0.50000000  1
  C  C11  1  0.55827900  0.68467900  0.50000000  1
  C  C12  1  0.74761800  0.25647800  0.69313900  1
  C  C13  1  0.25238200  0.74352200  0.69313900  1
  C  C14  1  0.24761800  0.24352200  0.19313900  1
  C  C15  1  0.75238200  0.75647800  0.19313900  1
  C  C16  1  0.25238200  0.74352200  0.30686100  1
  C  C17  1  0.74761800  0.25647800  0.30686100  1
  C  C18  1  0.75238200  0.75647800  0.80686100  1
  C  C19  1  0.24761800  0.24352200  0.80686100  1
  C  C20  1  0.50000000  0.50000000  0.75774600  1
  C  C21  1  0.00000000  0.00000000  0.25774600  1
  C  C22  1  0.50000000  0.50000000  0.24225400  1
  C  C23  1  0.00000000  0.00000000  0.74225400  1
  C  C24  1  0.50000000  0.00000000  0.74807400  1
  C  C25  1  0.00000000  0.50000000  0.24807400  1
  C  C26  1  0.50000000  0.00000000  0.25192600  1
  C  C27  1  0.00000000  0.50000000  0.75192600  1
  Ni  Ni28  1  0.74635600  0.26095300  0.85747500  1
  Ni  Ni29  1  0.25364400  0.73904700  0.85747500  1
  Ni  Ni30  1  0.24635600  0.23904700  0.35747500  1
  Ni  Ni31  1  0.75364400  0.76095300  0.35747500  1
  Ni  Ni32  1  0.25364400  0.73904700  0.14252500  1
  Ni  Ni33  1  0.74635600  0.26095300  0.14252500  1
  Ni  Ni34  1  0.75364400  0.76095300  0.64252500  1
  Ni  Ni35  1  0.24635600  0.23904700  0.64252500  1
  Ni  Ni36  1  0.59658300  0.09437400  0.65986300  1
  Ni  Ni37  1  0.40341700  0.90562600  0.65986300  1
  Ni  Ni38  1  0.09658300  0.40562600  0.15986300  1
  Ni  Ni39  1  0.90341700  0.59437400  0.15986300  1
  Ni  Ni40  1  0.40341700  0.90562600  0.34013700  1
  Ni  Ni41  1  0.59658300  0.09437400  0.34013700  1
  Ni  Ni42  1  0.90341700  0.59437400  0.84013700  1
  Ni  Ni43  1  0.09658300  0.40562600  0.84013700  1
  Ni  Ni44  1  0.09224700  0.59756000  0.66275900  1
  Ni  Ni45  1  0.90775300  0.40244000  0.66275900  1
  Ni  Ni46  1  0.40775300  0.09756000  0.16275900  1
  Ni  Ni47  1  0.59224700  0.90244000  0.16275900  1
  Ni  Ni48  1  0.90775300  0.40244000  0.33724100  1
  Ni  Ni49  1  0.09224700  0.59756000  0.33724100  1
  Ni  Ni50  1  0.59224700  0.90244000  0.83724100  1
  Ni  Ni51  1  0.40775300  0.09756000  0.83724100  1
  Ni  Ni52  1  0.59222500  0.40587600  0.66505800  1
  Ni  Ni53  1  0.40777500  0.59412400  0.66505800  1
  Ni  Ni54  1  0.09222500  0.09412400  0.16505800  1
  Ni  Ni55  1  0.90777500  0.90587600  0.16505800  1
  Ni  Ni56  1  0.40777500  0.59412400  0.33494200  1
  Ni  Ni57  1  0.59222500  0.40587600  0.33494200  1
  Ni  Ni58  1  0.90777500  0.90587600  0.83494200  1
  Ni  Ni59  1  0.09222500  0.09412400  0.83494200  1
  Ni  Ni60  1  0.90399500  0.09550700  0.65525400  1
  Ni  Ni61  1  0.09600500  0.90449300  0.65525400  1
  Ni  Ni62  1  0.40399500  0.40449300  0.15525400  1
  Ni  Ni63  1  0.59600500  0.59550700  0.15525400  1
  Ni  Ni64  1  0.09600500  0.90449300  0.34474600  1
  Ni  Ni65  1  0.90399500  0.09550700  0.34474600  1
  Ni  Ni66  1  0.59600500  0.59550700  0.84474600  1
  Ni  Ni67  1  0.40399500  0.40449300  0.84474600  1
  Cu  Cu68  1  0.74690600  0.25120000  0.50000000  1
  Cu  Cu69  1  0.25309400  0.74880000  0.50000000  1
  Cu  Cu70  1  0.24690600  0.24880000  0.00000000  1
  Cu  Cu71  1  0.75309400  0.75120000  0.00000000  1
