# generated using pymatgen
data_Cu3NiC2
_symmetry_space_group_name_H-M   'P 1'
_cell_length_a   4.75541954
_cell_length_b   4.75541954
_cell_length_c   7.55486800
_cell_angle_alpha   90.00000000
_cell_angle_beta   90.00000000
_cell_angle_gamma   119.99999367
_symmetry_Int_Tables_number   1
_chemical_formula_structural   Cu3NiC2
_chemical_formula_sum   'Cu6 Ni2 C4'
_cell_volume   147.95689779
_cell_formula_units_Z   2
loop_
 _symmetry_equiv_pos_site_id
 _symmetry_equiv_pos_as_xyz
  1  'x, y, z'
loop_
 _atom_site_type_symbol
 _atom_site_label
 _atom_site_symmetry_multiplicity
 _atom_site_fract_x
 _atom_site_fract_y
 _atom_site_fract_z
 _atom_site_occupancy
  Ni  Ni0  1  0.00000000  0.00000000  0.00000000  1
  Ni  Ni1  1  0.00000000  0.00000000  0.50000000  1
  Cu  Cu2  1  0.83061700  0.16938300  0.75000000  1
  Cu  Cu3  1  0.83061700  0.66123300  0.75000000  1
  Cu  Cu4  1  0.33876700  0.16938300  0.75000000  1
  Cu  Cu5  1  0.16938300  0.83061700  0.25000000  1
  Cu  Cu6  1  0.16938300  0.33876700  0.25000000  1
  Cu  Cu7  1  0.66123300  0.83061700  0.25000000  1
  C  C8  1  0.33333300  0.66666700  0.93701500  1
  C  C9  1  0.66666700  0.33333300  0.06298500  1
  C  C10  1  0.66666700  0.33333300  0.43701500  1
  C  C11  1  0.33333300  0.66666700  0.56298500  1
