# generated using pymatgen
data_Cu2NiC16
_symmetry_space_group_name_H-M   'P 1'
_cell_length_a   5.46632088
_cell_length_b   5.43672305
_cell_length_c   10.10078930
_cell_angle_alpha   89.77354558
_cell_angle_beta   89.83724697
_cell_angle_gamma   60.06221905
_symmetry_Int_Tables_number   1
_chemical_formula_structural   Cu2NiC16
_chemical_formula_sum   'Cu2 Ni1 C16'
_cell_volume   260.12770502
_cell_formula_units_Z   1
loop_
 _symmetry_equiv_pos_site_id
 _symmetry_equiv_pos_as_xyz
  1  'x, y, z'
loop_
 _atom_site_type_symbol
 _atom_site_label
 _atom_site_symmetry_multiplicity
 _atom_site_fract_x
 _atom_site_fract_y
 _atom_site_fract_z
 _atom_site_occupancy
  C  C0  1  0.99957800  0.99898000  0.49835800  1
  C  C1  1  0.00104800  0.99883800  0.99458700  1
  Ni  Ni2  1  0.66612900  0.66748200  0.01881700  1
  Cu  Cu3  1  0.32766400  0.33548100  0.75722300  1
  Cu  Cu4  1  0.66780200  0.66569300  0.28238800  1
  C  C5  1  0.66729900  0.66558600  0.73854300  1
  C  C6  1  0.33331000  0.33272600  0.24078800  1
  C  C7  1  0.97814200  0.37376100  0.64201800  1
  C  C8  1  0.64791700  0.97607200  0.64091400  1
  C  C9  1  0.37254800  0.64341700  0.64570400  1
  C  C10  1  0.61320300  0.01116600  0.13012600  1
  C  C11  1  0.37523200  0.61443700  0.13021000  1
  C  C12  1  0.01087600  0.37573700  0.13048500  1
  C  C13  1  0.04127200  0.62646300  0.34982000  1
  C  C14  1  0.33217400  0.03792500  0.34979200  1
  C  C15  1  0.62698500  0.33030200  0.34997300  1
  C  C16  1  0.39462400  0.95804400  0.86715500  1
  C  C17  1  0.65472900  0.39588300  0.87085900  1
  C  C18  1  0.95196800  0.65450700  0.86848800  1
