# generated using pymatgen
data_Cu3NiC7
_symmetry_space_group_name_H-M   'P 1'
_cell_length_a   5.43926300
_cell_length_b   10.14529900
_cell_length_c   10.40194100
_cell_angle_alpha   90.00000000
_cell_angle_beta   90.00000000
_cell_angle_gamma   90.00000000
_symmetry_Int_Tables_number   1
_chemical_formula_structural   Cu3NiC7
_chemical_formula_sum   'Cu12 Ni4 C28'
_cell_volume   574.00978464
_cell_formula_units_Z   4
loop_
 _symmetry_equiv_pos_site_id
 _symmetry_equiv_pos_as_xyz
  1  'x, y, z'
loop_
 _atom_site_type_symbol
 _atom_site_label
 _atom_site_symmetry_multiplicity
 _atom_site_fract_x
 _atom_site_fract_y
 _atom_site_fract_z
 _atom_site_occupancy
  Ni  Ni0  1  0.37313700  0.06079000  0.25000000  1
  Ni  Ni1  1  0.87313700  0.43921000  0.75000000  1
  Ni  Ni2  1  0.62686300  0.93921000  0.75000000  1
  Ni  Ni3  1  0.12686300  0.56079000  0.25000000  1
  Cu  Cu4  1  0.71077100  0.68736700  0.96939300  1
  Cu  Cu5  1  0.21077100  0.81263300  0.03060700  1
  Cu  Cu6  1  0.28922900  0.31263300  0.46939300  1
  Cu  Cu7  1  0.78922900  0.18736700  0.53060700  1
  Cu  Cu8  1  0.69958300  0.77940700  0.25000000  1
  Cu  Cu9  1  0.19958300  0.72059300  0.75000000  1
  Cu  Cu10  1  0.30041700  0.22059300  0.75000000  1
  Cu  Cu11  1  0.80041700  0.27940700  0.25000000  1
  Cu  Cu12  1  0.21077100  0.81263300  0.46939300  1
  Cu  Cu13  1  0.71077100  0.68736700  0.53060700  1
  Cu  Cu14  1  0.78922900  0.18736700  0.96939300  1
  Cu  Cu15  1  0.28922900  0.31263300  0.03060700  1
  C  C16  1  0.05015500  0.28688300  0.87843600  1
  C  C17  1  0.55015500  0.21311700  0.12156400  1
  C  C18  1  0.94984500  0.71311700  0.37843600  1
  C  C19  1  0.44984500  0.78688300  0.62156400  1
  C  C20  1  0.94984500  0.71311700  0.12156400  1
  C  C21  1  0.44984500  0.78688300  0.87843600  1
  C  C22  1  0.05015500  0.28688300  0.62156400  1
  C  C23  1  0.55015500  0.21311700  0.37843600  1
  C  C24  1  0.52712100  0.28081300  0.88325200  1
  C  C25  1  0.02712100  0.21918700  0.11674800  1
  C  C26  1  0.47287900  0.71918700  0.38325200  1
  C  C27  1  0.97287900  0.78081300  0.61674800  1
  C  C28  1  0.47287900  0.71918700  0.11674800  1
  C  C29  1  0.97287900  0.78081300  0.88325200  1
  C  C30  1  0.52712100  0.28081300  0.61674800  1
  C  C31  1  0.02712100  0.21918700  0.38325200  1
  C  C32  1  0.82000200  0.44646900  0.25000000  1
  C  C33  1  0.32000200  0.05353100  0.75000000  1
  C  C34  1  0.17999800  0.55353100  0.75000000  1
  C  C35  1  0.67999800  0.94646900  0.25000000  1
  C  C36  1  0.77671200  0.03510600  0.59759600  1
  C  C37  1  0.27671200  0.46489400  0.40240400  1
  C  C38  1  0.22328800  0.96489400  0.09759600  1
  C  C39  1  0.72328800  0.53510600  0.90240400  1
  C  C40  1  0.22328800  0.96489400  0.40240400  1
  C  C41  1  0.72328800  0.53510600  0.59759600  1
  C  C42  1  0.77671200  0.03510600  0.90240400  1
  C  C43  1  0.27671200  0.46489400  0.09759600  1
