# generated using pymatgen
data_Cu8Ni3C
_symmetry_space_group_name_H-M   'P 1'
_cell_length_a   4.85251229
_cell_length_b   4.85251229
_cell_length_c   8.04993500
_cell_angle_alpha   90.00000000
_cell_angle_beta   90.00000000
_cell_angle_gamma   120.00000397
_symmetry_Int_Tables_number   1
_chemical_formula_structural   Cu8Ni3C
_chemical_formula_sum   'Cu8 Ni3 C1'
_cell_volume   164.15581670
_cell_formula_units_Z   1
loop_
 _symmetry_equiv_pos_site_id
 _symmetry_equiv_pos_as_xyz
  1  'x, y, z'
loop_
 _atom_site_type_symbol
 _atom_site_label
 _atom_site_symmetry_multiplicity
 _atom_site_fract_x
 _atom_site_fract_y
 _atom_site_fract_z
 _atom_site_occupancy
  Ni  Ni0  1  0.33333300  0.66666700  0.55604300  1
  Ni  Ni1  1  0.33333300  0.66666700  0.93517500  1
  Ni  Ni2  1  0.00000000  0.00000000  0.07924000  1
  Cu  Cu3  1  0.66666700  0.33333300  0.49630400  1
  Cu  Cu4  1  0.66666700  0.33333300  0.99285600  1
  Cu  Cu5  1  0.49567600  0.50432400  0.25648300  1
  Cu  Cu6  1  0.49567600  0.99135300  0.25648300  1
  Cu  Cu7  1  0.00864700  0.50432400  0.25648300  1
  Cu  Cu8  1  0.84101500  0.15898500  0.74497900  1
  Cu  Cu9  1  0.84101500  0.68203100  0.74497900  1
  Cu  Cu10  1  0.31796900  0.15898500  0.74497900  1
  C  C11  1  0.00000000  0.00000000  0.43605500  1
