# generated using pymatgen
data_Cu3NiC2
_symmetry_space_group_name_H-M   'P 1'
_cell_length_a   6.51108833
_cell_length_b   6.51108833
_cell_length_c   6.51528691
_cell_angle_alpha   80.60816766
_cell_angle_beta   80.60816766
_cell_angle_gamma   120.34992640
_symmetry_Int_Tables_number   1
_chemical_formula_structural   Cu3NiC2
_chemical_formula_sum   'Cu6 Ni2 C4'
_cell_volume   225.16229361
_cell_formula_units_Z   2
loop_
 _symmetry_equiv_pos_site_id
 _symmetry_equiv_pos_as_xyz
  1  'x, y, z'
loop_
 _atom_site_type_symbol
 _atom_site_label
 _atom_site_symmetry_multiplicity
 _atom_site_fract_x
 _atom_site_fract_y
 _atom_site_fract_z
 _atom_site_occupancy
  C  C0  1  0.19924000  0.03011800  0.14010600  1
  C  C1  1  0.86935100  0.37303200  0.14024800  1
  C  C2  1  0.03011800  0.19924000  0.64010600  1
  C  C3  1  0.37303200  0.86935100  0.64024800  1
  Ni  Ni4  1  0.54852300  0.72349800  0.12082900  1
  Ni  Ni5  1  0.72349800  0.54852300  0.62082900  1
  Cu  Cu6  1  0.74525500  0.24925800  0.51216100  1
  Cu  Cu7  1  0.24925800  0.74525500  0.01216100  1
  Cu  Cu8  1  0.08664000  0.91745100  0.51405500  1
  Cu  Cu9  1  0.91745100  0.08664000  0.01405500  1
  Cu  Cu10  1  0.57813000  0.41150400  0.00760200  1
  Cu  Cu11  1  0.41150400  0.57813000  0.50760200  1
