# generated using pymatgen
data_Cu3Ni6C11
_symmetry_space_group_name_H-M   'P 1'
_cell_length_a   7.96365900
_cell_length_b   10.07041800
_cell_length_c   27.51103800
_cell_angle_alpha   90.00000000
_cell_angle_beta   90.00000000
_cell_angle_gamma   90.00000000
_symmetry_Int_Tables_number   1
_chemical_formula_structural   Cu3Ni6C11
_chemical_formula_sum   'Cu12 Ni24 C44'
_cell_volume   2206.31302946
_cell_formula_units_Z   4
loop_
 _symmetry_equiv_pos_site_id
 _symmetry_equiv_pos_as_xyz
  1  'x, y, z'
loop_
 _atom_site_type_symbol
 _atom_site_label
 _atom_site_symmetry_multiplicity
 _atom_site_fract_x
 _atom_site_fract_y
 _atom_site_fract_z
 _atom_site_occupancy
  C  C0  1  0.29599400  0.99920600  0.49806100  1
  C  C1  1  0.79599400  0.50079400  0.00193900  1
  C  C2  1  0.70400600  0.00079400  0.99806100  1
  C  C3  1  0.20400600  0.49920600  0.50193900  1
  C  C4  1  0.70400600  0.00079400  0.50193900  1
  C  C5  1  0.20400600  0.49920600  0.99806100  1
  C  C6  1  0.29599400  0.99920600  0.00193900  1
  C  C7  1  0.79599400  0.50079400  0.49806100  1
  C  C8  1  0.06535000  0.88079100  0.75000000  1
  C  C9  1  0.56535000  0.61920900  0.75000000  1
  C  C10  1  0.93465000  0.11920900  0.25000000  1
  C  C11  1  0.43465000  0.38079100  0.25000000  1
  C  C12  1  0.02182700  0.99527700  0.68058600  1
  C  C13  1  0.52182700  0.50472300  0.81941400  1
  C  C14  1  0.97817300  0.00472300  0.18058600  1
  C  C15  1  0.47817300  0.49527700  0.31941400  1
  C  C16  1  0.97817300  0.00472300  0.31941400  1
  C  C17  1  0.47817300  0.49527700  0.18058600  1
  C  C18  1  0.02182700  0.99527700  0.81941400  1
  C  C19  1  0.52182700  0.50472300  0.68058600  1
  C  C20  1  0.14032500  0.05561700  0.56425200  1
  C  C21  1  0.64032500  0.44438300  0.93574800  1
  C  C22  1  0.85967500  0.94438300  0.06425200  1
  C  C23  1  0.35967500  0.55561700  0.43574800  1
  C  C24  1  0.85967500  0.94438300  0.43574800  1
  C  C25  1  0.35967500  0.55561700  0.06425200  1
  C  C26  1  0.14032500  0.05561700  0.93574800  1
  C  C27  1  0.64032500  0.44438300  0.56425200  1
  C  C28  1  0.85949600  0.05527100  0.56815500  1
  C  C29  1  0.35949600  0.44472900  0.93184500  1
  C  C30  1  0.14050400  0.94472900  0.06815500  1
  C  C31  1  0.64050400  0.55527100  0.43184500  1
  C  C32  1  0.14050400  0.94472900  0.43184500  1
  C  C33  1  0.64050400  0.55527100  0.06815500  1
  C  C34  1  0.85949600  0.05527100  0.93184500  1
  C  C35  1  0.35949600  0.44472900  0.56815500  1
  C  C36  1  0.00454400  0.23923200  0.59241800  1
  C  C37  1  0.50454400  0.26076800  0.90758200  1
  C  C38  1  0.99545600  0.76076800  0.09241800  1
  C  C39  1  0.49545600  0.73923200  0.40758200  1
  C  C40  1  0.99545600  0.76076800  0.40758200  1
  C  C41  1  0.49545600  0.73923200  0.09241800  1
  C  C42  1  0.00454400  0.23923200  0.90758200  1
  C  C43  1  0.50454400  0.26076800  0.59241800  1
  Ni  Ni44  1  0.79266000  0.93952500  0.63563100  1
  Ni  Ni45  1  0.29266000  0.56047500  0.86436900  1
  Ni  Ni46  1  0.20734000  0.06047500  0.13563100  1
  Ni  Ni47  1  0.70734000  0.43952500  0.36436900  1
  Ni  Ni48  1  0.20734000  0.06047500  0.36436900  1
  Ni  Ni49  1  0.70734000  0.43952500  0.13563100  1
  Ni  Ni50  1  0.79266000  0.93952500  0.86436900  1
  Ni  Ni51  1  0.29266000  0.56047500  0.63563100  1
  Ni  Ni52  1  0.01692800  0.22103600  0.67440600  1
  Ni  Ni53  1  0.51692800  0.27896400  0.82559400  1
  Ni  Ni54  1  0.98307200  0.77896400  0.17440600  1
  Ni  Ni55  1  0.48307200  0.72103600  0.32559400  1
  Ni  Ni56  1  0.98307200  0.77896400  0.32559400  1
  Ni  Ni57  1  0.48307200  0.72103600  0.17440600  1
  Ni  Ni58  1  0.01692800  0.22103600  0.82559400  1
  Ni  Ni59  1  0.51692800  0.27896400  0.67440600  1
  Ni  Ni60  1  0.23441600  0.94255300  0.62934300  1
  Ni  Ni61  1  0.73441600  0.55744700  0.87065700  1
  Ni  Ni62  1  0.76558400  0.05744700  0.12934300  1
  Ni  Ni63  1  0.26558400  0.44255300  0.37065700  1
  Ni  Ni64  1  0.76558400  0.05744700  0.37065700  1
  Ni  Ni65  1  0.26558400  0.44255300  0.12934300  1
  Ni  Ni66  1  0.23441600  0.94255300  0.87065700  1
  Ni  Ni67  1  0.73441600  0.55744700  0.62934300  1
  Cu  Cu68  1  0.50087600  0.18866600  0.46920700  1
  Cu  Cu69  1  0.00087600  0.31133400  0.03079300  1
  Cu  Cu70  1  0.49912400  0.81133400  0.96920700  1
  Cu  Cu71  1  0.99912400  0.68866600  0.53079300  1
  Cu  Cu72  1  0.49912400  0.81133400  0.53079300  1
  Cu  Cu73  1  0.99912400  0.68866600  0.96920700  1
  Cu  Cu74  1  0.50087600  0.18866600  0.03079300  1
  Cu  Cu75  1  0.00087600  0.31133400  0.46920700  1
  Cu  Cu76  1  0.90715500  0.65083500  0.75000000  1
  Cu  Cu77  1  0.40715500  0.84916500  0.75000000  1
  Cu  Cu78  1  0.09284500  0.34916500  0.25000000  1
  Cu  Cu79  1  0.59284500  0.15083500  0.25000000  1
