# generated using pymatgen
data_Cu(NiC)3
_symmetry_space_group_name_H-M   'P 1'
_cell_length_a   6.58722600
_cell_length_b   6.69355100
_cell_length_c   7.23310200
_cell_angle_alpha   90.00000000
_cell_angle_beta   90.00000000
_cell_angle_gamma   90.00000000
_symmetry_Int_Tables_number   1
_chemical_formula_structural   Cu(NiC)3
_chemical_formula_sum   'Cu4 Ni12 C12'
_cell_volume   318.92145006
_cell_formula_units_Z   4
loop_
 _symmetry_equiv_pos_site_id
 _symmetry_equiv_pos_as_xyz
  1  'x, y, z'
loop_
 _atom_site_type_symbol
 _atom_site_label
 _atom_site_symmetry_multiplicity
 _atom_site_fract_x
 _atom_site_fract_y
 _atom_site_fract_z
 _atom_site_occupancy
  Ni  Ni0  1  0.75000000  0.11863000  0.63897000  1
  Ni  Ni1  1  0.75000000  0.61863000  0.86103000  1
  Ni  Ni2  1  0.25000000  0.88137000  0.36103000  1
  Ni  Ni3  1  0.25000000  0.38137000  0.13897000  1
  Ni  Ni4  1  0.75000000  0.39489000  0.17697300  1
  Ni  Ni5  1  0.75000000  0.89489000  0.32302700  1
  Ni  Ni6  1  0.25000000  0.60511000  0.82302700  1
  Ni  Ni7  1  0.25000000  0.10511000  0.67697300  1
  Ni  Ni8  1  0.75000000  0.10872600  0.95019500  1
  Ni  Ni9  1  0.75000000  0.60872600  0.54980500  1
  Ni  Ni10  1  0.25000000  0.89127400  0.04980500  1
  Ni  Ni11  1  0.25000000  0.39127400  0.45019500  1
  Cu  Cu12  1  0.75000000  0.25390700  0.87771600  1
  Cu  Cu13  1  0.75000000  0.75390700  0.62228400  1
  Cu  Cu14  1  0.25000000  0.74609300  0.12228400  1
  Cu  Cu15  1  0.25000000  0.24609300  0.37771600  1
  C  C16  1  0.75000000  0.41368900  0.96723500  1
  C  C17  1  0.75000000  0.91368900  0.53276500  1
  C  C18  1  0.25000000  0.58631100  0.03276500  1
  C  C19  1  0.25000000  0.08631100  0.46723500  1
  C  C20  1  0.75000000  0.25813200  0.69853200  1
  C  C21  1  0.75000000  0.75813200  0.80146800  1
  C  C22  1  0.25000000  0.74186800  0.30146800  1
  C  C23  1  0.25000000  0.24186800  0.19853200  1
  C  C24  1  0.75000000  0.39097200  0.31330400  1
  C  C25  1  0.75000000  0.89097200  0.18669600  1
  C  C26  1  0.25000000  0.60902800  0.68669600  1
  C  C27  1  0.25000000  0.10902800  0.81330400  1
