# generated using pymatgen
data_Cu(NiC9)3
_symmetry_space_group_name_H-M   'P 1'
_cell_length_a   7.30711952
_cell_length_b   7.30711952
_cell_length_c   17.77470900
_cell_angle_alpha   90.00000000
_cell_angle_beta   90.00000000
_cell_angle_gamma   119.99999570
_symmetry_Int_Tables_number   1
_chemical_formula_structural   Cu(NiC9)3
_chemical_formula_sum   'Cu2 Ni6 C54'
_cell_volume   821.91247551
_cell_formula_units_Z   2
loop_
 _symmetry_equiv_pos_site_id
 _symmetry_equiv_pos_as_xyz
  1  'x, y, z'
loop_
 _atom_site_type_symbol
 _atom_site_label
 _atom_site_symmetry_multiplicity
 _atom_site_fract_x
 _atom_site_fract_y
 _atom_site_fract_z
 _atom_site_occupancy
  Ni  Ni0  1  0.66666700  0.33333300  0.86669100  1
  Ni  Ni1  1  0.33333300  0.66666700  0.13330900  1
  Ni  Ni2  1  0.33333300  0.66666700  0.36669100  1
  Ni  Ni3  1  0.66666700  0.33333300  0.63330900  1
  Ni  Ni4  1  0.00000000  0.00000000  0.75000000  1
  Ni  Ni5  1  0.00000000  0.00000000  0.25000000  1
  Cu  Cu6  1  0.00000000  0.00000000  0.00000000  1
  Cu  Cu7  1  0.00000000  0.00000000  0.50000000  1
  C  C8  1  0.54881200  0.83519500  0.91774500  1
  C  C9  1  0.45118800  0.16480500  0.08225500  1
  C  C10  1  0.28638300  0.45118800  0.91774500  1
  C  C11  1  0.45118800  0.16480500  0.41774500  1
  C  C12  1  0.71361700  0.54881200  0.08225500  1
  C  C13  1  0.54881200  0.83519500  0.58225500  1
  C  C14  1  0.16480500  0.71361700  0.91774500  1
  C  C15  1  0.71361700  0.54881200  0.41774500  1
  C  C16  1  0.83519500  0.28638300  0.08225500  1
  C  C17  1  0.28638300  0.45118800  0.58225500  1
  C  C18  1  0.83519500  0.28638300  0.41774500  1
  C  C19  1  0.16480500  0.71361700  0.58225500  1
  C  C20  1  0.50445200  0.62202000  0.75000000  1
  C  C21  1  0.49554800  0.37798000  0.25000000  1
  C  C22  1  0.11756800  0.49554800  0.75000000  1
  C  C23  1  0.88243200  0.50445200  0.25000000  1
  C  C24  1  0.37798000  0.88243200  0.75000000  1
  C  C25  1  0.62202000  0.11756800  0.25000000  1
  C  C26  1  0.54110500  0.83238400  0.75000000  1
  C  C27  1  0.45889500  0.16761600  0.25000000  1
  C  C28  1  0.29127900  0.45889500  0.75000000  1
  C  C29  1  0.70872100  0.54110500  0.25000000  1
  C  C30  1  0.16761600  0.70872100  0.75000000  1
  C  C31  1  0.83238400  0.29127900  0.25000000  1
  C  C32  1  0.92086500  0.33357700  0.75000000  1
  C  C33  1  0.07913500  0.66642300  0.25000000  1
  C  C34  1  0.41271300  0.07913500  0.75000000  1
  C  C35  1  0.58728700  0.92086500  0.25000000  1
  C  C36  1  0.66642300  0.58728700  0.75000000  1
  C  C37  1  0.33357700  0.41271300  0.25000000  1
  C  C38  1  0.74676400  0.99590300  0.91764500  1
  C  C39  1  0.25323600  0.00409700  0.08235500  1
  C  C40  1  0.24913900  0.25323600  0.91764500  1
  C  C41  1  0.25323600  0.00409700  0.41764500  1
  C  C42  1  0.75086100  0.74676400  0.08235500  1
  C  C43  1  0.74676400  0.99590300  0.58235500  1
  C  C44  1  0.00409700  0.75086100  0.91764500  1
  C  C45  1  0.75086100  0.74676400  0.41764500  1
  C  C46  1  0.99590300  0.24913900  0.08235500  1
  C  C47  1  0.24913900  0.25323600  0.58235500  1
  C  C48  1  0.99590300  0.24913900  0.41764500  1
  C  C49  1  0.00409700  0.75086100  0.58235500  1
  C  C50  1  0.49694300  0.62144000  0.91810900  1
  C  C51  1  0.50305700  0.37856000  0.08189100  1
  C  C52  1  0.12449700  0.50305700  0.91810900  1
  C  C53  1  0.50305700  0.37856000  0.41810900  1
  C  C54  1  0.87550300  0.49694300  0.08189100  1
  C  C55  1  0.49694300  0.62144000  0.58189100  1
  C  C56  1  0.37856000  0.87550300  0.91810900  1
  C  C57  1  0.87550300  0.49694300  0.41810900  1
  C  C58  1  0.62144000  0.12449700  0.08189100  1
  C  C59  1  0.12449700  0.50305700  0.58189100  1
  C  C60  1  0.62144000  0.12449700  0.41810900  1
  C  C61  1  0.37856000  0.87550300  0.58189100  1
