# generated using pymatgen
data_Cu2NiC9
_symmetry_space_group_name_H-M   'P 1'
_cell_length_a   6.92342816
_cell_length_b   6.92456792
_cell_length_c   13.54495385
_cell_angle_alpha   97.68523788
_cell_angle_beta   97.68779479
_cell_angle_gamma   110.54163930
_symmetry_Int_Tables_number   1
_chemical_formula_structural   Cu2NiC9
_chemical_formula_sum   'Cu8 Ni4 C36'
_cell_volume   591.08369961
_cell_formula_units_Z   4
loop_
 _symmetry_equiv_pos_site_id
 _symmetry_equiv_pos_as_xyz
  1  'x, y, z'
loop_
 _atom_site_type_symbol
 _atom_site_label
 _atom_site_symmetry_multiplicity
 _atom_site_fract_x
 _atom_site_fract_y
 _atom_site_fract_z
 _atom_site_occupancy
  C  C0  1  0.99987900  0.00017300  0.75003700  1
  C  C1  1  0.99981200  0.99989000  0.49978800  1
  C  C2  1  0.99946100  0.99950700  0.24999900  1
  C  C3  1  0.00052600  0.00030500  0.00006100  1
  C  C4  1  0.32299000  0.67702900  0.12530100  1
  C  C5  1  0.32286600  0.67717900  0.62501100  1
  C  C6  1  0.67710200  0.32281300  0.37472500  1
  C  C7  1  0.67729400  0.32300500  0.87527700  1
  C  C8  1  0.27228700  0.51183600  0.36720400  1
  C  C9  1  0.27244600  0.51224200  0.86720600  1
  C  C10  1  0.48800700  0.72753000  0.38269200  1
  C  C11  1  0.48824600  0.72781200  0.88268500  1
  C  C12  1  0.72762000  0.48819000  0.13266200  1
  C  C13  1  0.72754800  0.48805400  0.63261600  1
  C  C14  1  0.51192500  0.27245400  0.11720200  1
  C  C15  1  0.51185700  0.27233700  0.61721500  1
  C  C16  1  0.26235300  0.71679400  0.31072400  1
  C  C17  1  0.26259800  0.71725200  0.81077200  1
  C  C18  1  0.28308400  0.73738000  0.43923200  1
  C  C19  1  0.28345800  0.73772800  0.93931600  1
  C  C20  1  0.73757100  0.28330800  0.18919700  1
  C  C21  1  0.73752200  0.28328100  0.68920800  1
  C  C22  1  0.71694200  0.26259100  0.06072300  1
  C  C23  1  0.71673600  0.26243200  0.56067900  1
  C  C24  1  0.22584700  0.77393400  0.12527400  1
  C  C25  1  0.22580800  0.77418100  0.62500300  1
  C  C26  1  0.77412300  0.22579700  0.37479300  1
  C  C27  1  0.77422500  0.22589600  0.87518800  1
  Ni  Ni28  1  0.32632200  0.67350000  0.37497200  1
  Ni  Ni29  1  0.32655800  0.67391300  0.87499400  1
  Ni  Ni30  1  0.67362100  0.32652600  0.12495100  1
  Ni  Ni31  1  0.67355000  0.32639900  0.62493600  1
  Cu  Cu32  1  0.17987600  0.26158800  0.15549400  1
  Cu  Cu33  1  0.17949700  0.26170200  0.65539300  1
  Cu  Cu34  1  0.73827500  0.82017100  0.09448200  1
  Cu  Cu35  1  0.73805200  0.82036600  0.59453700  1
  Cu  Cu36  1  0.81974900  0.73774300  0.34452000  1
  Cu  Cu37  1  0.82035800  0.73802700  0.84456700  1
  Cu  Cu38  1  0.26193300  0.17967700  0.40546400  1
  Cu  Cu39  1  0.26215700  0.18006000  0.90543900  1
  C  C40  1  0.17291500  0.81975600  0.20898600  1
  C  C41  1  0.17316600  0.82023700  0.70875500  1
  C  C42  1  0.18003900  0.82678200  0.04153400  1
  C  C43  1  0.17975600  0.82677300  0.54123400  1
  C  C44  1  0.82691400  0.17966000  0.29109500  1
  C  C45  1  0.82681500  0.18000400  0.79141200  1
  C  C46  1  0.81999000  0.17315500  0.45856600  1
  C  C47  1  0.82032700  0.17303400  0.95887700  1
