# generated using pymatgen
data_Cu2Ni4C3
_symmetry_space_group_name_H-M   'P 1'
_cell_length_a   13.01595300
_cell_length_b   5.26544800
_cell_length_c   8.04711834
_cell_angle_alpha   63.87991978
_cell_angle_beta   90.00000000
_cell_angle_gamma   90.00000000
_symmetry_Int_Tables_number   1
_chemical_formula_structural   Cu2Ni4C3
_chemical_formula_sum   'Cu8 Ni16 C12'
_cell_volume   495.18418188
_cell_formula_units_Z   4
loop_
 _symmetry_equiv_pos_site_id
 _symmetry_equiv_pos_as_xyz
  1  'x, y, z'
loop_
 _atom_site_type_symbol
 _atom_site_label
 _atom_site_symmetry_multiplicity
 _atom_site_fract_x
 _atom_site_fract_y
 _atom_site_fract_z
 _atom_site_occupancy
  C  C0  1  0.70304300  0.85159000  0.68989300  1
  C  C1  1  0.20304300  0.14841000  0.81010700  1
  C  C2  1  0.29695700  0.14841000  0.31010700  1
  C  C3  1  0.79695700  0.85159000  0.18989300  1
  C  C4  1  0.00000000  0.00000000  0.50000000  1
  C  C5  1  0.50000000  0.00000000  0.00000000  1
  C  C6  1  0.00000000  0.50000000  0.00000000  1
  C  C7  1  0.50000000  0.50000000  0.50000000  1
  C  C8  1  0.89019000  0.37017900  0.69721200  1
  C  C9  1  0.39019000  0.62982100  0.80278800  1
  C  C10  1  0.10981000  0.62982100  0.30278800  1
  C  C11  1  0.60981000  0.37017900  0.19721200  1
  Ni  Ni12  1  0.78706300  0.27664600  0.79722600  1
  Ni  Ni13  1  0.28706300  0.72335400  0.70277400  1
  Ni  Ni14  1  0.21293700  0.72335400  0.20277400  1
  Ni  Ni15  1  0.71293700  0.27664600  0.29722600  1
  Ni  Ni16  1  0.90523400  0.21197900  0.57420100  1
  Ni  Ni17  1  0.40523400  0.78802100  0.92579900  1
  Ni  Ni18  1  0.09476600  0.78802100  0.42579900  1
  Ni  Ni19  1  0.59476600  0.21197900  0.07420100  1
  Ni  Ni20  1  0.98131900  0.31029100  0.83668200  1
  Ni  Ni21  1  0.48131900  0.68970900  0.66331800  1
  Ni  Ni22  1  0.01868100  0.68970900  0.16331800  1
  Ni  Ni23  1  0.51868100  0.31029100  0.33668200  1
  Ni  Ni24  1  0.88600200  0.69550600  0.56174600  1
  Ni  Ni25  1  0.38600200  0.30449400  0.93825400  1
  Ni  Ni26  1  0.11399800  0.30449400  0.43825400  1
  Ni  Ni27  1  0.61399800  0.69550600  0.06174600  1
  Cu  Cu28  1  0.86496400  0.66187300  0.94714300  1
  Cu  Cu29  1  0.36496400  0.33812700  0.55285700  1
  Cu  Cu30  1  0.13503600  0.33812700  0.05285700  1
  Cu  Cu31  1  0.63503600  0.66187300  0.44714300  1
  Cu  Cu32  1  0.06238000  0.83177600  0.76429200  1
  Cu  Cu33  1  0.56238000  0.16822400  0.73570800  1
  Cu  Cu34  1  0.93762000  0.16822400  0.23570800  1
  Cu  Cu35  1  0.43762000  0.83177600  0.26429200  1
