# generated using pymatgen
data_Cu3Ni9C2
_symmetry_space_group_name_H-M   'P 1'
_cell_length_a   7.66200107
_cell_length_b   7.66200107
_cell_length_c   9.48658000
_cell_angle_alpha   90.00000000
_cell_angle_beta   90.00000000
_cell_angle_gamma   119.69415488
_symmetry_Int_Tables_number   1
_chemical_formula_structural   Cu3Ni9C2
_chemical_formula_sum   'Cu6 Ni18 C4'
_cell_volume   483.78783106
_cell_formula_units_Z   2
loop_
 _symmetry_equiv_pos_site_id
 _symmetry_equiv_pos_as_xyz
  1  'x, y, z'
loop_
 _atom_site_type_symbol
 _atom_site_label
 _atom_site_symmetry_multiplicity
 _atom_site_fract_x
 _atom_site_fract_y
 _atom_site_fract_z
 _atom_site_occupancy
  C  C0  1  0.99433100  0.66951300  0.25000000  1
  C  C1  1  0.00566900  0.33048700  0.75000000  1
  C  C2  1  0.66951300  0.99433100  0.25000000  1
  C  C3  1  0.33048700  0.00566900  0.75000000  1
  Ni  Ni4  1  0.12770200  0.12770200  0.25000000  1
  Ni  Ni5  1  0.87229800  0.87229800  0.75000000  1
  Ni  Ni6  1  0.00013400  0.33422400  0.07671300  1
  Ni  Ni7  1  0.99986600  0.66577600  0.92328700  1
  Ni  Ni8  1  0.99986600  0.66577600  0.57671300  1
  Ni  Ni9  1  0.33422400  0.00013400  0.42328700  1
  Ni  Ni10  1  0.00013400  0.33422400  0.42328700  1
  Ni  Ni11  1  0.66577600  0.99986600  0.57671300  1
  Ni  Ni12  1  0.66577600  0.99986600  0.92328700  1
  Ni  Ni13  1  0.33422400  0.00013400  0.07671300  1
  Ni  Ni14  1  0.33369200  0.33369200  0.55993200  1
  Ni  Ni15  1  0.66630800  0.66630800  0.44006800  1
  Ni  Ni16  1  0.66630800  0.66630800  0.05993200  1
  Ni  Ni17  1  0.33369200  0.33369200  0.94006800  1
  Ni  Ni18  1  0.33715300  0.54585600  0.25000000  1
  Ni  Ni19  1  0.66284700  0.45414400  0.75000000  1
  Ni  Ni20  1  0.54585600  0.33715300  0.25000000  1
  Ni  Ni21  1  0.45414400  0.66284700  0.75000000  1
  Cu  Cu22  1  0.67127500  0.32872500  0.00000000  1
  Cu  Cu23  1  0.32872500  0.67127500  0.00000000  1
  Cu  Cu24  1  0.32872500  0.67127500  0.50000000  1
  Cu  Cu25  1  0.67127500  0.32872500  0.50000000  1
  Cu  Cu26  1  0.00000000  0.00000000  0.00000000  1
  Cu  Cu27  1  0.00000000  0.00000000  0.50000000  1
