# generated using pymatgen
data_Cu11NiC6
_symmetry_space_group_name_H-M   'P 1'
_cell_length_a   7.11221814
_cell_length_b   5.66634805
_cell_length_c   6.03406855
_cell_angle_alpha   67.01171439
_cell_angle_beta   105.32601027
_cell_angle_gamma   107.94727274
_symmetry_Int_Tables_number   1
_chemical_formula_structural   Cu11NiC6
_chemical_formula_sum   'Cu11 Ni1 C6'
_cell_volume   210.07267773
_cell_formula_units_Z   1
loop_
 _symmetry_equiv_pos_site_id
 _symmetry_equiv_pos_as_xyz
  1  'x, y, z'
loop_
 _atom_site_type_symbol
 _atom_site_label
 _atom_site_symmetry_multiplicity
 _atom_site_fract_x
 _atom_site_fract_y
 _atom_site_fract_z
 _atom_site_occupancy
  C  C0  1  0.99329500  0.97991700  0.00560300  1
  C  C1  1  0.49981600  0.99751200  0.00265800  1
  C  C2  1  0.33433900  0.33486100  0.33331800  1
  C  C3  1  0.83398200  0.35255900  0.31214500  1
  C  C4  1  0.16629000  0.66165400  0.67034400  1
  C  C5  1  0.68029800  0.66623800  0.69387000  1
  Ni  Ni6  1  0.83697900  0.64446300  0.03447300  1
  Cu  Cu7  1  0.79025000  0.08260300  0.08486800  1
  Cu  Cu8  1  0.54420900  0.25094600  0.24351300  1
  Cu  Cu9  1  0.12165500  0.42425500  0.41348700  1
  Cu  Cu10  1  0.49199700  0.69181100  0.29394300  1
  Cu  Cu11  1  0.82066600  0.04054900  0.60149000  1
  Cu  Cu12  1  0.17928400  0.97380700  0.38427000  1
  Cu  Cu13  1  0.51344100  0.30946700  0.71946900  1
  Cu  Cu14  1  0.15152500  0.34654300  0.95237000  1
  Cu  Cu15  1  0.87727100  0.58243500  0.58367900  1
  Cu  Cu16  1  0.45521300  0.75056300  0.75308000  1
  Cu  Cu17  1  0.20948900  0.90981800  0.91741900  1
