# generated using pymatgen
data_CuNi2C7
_symmetry_space_group_name_H-M   'P 1'
_cell_length_a   8.56297275
_cell_length_b   8.56297275
_cell_length_c   8.56297275
_cell_angle_alpha   90.00000000
_cell_angle_beta   90.00000000
_cell_angle_gamma   90.00000000
_symmetry_Int_Tables_number   1
_chemical_formula_structural   CuNi2C7
_chemical_formula_sum   'Cu4 Ni8 C28'
_cell_volume   627.87571525
_cell_formula_units_Z   4
loop_
 _symmetry_equiv_pos_site_id
 _symmetry_equiv_pos_as_xyz
  1  'x, y, z'
loop_
 _atom_site_type_symbol
 _atom_site_label
 _atom_site_symmetry_multiplicity
 _atom_site_fract_x
 _atom_site_fract_y
 _atom_site_fract_z
 _atom_site_occupancy
  Ni  Ni0  1  0.50000000  0.50000000  0.50000000  1
  Ni  Ni1  1  0.00000000  -0.00000000  -0.00000000  1
  Ni  Ni2  1  0.00000000  0.00000000  0.50000000  1
  Ni  Ni3  1  0.00000000  0.50000000  -0.00000000  1
  Ni  Ni4  1  0.50000000  0.00000000  -0.00000000  1
  Ni  Ni5  1  0.50000000  0.50000000  -0.00000000  1
  Ni  Ni6  1  0.50000000  0.00000000  0.50000000  1
  Ni  Ni7  1  0.00000000  0.50000000  0.50000000  1
  Cu  Cu8  1  0.25000000  0.25000000  0.25000000  1
  Cu  Cu9  1  0.25000000  0.75000000  0.75000000  1
  Cu  Cu10  1  0.75000000  0.25000000  0.75000000  1
  Cu  Cu11  1  0.75000000  0.75000000  0.25000000  1
  C  C12  1  0.75000000  0.75000000  0.75000000  1
  C  C13  1  0.75000000  0.25000000  0.25000000  1
  C  C14  1  0.25000000  0.75000000  0.25000000  1
  C  C15  1  0.25000000  0.25000000  0.75000000  1
  C  C16  1  0.23404181  0.26687698  0.53021249  1
  C  C17  1  0.23404181  0.73312302  0.46978751  1
  C  C18  1  0.76595819  0.26687698  0.46978751  1
  C  C19  1  0.76595819  0.73312302  0.53021249  1
  C  C20  1  0.26687698  0.53021249  0.23404181  1
  C  C21  1  0.73312302  0.46978751  0.23404181  1
  C  C22  1  0.26687698  0.46978751  0.76595819  1
  C  C23  1  0.73312302  0.53021249  0.76595819  1
  C  C24  1  0.53021249  0.23404181  0.26687698  1
  C  C25  1  0.46978751  0.23404181  0.73312302  1
  C  C26  1  0.46978751  0.76595819  0.26687698  1
  C  C27  1  0.53021249  0.76595819  0.73312302  1
  C  C28  1  0.26595819  0.23312302  0.96978751  1
  C  C29  1  0.26595819  0.76687698  0.03021249  1
  C  C30  1  0.73404181  0.23312302  0.03021249  1
  C  C31  1  0.73404181  0.76687698  0.96978751  1
  C  C32  1  0.23312302  0.96978751  0.26595819  1
  C  C33  1  0.76687698  0.03021249  0.26595819  1
  C  C34  1  0.23312302  0.03021249  0.73404181  1
  C  C35  1  0.76687698  0.96978751  0.73404181  1
  C  C36  1  0.96978751  0.26595819  0.23312302  1
  C  C37  1  0.03021249  0.26595819  0.76687698  1
  C  C38  1  0.03021249  0.73404181  0.23312302  1
  C  C39  1  0.96978751  0.73404181  0.76687698  1
