# generated using pymatgen
data_Cu5Ni3C32
_symmetry_space_group_name_H-M   'P 1'
_cell_length_a   7.68237700
_cell_length_b   7.66990800
_cell_length_c   7.68237700
_cell_angle_alpha   90.00000000
_cell_angle_beta   90.00000000
_cell_angle_gamma   90.00000000
_symmetry_Int_Tables_number   1
_chemical_formula_structural   Cu5Ni3C32
_chemical_formula_sum   'Cu5 Ni3 C32'
_cell_volume   452.66965882
_cell_formula_units_Z   1
loop_
 _symmetry_equiv_pos_site_id
 _symmetry_equiv_pos_as_xyz
  1  'x, y, z'
loop_
 _atom_site_type_symbol
 _atom_site_label
 _atom_site_symmetry_multiplicity
 _atom_site_fract_x
 _atom_site_fract_y
 _atom_site_fract_z
 _atom_site_occupancy
  C  C0  1  0.25226900  0.25731200  0.25226900  1
  C  C1  1  0.25226900  0.25731200  0.74773100  1
  C  C2  1  0.25226900  0.74268800  0.25226900  1
  C  C3  1  0.25226900  0.74268800  0.74773100  1
  C  C4  1  0.74773100  0.25731200  0.25226900  1
  C  C5  1  0.74773100  0.25731200  0.74773100  1
  C  C6  1  0.74773100  0.74268800  0.25226900  1
  C  C7  1  0.74773100  0.74268800  0.74773100  1
  Ni  Ni8  1  0.00000000  0.00000000  0.00000000  1
  Ni  Ni9  1  0.00000000  0.00000000  0.50000000  1
  Ni  Ni10  1  0.50000000  0.00000000  0.00000000  1
  Cu  Cu11  1  0.00000000  0.50000000  0.00000000  1
  Cu  Cu12  1  0.00000000  0.50000000  0.50000000  1
  Cu  Cu13  1  0.50000000  0.00000000  0.50000000  1
  Cu  Cu14  1  0.50000000  0.50000000  0.00000000  1
  Cu  Cu15  1  0.50000000  0.50000000  0.50000000  1
  C  C16  1  0.00000000  0.00000000  0.25053700  1
  C  C17  1  0.00000000  0.00000000  0.74946300  1
  C  C18  1  0.00000000  0.50000000  0.25014100  1
  C  C19  1  0.00000000  0.50000000  0.74985900  1
  C  C20  1  0.50000000  0.00000000  0.25282200  1
  C  C21  1  0.50000000  0.00000000  0.74717800  1
  C  C22  1  0.50000000  0.50000000  0.25015200  1
  C  C23  1  0.50000000  0.50000000  0.74984800  1
  C  C24  1  0.25053700  0.00000000  0.00000000  1
  C  C25  1  0.25282200  0.00000000  0.50000000  1
  C  C26  1  0.25014100  0.50000000  0.00000000  1
  C  C27  1  0.25015200  0.50000000  0.50000000  1
  C  C28  1  0.74946300  0.00000000  0.00000000  1
  C  C29  1  0.74717800  0.00000000  0.50000000  1
  C  C30  1  0.74985900  0.50000000  0.00000000  1
  C  C31  1  0.74984800  0.50000000  0.50000000  1
  C  C32  1  0.00000000  0.25378100  0.00000000  1
  C  C33  1  0.00000000  0.25346900  0.50000000  1
  C  C34  1  0.00000000  0.74621900  0.00000000  1
  C  C35  1  0.00000000  0.74653100  0.50000000  1
  C  C36  1  0.50000000  0.25346900  0.00000000  1
  C  C37  1  0.50000000  0.25064300  0.50000000  1
  C  C38  1  0.50000000  0.74653100  0.00000000  1
  C  C39  1  0.50000000  0.74935700  0.50000000  1
