# generated using pymatgen
data_Cu2NiC4
_symmetry_space_group_name_H-M   'P 1'
_cell_length_a   8.97259457
_cell_length_b   8.97259457
_cell_length_c   7.27258200
_cell_angle_alpha   90.00000000
_cell_angle_beta   90.00000000
_cell_angle_gamma   120.00000420
_symmetry_Int_Tables_number   1
_chemical_formula_structural   Cu2NiC4
_chemical_formula_sum   'Cu16 Ni8 C32'
_cell_volume   507.05530274
_cell_formula_units_Z   8
loop_
 _symmetry_equiv_pos_site_id
 _symmetry_equiv_pos_as_xyz
  1  'x, y, z'
loop_
 _atom_site_type_symbol
 _atom_site_label
 _atom_site_symmetry_multiplicity
 _atom_site_fract_x
 _atom_site_fract_y
 _atom_site_fract_z
 _atom_site_occupancy
  Ni  Ni0  1  0.00000000  0.00000000  0.06250000  1
  Ni  Ni1  1  0.00000000  0.00000000  0.56250000  1
  Ni  Ni2  1  0.52123300  0.04570400  0.04315300  1
  Ni  Ni3  1  0.47552900  0.52123300  0.54315300  1
  Ni  Ni4  1  0.04570400  0.52447100  0.54315300  1
  Ni  Ni5  1  0.95429600  0.47552900  0.04315300  1
  Ni  Ni6  1  0.52447100  0.47876700  0.04315300  1
  Ni  Ni7  1  0.47876700  0.95429600  0.54315300  1
  Cu  Cu8  1  0.84836300  0.17729800  0.34600000  1
  Cu  Cu9  1  0.67106500  0.84836300  0.84600000  1
  Cu  Cu10  1  0.17729800  0.32893500  0.84600000  1
  Cu  Cu11  1  0.82270200  0.67106500  0.34600000  1
  Cu  Cu12  1  0.32893500  0.15163700  0.34600000  1
  Cu  Cu13  1  0.15163700  0.82270200  0.84600000  1
  Cu  Cu14  1  0.67268000  0.84781600  0.23134300  1
  Cu  Cu15  1  0.82486300  0.67268000  0.73134300  1
  Cu  Cu16  1  0.66666700  0.33333300  0.75093200  1
  Cu  Cu17  1  0.33333300  0.66666700  0.25093200  1
  Cu  Cu18  1  0.66666700  0.33333300  0.36694700  1
  Cu  Cu19  1  0.33333300  0.66666700  0.86694700  1
  Cu  Cu20  1  0.32732000  0.15218400  0.73134300  1
  Cu  Cu21  1  0.17513700  0.32732000  0.23134300  1
  Cu  Cu22  1  0.15218400  0.82486300  0.23134300  1
  Cu  Cu23  1  0.84781600  0.17513700  0.73134300  1
  C  C24  1  0.00451600  0.70764900  0.72232000  1
  C  C25  1  0.70764900  0.70313200  0.22232000  1
  C  C26  1  0.30407300  0.80759800  0.79479500  1
  C  C27  1  0.49647500  0.30407300  0.29479500  1
  C  C28  1  0.80759800  0.50352500  0.29479500  1
  C  C29  1  0.19240200  0.49647500  0.79479500  1
  C  C30  1  0.50352500  0.69592700  0.79479500  1
  C  C31  1  0.69592700  0.19240200  0.29479500  1
  C  C32  1  0.66666700  0.33333300  0.55990700  1
  C  C33  1  0.33333300  0.66666700  0.05990700  1
  C  C34  1  0.32939200  0.09190600  0.53795600  1
  C  C35  1  0.23748600  0.32939200  0.03795600  1
  C  C36  1  0.09190600  0.76251400  0.03795600  1
  C  C37  1  0.90809400  0.23748600  0.53795600  1
  C  C38  1  0.76251400  0.67060800  0.53795600  1
  C  C39  1  0.67060800  0.90809400  0.03795600  1
  C  C40  1  0.18686000  0.00284300  0.82812400  1
  C  C41  1  0.18401700  0.18686000  0.32812400  1
  C  C42  1  0.00284300  0.81598300  0.32812400  1
  C  C43  1  0.99715700  0.18401700  0.82812400  1
  C  C44  1  0.81598300  0.81314000  0.82812400  1
  C  C45  1  0.81314000  0.99715700  0.32812400  1
  C  C46  1  0.49325600  0.20592300  0.82821200  1
  C  C47  1  0.28733300  0.49325600  0.32821200  1
  C  C48  1  0.20592300  0.71266700  0.32821200  1
  C  C49  1  0.79407700  0.28733300  0.82821200  1
  C  C50  1  0.71266700  0.50674400  0.82821200  1
  C  C51  1  0.50674400  0.79407700  0.32821200  1
  C  C52  1  0.29235100  0.29686800  0.72232000  1
  C  C53  1  0.99548400  0.29235100  0.22232000  1
  C  C54  1  0.29686800  0.00451600  0.22232000  1
  C  C55  1  0.70313200  0.99548400  0.72232000  1
