# generated using pymatgen
data_Cu16NiC11
_symmetry_space_group_name_H-M   'P 1'
_cell_length_a   10.03987096
_cell_length_b   10.03987096
_cell_length_c   14.54701300
_cell_angle_alpha   90.00000000
_cell_angle_beta   90.00000000
_cell_angle_gamma   119.99999314
_symmetry_Int_Tables_number   1
_chemical_formula_structural   Cu16NiC11
_chemical_formula_sum   'Cu48 Ni3 C33'
_cell_volume   1269.87434835
_cell_formula_units_Z   3
loop_
 _symmetry_equiv_pos_site_id
 _symmetry_equiv_pos_as_xyz
  1  'x, y, z'
loop_
 _atom_site_type_symbol
 _atom_site_label
 _atom_site_symmetry_multiplicity
 _atom_site_fract_x
 _atom_site_fract_y
 _atom_site_fract_z
 _atom_site_occupancy
  C  C0  1  0.33333300  0.66666700  0.49962600  1
  C  C1  1  0.33333300  0.66666700  0.99966400  1
  C  C2  1  0.66666700  0.33333300  0.74962600  1
  C  C3  1  0.66666700  0.33333300  0.24965000  1
  C  C4  1  0.66666700  0.33333300  0.50037400  1
  C  C5  1  0.66666700  0.33333300  0.00033600  1
  C  C6  1  0.33333300  0.66666700  0.25037400  1
  C  C7  1  0.33333300  0.66666700  0.75035000  1
  C  C8  1  0.25115600  0.99338500  0.37498400  1
  C  C9  1  0.25328900  0.99314600  0.87391400  1
  C  C10  1  0.74222800  0.74884400  0.37498400  1
  C  C11  1  0.73985700  0.74671100  0.87391400  1
  C  C12  1  0.00661500  0.25777200  0.37498400  1
  C  C13  1  0.00685400  0.26014300  0.87391400  1
  C  C14  1  0.74884400  0.00661500  0.62501600  1
  C  C15  1  0.74671100  0.00685400  0.12608600  1
  C  C16  1  0.25777200  0.25115600  0.62501600  1
  C  C17  1  0.26014300  0.25328900  0.12608600  1
  C  C18  1  0.99338500  0.74222800  0.62501600  1
  C  C19  1  0.99314600  0.73985700  0.12608600  1
  C  C20  1  0.96626400  0.59270200  0.37509000  1
  C  C21  1  0.96618900  0.59279000  0.87503400  1
  C  C22  1  0.62643800  0.03373600  0.37509000  1
  C  C23  1  0.62660200  0.03381100  0.87503400  1
  C  C24  1  0.40729800  0.37356200  0.37509000  1
  C  C25  1  0.40721000  0.37339800  0.87503400  1
  C  C26  1  0.03373600  0.40729800  0.62491000  1
  C  C27  1  0.03381100  0.40721000  0.12496600  1
  C  C28  1  0.37356200  0.96626400  0.62491000  1
  C  C29  1  0.37339800  0.96618900  0.12496600  1
  C  C30  1  0.59270200  0.62643800  0.62491000  1
  C  C31  1  0.59279000  0.62660200  0.12496600  1
  C  C32  1  0.00000000  0.00000000  0.00000000  1
  Ni  Ni33  1  0.00000000  0.00000000  0.74946300  1
  Ni  Ni34  1  0.00000000  0.00000000  0.25053700  1
  Ni  Ni35  1  0.00000000  0.00000000  0.50000000  1
  Cu  Cu36  1  0.87793300  0.41250900  0.37500800  1
  Cu  Cu37  1  0.87773200  0.41253100  0.87486000  1
  Cu  Cu38  1  0.53457600  0.12206700  0.37500800  1
  Cu  Cu39  1  0.53479900  0.12226800  0.87486000  1
  Cu  Cu40  1  0.58749100  0.46542400  0.37500800  1
  Cu  Cu41  1  0.58746900  0.46520100  0.87486000  1
  Cu  Cu42  1  0.12206700  0.58749100  0.62499200  1
  Cu  Cu43  1  0.12226800  0.58746900  0.12514000  1
  Cu  Cu44  1  0.46542400  0.87793300  0.62499200  1
  Cu  Cu45  1  0.46520100  0.87773200  0.12514000  1
  Cu  Cu46  1  0.41250900  0.53457600  0.62499200  1
  Cu  Cu47  1  0.41253100  0.53479900  0.12514000  1
  Cu  Cu48  1  0.91468500  0.64612300  0.46153900  1
  Cu  Cu49  1  0.91442100  0.64537100  0.96164600  1
  Cu  Cu50  1  0.73143800  0.08531500  0.46153900  1
  Cu  Cu51  1  0.73095000  0.08557900  0.96164600  1
  Cu  Cu52  1  0.35387700  0.26856200  0.46153900  1
  Cu  Cu53  1  0.35462900  0.26905000  0.96164600  1
  Cu  Cu54  1  0.08541300  0.35398500  0.71138700  1
  Cu  Cu55  1  0.08530700  0.35389900  0.21154300  1
  Cu  Cu56  1  0.26857200  0.91458700  0.71138700  1
  Cu  Cu57  1  0.26859300  0.91469300  0.21154300  1
  Cu  Cu58  1  0.64601500  0.73142800  0.71138700  1
  Cu  Cu59  1  0.64610100  0.73140700  0.21154300  1
  Cu  Cu60  1  0.08531500  0.35387700  0.53846100  1
  Cu  Cu61  1  0.08557900  0.35462900  0.03835400  1
  Cu  Cu62  1  0.26856200  0.91468500  0.53846100  1
  Cu  Cu63  1  0.26905000  0.91442100  0.03835400  1
  Cu  Cu64  1  0.64612300  0.73143800  0.53846100  1
  Cu  Cu65  1  0.64537100  0.73095000  0.03835400  1
  Cu  Cu66  1  0.91458700  0.64601500  0.28861300  1
  Cu  Cu67  1  0.91469300  0.64610100  0.78845700  1
  Cu  Cu68  1  0.73142800  0.08541300  0.28861300  1
  Cu  Cu69  1  0.73140700  0.08530700  0.78845700  1
  Cu  Cu70  1  0.35398500  0.26857200  0.28861300  1
  Cu  Cu71  1  0.35389900  0.26859300  0.78845700  1
  Cu  Cu72  1  0.14366900  0.65805900  0.37499800  1
  Cu  Cu73  1  0.14364800  0.65794300  0.87492400  1
  Cu  Cu74  1  0.51438900  0.85633100  0.37499800  1
  Cu  Cu75  1  0.51429500  0.85635200  0.87492400  1
  Cu  Cu76  1  0.34194100  0.48561100  0.37499800  1
  Cu  Cu77  1  0.34205700  0.48570500  0.87492400  1
  Cu  Cu78  1  0.85633100  0.34194100  0.62500200  1
  Cu  Cu79  1  0.85635200  0.34205700  0.12507600  1
  Cu  Cu80  1  0.48561100  0.14366900  0.62500200  1
  Cu  Cu81  1  0.48570500  0.14364800  0.12507600  1
  Cu  Cu82  1  0.65805900  0.51438900  0.62500200  1
  Cu  Cu83  1  0.65794300  0.51429500  0.12507600  1
