# generated using pymatgen
data_Cu(Ni3C5)4
_symmetry_space_group_name_H-M   'P 1'
_cell_length_a   9.00269261
_cell_length_b   9.00269261
_cell_length_c   9.00269261
_cell_angle_alpha   109.47122063
_cell_angle_beta   109.47122063
_cell_angle_gamma   109.47122063
_symmetry_Int_Tables_number   1
_chemical_formula_structural   Cu(Ni3C5)4
_chemical_formula_sum   'Cu1 Ni12 C20'
_cell_volume   561.68829540
_cell_formula_units_Z   1
loop_
 _symmetry_equiv_pos_site_id
 _symmetry_equiv_pos_as_xyz
  1  'x, y, z'
loop_
 _atom_site_type_symbol
 _atom_site_label
 _atom_site_symmetry_multiplicity
 _atom_site_fract_x
 _atom_site_fract_y
 _atom_site_fract_z
 _atom_site_occupancy
  Ni  Ni0  1  0.49973700  0.33660300  0.19567300  1
  Ni  Ni1  1  0.50026300  0.69593600  0.83686500  1
  Ni  Ni2  1  0.85907000  0.66339700  0.16313500  1
  Ni  Ni3  1  0.33660300  0.19567300  0.49973700  1
  Ni  Ni4  1  0.14093000  0.30406400  0.80432700  1
  Ni  Ni5  1  0.69593600  0.83686500  0.50026300  1
  Ni  Ni6  1  0.66339700  0.16313500  0.85907000  1
  Ni  Ni7  1  0.30406400  0.80432700  0.14093000  1
  Ni  Ni8  1  0.19567300  0.49973700  0.33660300  1
  Ni  Ni9  1  0.16313500  0.85907000  0.66339700  1
  Ni  Ni10  1  0.80432700  0.14093000  0.30406400  1
  Ni  Ni11  1  0.83686500  0.50026300  0.69593600  1
  Cu  Cu12  1  0.00000000  0.00000000  0.00000000  1
  C  C13  1  0.38321200  0.38321200  0.38321200  1
  C  C14  1  0.61678800  0.00000000  0.00000000  1
  C  C15  1  0.00000000  0.61678800  0.00000000  1
  C  C16  1  0.00000000  0.00000000  0.61678800  1
  C  C17  1  0.74063200  0.62277400  0.37960800  1
  C  C18  1  0.25936800  0.63897600  0.88214200  1
  C  C19  1  0.75683400  0.37722600  0.11785800  1
  C  C20  1  0.62277400  0.37960800  0.74063200  1
  C  C21  1  0.24316600  0.36102400  0.62039200  1
  C  C22  1  0.63897600  0.88214200  0.25936800  1
  C  C23  1  0.37722600  0.11785800  0.75683400  1
  C  C24  1  0.36102400  0.62039200  0.24316600  1
  C  C25  1  0.37960800  0.74063200  0.62277400  1
  C  C26  1  0.11785800  0.75683400  0.37722600  1
  C  C27  1  0.62039200  0.24316600  0.36102400  1
  C  C28  1  0.88214200  0.25936800  0.63897600  1
  C  C29  1  0.77607800  0.77607800  0.77607800  1
  C  C30  1  0.22392200  0.00000000  0.00000000  1
  C  C31  1  0.00000000  0.22392200  0.00000000  1
  C  C32  1  0.00000000  0.00000000  0.22392200  1
