# generated using pymatgen
data_Cu4Ni2C3
_symmetry_space_group_name_H-M   'P 1'
_cell_length_a   8.38964528
_cell_length_b   8.38964528
_cell_length_c   6.69530928
_cell_angle_alpha   89.76878801
_cell_angle_beta   89.76878801
_cell_angle_gamma   75.56712947
_symmetry_Int_Tables_number   1
_chemical_formula_structural   Cu4Ni2C3
_chemical_formula_sum   'Cu8 Ni4 C6'
_cell_volume   456.37836323
_cell_formula_units_Z   2
loop_
 _symmetry_equiv_pos_site_id
 _symmetry_equiv_pos_as_xyz
  1  'x, y, z'
loop_
 _atom_site_type_symbol
 _atom_site_label
 _atom_site_symmetry_multiplicity
 _atom_site_fract_x
 _atom_site_fract_y
 _atom_site_fract_z
 _atom_site_occupancy
  C  C0  1  0.00573700  0.74800300  0.53895800  1
  C  C1  1  0.25199700  0.99426300  0.96104200  1
  C  C2  1  0.99426300  0.25199700  0.46104200  1
  C  C3  1  0.74800300  0.00573700  0.03895800  1
  C  C4  1  0.40012900  0.59987100  0.25000000  1
  C  C5  1  0.59987100  0.40012900  0.75000000  1
  Ni  Ni6  1  0.82444500  0.58297400  0.08256900  1
  Ni  Ni7  1  0.41702600  0.17555500  0.41743100  1
  Ni  Ni8  1  0.17555500  0.41702600  0.91743100  1
  Ni  Ni9  1  0.58297400  0.82444500  0.58256900  1
  Cu  Cu10  1  0.05758100  0.70508500  0.02350700  1
  Cu  Cu11  1  0.29491500  0.94241900  0.47649300  1
  Cu  Cu12  1  0.94241900  0.29491500  0.97649300  1
  Cu  Cu13  1  0.70508500  0.05758100  0.52350700  1
  Cu  Cu14  1  0.74028900  0.57541700  0.42535100  1
  Cu  Cu15  1  0.42458300  0.25971100  0.07464900  1
  Cu  Cu16  1  0.25971100  0.42458300  0.57464900  1
  Cu  Cu17  1  0.57541700  0.74028900  0.92535100  1
