# generated using pymatgen
data_Cu27(Ni6C)2
_symmetry_space_group_name_H-M   'P 1'
_cell_length_a   13.62861047
_cell_length_b   13.62861047
_cell_length_c   13.62861047
_cell_angle_alpha   90.00000000
_cell_angle_beta   90.00000000
_cell_angle_gamma   90.00000000
_symmetry_Int_Tables_number   1
_chemical_formula_structural   Cu27(Ni6C)2
_chemical_formula_sum   'Cu108 Ni48 C8'
_cell_volume   2531.36479822
_cell_formula_units_Z   4
loop_
 _symmetry_equiv_pos_site_id
 _symmetry_equiv_pos_as_xyz
  1  'x, y, z'
loop_
 _atom_site_type_symbol
 _atom_site_label
 _atom_site_symmetry_multiplicity
 _atom_site_fract_x
 _atom_site_fract_y
 _atom_site_fract_z
 _atom_site_occupancy
  C  C0  1  0.05277559  0.05277559  0.05277559  1
  C  C1  1  0.44722441  0.94722441  0.55277559  1
  C  C2  1  0.94722441  0.55277559  0.44722441  1
  C  C3  1  0.80277559  0.30277559  0.19722441  1
  C  C4  1  0.55277559  0.44722441  0.94722441  1
  C  C5  1  0.69722441  0.69722441  0.69722441  1
  C  C6  1  0.30277559  0.19722441  0.80277559  1
  C  C7  1  0.19722441  0.80277559  0.30277559  1
  Ni  Ni8  1  0.10420195  0.40940132  0.36223673  1
  Ni  Ni9  1  0.39579805  0.59059868  0.86223673  1
  Ni  Ni10  1  0.89579805  0.90940132  0.13776327  1
  Ni  Ni11  1  0.36223673  0.10420195  0.40940132  1
  Ni  Ni12  1  0.15940132  0.35420195  0.88776327  1
  Ni  Ni13  1  0.60420195  0.09059868  0.63776327  1
  Ni  Ni14  1  0.86223673  0.39579805  0.59059868  1
  Ni  Ni15  1  0.34059868  0.64579805  0.38776327  1
  Ni  Ni16  1  0.13776327  0.89579805  0.90940132  1
  Ni  Ni17  1  0.65940132  0.14579805  0.11223673  1
  Ni  Ni18  1  0.63776327  0.60420195  0.09059868  1
  Ni  Ni19  1  0.84059868  0.85420195  0.61223673  1
  Ni  Ni20  1  0.40940132  0.36223673  0.10420195  1
  Ni  Ni21  1  0.85420195  0.61223673  0.84059868  1
  Ni  Ni22  1  0.90940132  0.13776327  0.89579805  1
  Ni  Ni23  1  0.64579805  0.38776327  0.34059868  1
  Ni  Ni24  1  0.09059868  0.63776327  0.60420195  1
  Ni  Ni25  1  0.35420195  0.88776327  0.15940132  1
  Ni  Ni26  1  0.59059868  0.86223673  0.39579805  1
  Ni  Ni27  1  0.14579805  0.11223673  0.65940132  1
  Ni  Ni28  1  0.88776327  0.15940132  0.35420195  1
  Ni  Ni29  1  0.38776327  0.34059868  0.64579805  1
  Ni  Ni30  1  0.61223673  0.84059868  0.85420195  1
  Ni  Ni31  1  0.11223673  0.65940132  0.14579805  1
  Ni  Ni32  1  0.12500000  0.18886585  0.43886585  1
  Ni  Ni33  1  0.37500000  0.81113415  0.93886585  1
  Ni  Ni34  1  0.87500000  0.68886585  0.06113415  1
  Ni  Ni35  1  0.43886585  0.12500000  0.18886585  1
  Ni  Ni36  1  0.93886585  0.37500000  0.81113415  1
  Ni  Ni37  1  0.62500000  0.31113415  0.56113415  1
  Ni  Ni38  1  0.56113415  0.62500000  0.31113415  1
  Ni  Ni39  1  0.06113415  0.87500000  0.68886585  1
  Ni  Ni40  1  0.18886585  0.43886585  0.12500000  1
  Ni  Ni41  1  0.68886585  0.06113415  0.87500000  1
  Ni  Ni42  1  0.31113415  0.56113415  0.62500000  1
  Ni  Ni43  1  0.81113415  0.93886585  0.37500000  1
  Ni  Ni44  1  0.12500000  0.01697327  0.26697327  1
  Ni  Ni45  1  0.37500000  0.98302673  0.76697327  1
  Ni  Ni46  1  0.87500000  0.51697327  0.23302673  1
  Ni  Ni47  1  0.26697327  0.12500000  0.01697327  1
  Ni  Ni48  1  0.76697327  0.37500000  0.98302673  1
  Ni  Ni49  1  0.62500000  0.48302673  0.73302673  1
  Ni  Ni50  1  0.73302673  0.62500000  0.48302673  1
  Ni  Ni51  1  0.23302673  0.87500000  0.51697327  1
  Ni  Ni52  1  0.01697327  0.26697327  0.12500000  1
  Ni  Ni53  1  0.51697327  0.23302673  0.87500000  1
  Ni  Ni54  1  0.48302673  0.73302673  0.62500000  1
  Ni  Ni55  1  0.98302673  0.76697327  0.37500000  1
  Cu  Cu56  1  0.12500000  0.94904273  0.19904273  1
  Cu  Cu57  1  0.37500000  0.05095727  0.69904273  1
  Cu  Cu58  1  0.87500000  0.44904273  0.30095727  1
  Cu  Cu59  1  0.19904273  0.12500000  0.94904273  1
  Cu  Cu60  1  0.69904273  0.37500000  0.05095727  1
  Cu  Cu61  1  0.62500000  0.55095727  0.80095727  1
  Cu  Cu62  1  0.80095727  0.62500000  0.55095727  1
  Cu  Cu63  1  0.30095727  0.87500000  0.44904273  1
  Cu  Cu64  1  0.94904273  0.19904273  0.12500000  1
  Cu  Cu65  1  0.44904273  0.30095727  0.87500000  1
  Cu  Cu66  1  0.55095727  0.80095727  0.62500000  1
  Cu  Cu67  1  0.05095727  0.69904273  0.37500000  1
  Cu  Cu68  1  0.05711497  0.38834021  0.43949074  1
  Cu  Cu69  1  0.44288503  0.61165979  0.93949074  1
  Cu  Cu70  1  0.94288503  0.88834021  0.06050926  1
  Cu  Cu71  1  0.43949074  0.05711497  0.38834021  1
  Cu  Cu72  1  0.13834021  0.30711497  0.81050926  1
  Cu  Cu73  1  0.55711497  0.11165979  0.56050926  1
  Cu  Cu74  1  0.93949074  0.44288503  0.61165979  1
  Cu  Cu75  1  0.36165979  0.69288503  0.31050926  1
  Cu  Cu76  1  0.06050926  0.94288503  0.88834021  1
  Cu  Cu77  1  0.63834021  0.19288503  0.18949074  1
  Cu  Cu78  1  0.56050926  0.55711497  0.11165979  1
  Cu  Cu79  1  0.86165979  0.80711497  0.68949074  1
  Cu  Cu80  1  0.38834021  0.43949074  0.05711497  1
  Cu  Cu81  1  0.80711497  0.68949074  0.86165979  1
  Cu  Cu82  1  0.88834021  0.06050926  0.94288503  1
  Cu  Cu83  1  0.69288503  0.31050926  0.36165979  1
  Cu  Cu84  1  0.11165979  0.56050926  0.55711497  1
  Cu  Cu85  1  0.30711497  0.81050926  0.13834021  1
  Cu  Cu86  1  0.61165979  0.93949074  0.44288503  1
  Cu  Cu87  1  0.19288503  0.18949074  0.63834021  1
  Cu  Cu88  1  0.81050926  0.13834021  0.30711497  1
  Cu  Cu89  1  0.31050926  0.36165979  0.69288503  1
  Cu  Cu90  1  0.68949074  0.86165979  0.80711497  1
  Cu  Cu91  1  0.18949074  0.63834021  0.19288503  1
  Cu  Cu92  1  0.09011118  0.49305773  0.32345863  1
  Cu  Cu93  1  0.40988882  0.50694227  0.82345863  1
  Cu  Cu94  1  0.90988882  0.99305773  0.17654137  1
  Cu  Cu95  1  0.32345863  0.09011118  0.49305773  1
  Cu  Cu96  1  0.24305773  0.34011118  0.92654137  1
  Cu  Cu97  1  0.59011118  0.00694227  0.67654137  1
  Cu  Cu98  1  0.82345863  0.40988882  0.50694227  1
  Cu  Cu99  1  0.25694227  0.65988882  0.42654137  1
  Cu  Cu100  1  0.17654137  0.90988882  0.99305773  1
  Cu  Cu101  1  0.74305773  0.15988882  0.07345863  1
  Cu  Cu102  1  0.67654137  0.59011118  0.00694227  1
  Cu  Cu103  1  0.75694227  0.84011118  0.57345863  1
  Cu  Cu104  1  0.49305773  0.32345863  0.09011118  1
  Cu  Cu105  1  0.84011118  0.57345863  0.75694227  1
  Cu  Cu106  1  0.99305773  0.17654137  0.90988882  1
  Cu  Cu107  1  0.65988882  0.42654137  0.25694227  1
  Cu  Cu108  1  0.00694227  0.67654137  0.59011118  1
  Cu  Cu109  1  0.34011118  0.92654137  0.24305773  1
  Cu  Cu110  1  0.50694227  0.82345863  0.40988882  1
  Cu  Cu111  1  0.15988882  0.07345863  0.74305773  1
  Cu  Cu112  1  0.92654137  0.24305773  0.34011118  1
  Cu  Cu113  1  0.42654137  0.25694227  0.65988882  1
  Cu  Cu114  1  0.57345863  0.75694227  0.84011118  1
  Cu  Cu115  1  0.07345863  0.74305773  0.15988882  1
  Cu  Cu116  1  0.16307785  0.35007553  0.32484081  1
  Cu  Cu117  1  0.33692215  0.64992447  0.82484081  1
  Cu  Cu118  1  0.83692215  0.85007553  0.17515919  1
  Cu  Cu119  1  0.32484081  0.16307785  0.35007553  1
  Cu  Cu120  1  0.10007553  0.41307785  0.92515919  1
  Cu  Cu121  1  0.66307785  0.14992447  0.67515919  1
  Cu  Cu122  1  0.82484081  0.33692215  0.64992447  1
  Cu  Cu123  1  0.39992447  0.58692215  0.42515919  1
  Cu  Cu124  1  0.17515919  0.83692215  0.85007553  1
  Cu  Cu125  1  0.60007553  0.08692215  0.07484081  1
  Cu  Cu126  1  0.67515919  0.66307785  0.14992447  1
  Cu  Cu127  1  0.89992447  0.91307785  0.57484081  1
  Cu  Cu128  1  0.35007553  0.32484081  0.16307785  1
  Cu  Cu129  1  0.91307785  0.57484081  0.89992447  1
  Cu  Cu130  1  0.85007553  0.17515919  0.83692215  1
  Cu  Cu131  1  0.58692215  0.42515919  0.39992447  1
  Cu  Cu132  1  0.14992447  0.67515919  0.66307785  1
  Cu  Cu133  1  0.41307785  0.92515919  0.10007553  1
  Cu  Cu134  1  0.64992447  0.82484081  0.33692215  1
  Cu  Cu135  1  0.08692215  0.07484081  0.60007553  1
  Cu  Cu136  1  0.92515919  0.10007553  0.41307785  1
  Cu  Cu137  1  0.42515919  0.39992447  0.58692215  1
  Cu  Cu138  1  0.57484081  0.89992447  0.91307785  1
  Cu  Cu139  1  0.07484081  0.60007553  0.08692215  1
  Cu  Cu140  1  0.09108061  0.09904676  0.24524693  1
  Cu  Cu141  1  0.40891939  0.90095324  0.74524693  1
  Cu  Cu142  1  0.90891939  0.59904676  0.25475307  1
  Cu  Cu143  1  0.24524693  0.09108061  0.09904676  1
  Cu  Cu144  1  0.84904676  0.34108061  0.00475307  1
  Cu  Cu145  1  0.59108061  0.40095324  0.75475307  1
  Cu  Cu146  1  0.74524693  0.40891939  0.90095324  1
  Cu  Cu147  1  0.65095324  0.65891939  0.50475307  1
  Cu  Cu148  1  0.25475307  0.90891939  0.59904676  1
  Cu  Cu149  1  0.34904676  0.15891939  0.99524693  1
  Cu  Cu150  1  0.75475307  0.59108061  0.40095324  1
  Cu  Cu151  1  0.15095324  0.84108061  0.49524693  1
  Cu  Cu152  1  0.09904676  0.24524693  0.09108061  1
  Cu  Cu153  1  0.84108061  0.49524693  0.15095324  1
  Cu  Cu154  1  0.59904676  0.25475307  0.90891939  1
  Cu  Cu155  1  0.65891939  0.50475307  0.65095324  1
  Cu  Cu156  1  0.40095324  0.75475307  0.59108061  1
  Cu  Cu157  1  0.34108061  0.00475307  0.84904676  1
  Cu  Cu158  1  0.90095324  0.74524693  0.40891939  1
  Cu  Cu159  1  0.15891939  0.99524693  0.34904676  1
  Cu  Cu160  1  0.00475307  0.84904676  0.34108061  1
  Cu  Cu161  1  0.50475307  0.65095324  0.65891939  1
  Cu  Cu162  1  0.49524693  0.15095324  0.84108061  1
  Cu  Cu163  1  0.99524693  0.34904676  0.15891939  1
