# generated using pymatgen
data_Cu(NiC6)4
_symmetry_space_group_name_H-M   'P 1'
_cell_length_a   7.08757800
_cell_length_b   8.26450500
_cell_length_c   15.05841600
_cell_angle_alpha   90.00000000
_cell_angle_beta   90.00000000
_cell_angle_gamma   90.00000000
_symmetry_Int_Tables_number   1
_chemical_formula_structural   Cu(NiC6)4
_chemical_formula_sum   'Cu4 Ni16 C96'
_cell_volume   882.05159340
_cell_formula_units_Z   4
loop_
 _symmetry_equiv_pos_site_id
 _symmetry_equiv_pos_as_xyz
  1  'x, y, z'
loop_
 _atom_site_type_symbol
 _atom_site_label
 _atom_site_symmetry_multiplicity
 _atom_site_fract_x
 _atom_site_fract_y
 _atom_site_fract_z
 _atom_site_occupancy
  C  C0  1  0.85947600  0.41032100  0.17297300  1
  C  C1  1  0.35947600  0.58967900  0.82702700  1
  C  C2  1  0.35947600  0.91032100  0.32702700  1
  C  C3  1  0.85947600  0.08967900  0.67297300  1
  C  C4  1  0.04407500  0.28901600  0.14521000  1
  C  C5  1  0.54407500  0.71098400  0.85479000  1
  C  C6  1  0.54407500  0.78901600  0.35479000  1
  C  C7  1  0.04407500  0.21098400  0.64521000  1
  C  C8  1  0.02330000  0.42958400  0.25254300  1
  C  C9  1  0.52330000  0.57041600  0.74745700  1
  C  C10  1  0.52330000  0.92958400  0.24745700  1
  C  C11  1  0.02330000  0.07041600  0.75254300  1
  C  C12  1  0.81278700  0.37365400  0.31238200  1
  C  C13  1  0.31278700  0.62634600  0.68761800  1
  C  C14  1  0.31278700  0.87365400  0.18761800  1
  C  C15  1  0.81278700  0.12634600  0.81238200  1
  C  C16  1  0.66109200  0.10413400  0.21791600  1
  C  C17  1  0.16109200  0.89586600  0.78208400  1
  C  C18  1  0.16109200  0.60413400  0.28208400  1
  C  C19  1  0.66109200  0.39586600  0.71791600  1
  C  C20  1  0.86538000  0.11985500  0.14030800  1
  C  C21  1  0.36538000  0.88014500  0.85969200  1
  C  C22  1  0.36538000  0.61985500  0.35969200  1
  C  C23  1  0.86538000  0.38014500  0.64030800  1
  C  C24  1  0.17566100  0.25858500  0.25808600  1
  C  C25  1  0.67566100  0.74141500  0.74191400  1
  C  C26  1  0.67566100  0.75858500  0.24191400  1
  C  C27  1  0.17566100  0.24141500  0.75808600  1
  C  C28  1  0.02235200  0.29305500  0.34809300  1
  C  C29  1  0.52235200  0.70694500  0.65190700  1
  C  C30  1  0.52235200  0.79305500  0.15190700  1
  C  C31  1  0.02235200  0.20694500  0.84809300  1
  C  C32  1  0.83328800  0.15173200  0.34851000  1
  C  C33  1  0.33328800  0.84826800  0.65149000  1
  C  C34  1  0.33328800  0.65173200  0.15149000  1
  C  C35  1  0.83328800  0.34826800  0.84851000  1
  C  C36  1  0.88771400  0.99199900  0.23236100  1
  C  C37  1  0.38771400  0.00800100  0.76763900  1
  C  C38  1  0.38771400  0.49199900  0.26763900  1
  C  C39  1  0.88771400  0.50800100  0.73236100  1
  C  C40  1  0.08721800  0.09208300  0.19038500  1
  C  C41  1  0.58721800  0.90791700  0.80961500  1
  C  C42  1  0.58721800  0.59208300  0.30961500  1
  C  C43  1  0.08721800  0.40791700  0.69038500  1
  C  C44  1  0.05977200  0.08838700  0.30650100  1
  C  C45  1  0.55977200  0.91161300  0.69349900  1
  C  C46  1  0.55977200  0.58838700  0.19349900  1
  C  C47  1  0.05977200  0.41161300  0.80650100  1
  C  C48  1  0.79347700  0.58089200  0.44217800  1
  C  C49  1  0.29347700  0.41910800  0.55782200  1
  C  C50  1  0.29347700  0.08089200  0.05782200  1
  C  C51  1  0.79347700  0.91910800  0.94217800  1
  C  C52  1  0.67001900  0.78330300  0.46105900  1
  C  C53  1  0.17001900  0.21669700  0.53894100  1
  C  C54  1  0.17001900  0.28330300  0.03894100  1
  C  C55  1  0.67001900  0.71669700  0.96105900  1
  C  C56  1  0.84633100  0.77579000  0.39270800  1
  C  C57  1  0.34633100  0.22421000  0.60729200  1
  C  C58  1  0.34633100  0.27579000  0.10729200  1
  C  C59  1  0.84633100  0.72421000  0.89270800  1
  C  C60  1  0.03867100  0.66734100  0.37308500  1
  C  C61  1  0.53867100  0.33265900  0.62691500  1
  C  C62  1  0.53867100  0.16734100  0.12691500  1
  C  C63  1  0.03867100  0.83265900  0.87308500  1
  C  C64  1  0.77881100  0.48216300  0.54889200  1
  C  C65  1  0.27881100  0.51783700  0.45110800  1
  C  C66  1  0.27881100  0.98216300  0.95110800  1
  C  C67  1  0.77881100  0.01783700  0.04889200  1
  C  C68  1  0.66749200  0.68422600  0.56116800  1
  C  C69  1  0.16749200  0.31577400  0.43883100  1
  C  C70  1  0.16749200  0.18422600  0.93883200  1
  C  C71  1  0.66749200  0.81577400  0.06116900  1
  C  C72  1  0.84767600  0.94348300  0.46324300  1
  C  C73  1  0.34767600  0.05651700  0.53675700  1
  C  C74  1  0.34767600  0.44348300  0.03675700  1
  C  C75  1  0.84767600  0.55651700  0.96324300  1
  C  C76  1  0.06219600  0.86181400  0.42276500  1
  C  C77  1  0.56219600  0.13818600  0.57723500  1
  C  C78  1  0.56219600  0.36181400  0.07723500  1
  C  C79  1  0.06219600  0.63818600  0.92276500  1
  C  C80  1  0.10889300  0.66697300  0.47984500  1
  C  C81  1  0.60889300  0.33302700  0.52015500  1
  C  C82  1  0.60889300  0.16697300  0.02015500  1
  C  C83  1  0.10889300  0.83302700  0.97984500  1
  C  C84  1  0.89356600  0.71296900  0.61312400  1
  C  C85  1  0.39356600  0.28703100  0.38687600  1
  C  C86  1  0.39356600  0.21296900  0.88687600  1
  C  C87  1  0.89356600  0.78703100  0.11312400  1
  C  C88  1  0.78154900  0.87551600  0.56370700  1
  C  C89  1  0.28154900  0.12448400  0.43629300  1
  C  C90  1  0.28154900  0.37551600  0.93629300  1
  C  C91  1  0.78154900  0.62448400  0.06370700  1
  C  C92  1  0.06578300  0.84084000  0.54192900  1
  C  C93  1  0.56578300  0.15916000  0.45807100  1
  C  C94  1  0.56578300  0.34084000  0.95807100  1
  C  C95  1  0.06578300  0.65916000  0.04192900  1
  Ni  Ni96  1  0.69254700  0.48817300  0.12818100  1
  Ni  Ni97  1  0.19254700  0.51182700  0.87181900  1
  Ni  Ni98  1  0.19254700  0.98817300  0.37181900  1
  Ni  Ni99  1  0.69254700  0.01182700  0.62818100  1
  Ni  Ni100  1  0.36531500  0.31671900  0.29033000  1
  Ni  Ni101  1  0.86531500  0.68328100  0.70967000  1
  Ni  Ni102  1  0.86531500  0.81671900  0.20967000  1
  Ni  Ni103  1  0.36531500  0.18328100  0.79033000  1
  Ni  Ni104  1  0.71941400  0.49755800  0.36273400  1
  Ni  Ni105  1  0.21941400  0.50244200  0.63726600  1
  Ni  Ni106  1  0.21941400  0.99755800  0.13726600  1
  Ni  Ni107  1  0.71941400  0.00244200  0.86273400  1
  Ni  Ni108  1  0.75110300  0.08724900  0.42799900  1
  Ni  Ni109  1  0.25110300  0.91275100  0.57200100  1
  Ni  Ni110  1  0.25110300  0.58724900  0.07200100  1
  Ni  Ni111  1  0.75110300  0.41275100  0.92799900  1
  Cu  Cu112  1  0.19424100  0.72837100  0.21017400  1
  Cu  Cu113  1  0.69424100  0.27162900  0.78982600  1
  Cu  Cu114  1  0.69424100  0.22837100  0.28982600  1
  Cu  Cu115  1  0.19424100  0.77162900  0.71017400  1
