# generated using pymatgen
data_CuNi2C3
_symmetry_space_group_name_H-M   'P 1'
_cell_length_a   6.07580496
_cell_length_b   6.07580496
_cell_length_c   11.30445431
_cell_angle_alpha   95.16919668
_cell_angle_beta   95.16919668
_cell_angle_gamma   120.20516230
_symmetry_Int_Tables_number   1
_chemical_formula_structural   CuNi2C3
_chemical_formula_sum   'Cu4 Ni8 C12'
_cell_volume   354.70973732
_cell_formula_units_Z   4
loop_
 _symmetry_equiv_pos_site_id
 _symmetry_equiv_pos_as_xyz
  1  'x, y, z'
loop_
 _atom_site_type_symbol
 _atom_site_label
 _atom_site_symmetry_multiplicity
 _atom_site_fract_x
 _atom_site_fract_y
 _atom_site_fract_z
 _atom_site_occupancy
  Ni  Ni0  1  0.18543600  0.84150800  0.49924000  1
  Ni  Ni1  1  0.65849200  0.31456400  0.00076000  1
  Ni  Ni2  1  0.81456400  0.15849200  0.50076000  1
  Ni  Ni3  1  0.34150800  0.68543600  0.99924000  1
  Ni  Ni4  1  0.50000000  0.50000000  0.50000000  1
  Ni  Ni5  1  0.00000000  0.00000000  0.00000000  1
  Ni  Ni6  1  0.41700200  0.08299800  0.25000000  1
  Ni  Ni7  1  0.58299800  0.91700200  0.75000000  1
  Cu  Cu8  1  0.75043700  0.74956300  0.25000000  1
  Cu  Cu9  1  0.24956300  0.25043700  0.75000000  1
  Cu  Cu10  1  0.08317500  0.41682500  0.25000000  1
  Cu  Cu11  1  0.91682500  0.58317500  0.75000000  1
  C  C12  1  0.45370500  0.75557700  0.36093500  1
  C  C13  1  0.74442300  0.04629500  0.13906500  1
  C  C14  1  0.54629500  0.24442300  0.63906500  1
  C  C15  1  0.25557700  0.95370500  0.86093500  1
  C  C16  1  0.08564900  0.11874300  0.35723700  1
  C  C17  1  0.38125700  0.41435100  0.14276300  1
  C  C18  1  0.91435100  0.88125700  0.64276300  1
  C  C19  1  0.61874300  0.58564900  0.85723700  1
  C  C20  1  0.81792900  0.48390200  0.35710800  1
  C  C21  1  0.01609800  0.68207100  0.14289200  1
  C  C22  1  0.18207100  0.51609800  0.64289200  1
  C  C23  1  0.98390200  0.31792900  0.85710800  1
