# generated using pymatgen
data_CuNi19C21
_symmetry_space_group_name_H-M   'P 1'
_cell_length_a   9.79821311
_cell_length_b   17.92881391
_cell_length_c   17.97637267
_cell_angle_alpha   90.00000000
_cell_angle_beta   98.14716514
_cell_angle_gamma   90.00000000
_symmetry_Int_Tables_number   1
_chemical_formula_structural   CuNi19C21
_chemical_formula_sum   'Cu4 Ni76 C84'
_cell_volume   3126.04370389
_cell_formula_units_Z   4
loop_
 _symmetry_equiv_pos_site_id
 _symmetry_equiv_pos_as_xyz
  1  'x, y, z'
loop_
 _atom_site_type_symbol
 _atom_site_label
 _atom_site_symmetry_multiplicity
 _atom_site_fract_x
 _atom_site_fract_y
 _atom_site_fract_z
 _atom_site_occupancy
  C  C0  1  0.00140958  0.42459401  0.49346941  1
  C  C1  1  0.99859042  0.92459401  0.00653059  1
  C  C2  1  0.99859042  0.57540599  0.50653059  1
  C  C3  1  0.00140958  0.07540599  0.99346941  1
  C  C4  1  0.04409445  0.29286274  0.58962808  1
  C  C5  1  0.95590555  0.79286274  0.91037192  1
  C  C6  1  0.95590555  0.70713726  0.41037192  1
  C  C7  1  0.04409445  0.20713726  0.08962808  1
  C  C8  1  0.00374811  0.18951660  0.46869758  1
  C  C9  1  0.99625189  0.68951660  0.03130242  1
  C  C10  1  0.99625189  0.81048340  0.53130242  1
  C  C11  1  0.00374811  0.31048340  0.96869758  1
  C  C12  1  0.96255225  0.31604571  0.37268696  1
  C  C13  1  0.03744775  0.81604571  0.12731304  1
  C  C14  1  0.03744775  0.68395429  0.62731304  1
  C  C15  1  0.96255225  0.18395429  0.87268696  1
  C  C16  1  0.80392427  0.29714961  0.49216418  1
  C  C17  1  0.19607573  0.79714961  0.00783582  1
  C  C18  1  0.19607573  0.70285039  0.50783582  1
  C  C19  1  0.80392427  0.20285039  0.99216418  1
  C  C20  1  0.20289150  0.30368033  0.47036241  1
  C  C21  1  0.79710850  0.80368033  0.02963759  1
  C  C22  1  0.79710850  0.69631967  0.52963759  1
  C  C23  1  0.20289150  0.19631967  0.97036241  1
  Ni  Ni24  1  0.90531626  0.49379690  0.55784368  1
  Ni  Ni25  1  0.09468374  0.99379690  0.94215632  1
  Ni  Ni26  1  0.09468374  0.50620310  0.44215632  1
  Ni  Ni27  1  0.90531626  0.00620310  0.05784368  1
  Ni  Ni28  1  0.18534819  0.37684682  0.56208396  1
  Ni  Ni29  1  0.81465181  0.87684682  0.93791604  1
  Ni  Ni30  1  0.81465181  0.62315318  0.43791604  1
  Ni  Ni31  1  0.18534819  0.12315318  0.06208396  1
  Ni  Ni32  1  0.82103011  0.38964661  0.41861003  1
  Ni  Ni33  1  0.17896989  0.88964661  0.08138997  1
  Ni  Ni34  1  0.17896989  0.61035339  0.58138997  1
  Ni  Ni35  1  0.82103011  0.11035339  0.91861003  1
  Ni  Ni36  1  0.97848846  0.34363088  0.67048568  1
  Ni  Ni37  1  0.02151154  0.84363088  0.82951432  1
  Ni  Ni38  1  0.02151154  0.65636912  0.32951432  1
  Ni  Ni39  1  0.97848846  0.15636912  0.17048568  1
  Ni  Ni40  1  0.18127643  0.23865247  0.65493885  1
  Ni  Ni41  1  0.81872357  0.73865247  0.84506115  1
  Ni  Ni42  1  0.81872357  0.76134753  0.34506115  1
  Ni  Ni43  1  0.18127643  0.26134753  0.15493885  1
  Ni  Ni44  1  0.88850609  0.20180413  0.56207381  1
  Ni  Ni45  1  0.11149391  0.70180413  0.93792619  1
  Ni  Ni46  1  0.11149391  0.79819587  0.43792619  1
  Ni  Ni47  1  0.88850609  0.29819587  0.06207381  1
  Ni  Ni48  1  0.12479551  0.11107299  0.50812823  1
  Ni  Ni49  1  0.87520449  0.61107299  0.99187177  1
  Ni  Ni50  1  0.87520449  0.88892701  0.49187177  1
  Ni  Ni51  1  0.12479551  0.38892701  0.00812823  1
  Ni  Ni52  1  0.88365724  0.12196449  0.40854711  1
  Ni  Ni53  1  0.11634276  0.62196449  0.09145289  1
  Ni  Ni54  1  0.11634276  0.87803551  0.59145289  1
  Ni  Ni55  1  0.88365724  0.37803551  0.90854711  1
  Ni  Ni56  1  0.12292612  0.22595287  0.38206721  1
  Ni  Ni57  1  0.87707388  0.72595287  0.11793279  1
  Ni  Ni58  1  0.87707388  0.77404713  0.61793279  1
  Ni  Ni59  1  0.12292612  0.27404713  0.88206721  1
  Ni  Ni60  1  0.03086119  0.37971426  0.30137947  1
  Ni  Ni61  1  0.96913881  0.87971426  0.19862053  1
  Ni  Ni62  1  0.96913881  0.62028574  0.69862053  1
  Ni  Ni63  1  0.03086119  0.12028574  0.80137947  1
  Ni  Ni64  1  0.82245370  0.27616390  0.29850898  1
  Ni  Ni65  1  0.17754630  0.77616390  0.20149102  1
  Ni  Ni66  1  0.17754630  0.72383610  0.70149102  1
  Ni  Ni67  1  0.82245370  0.22383610  0.79850898  1
  Ni  Ni68  1  0.68850798  0.34009390  0.55792439  1
  Ni  Ni69  1  0.31149202  0.84009390  0.94207561  1
  Ni  Ni70  1  0.31149202  0.65990610  0.44207561  1
  Ni  Ni71  1  0.68850798  0.15990610  0.05792439  1
  Ni  Ni72  1  0.65277260  0.25020305  0.43120326  1
  Ni  Ni73  1  0.34722740  0.75020305  0.06879674  1
  Ni  Ni74  1  0.34722740  0.74979695  0.56879674  1
  Ni  Ni75  1  0.65277260  0.24979695  0.93120326  1
  Ni  Ni76  1  0.32011442  0.36141506  0.41641208  1
  Ni  Ni77  1  0.67988558  0.86141506  0.08358792  1
  Ni  Ni78  1  0.67988558  0.63858494  0.58358792  1
  Ni  Ni79  1  0.32011442  0.13858494  0.91641208  1
  Ni  Ni80  1  0.35062115  0.24420037  0.51938649  1
  Ni  Ni81  1  0.64937885  0.74420037  0.98061351  1
  Ni  Ni82  1  0.64937885  0.75579963  0.48061351  1
  Ni  Ni83  1  0.35062115  0.25579963  0.01938649  1
  Ni  Ni84  1  0.29765938  0.47440416  0.79886073  1
  Ni  Ni85  1  0.70234062  0.97440416  0.70113927  1
  Ni  Ni86  1  0.70234062  0.52559584  0.20113927  1
  Ni  Ni87  1  0.29765938  0.02559584  0.29886073  1
  Ni  Ni88  1  0.43757165  0.48617285  0.85574316  1
  Ni  Ni89  1  0.56242835  0.98617285  0.64425684  1
  Ni  Ni90  1  0.56242835  0.51382715  0.14425684  1
  Ni  Ni91  1  0.43757165  0.01382715  0.35574316  1
  Ni  Ni92  1  0.43322357  0.43156573  0.79429445  1
  Ni  Ni93  1  0.56677643  0.93156573  0.70570555  1
  Ni  Ni94  1  0.56677643  0.56843427  0.20570555  1
  Ni  Ni95  1  0.43322357  0.06843427  0.29429445  1
  Ni  Ni96  1  0.47282895  0.55916823  0.83644641  1
  Ni  Ni97  1  0.52717105  0.05916823  0.66355359  1
  Ni  Ni98  1  0.52717105  0.44083177  0.16355359  1
  Ni  Ni99  1  0.47282895  0.94083177  0.33644641  1
  Cu  Cu100  1  0.40595000  0.52044644  0.76906840  1
  Cu  Cu101  1  0.59405000  0.02044644  0.73093160  1
  Cu  Cu102  1  0.59405000  0.47955356  0.23093160  1
  Cu  Cu103  1  0.40595000  0.97955356  0.26906840  1
  C  C104  1  0.82876626  0.48886081  0.60278111  1
  C  C105  1  0.17123274  0.98886081  0.89721889  1
  C  C106  1  0.17123274  0.51113919  0.39721889  1
  C  C107  1  0.82876626  0.01113919  0.10278111  1
  C  C108  1  0.26772409  0.41255592  0.60171412  1
  C  C109  1  0.73227591  0.91255592  0.89828588  1
  C  C110  1  0.73227591  0.58744408  0.39828588  1
  C  C111  1  0.26772409  0.08744408  0.10171412  1
  C  C112  1  0.73502439  0.42949864  0.38681711  1
  C  C113  1  0.26497561  0.92949864  0.11318289  1
  C  C114  1  0.26497561  0.57050136  0.61318289  1
  C  C115  1  0.73502439  0.07050136  0.88681711  1
  C  C116  1  0.94419545  0.37444536  0.72105575  1
  C  C117  1  0.05580455  0.87444536  0.77894425  1
  C  C118  1  0.05580455  0.62555464  0.27894425  1
  C  C119  1  0.94419545  0.12555464  0.22105575  1
  C  C120  1  0.26454022  0.20687843  0.69450104  1
  C  C121  1  0.73545978  0.70687843  0.80549896  1
  C  C122  1  0.73545978  0.79312157  0.30549896  1
  C  C123  1  0.26454022  0.29312157  0.19450104  1
  C  C124  1  0.83688909  0.15989563  0.60060645  1
  C  C125  1  0.16311091  0.65989563  0.89939355  1
  C  C126  1  0.16311091  0.84010437  0.39939355  1
  C  C127  1  0.83688909  0.34010437  0.10060645  1
  C  C128  1  0.19706804  0.06260827  0.53037606  1
  C  C129  1  0.80293196  0.56260827  0.96962394  1
  C  C130  1  0.80293196  0.93739173  0.46962394  1
  C  C131  1  0.19706804  0.43739173  0.03037606  1
  C  C132  1  0.81270071  0.08066184  0.37202401  1
  C  C133  1  0.18729929  0.58066184  0.12797599  1
  C  C134  1  0.18729929  0.91933816  0.62797599  1
  C  C135  1  0.81270071  0.41933816  0.87202401  1
  C  C136  1  0.17559092  0.19484165  0.33554842  1
  C  C137  1  0.82440908  0.69484165  0.16445158  1
  C  C138  1  0.82440908  0.80515835  0.66445158  1
  C  C139  1  0.17559092  0.30515835  0.83554842  1
  C  C140  1  0.06817024  0.41607414  0.25527963  1
  C  C141  1  0.93182976  0.91607414  0.24472037  1
  C  C142  1  0.93182976  0.58392586  0.74472037  1
  C  C143  1  0.06817024  0.08392586  0.75527963  1
  C  C144  1  0.73608027  0.25374587  0.25370685  1
  C  C145  1  0.26391973  0.75374587  0.24629315  1
  C  C146  1  0.26391973  0.74625413  0.74629315  1
  C  C147  1  0.73608027  0.24625413  0.75370685  1
  C  C148  1  0.61353939  0.36270058  0.59658690  1
  C  C149  1  0.38646061  0.86270058  0.90341310  1
  C  C150  1  0.38646061  0.63729942  0.40341310  1
  C  C151  1  0.61353939  0.13729942  0.09658690  1
  C  C152  1  0.56090870  0.22186866  0.39445122  1
  C  C153  1  0.43909130  0.72186866  0.10554878  1
  C  C154  1  0.43909130  0.77813134  0.60554878  1
  C  C155  1  0.56090870  0.27813134  0.89445122  1
  C  C156  1  0.39589304  0.39259183  0.38377274  1
  C  C157  1  0.60410696  0.89259183  0.11622726  1
  C  C158  1  0.60410696  0.60740817  0.61622726  1
  C  C159  1  0.39589304  0.10740817  0.88377274  1
  C  C160  1  0.43832819  0.20636074  0.54782551  1
  C  C161  1  0.56167181  0.70636074  0.95217449  1
  C  C162  1  0.56167181  0.79363926  0.45217449  1
  C  C163  1  0.43832819  0.29363926  0.04782551  1
