# generated using pymatgen
data_Cu12Ni2C3
_symmetry_space_group_name_H-M   'P 1'
_cell_length_a   5.50776527
_cell_length_b   8.07479600
_cell_length_c   11.81681521
_cell_angle_alpha   90.00000000
_cell_angle_beta   92.45258540
_cell_angle_gamma   90.00000000
_symmetry_Int_Tables_number   1
_chemical_formula_structural   Cu12Ni2C3
_chemical_formula_sum   'Cu24 Ni4 C6'
_cell_volume   525.06058781
_cell_formula_units_Z   2
loop_
 _symmetry_equiv_pos_site_id
 _symmetry_equiv_pos_as_xyz
  1  'x, y, z'
loop_
 _atom_site_type_symbol
 _atom_site_label
 _atom_site_symmetry_multiplicity
 _atom_site_fract_x
 _atom_site_fract_y
 _atom_site_fract_z
 _atom_site_occupancy
  C  C0  1  0.84625600  0.53383800  0.12671300  1
  C  C1  1  0.15374400  0.03383800  0.37328700  1
  C  C2  1  0.15374400  0.46616200  0.87328700  1
  C  C3  1  0.84625600  0.96616200  0.62671300  1
  C  C4  1  0.00000000  0.50000000  0.50000000  1
  C  C5  1  0.00000000  0.00000000  0.00000000  1
  Ni  Ni6  1  0.64376700  0.78245700  0.36897300  1
  Ni  Ni7  1  0.35623300  0.28245700  0.13102700  1
  Ni  Ni8  1  0.35623300  0.21754300  0.63102700  1
  Ni  Ni9  1  0.64376700  0.71754300  0.86897300  1
  Cu  Cu10  1  0.65989100  0.81401800  0.23943700  1
  Cu  Cu11  1  0.34010900  0.31401800  0.26056300  1
  Cu  Cu12  1  0.34010900  0.18598200  0.76056300  1
  Cu  Cu13  1  0.65989100  0.68598200  0.73943700  1
  Cu  Cu14  1  0.78252200  0.91293500  0.42950400  1
  Cu  Cu15  1  0.21747800  0.41293500  0.07049600  1
  Cu  Cu16  1  0.21747800  0.08706500  0.57049600  1
  Cu  Cu17  1  0.78252200  0.58706500  0.92950400  1
  Cu  Cu18  1  0.74825000  0.61450400  0.39258500  1
  Cu  Cu19  1  0.25175000  0.11450400  0.10741500  1
  Cu  Cu20  1  0.25175000  0.38549600  0.60741500  1
  Cu  Cu21  1  0.74825000  0.88549600  0.89258500  1
  Cu  Cu22  1  0.38280500  0.78722900  0.38649600  1
  Cu  Cu23  1  0.61719500  0.28722900  0.11350400  1
  Cu  Cu24  1  0.61719500  0.21277100  0.61350400  1
  Cu  Cu25  1  0.38280500  0.71277100  0.88649600  1
  Cu  Cu26  1  0.01335000  0.33699000  0.28581700  1
  Cu  Cu27  1  0.98665000  0.83699000  0.21418300  1
  Cu  Cu28  1  0.98665000  0.66301000  0.71418300  1
  Cu  Cu29  1  0.01335000  0.16301000  0.78581700  1
  Cu  Cu30  1  0.01544300  0.80621900  0.10669100  1
  Cu  Cu31  1  0.98455700  0.30621900  0.39330900  1
  Cu  Cu32  1  0.98455700  0.19378100  0.89330900  1
  Cu  Cu33  1  0.01544300  0.69378100  0.60669100  1
