# generated using pymatgen
data_CuNi27C14
_symmetry_space_group_name_H-M   'P 1'
_cell_length_a   7.43601122
_cell_length_b   8.74112045
_cell_length_c   8.73841320
_cell_angle_alpha   63.37061014
_cell_angle_beta   115.16138988
_cell_angle_gamma   115.17274896
_symmetry_Int_Tables_number   1
_chemical_formula_structural   CuNi27C14
_chemical_formula_sum   'Cu1 Ni27 C14'
_cell_volume   439.78848168
_cell_formula_units_Z   1
loop_
 _symmetry_equiv_pos_site_id
 _symmetry_equiv_pos_as_xyz
  1  'x, y, z'
loop_
 _atom_site_type_symbol
 _atom_site_label
 _atom_site_symmetry_multiplicity
 _atom_site_fract_x
 _atom_site_fract_y
 _atom_site_fract_z
 _atom_site_occupancy
  C  C0  1  0.28184300  0.07164700  0.81899100  1
  C  C1  1  0.28338000  0.56988800  0.32225500  1
  C  C2  1  0.11074800  0.81995400  0.56969200  1
  C  C3  1  0.10799700  0.32073700  0.07189200  1
  C  C4  1  0.60923600  0.98245100  0.73541400  1
  C  C5  1  0.60797100  0.48487400  0.23253900  1
  C  C6  1  0.00051800  0.87230200  0.12864300  1
  C  C7  1  0.99961600  0.37155000  0.62749300  1
  C  C8  1  0.87598900  0.16107600  0.41241000  1
  C  C9  1  0.88221200  0.65890100  0.92198800  1
  C  C10  1  0.42636600  0.02684800  0.27600700  1
  C  C11  1  0.41940300  0.51810900  0.78283000  1
  C  C12  1  0.69605200  0.93579600  0.18696600  1
  C  C13  1  0.69961600  0.42809100  0.69077800  1
  Ni  Ni14  1  0.33322900  0.05013900  0.61580300  1
  Ni  Ni15  1  0.33330600  0.55207600  0.11517200  1
  Ni  Ni16  1  0.62185500  0.02229200  0.50373100  1
  Ni  Ni17  1  0.62703300  0.52652100  0.99942900  1
  Ni  Ni18  1  0.47380800  0.80712800  0.28901200  1
  Ni  Ni19  1  0.47400100  0.31420000  0.78658200  1
  Ni  Ni20  1  0.90448300  0.94766800  0.43040800  1
  Ni  Ni21  1  0.89878400  0.45047000  0.92302200  1
  Ni  Ni22  1  0.04783400  0.16866700  0.64134000  1
  Ni  Ni23  1  0.04853600  0.66748300  0.14671700  1
  Ni  Ni24  1  0.19013500  0.88166400  0.35526200  1
  Ni  Ni25  1  0.18548300  0.37848300  0.85657100  1
  Ni  Ni26  1  0.76504100  0.23640800  0.71493600  1
  Ni  Ni27  1  0.76266300  0.73948800  0.21268000  1
  Ni  Ni28  1  0.82248100  0.37056200  0.39323700  1
  Ni  Ni29  1  0.82329400  0.86717400  0.89314900  1
  Ni  Ni30  1  0.23625100  0.01795700  0.04061200  1
  Ni  Ni31  1  0.23943800  0.51885400  0.54422500  1
  Ni  Ni32  1  0.93999100  0.07648800  0.10040000  1
  Ni  Ni33  1  0.93826200  0.57625000  0.60113100  1
  Ni  Ni34  1  0.08195400  0.81838300  0.79553600  1
  Ni  Ni35  1  0.08500000  0.31979500  0.29547300  1
  Ni  Ni36  1  0.38679500  0.74415500  0.72418000  1
  Ni  Ni37  1  0.38404300  0.24845600  0.22133100  1
  Ni  Ni38  1  0.52886800  0.96998200  0.94461000  1
  Ni  Ni39  1  0.53281100  0.46995100  0.44808300  1
  Ni  Ni40  1  0.66702800  0.12959000  0.20374300  1
  Cu  Cu41  1  0.66664400  0.63949200  0.69372700  1
