# generated using pymatgen
data_Cu(Ni3C4)2
_symmetry_space_group_name_H-M   'P 1'
_cell_length_a   8.47721909
_cell_length_b   8.47721892
_cell_length_c   10.38242988
_cell_angle_alpha   114.09484186
_cell_angle_beta   65.90515767
_cell_angle_gamma   90.00000438
_symmetry_Int_Tables_number   1
_chemical_formula_structural   Cu(Ni3C4)2
_chemical_formula_sum   'Cu4 Ni24 C32'
_cell_volume   609.20042263
_cell_formula_units_Z   4
loop_
 _symmetry_equiv_pos_site_id
 _symmetry_equiv_pos_as_xyz
  1  'x, y, z'
loop_
 _atom_site_type_symbol
 _atom_site_label
 _atom_site_symmetry_multiplicity
 _atom_site_fract_x
 _atom_site_fract_y
 _atom_site_fract_z
 _atom_site_occupancy
  Ni  Ni0  1  0.37500000  0.37500000  0.25000000  1
  Ni  Ni1  1  0.62500000  0.62500000  0.75000000  1
  Ni  Ni2  1  0.87500000  0.87500000  0.25000000  1
  Ni  Ni3  1  0.12500000  0.12500000  0.75000000  1
  Ni  Ni4  1  0.50000000  0.50000000  0.50000000  1
  Ni  Ni5  1  0.75000000  0.75000000  0.00000000  1
  Ni  Ni6  1  0.00000000  0.00000000  0.50000000  1
  Ni  Ni7  1  0.25000000  0.25000000  0.00000000  1
  Ni  Ni8  1  0.75000000  0.25000000  0.00000000  1
  Ni  Ni9  1  0.00000000  0.50000000  0.50000000  1
  Ni  Ni10  1  0.25000000  0.75000000  0.00000000  1
  Ni  Ni11  1  0.50000000  0.00000000  0.50000000  1
  Ni  Ni12  1  0.87500000  0.37500000  0.25000000  1
  Ni  Ni13  1  0.12500000  0.62500000  0.75000000  1
  Ni  Ni14  1  0.37500000  0.87500000  0.25000000  1
  Ni  Ni15  1  0.62500000  0.12500000  0.75000000  1
  Ni  Ni16  1  0.62500000  0.12500000  0.25000000  1
  Ni  Ni17  1  0.87500000  0.37500000  0.75000000  1
  Ni  Ni18  1  0.12500000  0.62500000  0.25000000  1
  Ni  Ni19  1  0.37500000  0.87500000  0.75000000  1
  Ni  Ni20  1  0.62500000  0.62500000  0.25000000  1
  Ni  Ni21  1  0.87500000  0.87500000  0.75000000  1
  Ni  Ni22  1  0.12500000  0.12500000  0.25000000  1
  Ni  Ni23  1  0.37500000  0.37500000  0.75000000  1
  Cu  Cu24  1  0.50000000  0.50000000  0.00000000  1
  Cu  Cu25  1  0.75000000  0.75000000  0.50000000  1
  Cu  Cu26  1  0.00000000  0.00000000  0.00000000  1
  Cu  Cu27  1  0.25000000  0.25000000  0.50000000  1
  C  C28  1  0.87500000  0.12500000  0.75000000  1
  C  C29  1  0.12500000  0.37500000  0.25000000  1
  C  C30  1  0.37500000  0.62500000  0.75000000  1
  C  C31  1  0.62500000  0.87500000  0.25000000  1
  C  C32  1  0.62500000  0.37500000  0.25000000  1
  C  C33  1  0.87500000  0.62500000  0.75000000  1
  C  C34  1  0.12500000  0.87500000  0.25000000  1
  C  C35  1  0.37500000  0.12500000  0.75000000  1
  C  C36  1  0.02063500  0.25000000  0.50000000  1
  C  C37  1  0.27063500  0.50000000  0.00000000  1
  C  C38  1  0.52063500  0.75000000  0.50000000  1
  C  C39  1  0.77063500  0.00000000  0.00000000  1
  C  C40  1  0.88531800  0.11468200  0.22936500  1
  C  C41  1  0.13531800  0.36468200  0.72936500  1
  C  C42  1  0.38531800  0.61468200  0.22936500  1
  C  C43  1  0.63531800  0.86468200  0.72936500  1
  C  C44  1  0.61468200  0.38531800  0.77063500  1
  C  C45  1  0.86468200  0.63531800  0.27063500  1
  C  C46  1  0.11468200  0.88531800  0.77063500  1
  C  C47  1  0.36468200  0.13531800  0.27063500  1
  C  C48  1  0.75000000  0.52063500  0.50000000  1
  C  C49  1  0.00000000  0.77063500  0.00000000  1
  C  C50  1  0.25000000  0.02063500  0.50000000  1
  C  C51  1  0.50000000  0.27063500  0.00000000  1
  C  C52  1  0.75000000  0.97936500  0.50000000  1
  C  C53  1  0.00000000  0.22936500  0.00000000  1
  C  C54  1  0.25000000  0.47936500  0.50000000  1
  C  C55  1  0.50000000  0.72936500  0.00000000  1
  C  C56  1  0.47936500  0.25000000  0.50000000  1
  C  C57  1  0.72936500  0.50000000  0.00000000  1
  C  C58  1  0.97936500  0.75000000  0.50000000  1
  C  C59  1  0.22936500  0.00000000  0.00000000  1
