# generated using pymatgen
data_Cu3Ni2C19
_symmetry_space_group_name_H-M   'P 1'
_cell_length_a   5.01268868
_cell_length_b   5.01276725
_cell_length_c   19.48653761
_cell_angle_alpha   86.87627988
_cell_angle_beta   86.92233522
_cell_angle_gamma   118.94853630
_symmetry_Int_Tables_number   1
_chemical_formula_structural   Cu3Ni2C19
_chemical_formula_sum   'Cu6 Ni4 C38'
_cell_volume   426.03123725
_cell_formula_units_Z   2
loop_
 _symmetry_equiv_pos_site_id
 _symmetry_equiv_pos_as_xyz
  1  'x, y, z'
loop_
 _atom_site_type_symbol
 _atom_site_label
 _atom_site_symmetry_multiplicity
 _atom_site_fract_x
 _atom_site_fract_y
 _atom_site_fract_z
 _atom_site_occupancy
  C  C0  1  0.58834500  0.92013800  0.25000100  1
  C  C1  1  0.07913000  0.41223300  0.74988900  1
  C  C2  1  0.95695800  0.28438600  0.13732600  1
  C  C3  1  0.44973000  0.79199800  0.63763700  1
  C  C4  1  0.20811800  0.54875400  0.36253600  1
  C  C5  1  0.71698900  0.04524400  0.86261500  1
  C  C6  1  0.29160100  0.94270600  0.13477300  1
  C  C7  1  0.80319000  0.46130100  0.63643400  1
  C  C8  1  0.53823600  0.19559500  0.36352800  1
  C  C9  1  0.05742400  0.70858600  0.86515700  1
  C  C10  1  0.63165100  0.64039900  0.13672700  1
  C  C11  1  0.11405700  0.13132900  0.63580700  1
  C  C12  1  0.86757600  0.88368200  0.36420700  1
  C  C13  1  0.36141800  0.36970700  0.86334400  1
  Ni  Ni14  1  0.49842000  0.50051000  0.50003600  1
  Ni  Ni15  1  0.66853700  0.33190500  0.00000400  1
  Ni  Ni16  1  0.16196500  0.83699100  0.50003400  1
  Ni  Ni17  1  0.00515900  0.99543800  0.99995500  1
  Cu  Cu18  1  0.33418800  0.66647600  0.99995500  1
  Cu  Cu19  1  0.83303000  0.16583800  0.50002500  1
  Cu  Cu20  1  0.25423400  0.24928700  0.25003600  1
  Cu  Cu21  1  0.75045700  0.74604000  0.75003800  1
  Cu  Cu22  1  0.91209400  0.58251600  0.24996400  1
  Cu  Cu23  1  0.41682200  0.08855800  0.75002500  1
  C  C24  1  0.64600800  0.97138000  0.05307500  1
  C  C25  1  0.13835300  0.47850600  0.55319900  1
  C  C26  1  0.52024000  0.86064400  0.44683700  1
  C  C27  1  0.02907000  0.35468000  0.94685000  1
  C  C28  1  0.90489200  0.26071500  0.30746300  1
  C  C29  1  0.41802600  0.75579600  0.80588000  1
  C  C30  1  0.24590400  0.58287500  0.19406600  1
  C  C31  1  0.73875300  0.09520200  0.69250400  1
  C  C32  1  0.01036200  0.67534300  0.05604000  1
  C  C33  1  0.47545600  0.13962400  0.55186400  1
  C  C34  1  0.30718600  0.30963000  0.05279000  1
  C  C35  1  0.84209800  0.84173700  0.55684700  1
  C  C36  1  0.85919900  0.52360300  0.44819800  1
  C  C37  1  0.32523200  0.99047200  0.94389000  1
  C  C38  1  0.15703200  0.15686900  0.44320600  1
  C  C39  1  0.69083600  0.69343500  0.94712400  1
  C  C40  1  0.20182700  0.88924700  0.30590100  1
  C  C41  1  0.70059700  0.37836800  0.80769300  1
  C  C42  1  0.57708800  0.55180800  0.30767100  1
  C  C43  1  0.08222700  0.05116700  0.80730000  1
  C  C44  1  0.62351600  0.30076500  0.19240100  1
  C  C45  1  0.10928000  0.79747400  0.69407000  1
  C  C46  1  0.95020700  0.91894800  0.19265300  1
  C  C47  1  0.44728300  0.42209300  0.69242700  1
