# generated using pymatgen
data_Cu14NiC
_symmetry_space_group_name_H-M   'P 1'
_cell_length_a   6.42080749
_cell_length_b   6.34598204
_cell_length_c   10.39186791
_cell_angle_alpha   90.00000000
_cell_angle_beta   90.00000000
_cell_angle_gamma   119.61525073
_symmetry_Int_Tables_number   1
_chemical_formula_structural   Cu14NiC
_chemical_formula_sum   'Cu14 Ni1 C1'
_cell_volume   368.11496208
_cell_formula_units_Z   1
loop_
 _symmetry_equiv_pos_site_id
 _symmetry_equiv_pos_as_xyz
  1  'x, y, z'
loop_
 _atom_site_type_symbol
 _atom_site_label
 _atom_site_symmetry_multiplicity
 _atom_site_fract_x
 _atom_site_fract_y
 _atom_site_fract_z
 _atom_site_occupancy
  Ni  Ni0  1  0.16702462  0.83351181  0.12500000  1
  Cu  Cu1  1  0.16628426  0.33314163  0.62500000  1
  Cu  Cu2  1  0.16615737  0.83307818  0.62500000  1
  Cu  Cu3  1  0.66699296  0.33563645  0.12500000  1
  Cu  Cu4  1  0.66633943  0.33332574  0.62500000  1
  Cu  Cu5  1  0.66699296  0.83135551  0.12500000  1
  Cu  Cu6  1  0.66633943  0.83301269  0.62500000  1
  Cu  Cu7  1  0.33489382  0.16202888  0.37809574  1
  Cu  Cu8  1  0.33489382  0.16202888  0.87190426  1
  Cu  Cu9  1  0.33489382  0.67286594  0.37809574  1
  Cu  Cu10  1  0.33489382  0.67286594  0.87190426  1
  Cu  Cu11  1  0.82846969  0.16423535  0.37845494  1
  Cu  Cu12  1  0.82846969  0.16423535  0.87154506  1
  Cu  Cu13  1  0.83683738  0.66841919  0.37372705  1
  Cu  Cu14  1  0.83683738  0.66841919  0.87627295  1
  C  C15  1  0.16367955  0.33183927  0.12500000  1
