# generated using pymatgen
data_Cu5Ni6C37
_symmetry_space_group_name_H-M   'P 1'
_cell_length_a   8.83238205
_cell_length_b   12.83293545
_cell_length_c   20.52519178
_cell_angle_alpha   90.00000000
_cell_angle_beta   90.00000000
_cell_angle_gamma   90.00000000
_symmetry_Int_Tables_number   1
_chemical_formula_structural   Cu5Ni6C37
_chemical_formula_sum   'Cu20 Ni24 C148'
_cell_volume   2326.43584080
_cell_formula_units_Z   4
loop_
 _symmetry_equiv_pos_site_id
 _symmetry_equiv_pos_as_xyz
  1  'x, y, z'
loop_
 _atom_site_type_symbol
 _atom_site_label
 _atom_site_symmetry_multiplicity
 _atom_site_fract_x
 _atom_site_fract_y
 _atom_site_fract_z
 _atom_site_occupancy
  C  C0  1  0.75000000  0.75000000  0.08069872  1
  C  C1  1  0.75000000  0.25000000  0.41930128  1
  C  C2  1  0.25000000  0.25000000  0.91930128  1
  C  C3  1  0.25000000  0.75000000  0.58069872  1
  C  C4  1  0.93306700  0.67380791  0.93868179  1
  C  C5  1  0.93306700  0.32619209  0.56131821  1
  C  C6  1  0.56693300  0.82619209  0.93868179  1
  C  C7  1  0.56693300  0.17380791  0.56131821  1
  C  C8  1  0.06693300  0.32619209  0.06131821  1
  C  C9  1  0.06693300  0.67380791  0.43868179  1
  C  C10  1  0.43306700  0.17380791  0.06131821  1
  C  C11  1  0.43306700  0.82619209  0.43868179  1
  C  C12  1  0.53589801  0.66747429  0.16788539  1
  C  C13  1  0.53589801  0.33252571  0.33211461  1
  C  C14  1  0.96410199  0.83252571  0.16788539  1
  C  C15  1  0.96410199  0.16747429  0.33211461  1
  C  C16  1  0.46410199  0.33252571  0.83211461  1
  C  C17  1  0.46410199  0.66747429  0.66788539  1
  C  C18  1  0.03589801  0.16747429  0.83211461  1
  C  C19  1  0.03589801  0.83252571  0.66788539  1
  C  C20  1  0.93305944  0.56954711  0.08798889  1
  C  C21  1  0.93305944  0.43045289  0.41201111  1
  C  C22  1  0.56694056  0.93045289  0.08798889  1
  C  C23  1  0.56694056  0.06954711  0.41201111  1
  C  C24  1  0.06694056  0.43045289  0.91201111  1
  C  C25  1  0.06694056  0.56954711  0.58798889  1
  C  C26  1  0.43305944  0.06954711  0.91201111  1
  C  C27  1  0.43305944  0.93045289  0.58798889  1
  C  C28  1  0.86053961  0.85289746  0.97007661  1
  C  C29  1  0.86053961  0.14710254  0.52992339  1
  C  C30  1  0.63946039  0.64710254  0.97007661  1
  C  C31  1  0.63946039  0.35289746  0.52992339  1
  C  C32  1  0.13946039  0.14710254  0.02992339  1
  C  C33  1  0.13946039  0.85289746  0.47007661  1
  C  C34  1  0.36053961  0.35289746  0.02992339  1
  C  C35  1  0.36053961  0.64710254  0.47007661  1
  C  C36  1  0.81358008  0.54934404  0.02883686  1
  C  C37  1  0.81358008  0.45065596  0.47116314  1
  C  C38  1  0.68641992  0.95065596  0.02883686  1
  C  C39  1  0.68641992  0.04934404  0.47116314  1
  C  C40  1  0.18641992  0.45065596  0.97116314  1
  C  C41  1  0.18641992  0.54934404  0.52883686  1
  C  C42  1  0.31358008  0.04934404  0.97116314  1
  C  C43  1  0.31358008  0.95065596  0.52883686  1
  C  C44  1  0.61725922  0.49249021  0.10143997  1
  C  C45  1  0.61725922  0.50750979  0.39856003  1
  C  C46  1  0.88274078  0.00750979  0.10143997  1
  C  C47  1  0.88274078  0.99249021  0.39856003  1
  C  C48  1  0.38274078  0.50750979  0.89856003  1
  C  C49  1  0.38274078  0.49249021  0.60143997  1
  C  C50  1  0.11725922  0.99249021  0.89856003  1
  C  C51  1  0.11725922  0.00750979  0.60143997  1
  C  C52  1  0.48260171  0.77823596  0.25170508  1
  C  C53  1  0.48260171  0.22176404  0.24829492  1
  C  C54  1  0.01739829  0.72176404  0.25170508  1
  C  C55  1  0.01739829  0.27823596  0.24829492  1
  C  C56  1  0.51739829  0.22176404  0.74829492  1
  C  C57  1  0.51739829  0.77823596  0.75170508  1
  C  C58  1  0.98260171  0.27823596  0.74829492  1
  C  C59  1  0.98260171  0.72176404  0.75170508  1
  C  C60  1  0.51801508  0.88788206  0.20142955  1
  C  C61  1  0.51801508  0.11211794  0.29857045  1
  C  C62  1  0.98198492  0.61211794  0.20142955  1
  C  C63  1  0.98198492  0.38788206  0.29857045  1
  C  C64  1  0.48198492  0.11211794  0.79857045  1
  C  C65  1  0.48198492  0.88788206  0.70142955  1
  C  C66  1  0.01801508  0.38788206  0.79857045  1
  C  C67  1  0.01801508  0.61211794  0.70142955  1
  C  C68  1  0.07218753  0.77164873  0.92400119  1
  C  C69  1  0.07218753  0.22835127  0.57599881  1
  C  C70  1  0.42781247  0.72835127  0.92400119  1
  C  C71  1  0.42781247  0.27164873  0.57599881  1
  C  C72  1  0.92781247  0.22835127  0.07599881  1
  C  C73  1  0.92781247  0.77164873  0.42400119  1
  C  C74  1  0.57218753  0.27164873  0.07599881  1
  C  C75  1  0.57218753  0.72835127  0.42400119  1
  C  C76  1  0.67270183  0.81575200  0.23381786  1
  C  C77  1  0.67270183  0.18424800  0.26618214  1
  C  C78  1  0.82729817  0.68424800  0.23381786  1
  C  C79  1  0.82729817  0.31575200  0.26618214  1
  C  C80  1  0.32729817  0.18424800  0.76618214  1
  C  C81  1  0.32729817  0.81575200  0.73381786  1
  C  C82  1  0.17270183  0.31575200  0.76618214  1
  C  C83  1  0.17270183  0.68424800  0.73381786  1
  C  C84  1  0.73990084  0.51785739  0.16814066  1
  C  C85  1  0.73990084  0.48214261  0.33185934  1
  C  C86  1  0.76009916  0.98214261  0.16814066  1
  C  C87  1  0.76009916  0.01785739  0.33185934  1
  C  C88  1  0.26009916  0.48214261  0.83185934  1
  C  C89  1  0.26009916  0.51785739  0.66814066  1
  C  C90  1  0.23990084  0.01785739  0.83185934  1
  C  C91  1  0.23990084  0.98214261  0.66814066  1
  C  C92  1  0.46078283  0.76368544  0.12826284  1
  C  C93  1  0.46078283  0.23631456  0.37173716  1
  C  C94  1  0.03921717  0.73631456  0.12826284  1
  C  C95  1  0.03921717  0.26368544  0.37173716  1
  C  C96  1  0.53921717  0.23631456  0.87173716  1
  C  C97  1  0.53921717  0.76368544  0.62826284  1
  C  C98  1  0.96078283  0.26368544  0.87173716  1
  C  C99  1  0.96078283  0.73631456  0.62826284  1
  C  C100  1  0.99222761  0.85417383  0.02545916  1
  C  C101  1  0.99222761  0.14582617  0.47454084  1
  C  C102  1  0.50777239  0.64582617  0.02545916  1
  C  C103  1  0.50777239  0.35417383  0.47454084  1
  C  C104  1  0.00777239  0.14582617  0.97454084  1
  C  C105  1  0.00777239  0.85417383  0.52545916  1
  C  C106  1  0.49222761  0.35417383  0.97454084  1
  C  C107  1  0.49222761  0.64582617  0.52545916  1
  C  C108  1  0.08659307  0.68772498  0.99369507  1
  C  C109  1  0.08659307  0.31227502  0.50630493  1
  C  C110  1  0.41340693  0.81227502  0.99369507  1
  C  C111  1  0.41340693  0.18772498  0.50630493  1
  C  C112  1  0.91340693  0.31227502  0.00630493  1
  C  C113  1  0.91340693  0.68772498  0.49369507  1
  C  C114  1  0.58659307  0.18772498  0.00630493  1
  C  C115  1  0.58659307  0.81227502  0.49369507  1
  C  C116  1  0.78515033  0.41722883  0.11173061  1
  C  C117  1  0.78515033  0.58277117  0.38826939  1
  C  C118  1  0.71484967  0.08277117  0.11173061  1
  C  C119  1  0.71484967  0.91722883  0.38826939  1
  C  C120  1  0.21484967  0.58277117  0.88826939  1
  C  C121  1  0.21484967  0.41722883  0.61173061  1
  C  C122  1  0.28515033  0.91722883  0.88826939  1
  C  C123  1  0.28515033  0.08277117  0.61173061  1
  Ni  Ni124  1  0.73668979  0.49595375  0.11641779  1
  Ni  Ni125  1  0.73668979  0.50404625  0.38358221  1
  Ni  Ni126  1  0.76331021  0.00404625  0.11641779  1
  Ni  Ni127  1  0.76331021  0.99595375  0.38358221  1
  Ni  Ni128  1  0.26331021  0.50404625  0.88358221  1
  Ni  Ni129  1  0.26331021  0.49595375  0.61641779  1
  Ni  Ni130  1  0.23668979  0.99595375  0.88358221  1
  Ni  Ni131  1  0.23668979  0.00404625  0.61641779  1
  Ni  Ni132  1  0.55773987  0.80926674  0.21367660  1
  Ni  Ni133  1  0.55773987  0.19073326  0.28632340  1
  Ni  Ni134  1  0.94226013  0.69073326  0.21367660  1
  Ni  Ni135  1  0.94226013  0.30926674  0.28632340  1
  Ni  Ni136  1  0.44226013  0.19073326  0.78632340  1
  Ni  Ni137  1  0.44226013  0.80926674  0.71367660  1
  Ni  Ni138  1  0.05773987  0.30926674  0.78632340  1
  Ni  Ni139  1  0.05773987  0.69073326  0.71367660  1
  Ni  Ni140  1  0.00778063  0.73097364  0.96218127  1
  Ni  Ni141  1  0.00778063  0.26902636  0.53781873  1
  Ni  Ni142  1  0.49221937  0.76902636  0.96218127  1
  Ni  Ni143  1  0.49221937  0.23097364  0.53781873  1
  Ni  Ni144  1  0.99221937  0.26902636  0.03781873  1
  Ni  Ni145  1  0.99221937  0.73097364  0.46218127  1
  Ni  Ni146  1  0.50778063  0.23097364  0.03781873  1
  Ni  Ni147  1  0.50778063  0.76902636  0.46218127  1
  Cu  Cu148  1  0.28278904  0.57152900  0.33601650  1
  Cu  Cu149  1  0.28278904  0.42847100  0.16398350  1
  Cu  Cu150  1  0.21721096  0.92847100  0.33601650  1
  Cu  Cu151  1  0.21721096  0.07152900  0.16398350  1
  Cu  Cu152  1  0.71721096  0.42847100  0.66398350  1
  Cu  Cu153  1  0.71721096  0.57152900  0.83601650  1
  Cu  Cu154  1  0.78278904  0.07152900  0.66398350  1
  Cu  Cu155  1  0.78278904  0.92847100  0.83601650  1
  Cu  Cu156  1  0.24029096  0.44258823  0.41557158  1
  Cu  Cu157  1  0.24029096  0.55741177  0.08442842  1
  Cu  Cu158  1  0.25970904  0.05741177  0.41557158  1
  Cu  Cu159  1  0.25970904  0.94258823  0.08442842  1
  Cu  Cu160  1  0.75970904  0.55741177  0.58442842  1
  Cu  Cu161  1  0.75970904  0.44258823  0.91557158  1
  Cu  Cu162  1  0.74029096  0.94258823  0.58442842  1
  Cu  Cu163  1  0.74029096  0.05741177  0.91557158  1
  Cu  Cu164  1  0.43289982  0.50000000  0.25000000  1
  Cu  Cu165  1  0.06710018  0.00000000  0.25000000  1
  Cu  Cu166  1  0.56710018  0.50000000  0.75000000  1
  Cu  Cu167  1  0.93289982  0.00000000  0.75000000  1
  C  C168  1  0.81890418  0.57334548  0.07673437  1
  C  C169  1  0.81890418  0.42665452  0.42326563  1
  C  C170  1  0.68109582  0.92665452  0.07673437  1
  C  C171  1  0.68109582  0.07334548  0.42326563  1
  C  C172  1  0.18109582  0.42665452  0.92326563  1
  C  C173  1  0.18109582  0.57334548  0.57673437  1
  C  C174  1  0.31890418  0.07334548  0.92326563  1
  C  C175  1  0.31890418  0.92665452  0.57673437  1
  C  C176  1  0.91848602  0.80494815  0.00166454  1
  C  C177  1  0.91848602  0.19505185  0.49833546  1
  C  C178  1  0.58151398  0.69505185  0.00166454  1
  C  C179  1  0.58151398  0.30494815  0.49833546  1
  C  C180  1  0.08151398  0.19505185  0.99833546  1
  C  C181  1  0.08151398  0.80494815  0.50166454  1
  C  C182  1  0.41848602  0.30494815  0.99833546  1
  C  C183  1  0.41848602  0.69505185  0.50166454  1
  C  C184  1  0.55592834  0.74328894  0.15444124  1
  C  C185  1  0.55592834  0.25671106  0.34555876  1
  C  C186  1  0.94407166  0.75671106  0.15444124  1
  C  C187  1  0.94407166  0.24328894  0.34555876  1
  C  C188  1  0.44407166  0.25671106  0.84555876  1
  C  C189  1  0.44407166  0.74328894  0.65444124  1
  C  C190  1  0.05592834  0.24328894  0.84555876  1
  C  C191  1  0.05592834  0.75671106  0.65444124  1
