# generated using pymatgen
data_Cu3Ni3C4
_symmetry_space_group_name_H-M   'P 1'
_cell_length_a   6.16348761
_cell_length_b   6.16348761
_cell_length_c   3.22368000
_cell_angle_alpha   90.00000000
_cell_angle_beta   90.00000000
_cell_angle_gamma   90.65357008
_symmetry_Int_Tables_number   1
_chemical_formula_structural   Cu3Ni3C4
_chemical_formula_sum   'Cu3 Ni3 C4'
_cell_volume   122.45505681
_cell_formula_units_Z   1
loop_
 _symmetry_equiv_pos_site_id
 _symmetry_equiv_pos_as_xyz
  1  'x, y, z'
loop_
 _atom_site_type_symbol
 _atom_site_label
 _atom_site_symmetry_multiplicity
 _atom_site_fract_x
 _atom_site_fract_y
 _atom_site_fract_z
 _atom_site_occupancy
  Ni  Ni0  1  0.49864400  0.99952800  0.00000000  1
  Ni  Ni1  1  0.00047200  0.50135600  0.00000000  1
  Ni  Ni2  1  0.82594900  0.17405100  0.50000000  1
  C  C3  1  0.39060600  0.60939400  0.00000000  1
  C  C4  1  0.60759400  0.39240600  0.00000000  1
  C  C5  1  0.11453800  0.11043900  0.00000000  1
  C  C6  1  0.88956100  0.88546200  0.00000000  1
  Cu  Cu7  1  0.17421500  0.82578500  0.50000000  1
  Cu  Cu8  1  0.67062600  0.67220600  0.50000000  1
  Cu  Cu9  1  0.32779400  0.32937400  0.50000000  1
