# generated using pymatgen
data_CuNiC6
_symmetry_space_group_name_H-M   'P 1'
_cell_length_a   5.16143900
_cell_length_b   5.24340850
_cell_length_c   7.35337197
_cell_angle_alpha   109.68806925
_cell_angle_beta   104.95221286
_cell_angle_gamma   98.67571129
_symmetry_Int_Tables_number   1
_chemical_formula_structural   CuNiC6
_chemical_formula_sum   'Cu2 Ni2 C12'
_cell_volume   174.73682885
_cell_formula_units_Z   2
loop_
 _symmetry_equiv_pos_site_id
 _symmetry_equiv_pos_as_xyz
  1  'x, y, z'
loop_
 _atom_site_type_symbol
 _atom_site_label
 _atom_site_symmetry_multiplicity
 _atom_site_fract_x
 _atom_site_fract_y
 _atom_site_fract_z
 _atom_site_occupancy
  C  C0  1  0.50000000  0.50000000  0.50000000  1
  C  C1  1  0.00000000  0.00000000  0.00000000  1
  Ni  Ni2  1  0.87222100  0.54343400  0.78091000  1
  Ni  Ni3  1  0.12777900  0.45656600  0.21909000  1
  Cu  Cu4  1  0.30515600  0.99112900  0.66041700  1
  Cu  Cu5  1  0.69484400  0.00887100  0.33958300  1
  C  C6  1  0.68418200  0.85333500  0.28781700  1
  C  C7  1  0.19682400  0.65260700  0.62139500  1
  C  C8  1  0.31200700  0.38382000  0.34828300  1
  C  C9  1  0.82872500  0.70040900  0.92775500  1
  C  C10  1  0.78956900  0.23447100  0.88245400  1
  C  C11  1  0.21043100  0.76552900  0.11754600  1
  C  C12  1  0.17127500  0.29959100  0.07224500  1
  C  C13  1  0.68799300  0.61618000  0.65171700  1
  C  C14  1  0.80317600  0.34739300  0.37860500  1
  C  C15  1  0.31581800  0.14666500  0.71218300  1
