# generated using pymatgen
data_CuNiC14
_symmetry_space_group_name_H-M   'P 1'
_cell_length_a   5.14889600
_cell_length_b   5.24961110
_cell_length_c   7.23307597
_cell_angle_alpha   109.60011255
_cell_angle_beta   105.56544027
_cell_angle_gamma   98.83635804
_symmetry_Int_Tables_number   1
_chemical_formula_structural   CuNiC14
_chemical_formula_sum   'Cu1 Ni1 C14'
_cell_volume   170.91162182
_cell_formula_units_Z   1
loop_
 _symmetry_equiv_pos_site_id
 _symmetry_equiv_pos_as_xyz
  1  'x, y, z'
loop_
 _atom_site_type_symbol
 _atom_site_label
 _atom_site_symmetry_multiplicity
 _atom_site_fract_x
 _atom_site_fract_y
 _atom_site_fract_z
 _atom_site_occupancy
  Ni  Ni0  1  0.00000000  0.00000000  0.00000000  1
  Cu  Cu1  1  0.00000000  0.00000000  0.50000000  1
  C  C2  1  0.32675900  0.65898300  0.22354900  1
  C  C3  1  0.67324100  0.34101700  0.77645100  1
  C  C4  1  0.64459100  0.96853800  0.33232000  1
  C  C5  1  0.35540900  0.03146200  0.66768000  1
  C  C6  1  0.14264300  0.97002400  0.72344100  1
  C  C7  1  0.29026800  0.81721900  0.37984800  1
  C  C8  1  0.72554300  0.65119800  0.65555500  1
  C  C9  1  0.63668700  0.76767200  0.06007300  1
  C  C10  1  0.11259200  0.68095300  0.11792000  1
  C  C11  1  0.88740800  0.31904700  0.88208000  1
  C  C12  1  0.36331300  0.23232800  0.93992700  1
  C  C13  1  0.27445700  0.34880200  0.34444500  1
  C  C14  1  0.70973200  0.18278100  0.62015200  1
  C  C15  1  0.85735700  0.02997600  0.27655900  1
