# generated using pymatgen
data_Cu16Ni4C5
_symmetry_space_group_name_H-M   'P 1'
_cell_length_a   6.28148384
_cell_length_b   6.28148384
_cell_length_c   30.57606700
_cell_angle_alpha   90.00000000
_cell_angle_beta   90.00000000
_cell_angle_gamma   116.92196016
_symmetry_Int_Tables_number   1
_chemical_formula_structural   Cu16Ni4C5
_chemical_formula_sum   'Cu32 Ni8 C10'
_cell_volume   1075.69188535
_cell_formula_units_Z   2
loop_
 _symmetry_equiv_pos_site_id
 _symmetry_equiv_pos_as_xyz
  1  'x, y, z'
loop_
 _atom_site_type_symbol
 _atom_site_label
 _atom_site_symmetry_multiplicity
 _atom_site_fract_x
 _atom_site_fract_y
 _atom_site_fract_z
 _atom_site_occupancy
  C  C0  1  0.97931500  0.02068500  0.25000000  1
  C  C1  1  0.02068500  0.97931500  0.75000000  1
  C  C2  1  0.64850000  0.35150000  0.13349200  1
  C  C3  1  0.35150000  0.64850000  0.86650800  1
  C  C4  1  0.64850000  0.35150000  0.36650800  1
  C  C5  1  0.35150000  0.64850000  0.63349200  1
  C  C6  1  0.32953700  0.67046300  0.03184900  1
  C  C7  1  0.67046300  0.32953700  0.96815100  1
  C  C8  1  0.32953700  0.67046300  0.46815100  1
  C  C9  1  0.67046300  0.32953700  0.53184900  1
  Ni  Ni10  1  0.00120900  0.99879100  0.07351100  1
  Ni  Ni11  1  0.99879100  0.00120900  0.92648900  1
  Ni  Ni12  1  0.00120900  0.99879100  0.42648900  1
  Ni  Ni13  1  0.99879100  0.00120900  0.57351100  1
  Ni  Ni14  1  0.69171900  0.30828100  0.81692400  1
  Ni  Ni15  1  0.30828100  0.69171900  0.18307600  1
  Ni  Ni16  1  0.69171900  0.30828100  0.68307600  1
  Ni  Ni17  1  0.30828100  0.69171900  0.31692400  1
  Cu  Cu18  1  0.99646300  0.00353700  0.12221300  1
  Cu  Cu19  1  0.00353700  0.99646300  0.87778700  1
  Cu  Cu20  1  0.99646300  0.00353700  0.37778700  1
  Cu  Cu21  1  0.00353700  0.99646300  0.62221300  1
  Cu  Cu22  1  0.86786000  0.13214000  0.05829300  1
  Cu  Cu23  1  0.13214000  0.86786000  0.94170700  1
  Cu  Cu24  1  0.86786000  0.13214000  0.44170700  1
  Cu  Cu25  1  0.13214000  0.86786000  0.55829300  1
  Cu  Cu26  1  0.25189900  0.12005300  0.05742600  1
  Cu  Cu27  1  0.12005300  0.25189900  0.94257400  1
  Cu  Cu28  1  0.25189900  0.12005300  0.44257400  1
  Cu  Cu29  1  0.12005300  0.25189900  0.55742600  1
  Cu  Cu30  1  0.74810100  0.87994700  0.94257400  1
  Cu  Cu31  1  0.87994700  0.74810100  0.05742600  1
  Cu  Cu32  1  0.74810100  0.87994700  0.55742600  1
  Cu  Cu33  1  0.87994700  0.74810100  0.44257400  1
  Cu  Cu34  1  0.67487400  0.32512600  0.86545700  1
  Cu  Cu35  1  0.32512600  0.67487400  0.13454300  1
  Cu  Cu36  1  0.67487400  0.32512600  0.63454300  1
  Cu  Cu37  1  0.32512600  0.67487400  0.36545700  1
  Cu  Cu38  1  0.56397400  0.43602600  0.79720400  1
  Cu  Cu39  1  0.43602600  0.56397400  0.20279600  1
  Cu  Cu40  1  0.56397400  0.43602600  0.70279600  1
  Cu  Cu41  1  0.43602600  0.56397400  0.29720400  1
  Cu  Cu42  1  0.94604900  0.42581000  0.80349900  1
  Cu  Cu43  1  0.42581000  0.94604900  0.19650100  1
  Cu  Cu44  1  0.94604900  0.42581000  0.69650100  1
  Cu  Cu45  1  0.42581000  0.94604900  0.30349900  1
  Cu  Cu46  1  0.05395100  0.57419000  0.19650100  1
  Cu  Cu47  1  0.57419000  0.05395100  0.80349900  1
  Cu  Cu48  1  0.05395100  0.57419000  0.30349900  1
  Cu  Cu49  1  0.57419000  0.05395100  0.69650100  1
