# generated using pymatgen
data_Cu3Ni3C14
_symmetry_space_group_name_H-M   'P 1'
_cell_length_a   5.23321400
_cell_length_b   10.67281100
_cell_length_c   18.49976400
_cell_angle_alpha   90.00000000
_cell_angle_beta   90.00000000
_cell_angle_gamma   90.00000000
_symmetry_Int_Tables_number   1
_chemical_formula_structural   Cu3Ni3C14
_chemical_formula_sum   'Cu12 Ni12 C56'
_cell_volume   1033.26924164
_cell_formula_units_Z   4
loop_
 _symmetry_equiv_pos_site_id
 _symmetry_equiv_pos_as_xyz
  1  'x, y, z'
loop_
 _atom_site_type_symbol
 _atom_site_label
 _atom_site_symmetry_multiplicity
 _atom_site_fract_x
 _atom_site_fract_y
 _atom_site_fract_z
 _atom_site_occupancy
  C  C0  1  0.37962900  0.25000000  0.12040700  1
  C  C1  1  0.62037100  0.75000000  0.87959300  1
  C  C2  1  0.12037100  0.75000000  0.62040700  1
  C  C3  1  0.87962900  0.25000000  0.37959300  1
  C  C4  1  0.23228700  0.25000000  0.23356000  1
  C  C5  1  0.76771300  0.75000000  0.76644000  1
  C  C6  1  0.26771300  0.75000000  0.73356000  1
  C  C7  1  0.73228700  0.25000000  0.26644000  1
  Ni  Ni8  1  0.23896900  0.06995800  0.02556500  1
  Ni  Ni9  1  0.76103100  0.93004200  0.97443500  1
  Ni  Ni10  1  0.26103100  0.93004200  0.52556500  1
  Ni  Ni11  1  0.76103100  0.56995800  0.97443500  1
  Ni  Ni12  1  0.73896900  0.06995800  0.47443500  1
  Ni  Ni13  1  0.23896900  0.43004200  0.02556500  1
  Ni  Ni14  1  0.73896900  0.43004200  0.47443500  1
  Ni  Ni15  1  0.26103100  0.56995800  0.52556500  1
  Ni  Ni16  1  0.39586700  0.25000000  0.74925200  1
  Ni  Ni17  1  0.60413300  0.75000000  0.25074800  1
  Ni  Ni18  1  0.10413300  0.75000000  0.24925200  1
  Ni  Ni19  1  0.89586700  0.25000000  0.75074800  1
  Cu  Cu20  1  0.28737500  0.02466600  0.34918500  1
  Cu  Cu21  1  0.71262500  0.97533400  0.65081500  1
  Cu  Cu22  1  0.21262500  0.97533400  0.84918500  1
  Cu  Cu23  1  0.71262500  0.52466600  0.65081500  1
  Cu  Cu24  1  0.78737500  0.02466600  0.15081500  1
  Cu  Cu25  1  0.28737500  0.47533400  0.34918500  1
  Cu  Cu26  1  0.78737500  0.47533400  0.15081500  1
  Cu  Cu27  1  0.21262500  0.52466600  0.84918500  1
  Cu  Cu28  1  0.18939000  0.25000000  0.55908200  1
  Cu  Cu29  1  0.81061000  0.75000000  0.44091800  1
  Cu  Cu30  1  0.31061000  0.75000000  0.05908200  1
  Cu  Cu31  1  0.68939000  0.25000000  0.94091800  1
  C  C32  1  0.35466200  0.61626700  0.29566000  1
  C  C33  1  0.64533800  0.38373300  0.70434000  1
  C  C34  1  0.14533800  0.38373300  0.79566000  1
  C  C35  1  0.64533800  0.11626700  0.70434000  1
  C  C36  1  0.85466200  0.61626700  0.20434000  1
  C  C37  1  0.35466200  0.88373300  0.29566000  1
  C  C38  1  0.85466200  0.88373300  0.20434000  1
  C  C39  1  0.14533800  0.11626700  0.79566000  1
  C  C40  1  0.07701400  0.52215500  0.42619200  1
  C  C41  1  0.92298600  0.47784500  0.57380800  1
  C  C42  1  0.42298600  0.47784500  0.92619200  1
  C  C43  1  0.92298600  0.02215500  0.57380800  1
  C  C44  1  0.57701400  0.52215500  0.07380800  1
  C  C45  1  0.07701400  0.97784500  0.42619200  1
  C  C46  1  0.57701400  0.97784500  0.07380800  1
  C  C47  1  0.42298600  0.02215500  0.92619200  1
  C  C48  1  0.14726900  0.25000000  0.65805800  1
  C  C49  1  0.85273100  0.75000000  0.34194200  1
  C  C50  1  0.35273100  0.75000000  0.15805800  1
  C  C51  1  0.64726900  0.25000000  0.84194200  1
  C  C52  1  0.07636800  0.13122100  0.30097300  1
  C  C53  1  0.92363200  0.86877900  0.69902700  1
  C  C54  1  0.42363200  0.86877900  0.80097300  1
  C  C55  1  0.92363200  0.63122100  0.69902700  1
  C  C56  1  0.57636800  0.13122100  0.19902700  1
  C  C57  1  0.07636800  0.36877900  0.30097300  1
  C  C58  1  0.57636800  0.36877900  0.19902700  1
  C  C59  1  0.42363200  0.63122100  0.80097300  1
  C  C60  1  0.93589500  0.25000000  0.48346900  1
  C  C61  1  0.06410500  0.75000000  0.51653100  1
  C  C62  1  0.56410500  0.75000000  0.98346900  1
  C  C63  1  0.43589500  0.25000000  0.01653100  1
  C  C64  1  0.07506500  0.11696500  0.12907300  1
  C  C65  1  0.92493500  0.88303500  0.87092700  1
  C  C66  1  0.42493500  0.88303500  0.62907300  1
  C  C67  1  0.92493500  0.61696500  0.87092700  1
  C  C68  1  0.57506500  0.11696500  0.37092700  1
  C  C69  1  0.07506500  0.38303500  0.12907300  1
  C  C70  1  0.57506500  0.38303500  0.37092700  1
  C  C71  1  0.42493500  0.61696500  0.62907300  1
  C  C72  1  0.08878800  0.61458100  0.03646000  1
  C  C73  1  0.91121200  0.38541900  0.96354000  1
  C  C74  1  0.41121200  0.38541900  0.53646000  1
  C  C75  1  0.91121200  0.11458100  0.96354000  1
  C  C76  1  0.58878800  0.61458100  0.46354000  1
  C  C77  1  0.08878800  0.88541900  0.03646000  1
  C  C78  1  0.58878800  0.88541900  0.46354000  1
  C  C79  1  0.41121200  0.11458100  0.53646000  1
