# generated using pymatgen
data_Cu5NiC3
_symmetry_space_group_name_H-M   'P 1'
_cell_length_a   7.27834948
_cell_length_b   7.27834856
_cell_length_c   6.33497409
_cell_angle_alpha   73.22730955
_cell_angle_beta   73.22731014
_cell_angle_gamma   48.57714988
_symmetry_Int_Tables_number   1
_chemical_formula_structural   Cu5NiC3
_chemical_formula_sum   'Cu10 Ni2 C6'
_cell_volume   238.69754860
_cell_formula_units_Z   2
loop_
 _symmetry_equiv_pos_site_id
 _symmetry_equiv_pos_as_xyz
  1  'x, y, z'
loop_
 _atom_site_type_symbol
 _atom_site_label
 _atom_site_symmetry_multiplicity
 _atom_site_fract_x
 _atom_site_fract_y
 _atom_site_fract_z
 _atom_site_occupancy
  C  C0  1  0.51302900  0.51302900  0.47321900  1
  C  C1  1  0.99751900  0.47833200  0.03918200  1
  C  C2  1  0.47833200  0.99751900  0.03918200  1
  C  C3  1  0.07551600  0.07551600  0.06341200  1
  C  C4  1  0.59190100  0.59190100  0.00650400  1
  C  C5  1  0.91206300  0.91206300  0.96833700  1
  Ni  Ni6  1  0.10822800  0.10822800  0.66180500  1
  Ni  Ni7  1  0.87825100  0.87825100  0.34211900  1
  Cu  Cu8  1  0.27118200  0.27118200  0.21941800  1
  Cu  Cu9  1  0.64679700  0.64679700  0.07858400  1
  Cu  Cu10  1  0.14593700  0.14593700  0.94997200  1
  Cu  Cu11  1  0.14347600  0.73909200  0.32049500  1
  Cu  Cu12  1  0.24431600  0.83897400  0.70404900  1
  Cu  Cu13  1  0.73909200  0.14347600  0.32049500  1
  Cu  Cu14  1  0.83897400  0.24431600  0.70404900  1
  Cu  Cu15  1  0.84513300  0.84513300  0.09410900  1
  Cu  Cu16  1  0.34568600  0.34568600  0.98368900  1
  Cu  Cu17  1  0.77356900  0.77356900  0.50338300  1
