# generated using pymatgen
data_Cu17(NiC)6
_symmetry_space_group_name_H-M   'P 1'
_cell_length_a   8.38687000
_cell_length_b   15.73143100
_cell_length_c   23.17871900
_cell_angle_alpha   90.00000000
_cell_angle_beta   90.00000000
_cell_angle_gamma   90.00000000
_symmetry_Int_Tables_number   1
_chemical_formula_structural   Cu17(NiC)6
_chemical_formula_sum   'Cu68 Ni24 C24'
_cell_volume   3058.14146647
_cell_formula_units_Z   4
loop_
 _symmetry_equiv_pos_site_id
 _symmetry_equiv_pos_as_xyz
  1  'x, y, z'
loop_
 _atom_site_type_symbol
 _atom_site_label
 _atom_site_symmetry_multiplicity
 _atom_site_fract_x
 _atom_site_fract_y
 _atom_site_fract_z
 _atom_site_occupancy
  C  C0  1  0.25533300  0.56183200  0.95632100  1
  C  C1  1  0.75533300  0.93816800  0.04367900  1
  C  C2  1  0.74466700  0.06183200  0.54367900  1
  C  C3  1  0.24466700  0.43816800  0.45632100  1
  C  C4  1  0.24897900  0.93604200  0.04534500  1
  C  C5  1  0.74897900  0.56395800  0.95465500  1
  C  C6  1  0.75102100  0.43604200  0.45465500  1
  C  C7  1  0.25102100  0.06395800  0.54534500  1
  C  C8  1  0.25351300  0.45319800  0.78624800  1
  C  C9  1  0.75351300  0.04680200  0.21375200  1
  C  C10  1  0.74648700  0.95319800  0.71375200  1
  C  C11  1  0.24648700  0.54680200  0.28624800  1
  C  C12  1  0.24978600  0.95767200  0.71480000  1
  C  C13  1  0.74978600  0.54232800  0.28520000  1
  C  C14  1  0.75021400  0.45767200  0.78520000  1
  C  C15  1  0.25021400  0.04232800  0.21480000  1
  C  C16  1  0.25403300  0.33625500  0.62449500  1
  C  C17  1  0.75403300  0.16374500  0.37550500  1
  C  C18  1  0.74596700  0.83625500  0.87550500  1
  C  C19  1  0.24596700  0.66374500  0.12449500  1
  C  C20  1  0.25397200  0.83733600  0.87618900  1
  C  C21  1  0.75397200  0.66266400  0.12381100  1
  C  C22  1  0.74602800  0.33733600  0.62381100  1
  C  C23  1  0.24602800  0.16266400  0.37618900  1
  Ni  Ni24  1  0.48978300  0.56919300  0.60472400  1
  Ni  Ni25  1  0.98978300  0.93080700  0.39527600  1
  Ni  Ni26  1  0.51021700  0.06919300  0.89527600  1
  Ni  Ni27  1  0.01021700  0.43080700  0.10472400  1
  Ni  Ni28  1  0.98101600  0.57514100  0.58698400  1
  Ni  Ni29  1  0.48101600  0.92485900  0.41301600  1
  Ni  Ni30  1  0.01898400  0.07514100  0.91301600  1
  Ni  Ni31  1  0.51898400  0.42485900  0.08698400  1
  Ni  Ni32  1  0.49486600  0.33661900  0.93607900  1
  Ni  Ni33  1  0.99486600  0.16338100  0.06392100  1
  Ni  Ni34  1  0.50513400  0.83661900  0.56392100  1
  Ni  Ni35  1  0.00513400  0.66338100  0.43607900  1
  Ni  Ni36  1  0.99029200  0.82943700  0.58800500  1
  Ni  Ni37  1  0.49029200  0.67056300  0.41199500  1
  Ni  Ni38  1  0.00970800  0.32943700  0.91199500  1
  Ni  Ni39  1  0.50970800  0.17056300  0.08800500  1
  Ni  Ni40  1  0.01247400  0.72043800  0.73124800  1
  Ni  Ni41  1  0.51247400  0.77956200  0.26875200  1
  Ni  Ni42  1  0.98752600  0.22043800  0.76875200  1
  Ni  Ni43  1  0.48752600  0.27956200  0.23124800  1
  Ni  Ni44  1  0.49507900  0.70212300  0.74711000  1
  Ni  Ni45  1  0.99507900  0.79787700  0.25289000  1
  Ni  Ni46  1  0.50492100  0.20212300  0.75289000  1
  Ni  Ni47  1  0.00492100  0.29787700  0.24711000  1
  Cu  Cu48  1  0.49254800  0.70865500  0.92997100  1
  Cu  Cu49  1  0.99254800  0.79134500  0.07002900  1
  Cu  Cu50  1  0.50745200  0.20865500  0.57002900  1
  Cu  Cu51  1  0.00745200  0.29134500  0.42997100  1
  Cu  Cu52  1  0.35985400  0.75071400  0.00109700  1
  Cu  Cu53  1  0.85985400  0.74928600  0.99890300  1
  Cu  Cu54  1  0.64014600  0.25071400  0.49890300  1
  Cu  Cu55  1  0.14014600  0.24928600  0.50109700  1
  Cu  Cu56  1  0.99567900  0.70720100  0.92876700  1
  Cu  Cu57  1  0.49567900  0.79279900  0.07123300  1
  Cu  Cu58  1  0.00432100  0.20720100  0.57123300  1
  Cu  Cu59  1  0.50432100  0.29279900  0.42876700  1
  Cu  Cu60  1  0.26236300  0.52582100  0.66539600  1
  Cu  Cu61  1  0.76236300  0.97417900  0.33460400  1
  Cu  Cu62  1  0.73763700  0.02582100  0.83460400  1
  Cu  Cu63  1  0.23763700  0.47417900  0.16539600  1
  Cu  Cu64  1  0.49477600  0.43496700  0.54964500  1
  Cu  Cu65  1  0.99477600  0.06503300  0.45035500  1
  Cu  Cu66  1  0.50522400  0.93496700  0.95035500  1
  Cu  Cu67  1  0.00522400  0.56503300  0.04964500  1
  Cu  Cu68  1  0.23697300  0.97093000  0.33899100  1
  Cu  Cu69  1  0.73697300  0.52907000  0.66100900  1
  Cu  Cu70  1  0.76302700  0.47093000  0.16100900  1
  Cu  Cu71  1  0.26302700  0.02907000  0.83899100  1
  Cu  Cu72  1  0.00506700  0.92901200  0.94775500  1
  Cu  Cu73  1  0.50506700  0.57098800  0.05224500  1
  Cu  Cu74  1  0.99493300  0.42901200  0.55224500  1
  Cu  Cu75  1  0.49493300  0.07098800  0.44775500  1
  Cu  Cu76  1  0.21009200  0.77851000  0.65696600  1
  Cu  Cu77  1  0.78299000  0.61885200  0.50563400  1
  Cu  Cu78  1  0.21701000  0.11885200  0.99436600  1
  Cu  Cu79  1  0.71701000  0.38114800  0.00563400  1
  Cu  Cu80  1  0.49769600  0.97255800  0.61976600  1
  Cu  Cu81  1  0.99769600  0.52744200  0.38023400  1
  Cu  Cu82  1  0.50230400  0.47255800  0.88023400  1
  Cu  Cu83  1  0.00230400  0.02744200  0.11976600  1
  Cu  Cu84  1  0.21790300  0.62010100  0.50357300  1
  Cu  Cu85  1  0.71790300  0.87989900  0.49642700  1
  Cu  Cu86  1  0.78209700  0.12010100  0.99642700  1
  Cu  Cu87  1  0.28209700  0.37989900  0.00357300  1
  Cu  Cu88  1  0.77484000  0.78113100  0.65197900  1
  Cu  Cu89  1  0.27484000  0.71886900  0.34802100  1
  Cu  Cu90  1  0.22516000  0.28113100  0.84802100  1
  Cu  Cu91  1  0.72516000  0.21886900  0.15197900  1
  Cu  Cu92  1  0.99798000  0.98016100  0.62217000  1
  Cu  Cu93  1  0.49798000  0.51983900  0.37783000  1
  Cu  Cu94  1  0.00202000  0.48016100  0.87783000  1
  Cu  Cu95  1  0.50202000  0.01983900  0.12217000  1
  Cu  Cu96  1  0.29209300  0.15488100  0.68726800  1
  Cu  Cu97  1  0.79209300  0.34511900  0.31273200  1
  Cu  Cu98  1  0.70790700  0.65488100  0.81273200  1
  Cu  Cu99  1  0.20790700  0.84511900  0.18726800  1
  Cu  Cu100  1  0.25356200  0.33722900  0.30325000  1
  Cu  Cu101  1  0.75356200  0.16277100  0.69675000  1
  Cu  Cu102  1  0.74643800  0.83722900  0.19675000  1
  Cu  Cu103  1  0.24643800  0.66277100  0.80325000  1
  Cu  Cu104  1  0.00338300  0.14752900  0.27961500  1
  Cu  Cu105  1  0.50338300  0.35247100  0.72038500  1
  Cu  Cu106  1  0.99661700  0.64752900  0.22038500  1
  Cu  Cu107  1  0.49661700  0.85247100  0.77961500  1
  Cu  Cu108  1  0.50164600  0.14200400  0.28245700  1
  Cu  Cu109  1  0.00164600  0.35799600  0.71754300  1
  Cu  Cu110  1  0.49835400  0.64200400  0.21754300  1
  Cu  Cu111  1  0.99835400  0.85799600  0.78245700  1
  Cu  Cu112  1  0.28990800  0.22149000  0.15696600  1
  Cu  Cu113  1  0.78990800  0.27851000  0.84303400  1
  Cu  Cu114  1  0.71009200  0.72149000  0.34303400  1
  Cu  Cu115  1  0.28299000  0.88114800  0.49436600  1
