# generated using pymatgen
data_CuNiC8
_symmetry_space_group_name_H-M   'P 1'
_cell_length_a   8.48697753
_cell_length_b   8.45891970
_cell_length_c   8.48787665
_cell_angle_alpha   90.00000000
_cell_angle_beta   90.00000000
_cell_angle_gamma   90.00000000
_symmetry_Int_Tables_number   1
_chemical_formula_structural   CuNiC8
_chemical_formula_sum   'Cu4 Ni4 C32'
_cell_volume   609.35027877
_cell_formula_units_Z   4
loop_
 _symmetry_equiv_pos_site_id
 _symmetry_equiv_pos_as_xyz
  1  'x, y, z'
loop_
 _atom_site_type_symbol
 _atom_site_label
 _atom_site_symmetry_multiplicity
 _atom_site_fract_x
 _atom_site_fract_y
 _atom_site_fract_z
 _atom_site_occupancy
  C  C0  1  0.00000000  0.50000000  0.50000000  1
  C  C1  1  0.50000000  -0.00000000  0.50000000  1
  C  C2  1  0.50000000  0.50000000  0.00000000  1
  C  C3  1  0.50000000  0.00000000  -0.00000000  1
  Ni  Ni4  1  0.00000000  0.50000000  -0.00000000  1
  Ni  Ni5  1  0.00000000  -0.00000000  0.50000000  1
  Ni  Ni6  1  0.00000000  -0.00000000  0.00000000  1
  Ni  Ni7  1  0.50000000  0.50000000  0.50000000  1
  Cu  Cu8  1  0.75224962  0.75033521  0.75029479  1
  Cu  Cu9  1  0.24775038  0.24966479  0.75029479  1
  Cu  Cu10  1  0.24775038  0.75033521  0.24970521  1
  Cu  Cu11  1  0.75224962  0.24966479  0.24970521  1
  C  C12  1  0.24729282  0.24974032  0.25070651  1
  C  C13  1  0.75270718  0.75025968  0.25070651  1
  C  C14  1  0.75270718  0.24974032  0.74929349  1
  C  C15  1  0.24729282  0.75025968  0.74929349  1
  C  C16  1  0.02021043  0.19446049  0.29605086  1
  C  C17  1  0.97978957  0.80553951  0.29605086  1
  C  C18  1  0.97978957  0.19446049  0.70394914  1
  C  C19  1  0.02021043  0.80553951  0.70394914  1
  C  C20  1  0.28459461  0.02090695  0.19964549  1
  C  C21  1  0.28459461  0.97909305  0.80035451  1
  C  C22  1  0.71540539  0.97909305  0.19964549  1
  C  C23  1  0.71540539  0.02090695  0.80035451  1
  C  C24  1  0.19183736  0.29312605  0.02235214  1
  C  C25  1  0.80816264  0.29312605  0.97764786  1
  C  C26  1  0.19183736  0.70687395  0.97764786  1
  C  C27  1  0.80816264  0.70687395  0.02235214  1
  C  C28  1  0.47861620  0.29467918  0.21296014  1
  C  C29  1  0.52138380  0.70532082  0.21296014  1
  C  C30  1  0.52138380  0.29467918  0.78703986  1
  C  C31  1  0.47861620  0.70532082  0.78703986  1
  C  C32  1  0.21290349  0.48001138  0.29709394  1
  C  C33  1  0.21290349  0.51998862  0.70290606  1
  C  C34  1  0.78709651  0.51998862  0.29709394  1
  C  C35  1  0.78709651  0.48001138  0.70290606  1
  C  C36  1  0.29760426  0.21559495  0.48050380  1
  C  C37  1  0.70239574  0.21559495  0.51949620  1
  C  C38  1  0.29760426  0.78440505  0.51949620  1
  C  C39  1  0.70239574  0.78440505  0.48050380  1
