# generated using pymatgen
data_Cu3NiC8
_symmetry_space_group_name_H-M   'P 1'
_cell_length_a   3.35653871
_cell_length_b   3.35653871
_cell_length_c   38.37686300
_cell_angle_alpha   90.00000000
_cell_angle_beta   90.00000000
_cell_angle_gamma   120.00001405
_symmetry_Int_Tables_number   1
_chemical_formula_structural   Cu3NiC8
_chemical_formula_sum   'Cu3 Ni1 C8'
_cell_volume   374.44097120
_cell_formula_units_Z   1
loop_
 _symmetry_equiv_pos_site_id
 _symmetry_equiv_pos_as_xyz
  1  'x, y, z'
loop_
 _atom_site_type_symbol
 _atom_site_label
 _atom_site_symmetry_multiplicity
 _atom_site_fract_x
 _atom_site_fract_y
 _atom_site_fract_z
 _atom_site_occupancy
  C  C0  1  0.33333300  0.66666700  0.04461300  1
  C  C1  1  0.33333300  0.66666700  0.42007100  1
  C  C2  1  0.33333300  0.66666700  0.14321800  1
  C  C3  1  0.33333300  0.66666700  0.51925600  1
  Ni  Ni4  1  0.00000000  0.00000000  0.09391200  1
  Cu  Cu5  1  0.00000000  0.00000000  0.46965800  1
  Cu  Cu6  1  0.33333300  0.66666700  0.28178500  1
  Cu  Cu7  1  0.33333300  0.66666700  0.65756100  1
  C  C8  1  0.00000000  0.00000000  0.32138500  1
  C  C9  1  0.00000000  0.00000000  0.69714800  1
  C  C10  1  0.00000000  0.00000000  0.24218800  1
  C  C11  1  0.00000000  0.00000000  0.61795200  1
