# generated using pymatgen
data_Cu4Ni2C21
_symmetry_space_group_name_H-M   'P 1'
_cell_length_a   14.08372900
_cell_length_b   8.92779100
_cell_length_c   15.45991816
_cell_angle_alpha   80.79138388
_cell_angle_beta   90.00000000
_cell_angle_gamma   90.00000000
_symmetry_Int_Tables_number   1
_chemical_formula_structural   Cu4Ni2C21
_chemical_formula_sum   'Cu16 Ni8 C84'
_cell_volume   1918.82509479
_cell_formula_units_Z   4
loop_
 _symmetry_equiv_pos_site_id
 _symmetry_equiv_pos_as_xyz
  1  'x, y, z'
loop_
 _atom_site_type_symbol
 _atom_site_label
 _atom_site_symmetry_multiplicity
 _atom_site_fract_x
 _atom_site_fract_y
 _atom_site_fract_z
 _atom_site_occupancy
  C  C0  1  0.81099200  0.72490400  0.75613900  1
  C  C1  1  0.31099200  0.27509600  0.74386100  1
  C  C2  1  0.18900800  0.27509600  0.24386100  1
  C  C3  1  0.68900800  0.72490400  0.25613900  1
  Ni  Ni4  1  0.64564300  0.53397000  0.60827200  1
  Ni  Ni5  1  0.14564300  0.46603000  0.89172800  1
  Ni  Ni6  1  0.35435700  0.46603000  0.39172800  1
  Ni  Ni7  1  0.85435700  0.53397000  0.10827200  1
  Ni  Ni8  1  0.61202300  0.90980100  0.86829300  1
  Ni  Ni9  1  0.11202300  0.09019900  0.63170700  1
  Ni  Ni10  1  0.38797700  0.09019900  0.13170700  1
  Ni  Ni11  1  0.88797700  0.90980100  0.36829300  1
  Cu  Cu12  1  0.97488500  0.87531900  0.89285600  1
  Cu  Cu13  1  0.47488500  0.12468100  0.60714400  1
  Cu  Cu14  1  0.02511500  0.12468100  0.10714400  1
  Cu  Cu15  1  0.52511500  0.87531900  0.39285600  1
  Cu  Cu16  1  0.82820300  0.34097500  0.84285600  1
  Cu  Cu17  1  0.32820300  0.65902500  0.65714400  1
  Cu  Cu18  1  0.17179700  0.65902500  0.15714400  1
  Cu  Cu19  1  0.67179700  0.34097500  0.34285600  1
  Cu  Cu20  1  0.79890000  0.07889900  0.61044500  1
  Cu  Cu21  1  0.29890000  0.92110100  0.88955500  1
  Cu  Cu22  1  0.20110000  0.92110100  0.38955500  1
  Cu  Cu23  1  0.70110000  0.07889900  0.11044500  1
  Cu  Cu24  1  0.97057500  0.59330900  0.60442200  1
  Cu  Cu25  1  0.47057500  0.40669100  0.89557800  1
  Cu  Cu26  1  0.02942500  0.40669100  0.39557800  1
  Cu  Cu27  1  0.52942500  0.59330900  0.10442200  1
  C  C28  1  0.92226800  0.79115600  0.83443700  1
  C  C29  1  0.42226800  0.20884400  0.66556300  1
  C  C30  1  0.07773200  0.20884400  0.16556300  1
  C  C31  1  0.57773200  0.79115600  0.33443700  1
  C  C32  1  0.93399800  0.01582900  0.90906900  1
  C  C33  1  0.43399800  0.98417100  0.59093100  1
  C  C34  1  0.06600200  0.98417100  0.09093100  1
  C  C35  1  0.56600200  0.01582900  0.40906900  1
  C  C36  1  0.81045700  0.50402000  0.83821700  1
  C  C37  1  0.31045700  0.49598000  0.66178300  1
  C  C38  1  0.18954300  0.49598000  0.16178300  1
  C  C39  1  0.68954300  0.50402000  0.33821700  1
  C  C40  1  0.85761500  0.29026800  0.76333500  1
  C  C41  1  0.35761500  0.70973200  0.73666500  1
  C  C42  1  0.14238500  0.70973200  0.23666500  1
  C  C43  1  0.64238500  0.29026800  0.26333500  1
  C  C44  1  0.81184500  0.94626500  0.67837400  1
  C  C45  1  0.31184500  0.05373500  0.82162600  1
  C  C46  1  0.18815500  0.05373500  0.32162600  1
  C  C47  1  0.68815500  0.94626500  0.17837400  1
  C  C48  1  0.70887400  0.09421100  0.56586400  1
  C  C49  1  0.20887400  0.90578900  0.93413600  1
  C  C50  1  0.29112600  0.90578900  0.43413600  1
  C  C51  1  0.79112600  0.09421100  0.06586400  1
  C  C52  1  0.92211700  0.65366100  0.67520100  1
  C  C53  1  0.42211700  0.34633900  0.82479900  1
  C  C54  1  0.07788300  0.34633900  0.32479900  1
  C  C55  1  0.57788300  0.65366100  0.17520100  1
  C  C56  1  0.07077300  0.62268100  0.59508500  1
  C  C57  1  0.57077300  0.37731900  0.90491500  1
  C  C58  1  0.92922700  0.37731900  0.40491500  1
  C  C59  1  0.42922700  0.62268100  0.09508500  1
  C  C60  1  0.64137200  0.69864200  0.52849300  1
  C  C61  1  0.14137200  0.30135800  0.97150700  1
  C  C62  1  0.35862800  0.30135800  0.47150700  1
  C  C63  1  0.85862800  0.69864200  0.02849300  1
  C  C64  1  0.70388500  0.65323400  0.68284400  1
  C  C65  1  0.20388500  0.34676600  0.81715600  1
  C  C66  1  0.29611500  0.34676600  0.31715600  1
  C  C67  1  0.79611500  0.65323400  0.18284400  1
  C  C68  1  0.65326800  0.37919600  0.69428500  1
  C  C69  1  0.15326800  0.62080400  0.80571500  1
  C  C70  1  0.34673200  0.62080400  0.30571500  1
  C  C71  1  0.84673200  0.37919600  0.19428500  1
  C  C72  1  0.53586300  0.58432300  0.65009400  1
  C  C73  1  0.03586300  0.41567700  0.84990600  1
  C  C74  1  0.46413700  0.41567700  0.34990600  1
  C  C75  1  0.96413700  0.58432300  0.15009400  1
  C  C76  1  0.59210700  0.42284500  0.53808300  1
  C  C77  1  0.09210700  0.57715500  0.96191700  1
  C  C78  1  0.40789300  0.57715500  0.46191700  1
  C  C79  1  0.90789300  0.42284500  0.03808300  1
  C  C80  1  0.76031300  0.49286600  0.57317500  1
  C  C81  1  0.26031300  0.50713400  0.92682500  1
  C  C82  1  0.23968700  0.50713400  0.42682500  1
  C  C83  1  0.73968700  0.49286600  0.07317500  1
  C  C84  1  0.64060000  0.86259900  0.98092600  1
  C  C85  1  0.14060000  0.13740100  0.51907400  1
  C  C86  1  0.35940000  0.13740100  0.01907400  1
  C  C87  1  0.85940000  0.86259900  0.48092600  1
  C  C88  1  0.53579500  0.75071100  0.87904000  1
  C  C89  1  0.03579500  0.24928900  0.62096000  1
  C  C90  1  0.46420500  0.24928900  0.12096000  1
  C  C91  1  0.96420500  0.75071100  0.37904000  1
  C  C92  1  0.69462800  0.05970000  0.85793900  1
  C  C93  1  0.19462800  0.94030000  0.64206100  1
  C  C94  1  0.30537200  0.94030000  0.14206100  1
  C  C95  1  0.80537200  0.05970000  0.35793900  1
  C  C96  1  0.51883400  0.02836500  0.89053600  1
  C  C97  1  0.01883400  0.97163500  0.60946400  1
  C  C98  1  0.48116600  0.97163500  0.10946400  1
  C  C99  1  0.98116600  0.02836500  0.39053600  1
  C  C100  1  0.58921600  0.94794000  0.75441200  1
  C  C101  1  0.08921600  0.05206000  0.74558800  1
  C  C102  1  0.41078400  0.05206000  0.24558800  1
  C  C103  1  0.91078400  0.94794000  0.25441200  1
  C  C104  1  0.70937800  0.78413500  0.84513400  1
  C  C105  1  0.20937800  0.21586500  0.65486600  1
  C  C106  1  0.29062200  0.21586500  0.15486600  1
  C  C107  1  0.79062200  0.78413500  0.34513400  1
