# generated using pymatgen
data_Cu3NiC7
_symmetry_space_group_name_H-M   'P 1'
_cell_length_a   9.30593527
_cell_length_b   9.30593527
_cell_length_c   5.44222824
_cell_angle_alpha   88.66568794
_cell_angle_beta   88.66568794
_cell_angle_gamma   118.70510570
_symmetry_Int_Tables_number   1
_chemical_formula_structural   Cu3NiC7
_chemical_formula_sum   'Cu6 Ni2 C14'
_cell_volume   412.94668078
_cell_formula_units_Z   2
loop_
 _symmetry_equiv_pos_site_id
 _symmetry_equiv_pos_as_xyz
  1  'x, y, z'
loop_
 _atom_site_type_symbol
 _atom_site_label
 _atom_site_symmetry_multiplicity
 _atom_site_fract_x
 _atom_site_fract_y
 _atom_site_fract_z
 _atom_site_occupancy
  C  C0  1  0.50000000  0.50000000  0.00000000  1
  C  C1  1  0.00000000  0.00000000  0.50000000  1
  Ni  Ni2  1  0.82582400  0.17417600  0.00000000  1
  Ni  Ni3  1  0.17417600  0.82582400  0.00000000  1
  Cu  Cu4  1  0.27768700  0.27768700  0.61467700  1
  Cu  Cu5  1  0.72231300  0.72231300  0.38532300  1
  Cu  Cu6  1  0.27889800  0.50647000  0.39843200  1
  Cu  Cu7  1  0.50647000  0.27889800  0.39843200  1
  Cu  Cu8  1  0.72110200  0.49353000  0.60156800  1
  Cu  Cu9  1  0.49353000  0.72110200  0.60156800  1
  C  C10  1  0.01793800  0.20537700  0.11626400  1
  C  C11  1  0.20537700  0.01793800  0.11626400  1
  C  C12  1  0.98206200  0.79462300  0.88373600  1
  C  C13  1  0.79462300  0.98206200  0.88373600  1
  C  C14  1  0.93090000  0.27194700  0.71883900  1
  C  C15  1  0.27194700  0.93090000  0.71883900  1
  C  C16  1  0.06910000  0.72805300  0.28116100  1
  C  C17  1  0.72805300  0.06910000  0.28116100  1
  C  C18  1  0.63884100  0.14289000  0.88190700  1
  C  C19  1  0.14289000  0.63884100  0.88190700  1
  C  C20  1  0.36115900  0.85711000  0.11809300  1
  C  C21  1  0.85711000  0.36115900  0.11809300  1
