# generated using pymatgen
data_Cu4Ni2C
_symmetry_space_group_name_H-M   'P 1'
_cell_length_a   5.72031006
_cell_length_b   5.08677100
_cell_length_c   5.36429482
_cell_angle_alpha   90.00000000
_cell_angle_beta   113.96935427
_cell_angle_gamma   90.00000000
_symmetry_Int_Tables_number   1
_chemical_formula_structural   Cu4Ni2C
_chemical_formula_sum   'Cu8 Ni4 C2'
_cell_volume   142.62902240
_cell_formula_units_Z   2
loop_
 _symmetry_equiv_pos_site_id
 _symmetry_equiv_pos_as_xyz
  1  'x, y, z'
loop_
 _atom_site_type_symbol
 _atom_site_label
 _atom_site_symmetry_multiplicity
 _atom_site_fract_x
 _atom_site_fract_y
 _atom_site_fract_z
 _atom_site_occupancy
  C  C0  1  0.50000000  0.50000000  0.50000000  1
  C  C1  1  0.00000000  0.00000000  0.00000000  1
  Ni  Ni2  1  0.41082900  0.37951300  0.95594800  1
  Ni  Ni3  1  0.08917100  0.87951300  0.54405200  1
  Ni  Ni4  1  0.58917100  0.62048700  0.04405200  1
  Ni  Ni5  1  0.91082900  0.12048700  0.45594800  1
  Cu  Cu6  1  0.67855800  0.70744600  0.87739400  1
  Cu  Cu7  1  0.82144200  0.20744600  0.62260600  1
  Cu  Cu8  1  0.32144200  0.29255400  0.12260600  1
  Cu  Cu9  1  0.17855800  0.79255400  0.37739400  1
  Cu  Cu10  1  0.36627900  0.28432400  0.72385000  1
  Cu  Cu11  1  0.13372100  0.78432400  0.77615000  1
  Cu  Cu12  1  0.63372100  0.71567600  0.27615000  1
  Cu  Cu13  1  0.86627900  0.21567600  0.22385000  1
