# generated using pymatgen
data_CuNiC4
_symmetry_space_group_name_H-M   'P 1'
_cell_length_a   5.79459966
_cell_length_b   5.79459966
_cell_length_c   5.79459966
_cell_angle_alpha   140.13675699
_cell_angle_beta   117.22993687
_cell_angle_gamma   76.98894298
_symmetry_Int_Tables_number   1
_chemical_formula_structural   CuNiC4
_chemical_formula_sum   'Cu1 Ni1 C4'
_cell_volume   108.14161224
_cell_formula_units_Z   1
loop_
 _symmetry_equiv_pos_site_id
 _symmetry_equiv_pos_as_xyz
  1  'x, y, z'
loop_
 _atom_site_type_symbol
 _atom_site_label
 _atom_site_symmetry_multiplicity
 _atom_site_fract_x
 _atom_site_fract_y
 _atom_site_fract_z
 _atom_site_occupancy
  C  C0  1  0.69024800  0.19024800  0.50000000  1
  C  C1  1  0.30975200  0.80975200  0.50000000  1
  C  C2  1  0.79445500  0.50000000  0.29445500  1
  C  C3  1  0.20554500  0.50000000  0.70554500  1
  Ni  Ni4  1  0.00000000  0.00000000  0.00000000  1
  Cu  Cu5  1  0.50000000  0.50000000  0.00000000  1
