# generated using pymatgen
data_Cu4Ni5C4
_symmetry_space_group_name_H-M   'P 1'
_cell_length_a   4.04556500
_cell_length_b   14.62387200
_cell_length_c   16.73896500
_cell_angle_alpha   90.00000000
_cell_angle_beta   90.00000000
_cell_angle_gamma   90.00000000
_symmetry_Int_Tables_number   1
_chemical_formula_structural   Cu4Ni5C4
_chemical_formula_sum   'Cu16 Ni20 C16'
_cell_volume   990.30771345
_cell_formula_units_Z   4
loop_
 _symmetry_equiv_pos_site_id
 _symmetry_equiv_pos_as_xyz
  1  'x, y, z'
loop_
 _atom_site_type_symbol
 _atom_site_label
 _atom_site_symmetry_multiplicity
 _atom_site_fract_x
 _atom_site_fract_y
 _atom_site_fract_z
 _atom_site_occupancy
  C  C0  1  0.25000000  0.26124800  0.12968900  1
  C  C1  1  0.75000000  0.73875200  0.87031100  1
  C  C2  1  0.75000000  0.76124800  0.37031100  1
  C  C3  1  0.25000000  0.23875200  0.62968900  1
  C  C4  1  0.25000000  0.08430000  0.37935300  1
  C  C5  1  0.75000000  0.91570000  0.62064700  1
  C  C6  1  0.75000000  0.58430000  0.12064700  1
  C  C7  1  0.25000000  0.41570000  0.87935300  1
  C  C8  1  0.25000000  0.58100900  0.62045500  1
  C  C9  1  0.75000000  0.41899100  0.37954500  1
  C  C10  1  0.75000000  0.08100900  0.87954500  1
  C  C11  1  0.25000000  0.91899100  0.12045500  1
  C  C12  1  0.25000000  0.58957700  0.29130400  1
  C  C13  1  0.75000000  0.41042300  0.70869600  1
  C  C14  1  0.75000000  0.08957700  0.20869600  1
  C  C15  1  0.25000000  0.91042300  0.79130400  1
  Ni  Ni16  1  0.25000000  0.71574900  0.02128900  1
  Ni  Ni17  1  0.75000000  0.28425100  0.97871100  1
  Ni  Ni18  1  0.75000000  0.21574900  0.47871100  1
  Ni  Ni19  1  0.25000000  0.78425100  0.52128900  1
  Ni  Ni20  1  0.25000000  0.09666900  0.01638300  1
  Ni  Ni21  1  0.75000000  0.90333100  0.98361700  1
  Ni  Ni22  1  0.75000000  0.59666900  0.48361700  1
  Ni  Ni23  1  0.25000000  0.40333100  0.51638300  1
  Ni  Ni24  1  0.25000000  0.89970600  0.29769000  1
  Ni  Ni25  1  0.75000000  0.10029400  0.70231000  1
  Ni  Ni26  1  0.75000000  0.39970600  0.20231000  1
  Ni  Ni27  1  0.25000000  0.60029400  0.79769000  1
  Ni  Ni28  1  0.25000000  0.27437200  0.32063100  1
  Ni  Ni29  1  0.75000000  0.72562800  0.67936900  1
  Ni  Ni30  1  0.75000000  0.77437200  0.17936900  1
  Ni  Ni31  1  0.25000000  0.22562800  0.82063100  1
  Ni  Ni32  1  0.25000000  0.44266700  0.05405400  1
  Ni  Ni33  1  0.75000000  0.55733300  0.94594600  1
  Ni  Ni34  1  0.75000000  0.94266700  0.44594600  1
  Ni  Ni35  1  0.25000000  0.05733300  0.55405400  1
  Cu  Cu36  1  0.25000000  0.09147300  0.20838800  1
  Cu  Cu37  1  0.75000000  0.90852700  0.79161200  1
  Cu  Cu38  1  0.75000000  0.59147300  0.29161200  1
  Cu  Cu39  1  0.25000000  0.40852700  0.70838800  1
  Cu  Cu40  1  0.25000000  0.69975800  0.34603300  1
  Cu  Cu41  1  0.75000000  0.30024200  0.65396700  1
  Cu  Cu42  1  0.75000000  0.19975800  0.15396700  1
  Cu  Cu43  1  0.25000000  0.80024200  0.84603300  1
  Cu  Cu44  1  0.25000000  0.58994800  0.18096400  1
  Cu  Cu45  1  0.75000000  0.41005200  0.81903600  1
  Cu  Cu46  1  0.75000000  0.08994800  0.31903600  1
  Cu  Cu47  1  0.25000000  0.91005200  0.68096400  1
  Cu  Cu48  1  0.25000000  0.48098900  0.34857800  1
  Cu  Cu49  1  0.75000000  0.51901100  0.65142200  1
  Cu  Cu50  1  0.75000000  0.98098900  0.15142200  1
  Cu  Cu51  1  0.25000000  0.01901100  0.84857800  1
