# generated using pymatgen
data_Cu(NiC8)2
_symmetry_space_group_name_H-M   'P 1'
_cell_length_a   5.92228600
_cell_length_b   7.29610085
_cell_length_c   10.76924709
_cell_angle_alpha   108.38823453
_cell_angle_beta   90.00000000
_cell_angle_gamma   90.00000000
_symmetry_Int_Tables_number   1
_chemical_formula_structural   Cu(NiC8)2
_chemical_formula_sum   'Cu2 Ni4 C32'
_cell_volume   441.57519547
_cell_formula_units_Z   2
loop_
 _symmetry_equiv_pos_site_id
 _symmetry_equiv_pos_as_xyz
  1  'x, y, z'
loop_
 _atom_site_type_symbol
 _atom_site_label
 _atom_site_symmetry_multiplicity
 _atom_site_fract_x
 _atom_site_fract_y
 _atom_site_fract_z
 _atom_site_occupancy
  Ni  Ni0  1  0.26205600  0.55806300  0.35120100  1
  Ni  Ni1  1  0.76205600  0.44193700  0.14879900  1
  Ni  Ni2  1  0.73794400  0.44193700  0.64879900  1
  Ni  Ni3  1  0.23794400  0.55806300  0.85120100  1
  C  C4  1  0.80669400  0.15054900  0.38766700  1
  C  C5  1  0.30669400  0.84945100  0.11233300  1
  C  C6  1  0.19330600  0.84945100  0.61233300  1
  C  C7  1  0.69330600  0.15054900  0.88766700  1
  C  C8  1  0.67297300  0.97638100  0.27221200  1
  C  C9  1  0.17297300  0.02361900  0.22778800  1
  C  C10  1  0.32702700  0.02361900  0.72778800  1
  C  C11  1  0.82702700  0.97638100  0.77221200  1
  C  C12  1  0.55540700  0.19341500  0.33146500  1
  C  C13  1  0.05540700  0.80658500  0.16853500  1
  C  C14  1  0.44459300  0.80658500  0.66853500  1
  C  C15  1  0.94459300  0.19341500  0.83146500  1
  Cu  Cu16  1  0.50000000  0.00000000  0.50000000  1
  Cu  Cu17  1  0.00000000  0.00000000  0.00000000  1
  C  C18  1  0.76503500  0.75334000  0.46302000  1
  C  C19  1  0.26503500  0.24666000  0.03698000  1
  C  C20  1  0.23496500  0.24666000  0.53698000  1
  C  C21  1  0.73496500  0.75334000  0.96302000  1
  C  C22  1  0.65102300  0.09206100  0.35537700  1
  C  C23  1  0.15102300  0.90793900  0.14462300  1
  C  C24  1  0.34897700  0.90793900  0.64462300  1
  C  C25  1  0.84897700  0.09206100  0.85537700  1
  C  C26  1  0.65256900  0.56343900  0.38548300  1
  C  C27  1  0.15256900  0.43656100  0.11451700  1
  C  C28  1  0.34743100  0.43656100  0.61451700  1
  C  C29  1  0.84743100  0.56343900  0.88548300  1
  C  C30  1  0.96687200  0.78295500  0.38625500  1
  C  C31  1  0.46687200  0.21704500  0.11374500  1
  C  C32  1  0.03312800  0.21704500  0.61374500  1
  C  C33  1  0.53312800  0.78295500  0.88625500  1
  C  C34  1  0.84049500  0.73800400  0.59344900  1
  C  C35  1  0.34049500  0.26199600  0.90655100  1
  C  C36  1  0.15950500  0.26199600  0.40655100  1
  C  C37  1  0.65950500  0.73800400  0.09344900  1
