# generated using pymatgen
data_Cu(NiC)2
_symmetry_space_group_name_H-M   'P 1'
_cell_length_a   3.74555500
_cell_length_b   3.74555500
_cell_length_c   14.70541200
_cell_angle_alpha   90.00000000
_cell_angle_beta   90.00000000
_cell_angle_gamma   90.00000000
_symmetry_Int_Tables_number   1
_chemical_formula_structural   Cu(NiC)2
_chemical_formula_sum   'Cu1 Ni2 C2'
_cell_volume   206.30490513
_cell_formula_units_Z   1
loop_
 _symmetry_equiv_pos_site_id
 _symmetry_equiv_pos_as_xyz
  1  'x, y, z'
loop_
 _atom_site_type_symbol
 _atom_site_label
 _atom_site_symmetry_multiplicity
 _atom_site_fract_x
 _atom_site_fract_y
 _atom_site_fract_z
 _atom_site_occupancy
  C  C0  1  0.50000000  0.50000000  0.13539200  1
  C  C1  1  0.50000000  0.50000000  0.86460800  1
  Ni  Ni2  1  0.50000000  0.50000000  0.66890800  1
  Ni  Ni3  1  0.50000000  0.50000000  0.33109200  1
  Cu  Cu4  1  0.50000000  0.50000000  0.00000000  1
