# generated using pymatgen
data_Cu7(Ni2C11)3
_symmetry_space_group_name_H-M   'P 1'
_cell_length_a   11.97625900
_cell_length_b   12.45333542
_cell_length_c   12.69789961
_cell_angle_alpha   112.29726656
_cell_angle_beta   111.56778140
_cell_angle_gamma   100.79561899
_symmetry_Int_Tables_number   1
_chemical_formula_structural   Cu7(Ni2C11)3
_chemical_formula_sum   'Cu7 Ni6 C33'
_cell_volume   1507.44260489
_cell_formula_units_Z   1
loop_
 _symmetry_equiv_pos_site_id
 _symmetry_equiv_pos_as_xyz
  1  'x, y, z'
loop_
 _atom_site_type_symbol
 _atom_site_label
 _atom_site_symmetry_multiplicity
 _atom_site_fract_x
 _atom_site_fract_y
 _atom_site_fract_z
 _atom_site_occupancy
  Ni  Ni0  1  0.97079300  0.79172700  0.21088200  1
  Ni  Ni1  1  0.02981100  0.20779700  0.78676900  1
  Ni  Ni2  1  0.62170400  0.33593600  0.75939400  1
  Ni  Ni3  1  0.37997500  0.66619500  0.24044800  1
  Ni  Ni4  1  0.08062400  0.28577600  0.38756200  1
  Ni  Ni5  1  0.91954900  0.71408600  0.61265000  1
  C  C6  1  0.02043400  0.47558400  0.02629600  1
  Cu  Cu7  1  0.64710200  0.72904100  0.90831000  1
  Cu  Cu8  1  0.35433000  0.27040900  0.09243900  1
  Cu  Cu9  1  0.50002400  0.99977100  0.99992300  1
  Cu  Cu10  1  0.64522300  0.96024300  0.74503600  1
  Cu  Cu11  1  0.35443700  0.03948200  0.25515100  1
  Cu  Cu12  1  0.29389600  0.69864600  0.63666300  1
  Cu  Cu13  1  0.70615500  0.30173400  0.36396700  1
  C  C14  1  0.39809100  0.96620500  0.72477800  1
  C  C15  1  0.60177200  0.03389500  0.27516700  1
  C  C16  1  0.53640900  0.69041800  0.63890800  1
  C  C17  1  0.46377900  0.30959200  0.36151200  1
  C  C18  1  0.75703700  0.99586300  0.00719500  1
  C  C19  1  0.24270800  0.00383300  0.99286000  1
  C  C20  1  0.60772000  0.28513200  0.11158400  1
  C  C21  1  0.39263600  0.71502300  0.88872800  1
  C  C22  1  0.12192900  0.16309800  0.23911700  1
  C  C23  1  0.87805800  0.83717400  0.76085900  1
  C  C24  1  0.27136700  0.41470600  0.56336200  1
  C  C25  1  0.72862300  0.58530000  0.43666200  1
  C  C26  1  0.96737400  0.79364400  0.03697900  1
  C  C27  1  0.03216700  0.20933900  0.96339000  1
  C  C28  1  0.95578100  0.17653500  0.43018800  1
  C  C29  1  0.04410000  0.82351200  0.56990900  1
  C  C30  1  0.52314800  0.42589800  0.85990500  1
  C  C31  1  0.47711400  0.57365300  0.14039300  1
  C  C32  1  0.94252000  0.59746400  0.18113100  1
  C  C33  1  0.05626100  0.40398900  0.82713400  1
  C  C34  1  0.15006900  0.93004200  0.38592100  1
  C  C35  1  0.84974300  0.06935800  0.61400400  1
  C  C36  1  0.75154600  0.27642200  0.88440800  1
  C  C37  1  0.24780600  0.72288000  0.11588900  1
  C  C38  1  0.73054100  0.46544400  0.72164600  1
  C  C39  1  0.26628900  0.53408500  0.27460200  1
  C  C40  1  0.97883900  0.39290200  0.31467700  1
  C  C41  1  0.02136500  0.60697700  0.68517900  1
  C  C42  1  0.48512700  0.15911700  0.57609900  1
  C  C43  1  0.51537600  0.84093000  0.42501900  1
  C  C44  1  0.79152500  0.81898100  0.20947400  1
  C  C45  1  0.20862100  0.18006500  0.79033000  1
