# generated using pymatgen
data_Cu2Ni2C5
_symmetry_space_group_name_H-M   'P 1'
_cell_length_a   17.41891300
_cell_length_b   10.07575500
_cell_length_c   10.33589161
_cell_angle_alpha   84.05570212
_cell_angle_beta   90.00000000
_cell_angle_gamma   90.00000000
_symmetry_Int_Tables_number   1
_chemical_formula_structural   Cu2Ni2C5
_chemical_formula_sum   'Cu8 Ni8 C20'
_cell_volume   1804.28489422
_cell_formula_units_Z   4
loop_
 _symmetry_equiv_pos_site_id
 _symmetry_equiv_pos_as_xyz
  1  'x, y, z'
loop_
 _atom_site_type_symbol
 _atom_site_label
 _atom_site_symmetry_multiplicity
 _atom_site_fract_x
 _atom_site_fract_y
 _atom_site_fract_z
 _atom_site_occupancy
  C  C0  1  0.49306800  0.37601000  0.66706700  1
  C  C1  1  0.99306800  0.12399000  0.33293300  1
  C  C2  1  0.50693200  0.62399000  0.33293300  1
  C  C3  1  0.00693200  0.87601000  0.66706700  1
  Ni  Ni4  1  0.38552000  0.76498500  0.73897000  1
  Ni  Ni5  1  0.88552000  0.73501500  0.26103000  1
  Ni  Ni6  1  0.61448000  0.23501500  0.26103000  1
  Ni  Ni7  1  0.11448000  0.26498500  0.73897000  1
  Ni  Ni8  1  0.14657300  0.63698100  0.16316600  1
  Ni  Ni9  1  0.64657300  0.86301900  0.83683400  1
  Ni  Ni10  1  0.85342700  0.36301900  0.83683400  1
  Ni  Ni11  1  0.35342700  0.13698100  0.16316600  1
  C  C12  1  0.34840800  0.92877200  0.69591200  1
  C  C13  1  0.84840800  0.57122800  0.30408800  1
  C  C14  1  0.65159200  0.07122800  0.30408800  1
  C  C15  1  0.15159200  0.42877200  0.69591200  1
  C  C16  1  0.36864200  0.27575900  0.04309400  1
  C  C17  1  0.86864200  0.22424100  0.95690600  1
  C  C18  1  0.63135800  0.72424100  0.95690600  1
  C  C19  1  0.13135800  0.77575900  0.04309400  1
  C  C20  1  0.38038100  0.37016400  0.52780200  1
  C  C21  1  0.88038100  0.12983600  0.47219800  1
  C  C22  1  0.61961900  0.62983600  0.47219800  1
  C  C23  1  0.11961900  0.87016400  0.52780200  1
  C  C24  1  0.60551300  0.33638000  0.80290800  1
  C  C25  1  0.10551300  0.16362000  0.19709200  1
  C  C26  1  0.39448700  0.66362000  0.19709200  1
  C  C27  1  0.89448700  0.83638000  0.80290800  1
  Cu  Cu28  1  0.40976000  0.65766600  0.76755800  1
  Cu  Cu29  1  0.90976000  0.84233400  0.23244200  1
  Cu  Cu30  1  0.59024000  0.34233400  0.23244200  1
  Cu  Cu31  1  0.09024000  0.15766600  0.76755800  1
  Cu  Cu32  1  0.15643400  0.54758200  0.24312100  1
  Cu  Cu33  1  0.65643400  0.95241800  0.75687900  1
  Cu  Cu34  1  0.84356600  0.45241800  0.75687900  1
  Cu  Cu35  1  0.34356600  0.04758200  0.24312100  1
