# generated using pymatgen
data_Cu3Ni5C2
_symmetry_space_group_name_H-M   'P 1'
_cell_length_a   4.13709300
_cell_length_b   4.13709300
_cell_length_c   10.25968400
_cell_angle_alpha   90.00000000
_cell_angle_beta   90.00000000
_cell_angle_gamma   90.00000000
_symmetry_Int_Tables_number   1
_chemical_formula_structural   Cu3Ni5C2
_chemical_formula_sum   'Cu3 Ni5 C2'
_cell_volume   175.60001640
_cell_formula_units_Z   1
loop_
 _symmetry_equiv_pos_site_id
 _symmetry_equiv_pos_as_xyz
  1  'x, y, z'
loop_
 _atom_site_type_symbol
 _atom_site_label
 _atom_site_symmetry_multiplicity
 _atom_site_fract_x
 _atom_site_fract_y
 _atom_site_fract_z
 _atom_site_occupancy
  C  C0  1  0.00000000  0.00000000  0.99269600  1
  C  C1  1  0.50000000  0.50000000  0.50730400  1
  Ni  Ni2  1  0.50000000  0.50000000  0.11045400  1
  Ni  Ni3  1  0.00000000  0.00000000  0.62801400  1
  Ni  Ni4  1  0.00000000  0.00000000  0.38954600  1
  Ni  Ni5  1  0.50000000  0.50000000  0.87198600  1
  Ni  Ni6  1  0.00000000  0.50000000  0.25000000  1
  Cu  Cu7  1  0.50000000  0.00000000  0.75000000  1
  Cu  Cu8  1  0.50000000  0.00000000  0.25000000  1
  Cu  Cu9  1  0.00000000  0.50000000  0.75000000  1
