# generated using pymatgen
data_Cu3Ni2C17
_symmetry_space_group_name_H-M   'P 1'
_cell_length_a   7.33379116
_cell_length_b   7.33379116
_cell_length_c   7.33379153
_cell_angle_alpha   61.84351957
_cell_angle_beta   61.84351957
_cell_angle_gamma   61.84352084
_symmetry_Int_Tables_number   1
_chemical_formula_structural   Cu3Ni2C17
_chemical_formula_sum   'Cu3 Ni2 C17'
_cell_volume   290.42823987
_cell_formula_units_Z   1
loop_
 _symmetry_equiv_pos_site_id
 _symmetry_equiv_pos_as_xyz
  1  'x, y, z'
loop_
 _atom_site_type_symbol
 _atom_site_label
 _atom_site_symmetry_multiplicity
 _atom_site_fract_x
 _atom_site_fract_y
 _atom_site_fract_z
 _atom_site_occupancy
  Ni  Ni0  1  0.50000000  0.50000000  0.50000000  1
  Ni  Ni1  1  0.00000000  0.00000000  0.00000000  1
  C  C2  1  0.50000000  0.00000000  0.00000000  1
  C  C3  1  0.00000000  0.00000000  0.50000000  1
  C  C4  1  0.00000000  0.50000000  0.00000000  1
  Cu  Cu5  1  0.00000000  0.50000000  0.50000000  1
  Cu  Cu6  1  0.50000000  0.50000000  0.00000000  1
  Cu  Cu7  1  0.50000000  0.00000000  0.50000000  1
  C  C8  1  0.38860600  0.38860600  0.38860600  1
  C  C9  1  0.61139400  0.61139400  0.61139400  1
  C  C10  1  0.92539100  0.31885000  0.31885000  1
  C  C11  1  0.34288900  0.91279200  0.91279200  1
  C  C12  1  0.31885000  0.31885000  0.92539100  1
  C  C13  1  0.91279200  0.91279200  0.34288900  1
  C  C14  1  0.91279200  0.34288900  0.91279200  1
  C  C15  1  0.31885000  0.92539100  0.31885000  1
  C  C16  1  0.07460900  0.68115000  0.68115000  1
  C  C17  1  0.65711100  0.08720800  0.08720800  1
  C  C18  1  0.68115000  0.68115000  0.07460900  1
  C  C19  1  0.08720800  0.08720800  0.65711100  1
  C  C20  1  0.08720800  0.65711100  0.08720800  1
  C  C21  1  0.68115000  0.07460900  0.68115000  1
