# generated using pymatgen
data_Cu3Ni13C9
_symmetry_space_group_name_H-M   'P 1'
_cell_length_a   7.32310211
_cell_length_b   5.71661951
_cell_length_c   6.91593942
_cell_angle_alpha   93.04864270
_cell_angle_beta   92.31347048
_cell_angle_gamma   82.90079682
_symmetry_Int_Tables_number   1
_chemical_formula_structural   Cu3Ni13C9
_chemical_formula_sum   'Cu3 Ni13 C9'
_cell_volume   286.73156782
_cell_formula_units_Z   1
loop_
 _symmetry_equiv_pos_site_id
 _symmetry_equiv_pos_as_xyz
  1  'x, y, z'
loop_
 _atom_site_type_symbol
 _atom_site_label
 _atom_site_symmetry_multiplicity
 _atom_site_fract_x
 _atom_site_fract_y
 _atom_site_fract_z
 _atom_site_occupancy
  C  C0  1  0.68028400  0.03209300  0.79614900  1
  C  C1  1  0.36519000  0.33513200  0.10749600  1
  C  C2  1  0.11774000  0.70313500  0.37303700  1
  C  C3  1  0.87522700  0.17406300  0.16758400  1
  C  C4  1  0.32996000  0.14152300  0.60235400  1
  C  C5  1  0.16492100  0.86996000  0.89097300  1
  C  C6  1  0.57979600  0.84830600  0.33264700  1
  C  C7  1  0.58839400  0.58313400  0.88137200  1
  C  C8  1  0.93358700  0.43820500  0.69726500  1
  Ni  Ni9  1  0.16968200  0.12442100  0.08326900  1
  Ni  Ni10  1  0.18223400  0.62047900  0.09094000  1
  Ni  Ni11  1  0.55237400  0.57086300  0.15448000  1
  Ni  Ni12  1  0.10499500  0.66026400  0.65588300  1
  Ni  Ni13  1  0.31357800  0.88362800  0.40898800  1
  Ni  Ni14  1  0.09293700  0.13701300  0.70111500  1
  Ni  Ni15  1  0.59825900  0.08543800  0.13648900  1
  Ni  Ni16  1  0.40824400  0.84800000  0.82464200  1
  Ni  Ni17  1  0.57475400  0.10804000  0.51018800  1
  Ni  Ni18  1  0.90554900  0.91984900  0.34266000  1
  Ni  Ni19  1  0.41797400  0.32801100  0.83812200  1
  Ni  Ni20  1  0.70896800  0.63915800  0.64911600  1
  Ni  Ni21  1  0.80882400  0.35687400  0.92447200  1
  Cu  Cu22  1  0.30178400  0.39954000  0.38471200  1
  Cu  Cu23  1  0.94284200  0.43466900  0.36718600  1
  Cu  Cu24  1  0.91190600  0.86534200  0.95886100  1
