# generated using pymatgen
data_Cu14Ni2C
_symmetry_space_group_name_H-M   'P 1'
_cell_length_a   7.44612120
_cell_length_b   7.44612120
_cell_length_c   11.81646400
_cell_angle_alpha   90.00000000
_cell_angle_beta   90.00000000
_cell_angle_gamma   106.25733304
_symmetry_Int_Tables_number   1
_chemical_formula_structural   Cu14Ni2C
_chemical_formula_sum   'Cu28 Ni4 C2'
_cell_volume   628.96332073
_cell_formula_units_Z   2
loop_
 _symmetry_equiv_pos_site_id
 _symmetry_equiv_pos_as_xyz
  1  'x, y, z'
loop_
 _atom_site_type_symbol
 _atom_site_label
 _atom_site_symmetry_multiplicity
 _atom_site_fract_x
 _atom_site_fract_y
 _atom_site_fract_z
 _atom_site_occupancy
  C  C0  1  0.84434700  0.84434700  0.74736200  1
  C  C1  1  0.15565300  0.15565300  0.24736200  1
  Ni  Ni2  1  0.53740300  0.53740300  0.66593500  1
  Ni  Ni3  1  0.46259700  0.46259700  0.16593500  1
  Ni  Ni4  1  0.22887700  0.22887700  0.85981300  1
  Ni  Ni5  1  0.77112300  0.77112300  0.35981300  1
  Cu  Cu6  1  0.89556000  0.89556000  0.59596400  1
  Cu  Cu7  1  0.10444000  0.10444000  0.09596400  1
  Cu  Cu8  1  0.76000400  0.76000400  0.89019900  1
  Cu  Cu9  1  0.23999600  0.23999600  0.39019900  1
  Cu  Cu10  1  0.52068800  0.70228200  0.68632000  1
  Cu  Cu11  1  0.70228200  0.52068800  0.68632000  1
  Cu  Cu12  1  0.47931200  0.29771800  0.18632000  1
  Cu  Cu13  1  0.29771800  0.47931200  0.18632000  1
  Cu  Cu14  1  0.40959300  0.40959300  0.63064600  1
  Cu  Cu15  1  0.59040700  0.59040700  0.13064600  1
  Cu  Cu16  1  0.07347400  0.25483600  0.83862400  1
  Cu  Cu17  1  0.25483600  0.07347400  0.83862400  1
  Cu  Cu18  1  0.92652600  0.74516400  0.33862400  1
  Cu  Cu19  1  0.74516400  0.92652600  0.33862400  1
  Cu  Cu20  1  0.35794500  0.35794500  0.90179400  1
  Cu  Cu21  1  0.64205500  0.64205500  0.40179400  1
  Cu  Cu22  1  0.73764600  0.03778000  0.75802800  1
  Cu  Cu23  1  0.03778000  0.73764600  0.75802800  1
  Cu  Cu24  1  0.26235400  0.96222000  0.25802800  1
  Cu  Cu25  1  0.96222000  0.26235400  0.25802800  1
  Cu  Cu26  1  0.63441800  0.14998700  0.95289600  1
  Cu  Cu27  1  0.14998700  0.63441800  0.95289600  1
  Cu  Cu28  1  0.36558200  0.85001300  0.45289600  1
  Cu  Cu29  1  0.85001300  0.36558200  0.45289600  1
  Cu  Cu30  1  0.39637300  0.98249800  0.51727700  1
  Cu  Cu31  1  0.98249800  0.39637300  0.51727700  1
  Cu  Cu32  1  0.60362700  0.01750200  0.01727700  1
  Cu  Cu33  1  0.01750200  0.60362700  0.01727700  1
