# generated using pymatgen
data_Cu3NiC16
_symmetry_space_group_name_H-M   'P 1'
_cell_length_a   8.02972100
_cell_length_b   5.52989600
_cell_length_c   5.79023427
_cell_angle_alpha   89.98259427
_cell_angle_beta   90.00000000
_cell_angle_gamma   90.00000000
_symmetry_Int_Tables_number   1
_chemical_formula_structural   Cu3NiC16
_chemical_formula_sum   'Cu3 Ni1 C16'
_cell_volume   257.10678303
_cell_formula_units_Z   1
loop_
 _symmetry_equiv_pos_site_id
 _symmetry_equiv_pos_as_xyz
  1  'x, y, z'
loop_
 _atom_site_type_symbol
 _atom_site_label
 _atom_site_symmetry_multiplicity
 _atom_site_fract_x
 _atom_site_fract_y
 _atom_site_fract_z
 _atom_site_occupancy
  Ni  Ni0  1  0.50000000  0.51448700  0.44687400  1
  Cu  Cu1  1  0.50000000  0.97895400  0.94013400  1
  Cu  Cu2  1  0.00000000  0.48137000  0.56294900  1
  Cu  Cu3  1  0.00000000  0.01554300  0.05928200  1
  C  C4  1  0.24656800  0.50077900  0.00111300  1
  C  C5  1  0.75422700  0.99935100  0.50090700  1
  C  C6  1  0.75343200  0.50077900  0.00111300  1
  C  C7  1  0.24577300  0.99935100  0.50090700  1
  C  C8  1  0.50000000  0.37254700  0.03876400  1
  C  C9  1  0.50000000  0.10305600  0.55415200  1
  C  C10  1  0.00000000  0.62851300  0.94425700  1
  C  C11  1  0.00000000  0.86882200  0.44100200  1
  C  C12  1  0.18002800  0.19678600  0.80337800  1
  C  C13  1  0.81809200  0.30898300  0.30769200  1
  C  C14  1  0.68831900  0.81319500  0.19055100  1
  C  C15  1  0.30770200  0.69926200  0.70265200  1
  C  C16  1  0.31168100  0.81319500  0.19055100  1
  C  C17  1  0.69229800  0.69926200  0.70265200  1
  C  C18  1  0.81997200  0.19678600  0.80337800  1
  C  C19  1  0.18190800  0.30898300  0.30769200  1
