# generated using pymatgen
data_CuNiC62
_symmetry_space_group_name_H-M   'P 1'
_cell_length_a   8.64095400
_cell_length_b   8.64095400
_cell_length_c   8.60474500
_cell_angle_alpha   90.00000000
_cell_angle_beta   90.00000000
_cell_angle_gamma   90.00000000
_symmetry_Int_Tables_number   1
_chemical_formula_structural   CuNiC62
_chemical_formula_sum   'Cu1 Ni1 C62'
_cell_volume   642.48263044
_cell_formula_units_Z   1
loop_
 _symmetry_equiv_pos_site_id
 _symmetry_equiv_pos_as_xyz
  1  'x, y, z'
loop_
 _atom_site_type_symbol
 _atom_site_label
 _atom_site_symmetry_multiplicity
 _atom_site_fract_x
 _atom_site_fract_y
 _atom_site_fract_z
 _atom_site_occupancy
  C  C0  1  0.50000000  0.00000000  0.00000000  1
  C  C1  1  0.50000000  0.00000000  0.50000000  1
  C  C2  1  0.00000000  0.50000000  0.00000000  1
  C  C3  1  0.00000000  0.50000000  0.50000000  1
  C  C4  1  0.50000000  0.50000000  0.00000000  1
  C  C5  1  0.50000000  0.50000000  0.50000000  1
  C  C6  1  0.25676700  0.00000000  0.25330100  1
  C  C7  1  0.25676700  0.00000000  0.74669900  1
  C  C8  1  0.74323300  0.00000000  0.25330100  1
  C  C9  1  0.74323300  0.00000000  0.74669900  1
  C  C10  1  0.25097600  0.50000000  0.25057200  1
  C  C11  1  0.25097600  0.50000000  0.74942800  1
  C  C12  1  0.74902400  0.50000000  0.25057200  1
  C  C13  1  0.74902400  0.50000000  0.74942800  1
  C  C14  1  0.00000000  0.25676700  0.25330100  1
  C  C15  1  0.00000000  0.25676700  0.74669900  1
  C  C16  1  0.50000000  0.25097600  0.25057200  1
  C  C17  1  0.50000000  0.25097600  0.74942800  1
  C  C18  1  0.00000000  0.74323300  0.25330100  1
  C  C19  1  0.00000000  0.74323300  0.74669900  1
  C  C20  1  0.50000000  0.74902400  0.25057200  1
  C  C21  1  0.50000000  0.74902400  0.74942800  1
  C  C22  1  0.25436700  0.25436700  0.00000000  1
  C  C23  1  0.25150800  0.25150800  0.50000000  1
  C  C24  1  0.74563300  0.25436700  0.00000000  1
  C  C25  1  0.74849200  0.25150800  0.50000000  1
  C  C26  1  0.25436700  0.74563300  0.00000000  1
  C  C27  1  0.25150800  0.74849200  0.50000000  1
  C  C28  1  0.74563300  0.74563300  0.00000000  1
  C  C29  1  0.74849200  0.74849200  0.50000000  1
  Ni  Ni30  1  0.00000000  0.00000000  0.50000000  1
  Cu  Cu31  1  0.00000000  0.00000000  0.00000000  1
  C  C32  1  0.00000000  0.27082000  0.00000000  1
  C  C33  1  0.00000000  0.26409600  0.50000000  1
  C  C34  1  0.50000000  0.25369000  0.00000000  1
  C  C35  1  0.50000000  0.25252700  0.50000000  1
  C  C36  1  0.00000000  0.72918000  0.00000000  1
  C  C37  1  0.00000000  0.73590400  0.50000000  1
  C  C38  1  0.50000000  0.74631000  0.00000000  1
  C  C39  1  0.50000000  0.74747300  0.50000000  1
  C  C40  1  0.24934600  0.24934600  0.24984000  1
  C  C41  1  0.24934600  0.24934600  0.75016000  1
  C  C42  1  0.75065400  0.24934600  0.24984000  1
  C  C43  1  0.75065400  0.24934600  0.75016000  1
  C  C44  1  0.24934600  0.75065400  0.24984000  1
  C  C45  1  0.24934600  0.75065400  0.75016000  1
  C  C46  1  0.75065400  0.75065400  0.24984000  1
  C  C47  1  0.75065400  0.75065400  0.75016000  1
  C  C48  1  0.00000000  0.00000000  0.27274900  1
  C  C49  1  0.00000000  0.00000000  0.72725100  1
  C  C50  1  0.50000000  0.00000000  0.25142600  1
  C  C51  1  0.50000000  0.00000000  0.74857400  1
  C  C52  1  0.00000000  0.50000000  0.25142600  1
  C  C53  1  0.00000000  0.50000000  0.74857400  1
  C  C54  1  0.50000000  0.50000000  0.25040100  1
  C  C55  1  0.50000000  0.50000000  0.74959900  1
  C  C56  1  0.27082000  0.00000000  0.00000000  1
  C  C57  1  0.26409600  0.00000000  0.50000000  1
  C  C58  1  0.72918000  0.00000000  0.00000000  1
  C  C59  1  0.73590400  0.00000000  0.50000000  1
  C  C60  1  0.25369000  0.50000000  0.00000000  1
  C  C61  1  0.25252700  0.50000000  0.50000000  1
  C  C62  1  0.74631000  0.50000000  0.00000000  1
  C  C63  1  0.74747300  0.50000000  0.50000000  1
