# generated using pymatgen
data_Cu2Ni2C15
_symmetry_space_group_name_H-M   'P 1'
_cell_length_a   15.28974006
_cell_length_b   15.28974006
_cell_length_c   5.35587416
_cell_angle_alpha   80.00796452
_cell_angle_beta   80.00796452
_cell_angle_gamma   151.19892236
_symmetry_Int_Tables_number   1
_chemical_formula_structural   Cu2Ni2C15
_chemical_formula_sum   'Cu4 Ni4 C30'
_cell_volume   432.14975739
_cell_formula_units_Z   2
loop_
 _symmetry_equiv_pos_site_id
 _symmetry_equiv_pos_as_xyz
  1  'x, y, z'
loop_
 _atom_site_type_symbol
 _atom_site_label
 _atom_site_symmetry_multiplicity
 _atom_site_fract_x
 _atom_site_fract_y
 _atom_site_fract_z
 _atom_site_occupancy
  C  C0  1  0.94937500  0.56392400  0.49185800  1
  C  C1  1  0.05062500  0.43607600  0.50814200  1
  C  C2  1  0.43607600  0.05062500  0.50814200  1
  C  C3  1  0.56392400  0.94937500  0.49185800  1
  C  C4  1  0.71338900  0.85503600  0.44717100  1
  C  C5  1  0.28661100  0.14496400  0.55282900  1
  C  C6  1  0.14496400  0.28661100  0.55282900  1
  C  C7  1  0.85503600  0.71338900  0.44717100  1
  Ni  Ni8  1  0.38491800  0.13559900  0.99247200  1
  Ni  Ni9  1  0.61508200  0.86440100  0.00752800  1
  Ni  Ni10  1  0.86440100  0.61508200  0.00752800  1
  Ni  Ni11  1  0.13559900  0.38491800  0.99247200  1
  Cu  Cu12  1  0.50000000  0.00000000  0.00000000  1
  Cu  Cu13  1  0.00000000  0.50000000  0.00000000  1
  Cu  Cu14  1  0.32041000  0.32041000  0.01335300  1
  Cu  Cu15  1  0.67959000  0.67959000  0.98664700  1
  C  C16  1  0.14433900  0.24870000  0.04032200  1
  C  C17  1  0.85566100  0.75130000  0.95967800  1
  C  C18  1  0.75130000  0.85566100  0.95967800  1
  C  C19  1  0.24870000  0.14433900  0.04032200  1
  C  C20  1  0.50642500  0.13636700  0.93268400  1
  C  C21  1  0.49357500  0.86363300  0.06731600  1
  C  C22  1  0.86363300  0.49357500  0.06731600  1
  C  C23  1  0.13636700  0.50642500  0.93268400  1
  C  C24  1  0.75704900  0.24295100  0.00000000  1
  C  C25  1  0.24346500  0.75653500  0.50000000  1
  C  C26  1  0.75653500  0.24346500  0.50000000  1
  C  C27  1  0.24295100  0.75704900  0.00000000  1
  C  C28  1  0.60918100  0.39081900  0.00000000  1
  C  C29  1  0.38777100  0.61222900  0.50000000  1
  C  C30  1  0.61222900  0.38777100  0.50000000  1
  C  C31  1  0.39081900  0.60918100  0.00000000  1
  C  C32  1  0.13001800  0.86998200  0.00000000  1
  C  C33  1  0.87133100  0.12866900  0.50000000  1
  C  C34  1  0.12866900  0.87133100  0.50000000  1
  C  C35  1  0.86998200  0.13001800  0.00000000  1
  C  C36  1  0.65241500  0.65241500  0.67032700  1
  C  C37  1  0.34758500  0.34758500  0.32967300  1
