# generated using pymatgen
data_Cu6NiC3
_symmetry_space_group_name_H-M   'P 1'
_cell_length_a   9.45770222
_cell_length_b   9.45770222
_cell_length_c   11.87780657
_cell_angle_alpha   89.10930680
_cell_angle_beta   89.10930680
_cell_angle_gamma   61.36870787
_symmetry_Int_Tables_number   1
_chemical_formula_structural   Cu6NiC3
_chemical_formula_sum   'Cu24 Ni4 C12'
_cell_volume   932.38064888
_cell_formula_units_Z   4
loop_
 _symmetry_equiv_pos_site_id
 _symmetry_equiv_pos_as_xyz
  1  'x, y, z'
loop_
 _atom_site_type_symbol
 _atom_site_label
 _atom_site_symmetry_multiplicity
 _atom_site_fract_x
 _atom_site_fract_y
 _atom_site_fract_z
 _atom_site_occupancy
  C  C0  1  0.88733100  0.52198600  0.86668200  1
  C  C1  1  0.47772500  0.11579500  0.63094400  1
  C  C2  1  0.11579500  0.47772500  0.13094400  1
  C  C3  1  0.52198600  0.88733100  0.36668200  1
  C  C4  1  0.98997700  0.69848400  0.96948000  1
  C  C5  1  0.30179400  0.01354100  0.52738900  1
  C  C6  1  0.01354100  0.30179400  0.02738900  1
  C  C7  1  0.69848400  0.98997700  0.46948000  1
  C  C8  1  0.19504100  0.40034500  0.91556600  1
  C  C9  1  0.60129600  0.80712800  0.58001200  1
  C  C10  1  0.80712800  0.60129600  0.08001200  1
  C  C11  1  0.40034500  0.19504100  0.41556600  1
  Ni  Ni12  1  0.88753900  0.35456100  0.49963500  1
  Ni  Ni13  1  0.35456100  0.88753900  0.99963500  1
  Ni  Ni14  1  0.74382800  0.23095000  0.77600800  1
  Ni  Ni15  1  0.23095000  0.74382800  0.27600800  1
  Cu  Cu16  1  0.73032100  0.42423400  0.97936300  1
  Cu  Cu17  1  0.57513100  0.27235500  0.51804500  1
  Cu  Cu18  1  0.27235500  0.57513100  0.01804500  1
  Cu  Cu19  1  0.42423400  0.73032100  0.47936300  1
  Cu  Cu20  1  0.95201500  0.98846300  0.42223200  1
  Cu  Cu21  1  0.02570600  0.04093400  0.07463500  1
  Cu  Cu22  1  0.04093400  0.02570600  0.57463500  1
  Cu  Cu23  1  0.98846300  0.95201500  0.92223200  1
  Cu  Cu24  1  0.73606000  0.54371700  0.68898300  1
  Cu  Cu25  1  0.44984300  0.26278700  0.80584400  1
  Cu  Cu26  1  0.26278700  0.44984300  0.30584400  1
  Cu  Cu27  1  0.54371700  0.73606000  0.18898300  1
  Cu  Cu28  1  0.91945100  0.75536100  0.16516800  1
  Cu  Cu29  1  0.24507300  0.08478300  0.33088300  1
  Cu  Cu30  1  0.08478300  0.24507300  0.83088300  1
  Cu  Cu31  1  0.75536100  0.91945100  0.66516800  1
  Cu  Cu32  1  0.20469400  0.29941900  0.56814800  1
  Cu  Cu33  1  0.70912000  0.79496600  0.92414800  1
  Cu  Cu34  1  0.79496600  0.70912000  0.42414800  1
  Cu  Cu35  1  0.29941900  0.20469400  0.06814800  1
  Cu  Cu36  1  0.93746900  0.39161200  0.21891000  1
  Cu  Cu37  1  0.61046500  0.06269700  0.27692500  1
  Cu  Cu38  1  0.06269700  0.61046500  0.77692500  1
  Cu  Cu39  1  0.39161200  0.93746900  0.71891000  1
