# generated using pymatgen
data_Cu3NiC6
_symmetry_space_group_name_H-M   'P 1'
_cell_length_a   9.03960300
_cell_length_b   9.53639000
_cell_length_c   12.06139700
_cell_angle_alpha   90.00000000
_cell_angle_beta   90.00000000
_cell_angle_gamma   90.00000000
_symmetry_Int_Tables_number   1
_chemical_formula_structural   Cu3NiC6
_chemical_formula_sum   'Cu24 Ni8 C48'
_cell_volume   1039.75489525
_cell_formula_units_Z   8
loop_
 _symmetry_equiv_pos_site_id
 _symmetry_equiv_pos_as_xyz
  1  'x, y, z'
loop_
 _atom_site_type_symbol
 _atom_site_label
 _atom_site_symmetry_multiplicity
 _atom_site_fract_x
 _atom_site_fract_y
 _atom_site_fract_z
 _atom_site_occupancy
  C  C0  1  0.75000000  0.25183600  0.25000000  1
  C  C1  1  0.75000000  0.24816400  0.75000000  1
  C  C2  1  0.25000000  0.74816400  0.75000000  1
  C  C3  1  0.25000000  0.75183600  0.25000000  1
  C  C4  1  0.55665400  0.18695100  0.34540300  1
  C  C5  1  0.55665400  0.31304900  0.65459700  1
  C  C6  1  0.94334600  0.18695100  0.15459700  1
  C  C7  1  0.94334600  0.31304900  0.84540300  1
  C  C8  1  0.44334600  0.81304900  0.65459700  1
  C  C9  1  0.44334600  0.68695100  0.34540300  1
  C  C10  1  0.05665400  0.81304900  0.84540300  1
  C  C11  1  0.05665400  0.68695100  0.15459700  1
  C  C12  1  0.63385500  0.02540700  0.38612000  1
  C  C13  1  0.63385500  0.47459300  0.61388000  1
  C  C14  1  0.86614500  0.02540700  0.11388000  1
  C  C15  1  0.86614500  0.47459300  0.88612000  1
  C  C16  1  0.36614500  0.97459300  0.61388000  1
  C  C17  1  0.36614500  0.52540700  0.38612000  1
  C  C18  1  0.13385500  0.97459300  0.88612000  1
  C  C19  1  0.13385500  0.52540700  0.11388000  1
  C  C20  1  0.62007300  0.58123600  0.23506100  1
  C  C21  1  0.62007300  0.91876400  0.76493900  1
  C  C22  1  0.87992700  0.58123600  0.26493900  1
  C  C23  1  0.87992700  0.91876400  0.73506100  1
  C  C24  1  0.37992700  0.41876400  0.76493900  1
  C  C25  1  0.37992700  0.08123600  0.23506100  1
  C  C26  1  0.12007300  0.41876400  0.73506100  1
  C  C27  1  0.12007300  0.08123600  0.26493900  1
  C  C28  1  0.83642900  0.25000000  0.00000000  1
  C  C29  1  0.66357100  0.25000000  0.50000000  1
  C  C30  1  0.16357100  0.75000000  0.00000000  1
  C  C31  1  0.33642900  0.75000000  0.50000000  1
  C  C32  1  0.54903800  0.51212600  0.28603000  1
  C  C33  1  0.54903800  0.98787400  0.71397000  1
  C  C34  1  0.95096200  0.51212600  0.21397000  1
  C  C35  1  0.95096200  0.98787400  0.78603000  1
  C  C36  1  0.45096200  0.48787400  0.71397000  1
  C  C37  1  0.45096200  0.01212600  0.28603000  1
  C  C38  1  0.04903800  0.48787400  0.78603000  1
  C  C39  1  0.04903800  0.01212600  0.21397000  1
  C  C40  1  0.71227400  0.25000000  0.00000000  1
  C  C41  1  0.78772600  0.25000000  0.50000000  1
  C  C42  1  0.28772600  0.75000000  0.00000000  1
  C  C43  1  0.21227400  0.75000000  0.50000000  1
  C  C44  1  0.31563600  0.25000000  0.00000000  1
  C  C45  1  0.18436400  0.25000000  0.50000000  1
  C  C46  1  0.68436400  0.75000000  0.00000000  1
  C  C47  1  0.81563600  0.75000000  0.50000000  1
  Ni  Ni48  1  0.56085600  0.07992800  0.33850000  1
  Ni  Ni49  1  0.56085600  0.42007200  0.66150000  1
  Ni  Ni50  1  0.93914400  0.07992800  0.16150000  1
  Ni  Ni51  1  0.93914400  0.42007200  0.83850000  1
  Ni  Ni52  1  0.43914400  0.92007200  0.66150000  1
  Ni  Ni53  1  0.43914400  0.57992800  0.33850000  1
  Ni  Ni54  1  0.06085600  0.92007200  0.83850000  1
  Ni  Ni55  1  0.06085600  0.57992800  0.16150000  1
  Cu  Cu56  1  0.64959300  0.22848100  0.09249700  1
  Cu  Cu57  1  0.64959300  0.27151900  0.90750300  1
  Cu  Cu58  1  0.85040700  0.22848100  0.40750300  1
  Cu  Cu59  1  0.85040700  0.27151900  0.59249700  1
  Cu  Cu60  1  0.35040700  0.77151900  0.90750300  1
  Cu  Cu61  1  0.35040700  0.72848100  0.09249700  1
  Cu  Cu62  1  0.14959300  0.77151900  0.59249700  1
  Cu  Cu63  1  0.14959300  0.72848100  0.40750300  1
  Cu  Cu64  1  0.57032900  0.38319700  0.29274100  1
  Cu  Cu65  1  0.57032900  0.11680300  0.70725900  1
  Cu  Cu66  1  0.92967100  0.38319700  0.20725900  1
  Cu  Cu67  1  0.92967100  0.11680300  0.79274100  1
  Cu  Cu68  1  0.42967100  0.61680300  0.70725900  1
  Cu  Cu69  1  0.42967100  0.88319700  0.29274100  1
  Cu  Cu70  1  0.07032900  0.61680300  0.79274100  1
  Cu  Cu71  1  0.07032900  0.88319700  0.20725900  1
  Cu  Cu72  1  0.31178800  0.34454600  0.06258600  1
  Cu  Cu73  1  0.31178800  0.15545400  0.93741400  1
  Cu  Cu74  1  0.18821200  0.34454600  0.43741400  1
  Cu  Cu75  1  0.18821200  0.15545400  0.56258600  1
  Cu  Cu76  1  0.68821200  0.65545400  0.93741400  1
  Cu  Cu77  1  0.68821200  0.84454600  0.06258600  1
  Cu  Cu78  1  0.81178800  0.65545400  0.56258600  1
  Cu  Cu79  1  0.81178800  0.84454600  0.43741400  1
