# generated using pymatgen
data_Cu3NiC10
_symmetry_space_group_name_H-M   'P 1'
_cell_length_a   6.68505200
_cell_length_b   9.04983100
_cell_length_c   19.82700600
_cell_angle_alpha   90.00000000
_cell_angle_beta   90.00000000
_cell_angle_gamma   90.00000000
_symmetry_Int_Tables_number   1
_chemical_formula_structural   Cu3NiC10
_chemical_formula_sum   'Cu24 Ni8 C80'
_cell_volume   1199.50592330
_cell_formula_units_Z   8
loop_
 _symmetry_equiv_pos_site_id
 _symmetry_equiv_pos_as_xyz
  1  'x, y, z'
loop_
 _atom_site_type_symbol
 _atom_site_label
 _atom_site_symmetry_multiplicity
 _atom_site_fract_x
 _atom_site_fract_y
 _atom_site_fract_z
 _atom_site_occupancy
  C  C0  1  0.35324600  0.00000000  0.25000000  1
  C  C1  1  0.14675400  0.50000000  0.75000000  1
  C  C2  1  0.64675400  0.00000000  0.75000000  1
  C  C3  1  0.85324600  0.50000000  0.25000000  1
  C  C4  1  0.63801200  0.04682800  0.41966300  1
  C  C5  1  0.86198800  0.45317200  0.91966300  1
  C  C6  1  0.86198800  0.54682800  0.58033700  1
  C  C7  1  0.63801200  0.95317200  0.08033700  1
  C  C8  1  0.36198800  0.95317200  0.58033700  1
  C  C9  1  0.13801200  0.54682800  0.08033700  1
  C  C10  1  0.13801200  0.45317200  0.41966300  1
  C  C11  1  0.36198800  0.04682800  0.91966300  1
  C  C12  1  0.91055500  0.77193800  0.44596200  1
  C  C13  1  0.58944500  0.72806200  0.94596200  1
  C  C14  1  0.58944500  0.27193800  0.55403800  1
  C  C15  1  0.91055500  0.22806200  0.05403800  1
  C  C16  1  0.08944500  0.22806200  0.55403800  1
  C  C17  1  0.41055500  0.27193800  0.05403800  1
  C  C18  1  0.41055500  0.72806200  0.44596200  1
  C  C19  1  0.08944500  0.77193800  0.94596200  1
  Ni  Ni20  1  0.84078200  0.91497700  0.58153100  1
  Ni  Ni21  1  0.65921800  0.58502300  0.08153100  1
  Ni  Ni22  1  0.65921800  0.41497700  0.41846900  1
  Ni  Ni23  1  0.84078200  0.08502300  0.91846900  1
  Ni  Ni24  1  0.15921800  0.08502300  0.41846900  1
  Ni  Ni25  1  0.34078200  0.41497700  0.91846900  1
  Ni  Ni26  1  0.34078200  0.58502300  0.58153100  1
  Ni  Ni27  1  0.15921800  0.91497700  0.08153100  1
  Cu  Cu28  1  0.64055300  0.18915500  0.31578700  1
  Cu  Cu29  1  0.85944700  0.31084500  0.81578700  1
  Cu  Cu30  1  0.85944700  0.68915500  0.68421300  1
  Cu  Cu31  1  0.64055300  0.81084500  0.18421300  1
  Cu  Cu32  1  0.35944700  0.81084500  0.68421300  1
  Cu  Cu33  1  0.14055300  0.68915500  0.18421300  1
  Cu  Cu34  1  0.14055300  0.31084500  0.31578700  1
  Cu  Cu35  1  0.35944700  0.18915500  0.81578700  1
  Cu  Cu36  1  0.15071200  0.70661500  0.35797400  1
  Cu  Cu37  1  0.34928800  0.79338500  0.85797400  1
  Cu  Cu38  1  0.34928800  0.20661500  0.64202600  1
  Cu  Cu39  1  0.15071200  0.29338500  0.14202600  1
  Cu  Cu40  1  0.84928800  0.29338500  0.64202600  1
  Cu  Cu41  1  0.65071200  0.20661500  0.14202600  1
  Cu  Cu42  1  0.65071200  0.79338500  0.35797400  1
  Cu  Cu43  1  0.84928800  0.70661500  0.85797400  1
  Cu  Cu44  1  0.88720900  0.96462000  0.21444700  1
  Cu  Cu45  1  0.61279100  0.53538000  0.71444700  1
  Cu  Cu46  1  0.61279100  0.46462000  0.78555300  1
  Cu  Cu47  1  0.88720900  0.03538000  0.28555300  1
  Cu  Cu48  1  0.11279100  0.03538000  0.78555300  1
  Cu  Cu49  1  0.38720900  0.46462000  0.28555300  1
  Cu  Cu50  1  0.38720900  0.53538000  0.21444700  1
  Cu  Cu51  1  0.11279100  0.96462000  0.71444700  1
  C  C52  1  0.86833700  0.76119100  0.54453200  1
  C  C53  1  0.63166300  0.73880900  0.04453200  1
  C  C54  1  0.63166300  0.26119100  0.45546800  1
  C  C55  1  0.86833700  0.23880900  0.95546800  1
  C  C56  1  0.13166300  0.23880900  0.45546800  1
  C  C57  1  0.36833700  0.26119100  0.95546800  1
  C  C58  1  0.36833700  0.73880900  0.54453200  1
  C  C59  1  0.13166300  0.76119100  0.04453200  1
  C  C60  1  0.66532500  0.00016700  0.54714300  1
  C  C61  1  0.83467500  0.49983300  0.04714300  1
  C  C62  1  0.83467500  0.50016700  0.45285700  1
  C  C63  1  0.66532500  0.99983300  0.95285700  1
  C  C64  1  0.33467500  0.99983300  0.45285700  1
  C  C65  1  0.16532500  0.50016700  0.95285700  1
  C  C66  1  0.16532500  0.49983300  0.54714300  1
  C  C67  1  0.33467500  0.00016700  0.04714300  1
  C  C68  1  0.03919500  0.00284300  0.57452100  1
  C  C69  1  0.46080500  0.49715700  0.07452100  1
  C  C70  1  0.46080500  0.50284300  0.42547900  1
  C  C71  1  0.03919500  0.99715700  0.92547900  1
  C  C72  1  0.96080500  0.99715700  0.42547900  1
  C  C73  1  0.53919500  0.50284300  0.92547900  1
  C  C74  1  0.53919500  0.49715700  0.57452100  1
  C  C75  1  0.96080500  0.00284300  0.07452100  1
  C  C76  1  0.62115300  0.08105200  0.31871600  1
  C  C77  1  0.87884700  0.41894800  0.81871600  1
  C  C78  1  0.87884700  0.58105200  0.68128400  1
  C  C79  1  0.62115300  0.91894800  0.18128400  1
  C  C80  1  0.37884700  0.91894800  0.68128400  1
  C  C81  1  0.12115300  0.58105200  0.18128400  1
  C  C82  1  0.12115300  0.41894800  0.31871600  1
  C  C83  1  0.37884700  0.08105200  0.81871600  1
  C  C84  1  0.35824200  0.82378000  0.29507200  1
  C  C85  1  0.14175800  0.67622000  0.79507200  1
  C  C86  1  0.14175800  0.32378000  0.70492800  1
  C  C87  1  0.35824200  0.17622000  0.20492800  1
  C  C88  1  0.64175800  0.17622000  0.70492800  1
  C  C89  1  0.85824200  0.32378000  0.20492800  1
  C  C90  1  0.85824200  0.67622000  0.29507200  1
  C  C91  1  0.64175800  0.82378000  0.79507200  1
  C  C92  1  0.14671400  0.68461500  0.40635700  1
  C  C93  1  0.35328600  0.81538500  0.90635700  1
  C  C94  1  0.35328600  0.18461500  0.59364300  1
  C  C95  1  0.14671400  0.31538500  0.09364300  1
  C  C96  1  0.85328600  0.31538500  0.59364300  1
  C  C97  1  0.64671400  0.18461500  0.09364300  1
  C  C98  1  0.64671400  0.81538500  0.40635700  1
  C  C99  1  0.85328600  0.68461500  0.90635700  1
  C  C100  1  0.79364900  0.88039400  0.65590100  1
  C  C101  1  0.70635100  0.61960600  0.15590100  1
  C  C102  1  0.70635100  0.38039400  0.34409900  1
  C  C103  1  0.79364900  0.11960600  0.84409900  1
  C  C104  1  0.20635100  0.11960600  0.34409900  1
  C  C105  1  0.29364900  0.38039400  0.84409900  1
  C  C106  1  0.29364900  0.61960600  0.65590100  1
  C  C107  1  0.20635100  0.88039400  0.15590100  1
  C  C108  1  0.97825600  0.00000000  0.25000000  1
  C  C109  1  0.52174400  0.50000000  0.75000000  1
  C  C110  1  0.02174400  0.00000000  0.75000000  1
  C  C111  1  0.47825600  0.50000000  0.25000000  1
