# generated using pymatgen
data_CuNiC8
_symmetry_space_group_name_H-M   'P 1'
_cell_length_a   7.79204238
_cell_length_b   7.79204238
_cell_length_c   7.78354200
_cell_angle_alpha   90.00000000
_cell_angle_beta   90.00000000
_cell_angle_gamma   90.00574018
_symmetry_Int_Tables_number   1
_chemical_formula_structural   CuNiC8
_chemical_formula_sum   'Cu4 Ni4 C32'
_cell_volume   472.58494579
_cell_formula_units_Z   4
loop_
 _symmetry_equiv_pos_site_id
 _symmetry_equiv_pos_as_xyz
  1  'x, y, z'
loop_
 _atom_site_type_symbol
 _atom_site_label
 _atom_site_symmetry_multiplicity
 _atom_site_fract_x
 _atom_site_fract_y
 _atom_site_fract_z
 _atom_site_occupancy
  C  C0  1  0.24710300  0.75289700  0.75288900  1
  C  C1  1  0.75293200  0.75293200  0.75266100  1
  C  C2  1  0.75303700  0.75303700  0.24722000  1
  C  C3  1  0.24706800  0.24706800  0.75266100  1
  C  C4  1  0.75289700  0.24710300  0.75288900  1
  C  C5  1  0.24696300  0.24696300  0.24722000  1
  C  C6  1  0.24659200  0.75340800  0.24650600  1
  C  C7  1  0.75340800  0.24659200  0.24650600  1
  Ni  Ni8  1  0.50000000  0.00000000  0.49828600  1
  Ni  Ni9  1  0.50000000  0.50000000  0.00130500  1
  Ni  Ni10  1  0.00000000  0.50000000  0.49828600  1
  Ni  Ni11  1  0.50000000  0.50000000  0.49865900  1
  Cu  Cu12  1  0.00000000  0.00000000  0.00130500  1
  Cu  Cu13  1  0.50000000  0.00000000  0.00107200  1
  Cu  Cu14  1  0.00000000  0.00000000  0.49863900  1
  Cu  Cu15  1  0.00000000  0.50000000  0.00107200  1
  C  C16  1  0.00260900  0.74935400  0.00298400  1
  C  C17  1  0.49846700  0.75271600  0.00240200  1
  C  C18  1  0.00155100  0.75272100  0.49748900  1
  C  C19  1  0.49886400  0.75056100  0.49784000  1
  C  C20  1  0.99739100  0.25064600  0.00298400  1
  C  C21  1  0.50153300  0.24728400  0.00240200  1
  C  C22  1  0.99844900  0.24727900  0.49748900  1
  C  C23  1  0.50113600  0.24943900  0.49784000  1
  C  C24  1  0.00000000  0.00000000  0.74916600  1
  C  C25  1  0.50000000  0.00000000  0.75265000  1
  C  C26  1  0.00000000  0.00000000  0.25087100  1
  C  C27  1  0.50000000  0.00000000  0.24726400  1
  C  C28  1  0.00000000  0.50000000  0.75265000  1
  C  C29  1  0.50000000  0.50000000  0.75061600  1
  C  C30  1  0.00000000  0.50000000  0.24726400  1
  C  C31  1  0.50000000  0.50000000  0.24948700  1
  C  C32  1  0.25064600  0.99739100  0.00298400  1
  C  C33  1  0.74935400  0.00260900  0.00298400  1
  C  C34  1  0.24727900  0.99844900  0.49748900  1
  C  C35  1  0.75272100  0.00155100  0.49748900  1
  C  C36  1  0.24728400  0.50153300  0.00240200  1
  C  C37  1  0.75271600  0.49846700  0.00240200  1
  C  C38  1  0.24943900  0.50113600  0.49784000  1
  C  C39  1  0.75056100  0.49886400  0.49784000  1
