# generated using pymatgen
data_Cu3Ni2
_symmetry_space_group_name_H-M   'P 1'
_cell_length_a   4.68837500
_cell_length_b   10.65268600
_cell_length_c   25.80630600
_cell_angle_alpha   90.00000000
_cell_angle_beta   90.00000000
_cell_angle_gamma   90.00000000
_symmetry_Int_Tables_number   1
_chemical_formula_structural   Cu3Ni2
_chemical_formula_sum   'Cu6 Ni4'
_cell_volume   1288.86464303
_cell_formula_units_Z   2
loop_
 _symmetry_equiv_pos_site_id
 _symmetry_equiv_pos_as_xyz
  1  'x, y, z'
loop_
 _atom_site_type_symbol
 _atom_site_label
 _atom_site_symmetry_multiplicity
 _atom_site_fract_x
 _atom_site_fract_y
 _atom_site_fract_z
 _atom_site_occupancy
  Ni  Ni0  1  0.66737400  0.85258000  0.47535700  1
  Ni  Ni1  1  0.16737400  0.64742000  0.52464300  1
  Ni  Ni2  1  0.16737400  0.35258000  0.52464300  1
  Ni  Ni3  1  0.66737400  0.14742000  0.47535700  1
  Cu  Cu4  1  0.98146400  0.71722700  0.45396500  1
  Cu  Cu5  1  0.48146400  0.78277300  0.54603500  1
  Cu  Cu6  1  0.48146400  0.21722700  0.54603500  1
  Cu  Cu7  1  0.98146400  0.28277300  0.45396500  1
  Cu  Cu8  1  0.91143400  0.00000000  0.51107500  1
  Cu  Cu9  1  0.41143400  0.50000000  0.48892500  1
