# generated using pymatgen
data_CuNi2C9
_symmetry_space_group_name_H-M   'P 1'
_cell_length_a   7.28211500
_cell_length_b   7.28211500
_cell_length_c   4.75942900
_cell_angle_alpha   90.00000000
_cell_angle_beta   90.00000000
_cell_angle_gamma   90.00000000
_symmetry_Int_Tables_number   1
_chemical_formula_structural   CuNi2C9
_chemical_formula_sum   'Cu2 Ni4 C18'
_cell_volume   252.38870696
_cell_formula_units_Z   2
loop_
 _symmetry_equiv_pos_site_id
 _symmetry_equiv_pos_as_xyz
  1  'x, y, z'
loop_
 _atom_site_type_symbol
 _atom_site_label
 _atom_site_symmetry_multiplicity
 _atom_site_fract_x
 _atom_site_fract_y
 _atom_site_fract_z
 _atom_site_occupancy
  C  C0  1  0.15946600  0.34053400  0.50857600  1
  C  C1  1  0.84053400  0.65946600  0.50857600  1
  C  C2  1  0.65946600  0.15946600  0.49142400  1
  C  C3  1  0.34053400  0.84053400  0.49142400  1
  Ni  Ni4  1  0.63625800  0.86374200  0.95508200  1
  Ni  Ni5  1  0.36374200  0.13625800  0.95508200  1
  Ni  Ni6  1  0.13625800  0.63625800  0.04491800  1
  Ni  Ni7  1  0.86374200  0.36374200  0.04491800  1
  Cu  Cu8  1  0.00000000  0.00000000  0.00000000  1
  Cu  Cu9  1  0.50000000  0.50000000  0.00000000  1
  C  C10  1  0.00000000  0.50000000  0.18952500  1
  C  C11  1  0.50000000  0.00000000  0.81047500  1
  C  C12  1  0.64102000  0.85898000  0.28845500  1
  C  C13  1  0.35898000  0.14102000  0.28845500  1
  C  C14  1  0.14102000  0.64102000  0.71154500  1
  C  C15  1  0.85898000  0.35898000  0.71154500  1
  C  C16  1  0.08039400  0.83682200  0.20400400  1
  C  C17  1  0.91960600  0.16317800  0.20400400  1
  C  C18  1  0.16317800  0.08039400  0.79599600  1
  C  C19  1  0.41960600  0.33682200  0.79599600  1
  C  C20  1  0.83682200  0.91960600  0.79599600  1
  C  C21  1  0.58039400  0.66317800  0.79599600  1
  C  C22  1  0.33682200  0.58039400  0.20400400  1
  C  C23  1  0.66317800  0.41960600  0.20400400  1
