# generated using pymatgen
data_Cu3Ni3C
_symmetry_space_group_name_H-M   'P 1'
_cell_length_a   5.99814005
_cell_length_b   6.35011494
_cell_length_c   9.97788400
_cell_angle_alpha   90.00000000
_cell_angle_beta   90.00000000
_cell_angle_gamma   82.30846101
_symmetry_Int_Tables_number   1
_chemical_formula_structural   Cu3Ni3C
_chemical_formula_sum   'Cu12 Ni12 C4'
_cell_volume   376.62712712
_cell_formula_units_Z   4
loop_
 _symmetry_equiv_pos_site_id
 _symmetry_equiv_pos_as_xyz
  1  'x, y, z'
loop_
 _atom_site_type_symbol
 _atom_site_label
 _atom_site_symmetry_multiplicity
 _atom_site_fract_x
 _atom_site_fract_y
 _atom_site_fract_z
 _atom_site_occupancy
  C  C0  1  0.00000000  0.50000000  0.50000000  1
  C  C1  1  0.00000000  0.00000000  0.00000000  1
  C  C2  1  0.50000000  0.50000000  0.00000000  1
  C  C3  1  0.50000000  0.00000000  0.50000000  1
  Ni  Ni4  1  0.69504300  0.57292100  0.41327100  1
  Ni  Ni5  1  0.30495700  0.92707900  0.91327100  1
  Ni  Ni6  1  0.30495700  0.42707900  0.58672900  1
  Ni  Ni7  1  0.69504300  0.07292100  0.08672900  1
  Ni  Ni8  1  0.90715700  0.33613000  0.72873400  1
  Ni  Ni9  1  0.09284300  0.16387000  0.22873400  1
  Ni  Ni10  1  0.09284300  0.66387000  0.27126600  1
  Ni  Ni11  1  0.90715700  0.83613000  0.77126600  1
  Ni  Ni12  1  0.98798300  0.23123300  0.32857600  1
  Ni  Ni13  1  0.01201700  0.26876700  0.82857600  1
  Ni  Ni14  1  0.01201700  0.76876700  0.67142400  1
  Ni  Ni15  1  0.98798300  0.73123300  0.17142400  1
  Cu  Cu16  1  0.66013500  0.10101800  0.61364900  1
  Cu  Cu17  1  0.33986500  0.39898200  0.11364900  1
  Cu  Cu18  1  0.33986500  0.89898200  0.38635100  1
  Cu  Cu19  1  0.66013500  0.60101800  0.88635100  1
  Cu  Cu20  1  0.74177100  0.91556400  0.40626100  1
  Cu  Cu21  1  0.25822900  0.58443600  0.90626100  1
  Cu  Cu22  1  0.25822900  0.08443600  0.59373900  1
  Cu  Cu23  1  0.74177100  0.41556400  0.09373900  1
  Cu  Cu24  1  0.46051800  0.24473000  0.41607200  1
  Cu  Cu25  1  0.53948200  0.25527000  0.91607200  1
  Cu  Cu26  1  0.53948200  0.75527000  0.58392800  1
  Cu  Cu27  1  0.46051800  0.74473000  0.08392800  1
