# generated using pymatgen
data_Cu2Ni4C5
_symmetry_space_group_name_H-M   'P 1'
_cell_length_a   21.16056559
_cell_length_b   21.16056559
_cell_length_c   21.16056539
_cell_angle_alpha   10.37697741
_cell_angle_beta   10.37697741
_cell_angle_gamma   10.37697879
_symmetry_Int_Tables_number   1
_chemical_formula_structural   Cu2Ni4C5
_chemical_formula_sum   'Cu2 Ni4 C5'
_cell_volume   266.95663065
_cell_formula_units_Z   1
loop_
 _symmetry_equiv_pos_site_id
 _symmetry_equiv_pos_as_xyz
  1  'x, y, z'
loop_
 _atom_site_type_symbol
 _atom_site_label
 _atom_site_symmetry_multiplicity
 _atom_site_fract_x
 _atom_site_fract_y
 _atom_site_fract_z
 _atom_site_occupancy
  C  C0  1  0.56299300  0.56299300  0.56299300  1
  C  C1  1  0.05941200  0.05941200  0.05941200  1
  C  C2  1  0.43700700  0.43700700  0.43700700  1
  C  C3  1  0.94058800  0.94058800  0.94058800  1
  C  C4  1  0.50000000  0.50000000  0.50000000  1
  Ni  Ni5  1  0.86372700  0.86372700  0.86372700  1
  Ni  Ni6  1  0.36214400  0.36214400  0.36214400  1
  Ni  Ni7  1  0.13627300  0.13627300  0.13627300  1
  Ni  Ni8  1  0.63785600  0.63785600  0.63785600  1
  Cu  Cu9  1  0.74846700  0.74846700  0.74846700  1
  Cu  Cu10  1  0.25153300  0.25153300  0.25153300  1
