# generated using pymatgen
data_CuNi2C3
_symmetry_space_group_name_H-M   'P 1'
_cell_length_a   6.08991081
_cell_length_b   6.05610904
_cell_length_c   5.59985100
_cell_angle_alpha   90.00000000
_cell_angle_beta   90.00000000
_cell_angle_gamma   119.81655859
_symmetry_Int_Tables_number   1
_chemical_formula_structural   CuNi2C3
_chemical_formula_sum   'Cu2 Ni4 C6'
_cell_volume   179.18908050
_cell_formula_units_Z   2
loop_
 _symmetry_equiv_pos_site_id
 _symmetry_equiv_pos_as_xyz
  1  'x, y, z'
loop_
 _atom_site_type_symbol
 _atom_site_label
 _atom_site_symmetry_multiplicity
 _atom_site_fract_x
 _atom_site_fract_y
 _atom_site_fract_z
 _atom_site_occupancy
  Ni  Ni0  1  0.34355900  0.33506200  0.49250600  1
  Ni  Ni1  1  0.65644100  0.99150200  0.49250600  1
  Ni  Ni2  1  0.65644100  0.66493800  0.99250600  1
  Ni  Ni3  1  0.34355900  0.00849800  0.99250600  1
  Cu  Cu4  1  0.00000000  0.68220200  0.48435900  1
  Cu  Cu5  1  0.00000000  0.31779800  0.98435900  1
  C  C6  1  0.33795500  0.33347300  0.86926700  1
  C  C7  1  0.66204500  0.99551800  0.86926700  1
  C  C8  1  0.66204500  0.66652700  0.36926700  1
  C  C9  1  0.33795500  0.00448200  0.36926700  1
  C  C10  1  0.00000000  0.66970400  0.88009200  1
  C  C11  1  0.00000000  0.33029600  0.38009200  1
