# generated using pymatgen
data_CuNi9C4
_symmetry_space_group_name_H-M   'P 1'
_cell_length_a   8.43968500
_cell_length_b   8.71255627
_cell_length_c   8.71255627
_cell_angle_alpha   119.98555854
_cell_angle_beta   90.00000000
_cell_angle_gamma   90.00000000
_symmetry_Int_Tables_number   1
_chemical_formula_structural   CuNi9C4
_chemical_formula_sum   'Cu2 Ni18 C8'
_cell_volume   554.89555010
_cell_formula_units_Z   2
loop_
 _symmetry_equiv_pos_site_id
 _symmetry_equiv_pos_as_xyz
  1  'x, y, z'
loop_
 _atom_site_type_symbol
 _atom_site_label
 _atom_site_symmetry_multiplicity
 _atom_site_fract_x
 _atom_site_fract_y
 _atom_site_fract_z
 _atom_site_occupancy
  Ni  Ni0  1  0.55906200  0.79883300  0.59764100  1
  Ni  Ni1  1  0.55901800  0.79881400  0.20118600  1
  Ni  Ni2  1  0.55906200  0.40235900  0.20116700  1
  Ni  Ni3  1  0.44093800  0.20116700  0.40235900  1
  Ni  Ni4  1  0.44098200  0.20118600  0.79881400  1
  Ni  Ni5  1  0.44093800  0.59764100  0.79883300  1
  Ni  Ni6  1  0.05906200  0.20116700  0.40235900  1
  Ni  Ni7  1  0.05901800  0.20118600  0.79881400  1
  Ni  Ni8  1  0.05906200  0.59764100  0.79883300  1
  Ni  Ni9  1  0.94093800  0.79883300  0.59764100  1
  Ni  Ni10  1  0.94098200  0.79881400  0.20118600  1
  Ni  Ni11  1  0.94093800  0.40235900  0.20116700  1
  Ni  Ni12  1  0.75000000  0.45996200  0.91993300  1
  Ni  Ni13  1  0.75000000  0.45996200  0.54003800  1
  Ni  Ni14  1  0.75000000  0.08006700  0.54003800  1
  Ni  Ni15  1  0.25000000  0.54003800  0.08006700  1
  Ni  Ni16  1  0.25000000  0.54003800  0.45996200  1
  Ni  Ni17  1  0.25000000  0.91993300  0.45996200  1
  Cu  Cu18  1  0.75000000  0.66669500  0.33330500  1
  Cu  Cu19  1  0.25000000  0.33330500  0.66669500  1
  C  C20  1  0.75000000  0.11224700  0.22447300  1
  C  C21  1  0.75000000  0.11224400  0.88775600  1
  C  C22  1  0.75000000  0.77552700  0.88775300  1
  C  C23  1  0.25000000  0.88775300  0.77552700  1
  C  C24  1  0.25000000  0.88775600  0.11224400  1
  C  C25  1  0.25000000  0.22447300  0.11224700  1
  C  C26  1  0.50000000  0.00000000  0.00000000  1
  C  C27  1  0.00000000  0.00000000  0.00000000  1
