# generated using pymatgen
data_CuNiC5
_symmetry_space_group_name_H-M   'P 1'
_cell_length_a   5.88119600
_cell_length_b   7.34188200
_cell_length_c   9.92758000
_cell_angle_alpha   90.00000000
_cell_angle_beta   90.00000000
_cell_angle_gamma   90.00000000
_symmetry_Int_Tables_number   1
_chemical_formula_structural   CuNiC5
_chemical_formula_sum   'Cu4 Ni4 C20'
_cell_volume   428.66344392
_cell_formula_units_Z   4
loop_
 _symmetry_equiv_pos_site_id
 _symmetry_equiv_pos_as_xyz
  1  'x, y, z'
loop_
 _atom_site_type_symbol
 _atom_site_label
 _atom_site_symmetry_multiplicity
 _atom_site_fract_x
 _atom_site_fract_y
 _atom_site_fract_z
 _atom_site_occupancy
  Ni  Ni0  1  0.01345100  0.08266800  0.91947500  1
  Ni  Ni1  1  0.48654900  0.91733200  0.41947500  1
  Ni  Ni2  1  0.51345100  0.41733200  0.08052500  1
  Ni  Ni3  1  0.98654900  0.58266800  0.58052500  1
  Cu  Cu4  1  0.51288600  0.25368000  0.69811700  1
  Cu  Cu5  1  0.48711400  0.75368000  0.80188300  1
  Cu  Cu6  1  0.98711400  0.74632000  0.19811700  1
  Cu  Cu7  1  0.01288600  0.24632000  0.30188300  1
  C  C8  1  0.01884900  0.52645600  0.91625000  1
  C  C9  1  0.51884900  0.97354400  0.08375000  1
  C  C10  1  0.98115100  0.02645600  0.58375000  1
  C  C11  1  0.48115100  0.47354400  0.41625000  1
  C  C12  1  0.75909100  0.49064700  0.82679000  1
  C  C13  1  0.25909100  0.00935300  0.17321000  1
  C  C14  1  0.24090900  0.99064700  0.67321000  1
  C  C15  1  0.74090900  0.50935300  0.32679000  1
  C  C16  1  0.12842100  0.74580300  0.95199600  1
  C  C17  1  0.62842100  0.75419700  0.04800400  1
  C  C18  1  0.87157900  0.24580300  0.54800400  1
  C  C19  1  0.37157900  0.25419700  0.45199600  1
  C  C20  1  0.23998600  0.43399700  0.81342600  1
  C  C21  1  0.73998600  0.06600300  0.18657400  1
  C  C22  1  0.76001400  0.93399700  0.68657400  1
  C  C23  1  0.26001400  0.56600300  0.31342600  1
  C  C24  1  0.49409400  0.58731900  0.57530300  1
  C  C25  1  0.99409400  0.91268100  0.42469700  1
  C  C26  1  0.50590600  0.08731900  0.92469700  1
  C  C27  1  0.00590600  0.41268100  0.07530300  1
