# generated using pymatgen
data_Cu9NiC32
_symmetry_space_group_name_H-M   'P 1'
_cell_length_a   9.65233001
_cell_length_b   9.65233001
_cell_length_c   7.10637200
_cell_angle_alpha   90.00000000
_cell_angle_beta   90.00000000
_cell_angle_gamma   120.00000008
_symmetry_Int_Tables_number   1
_chemical_formula_structural   Cu9NiC32
_chemical_formula_sum   'Cu9 Ni1 C32'
_cell_volume   573.38046595
_cell_formula_units_Z   1
loop_
 _symmetry_equiv_pos_site_id
 _symmetry_equiv_pos_as_xyz
  1  'x, y, z'
loop_
 _atom_site_type_symbol
 _atom_site_label
 _atom_site_symmetry_multiplicity
 _atom_site_fract_x
 _atom_site_fract_y
 _atom_site_fract_z
 _atom_site_occupancy
  Ni  Ni0  1  0.66666700  0.33333300  0.49484300  1
  Cu  Cu1  1  0.00000000  0.00000000  0.99918200  1
  Cu  Cu2  1  0.00000000  0.00000000  0.49949600  1
  Cu  Cu3  1  0.66666700  0.33333300  0.99793300  1
  Cu  Cu4  1  0.57347700  0.67327500  0.74781200  1
  Cu  Cu5  1  0.32672500  0.90020200  0.74781200  1
  Cu  Cu6  1  0.09979800  0.42652300  0.74781200  1
  Cu  Cu7  1  0.08851200  0.65553600  0.25145300  1
  Cu  Cu8  1  0.34446400  0.43297600  0.25145300  1
  Cu  Cu9  1  0.56702400  0.91148800  0.25145300  1
  C  C10  1  0.36335400  0.29500300  0.75022000  1
  C  C11  1  0.70499700  0.06835000  0.75022000  1
  C  C12  1  0.93165000  0.63664600  0.75022000  1
  C  C13  1  0.30370800  0.03624000  0.24708200  1
  C  C14  1  0.96376000  0.26746800  0.24708200  1
  C  C15  1  0.73253200  0.69629200  0.24708200  1
  C  C16  1  0.41146200  0.41910500  0.57163200  1
  C  C17  1  0.58089500  0.99235700  0.57163200  1
  C  C18  1  0.00764300  0.58853800  0.57163200  1
  C  C19  1  0.23178900  0.91437300  0.06339300  1
  C  C20  1  0.08562700  0.31741500  0.06339300  1
  C  C21  1  0.68258500  0.76821100  0.06339300  1
  C  C22  1  0.23820600  0.91911400  0.43465500  1
  C  C23  1  0.08088600  0.31909200  0.43465500  1
  C  C24  1  0.68090800  0.76179400  0.43465500  1
  C  C25  1  0.42412700  0.41450600  0.93602200  1
  C  C26  1  0.58549400  0.00962200  0.93602200  1
  C  C27  1  0.99037800  0.57587300  0.93602200  1
  C  C28  1  0.16711100  0.17536200  0.74927400  1
  C  C29  1  0.82463800  0.99174900  0.74927400  1
  C  C30  1  0.00825100  0.83288900  0.74927400  1
  C  C31  1  0.49603400  0.14498400  0.23985700  1
  C  C32  1  0.85501600  0.35105000  0.23985700  1
  C  C33  1  0.64895000  0.50396600  0.23985700  1
  C  C34  1  0.33333300  0.66666700  0.75641700  1
  C  C35  1  0.33333300  0.66666700  0.25112800  1
  C  C36  1  0.45491900  0.19197700  0.75916600  1
  C  C37  1  0.80802300  0.26294200  0.75916600  1
  C  C38  1  0.73705800  0.54508100  0.75916600  1
  C  C39  1  0.20573900  0.13651100  0.24975900  1
  C  C40  1  0.86348900  0.06922800  0.24975900  1
  C  C41  1  0.93077200  0.79426100  0.24975900  1
