# generated using pymatgen
data_Cu3(NiC18)2
_symmetry_space_group_name_H-M   'P 1'
_cell_length_a   10.96413893
_cell_length_b   14.32553801
_cell_length_c   15.20533359
_cell_angle_alpha   90.00000000
_cell_angle_beta   90.00000000
_cell_angle_gamma   107.84118385
_symmetry_Int_Tables_number   1
_chemical_formula_structural   Cu3(NiC18)2
_chemical_formula_sum   'Cu12 Ni8 C144'
_cell_volume   2273.40623235
_cell_formula_units_Z   4
loop_
 _symmetry_equiv_pos_site_id
 _symmetry_equiv_pos_as_xyz
  1  'x, y, z'
loop_
 _atom_site_type_symbol
 _atom_site_label
 _atom_site_symmetry_multiplicity
 _atom_site_fract_x
 _atom_site_fract_y
 _atom_site_fract_z
 _atom_site_occupancy
  C  C0  1  0.85787211  0.62195459  0.97338944  1
  C  C1  1  0.14212789  0.37804541  0.02661056  1
  C  C2  1  0.14212789  0.87804541  0.47338944  1
  C  C3  1  0.85787211  0.12195459  0.52661056  1
  C  C4  1  0.31683738  0.66116717  0.53986910  1
  C  C5  1  0.68316262  0.33883283  0.46013090  1
  C  C6  1  0.68316262  0.83883283  0.03986910  1
  C  C7  1  0.31683738  0.16116717  0.96013090  1
  Ni  Ni8  1  0.91673681  0.96943073  0.29217425  1
  Ni  Ni9  1  0.08326319  0.03056927  0.70782575  1
  Ni  Ni10  1  0.08326319  0.53056927  0.79217425  1
  Ni  Ni11  1  0.91673681  0.46943073  0.20782575  1
  Ni  Ni12  1  0.64474123  0.69519605  0.76867218  1
  Ni  Ni13  1  0.35525877  0.30480395  0.23132782  1
  Ni  Ni14  1  0.35525877  0.80480395  0.26867218  1
  Ni  Ni15  1  0.64474123  0.19519605  0.73132782  1
  Cu  Cu16  1  0.38524717  0.96334201  0.65739282  1
  Cu  Cu17  1  0.61475283  0.03665799  0.34260718  1
  Cu  Cu18  1  0.61475283  0.53665799  0.15739282  1
  Cu  Cu19  1  0.38524717  0.46334201  0.84260718  1
  Cu  Cu20  1  0.74335931  0.96720010  0.78036519  1
  Cu  Cu21  1  0.25664069  0.03279990  0.21963481  1
  Cu  Cu22  1  0.25664069  0.53279990  0.28036519  1
  Cu  Cu23  1  0.74335931  0.46720010  0.71963481  1
  Cu  Cu24  1  0.99859803  0.75672693  0.72342455  1
  Cu  Cu25  1  0.00140197  0.24327307  0.27657545  1
  Cu  Cu26  1  0.00140197  0.74327307  0.22342455  1
  Cu  Cu27  1  0.99859803  0.25672693  0.77657545  1
  C  C28  1  0.84053643  0.70629617  0.55847890  1
  C  C29  1  0.15946357  0.29370383  0.44152110  1
  C  C30  1  0.15946357  0.79370383  0.05847890  1
  C  C31  1  0.84053643  0.20629617  0.94152110  1
  C  C32  1  0.37342110  0.95659341  0.87989788  1
  C  C33  1  0.62657890  0.04340659  0.12010212  1
  C  C34  1  0.62657890  0.54340659  0.37989788  1
  C  C35  1  0.37342110  0.45659341  0.62010212  1
  C  C36  1  0.38508572  0.71787396  0.84632442  1
  C  C37  1  0.61491428  0.28212604  0.15367558  1
  C  C38  1  0.61491428  0.78212604  0.34632442  1
  C  C39  1  0.38508572  0.21787396  0.65367558  1
  C  C40  1  0.95635559  0.92463138  0.91800627  1
  C  C41  1  0.04364441  0.07536862  0.08199373  1
  C  C42  1  0.04364441  0.57536862  0.41800627  1
  C  C43  1  0.95635559  0.42463138  0.58199373  1
  C  C44  1  0.68292211  0.88604784  0.59797976  1
  C  C45  1  0.31707789  0.11395216  0.40202024  1
  C  C46  1  0.31707789  0.61395216  0.09797976  1
  C  C47  1  0.68292211  0.38604784  0.90202024  1
  C  C48  1  0.58283602  0.90581058  0.53395934  1
  C  C49  1  0.41716398  0.09418942  0.46604066  1
  C  C50  1  0.41716398  0.59418942  0.03395934  1
  C  C51  1  0.58283602  0.40581058  0.96604066  1
  C  C52  1  0.43867365  0.94112073  0.96608998  1
  C  C53  1  0.56132635  0.05887927  0.03391002  1
  C  C54  1  0.56132635  0.55887927  0.46608998  1
  C  C55  1  0.43867365  0.44112073  0.53391002  1
  C  C56  1  0.74022795  0.87116814  0.45181745  1
  C  C57  1  0.25977205  0.12883186  0.54818255  1
  C  C58  1  0.25977205  0.62883186  0.95181745  1
  C  C59  1  0.74022795  0.37116814  0.04818255  1
  C  C60  1  0.45138575  0.81559566  0.79314729  1
  C  C61  1  0.54861425  0.18440434  0.20685271  1
  C  C62  1  0.54861425  0.68440434  0.29314729  1
  C  C63  1  0.45138575  0.31559566  0.70685271  1
  C  C64  1  0.77018344  0.63838435  0.48071519  1
  C  C65  1  0.22981656  0.36161565  0.51928481  1
  C  C66  1  0.22981656  0.86161565  0.98071519  1
  C  C67  1  0.77018344  0.13838435  0.01928481  1
  C  C68  1  0.97953362  0.63245230  0.48047227  1
  C  C69  1  0.02046638  0.36754770  0.51952773  1
  C  C70  1  0.02046638  0.86754770  0.98047227  1
  C  C71  1  0.97953362  0.13245230  0.01952773  1
  C  C72  1  0.80646194  0.79035901  0.42896437  1
  C  C73  1  0.19353806  0.20964099  0.57103563  1
  C  C74  1  0.19353806  0.70964099  0.92896437  1
  C  C75  1  0.80646194  0.29035901  0.07103563  1
  C  C76  1  0.68735288  0.85899517  0.72478682  1
  C  C77  1  0.31264712  0.14100483  0.27521318  1
  C  C78  1  0.31264712  0.64100483  0.22478682  1
  C  C79  1  0.68735288  0.35899517  0.77521318  1
  C  C80  1  0.97912353  0.98204246  0.61419144  1
  C  C81  1  0.02087647  0.01795754  0.38580856  1
  C  C82  1  0.02087647  0.51795754  0.11419144  1
  C  C83  1  0.97912353  0.48204246  0.88580856  1
  C  C84  1  0.98109249  0.82585068  0.29692093  1
  C  C85  1  0.01890751  0.17414932  0.70307907  1
  C  C86  1  0.01890751  0.67414932  0.79692093  1
  C  C87  1  0.98109249  0.32585068  0.20307907  1
  C  C88  1  0.77439802  0.84150965  0.40103922  1
  C  C89  1  0.22560198  0.15849035  0.59896078  1
  C  C90  1  0.22560198  0.65849035  0.90103922  1
  C  C91  1  0.77439802  0.34150965  0.09896078  1
  C  C92  1  0.40786506  0.89301856  0.57805561  1
  C  C93  1  0.59213494  0.10698144  0.42194439  1
  C  C94  1  0.59213494  0.60698144  0.07805561  1
  C  C95  1  0.40786506  0.39301856  0.92194439  1
  C  C96  1  0.94399326  0.88885325  0.97359230  1
  C  C97  1  0.05600674  0.11114675  0.02640770  1
  C  C98  1  0.05600674  0.61114675  0.47359230  1
  C  C99  1  0.94399326  0.38885325  0.52640770  1
  C  C100  1  0.95262687  0.62953594  0.26511826  1
  C  C101  1  0.04737313  0.37046406  0.73488174  1
  C  C102  1  0.04737313  0.87046406  0.76511826  1
  C  C103  1  0.95262687  0.12953594  0.23488174  1
  C  C104  1  0.36601806  0.96020350  0.94423378  1
  C  C105  1  0.63398194  0.03979650  0.05576622  1
  C  C106  1  0.63398194  0.53979650  0.44423378  1
  C  C107  1  0.36601806  0.46020350  0.55576622  1
  C  C108  1  0.67365133  0.90889028  0.53800994  1
  C  C109  1  0.32634867  0.09110972  0.46199006  1
  C  C110  1  0.32634867  0.59110972  0.03800994  1
  C  C111  1  0.67365133  0.40889028  0.96199006  1
  C  C112  1  0.90201910  0.99481034  0.79876024  1
  C  C113  1  0.09798090  0.00518966  0.20123976  1
  C  C114  1  0.09798090  0.50518966  0.29876024  1
  C  C115  1  0.90201910  0.49481034  0.70123976  1
  C  C116  1  0.67011329  0.95870955  0.87314590  1
  C  C117  1  0.32988671  0.04129045  0.12685410  1
  C  C118  1  0.32988671  0.54129045  0.37314590  1
  C  C119  1  0.67011329  0.45870955  0.62685410  1
  C  C120  1  0.84265766  0.72797138  0.69259797  1
  C  C121  1  0.15734234  0.27202862  0.30740203  1
  C  C122  1  0.15734234  0.77202862  0.19259797  1
  C  C123  1  0.84265766  0.22797138  0.80740203  1
  C  C124  1  0.23681345  0.97612887  0.64457088  1
  C  C125  1  0.76318655  0.02387113  0.35542912  1
  C  C126  1  0.76318655  0.52387113  0.14457088  1
  C  C127  1  0.23681345  0.47612887  0.85542912  1
  C  C128  1  0.84356322  0.69766065  0.49442596  1
  C  C129  1  0.15643678  0.30233935  0.50557404  1
  C  C130  1  0.15643678  0.80233935  0.99442596  1
  C  C131  1  0.84356322  0.19766065  0.00557404  1
  C  C132  1  0.71628459  0.55582872  0.78067047  1
  C  C133  1  0.28371541  0.44417128  0.21932953  1
  C  C134  1  0.28371541  0.94417128  0.28067047  1
  C  C135  1  0.71628459  0.05582872  0.71932953  1
  C  C136  1  0.55981545  0.65672100  0.66600084  1
  C  C137  1  0.44018455  0.34327900  0.33399916  1
  C  C138  1  0.44018455  0.84327900  0.16600084  1
  C  C139  1  0.55981545  0.15672100  0.83399916  1
  C  C140  1  0.46817023  0.75883412  0.82232084  1
  C  C141  1  0.53182977  0.24116588  0.17767916  1
  C  C142  1  0.53182977  0.74116588  0.32232084  1
  C  C143  1  0.46817023  0.25883412  0.67767916  1
  C  C144  1  0.91731082  0.74511428  0.13663206  1
  C  C145  1  0.08268918  0.25488572  0.86336794  1
  C  C146  1  0.08268918  0.75488572  0.63663206  1
  C  C147  1  0.91731082  0.24511428  0.36336794  1
  C  C148  1  0.72868542  0.73663022  0.87153945  1
  C  C149  1  0.27131458  0.26336978  0.12846055  1
  C  C150  1  0.27131458  0.76336978  0.37153945  1
  C  C151  1  0.72868542  0.23663022  0.62846055  1
  C  C152  1  0.80856217  0.91826023  0.20193494  1
  C  C153  1  0.19143783  0.08173977  0.79806506  1
  C  C154  1  0.19143783  0.58173977  0.70193494  1
  C  C155  1  0.80856217  0.41826023  0.29806506  1
  C  C156  1  0.39686363  0.91440824  0.75346081  1
  C  C157  1  0.60313637  0.08559176  0.24653919  1
  C  C158  1  0.60313637  0.58559176  0.25346081  1
  C  C159  1  0.39686363  0.41440824  0.74653919  1
  C  C160  1  0.49393004  0.57573996  0.84962206  1
  C  C161  1  0.50606996  0.42426004  0.15037794  1
  C  C162  1  0.50606996  0.92426004  0.34962206  1
  C  C163  1  0.49393004  0.07573996  0.65037794  1
