# generated using pymatgen
data_CuNiC10
_symmetry_space_group_name_H-M   'P 1'
_cell_length_a   10.09259418
_cell_length_b   10.09259418
_cell_length_c   6.22702300
_cell_angle_alpha   90.00000000
_cell_angle_beta   90.00000000
_cell_angle_gamma   120.00000117
_symmetry_Int_Tables_number   1
_chemical_formula_structural   CuNiC10
_chemical_formula_sum   'Cu2 Ni2 C20'
_cell_volume   549.30900396
_cell_formula_units_Z   2
loop_
 _symmetry_equiv_pos_site_id
 _symmetry_equiv_pos_as_xyz
  1  'x, y, z'
loop_
 _atom_site_type_symbol
 _atom_site_label
 _atom_site_symmetry_multiplicity
 _atom_site_fract_x
 _atom_site_fract_y
 _atom_site_fract_z
 _atom_site_occupancy
  C  C0  1  0.62585200  0.85845300  0.25959600  1
  C  C1  1  0.14154700  0.76739900  0.25959600  1
  C  C2  1  0.23260100  0.37414800  0.25959600  1
  C  C3  1  0.37414800  0.14154700  0.75959600  1
  C  C4  1  0.85845300  0.23260100  0.75959600  1
  C  C5  1  0.76739900  0.62585200  0.75959600  1
  Ni  Ni6  1  0.33333300  0.66666700  0.83740100  1
  Ni  Ni7  1  0.66666700  0.33333300  0.33740100  1
  Cu  Cu8  1  0.00000000  0.00000000  0.49099900  1
  Cu  Cu9  1  0.00000000  0.00000000  0.99099900  1
  C  C10  1  0.76341700  0.90745400  0.69896600  1
  C  C11  1  0.09254600  0.85596300  0.69896600  1
  C  C12  1  0.14403700  0.23658300  0.69896600  1
  C  C13  1  0.23658300  0.09254600  0.19896600  1
  C  C14  1  0.90745400  0.14403700  0.19896600  1
  C  C15  1  0.85596300  0.76341700  0.19896600  1
  C  C16  1  0.48045900  0.58086300  0.98583300  1
  C  C17  1  0.41913700  0.89959600  0.98583300  1
  C  C18  1  0.10040400  0.51954100  0.98583300  1
  C  C19  1  0.51954100  0.41913700  0.48583300  1
  C  C20  1  0.58086300  0.10040400  0.48583300  1
  C  C21  1  0.89959600  0.48045900  0.48583300  1
  C  C22  1  0.33333300  0.66666700  0.47132300  1
  C  C23  1  0.66666700  0.33333300  0.97132300  1
