# generated using pymatgen
data_Cu8Ni3C
_symmetry_space_group_name_H-M   'P 1'
_cell_length_a   4.86891468
_cell_length_b   4.86891468
_cell_length_c   8.12078300
_cell_angle_alpha   90.00000000
_cell_angle_beta   90.00000000
_cell_angle_gamma   120.00000926
_symmetry_Int_Tables_number   1
_chemical_formula_structural   Cu8Ni3C
_chemical_formula_sum   'Cu8 Ni3 C1'
_cell_volume   166.72196707
_cell_formula_units_Z   1
loop_
 _symmetry_equiv_pos_site_id
 _symmetry_equiv_pos_as_xyz
  1  'x, y, z'
loop_
 _atom_site_type_symbol
 _atom_site_label
 _atom_site_symmetry_multiplicity
 _atom_site_fract_x
 _atom_site_fract_y
 _atom_site_fract_z
 _atom_site_occupancy
  Ni  Ni0  1  0.66666700  0.33333300  0.44166400  1
  Ni  Ni1  1  0.66666700  0.33333300  0.06531000  1
  Ni  Ni2  1  0.00000000  0.00000000  0.92341900  1
  Cu  Cu3  1  0.33333300  0.66666700  0.50253800  1
  Cu  Cu4  1  0.33333300  0.66666700  0.00505000  1
  Cu  Cu5  1  0.50438100  0.00876200  0.74522100  1
  Cu  Cu6  1  0.50438100  0.49561900  0.74522100  1
  Cu  Cu7  1  0.99123800  0.49561900  0.74522100  1
  Cu  Cu8  1  0.15997400  0.31994700  0.25421800  1
  Cu  Cu9  1  0.15997400  0.84002600  0.25421800  1
  Cu  Cu10  1  0.68005300  0.84002600  0.25421800  1
  C  C11  1  0.00000000  0.00000000  0.56371900  1
