# generated using pymatgen
data_Cu3NiC2
_symmetry_space_group_name_H-M   'P 1'
_cell_length_a   4.71615000
_cell_length_b   8.97687295
_cell_length_c   12.30546400
_cell_angle_alpha   90.00000000
_cell_angle_beta   90.00000000
_cell_angle_gamma   105.22934201
_symmetry_Int_Tables_number   1
_chemical_formula_structural   Cu3NiC2
_chemical_formula_sum   'Cu6 Ni2 C4'
_cell_volume   502.67227351
_cell_formula_units_Z   2
loop_
 _symmetry_equiv_pos_site_id
 _symmetry_equiv_pos_as_xyz
  1  'x, y, z'
loop_
 _atom_site_type_symbol
 _atom_site_label
 _atom_site_symmetry_multiplicity
 _atom_site_fract_x
 _atom_site_fract_y
 _atom_site_fract_z
 _atom_site_occupancy
  C  C0  1  0.74978300  0.49956600  0.75000000  1
  C  C1  1  0.25021700  0.50043400  0.25000000  1
  C  C2  1  0.00000000  0.00000000  0.50000000  1
  C  C3  1  0.00000000  0.00000000  0.00000000  1
  Ni  Ni4  1  0.46557700  0.93115400  0.75000000  1
  Ni  Ni5  1  0.53442300  0.06884600  0.25000000  1
  Cu  Cu6  1  0.62292000  0.24584000  0.44370300  1
  Cu  Cu7  1  0.37708000  0.75416000  0.55629700  1
  Cu  Cu8  1  0.37708000  0.75416000  0.94370300  1
  Cu  Cu9  1  0.62292000  0.24584000  0.05629700  1
  Cu  Cu10  1  0.06635000  0.13270000  0.75000000  1
  Cu  Cu11  1  0.93365000  0.86730000  0.25000000  1
