# generated using pymatgen
data_CuNiC9
_symmetry_space_group_name_H-M   'P 1'
_cell_length_a   15.42105700
_cell_length_b   7.03283200
_cell_length_c   11.47611584
_cell_angle_alpha   74.96805664
_cell_angle_beta   90.00000000
_cell_angle_gamma   90.00000000
_symmetry_Int_Tables_number   1
_chemical_formula_structural   CuNiC9
_chemical_formula_sum   'Cu8 Ni8 C72'
_cell_volume   1202.03783404
_cell_formula_units_Z   8
loop_
 _symmetry_equiv_pos_site_id
 _symmetry_equiv_pos_as_xyz
  1  'x, y, z'
loop_
 _atom_site_type_symbol
 _atom_site_label
 _atom_site_symmetry_multiplicity
 _atom_site_fract_x
 _atom_site_fract_y
 _atom_site_fract_z
 _atom_site_occupancy
  Ni  Ni0  1  0.52265400  0.95905300  0.74258600  1
  Ni  Ni1  1  0.89778200  0.70794100  0.90534100  1
  Ni  Ni2  1  0.39778200  0.29205900  0.59465900  1
  Ni  Ni3  1  0.10221800  0.29205900  0.09465900  1
  Ni  Ni4  1  0.60221800  0.70794100  0.40534100  1
  Ni  Ni5  1  0.97734600  0.95905300  0.24258600  1
  Ni  Ni6  1  0.47734600  0.04094700  0.25741400  1
  Ni  Ni7  1  0.02265400  0.04094700  0.75741400  1
  Cu  Cu8  1  0.63324900  0.31571400  0.09831600  1
  Cu  Cu9  1  0.13324900  0.68428600  0.40168400  1
  Cu  Cu10  1  0.36675100  0.68428600  0.90168400  1
  Cu  Cu11  1  0.86675100  0.31571400  0.59831600  1
  Cu  Cu12  1  0.77636800  0.00590300  0.23778900  1
  Cu  Cu13  1  0.27636800  0.99409700  0.26221100  1
  Cu  Cu14  1  0.22363200  0.99409700  0.76221100  1
  Cu  Cu15  1  0.72363200  0.00590300  0.73778900  1
  C  C16  1  0.91119700  0.19025000  0.96395100  1
  C  C17  1  0.04855200  0.56333100  0.69739600  1
  C  C18  1  0.45144800  0.56333100  0.19739600  1
  C  C19  1  0.95144800  0.43666900  0.30260400  1
  C  C20  1  0.74916500  0.50401300  0.77816800  1
  C  C21  1  0.24916500  0.49598700  0.72183200  1
  C  C22  1  0.25083500  0.49598700  0.22183200  1
  C  C23  1  0.75083500  0.50401300  0.27816800  1
  C  C24  1  0.54855200  0.43666900  0.80260400  1
  C  C25  1  0.11514600  0.15647500  0.46591500  1
  C  C26  1  0.61514600  0.84352500  0.03408500  1
  C  C27  1  0.88485400  0.84352500  0.53408500  1
  C  C28  1  0.41119700  0.80975000  0.53604900  1
  C  C29  1  0.58880300  0.19025000  0.46395100  1
  C  C30  1  0.08880300  0.80975000  0.03604900  1
  C  C31  1  0.38485400  0.15647500  0.96591500  1
  C  C32  1  0.01736300  0.31770400  0.95968400  1
  C  C33  1  0.51736300  0.68229600  0.54031600  1
  C  C34  1  0.98263700  0.68229600  0.04031600  1
  C  C35  1  0.48263700  0.31770400  0.45968400  1
  C  C36  1  0.91494700  0.00953800  0.86622500  1
  C  C37  1  0.41494700  0.99046200  0.63377500  1
  C  C38  1  0.08505300  0.99046200  0.13377500  1
  C  C39  1  0.58505300  0.00953800  0.36622500  1
  C  C40  1  0.87600200  0.03831500  0.12102000  1
  C  C41  1  0.37600200  0.96168500  0.37898000  1
  C  C42  1  0.12399800  0.96168500  0.87898000  1
  C  C43  1  0.62399800  0.03831500  0.62102000  1
  C  C44  1  0.32477800  0.39799300  0.88792800  1
  C  C45  1  0.82477800  0.60200700  0.61207200  1
  C  C46  1  0.67522200  0.60200700  0.11207200  1
  C  C47  1  0.17522200  0.39799300  0.38792800  1
  C  C48  1  0.37798800  0.05356000  0.13727600  1
  C  C49  1  0.87798800  0.94644000  0.36272400  1
  C  C50  1  0.62201200  0.94644000  0.86272400  1
  C  C51  1  0.12201200  0.05356000  0.63727600  1
  C  C52  1  0.34028900  0.96454400  0.89291000  1
  C  C53  1  0.48155200  0.66607200  0.80599800  1
  C  C54  1  0.84028900  0.03545600  0.60709000  1
  C  C55  1  0.15971100  0.96454400  0.39291000  1
  C  C56  1  0.48760400  0.25387800  0.73202800  1
  C  C57  1  0.98760400  0.74612200  0.76797200  1
  C  C58  1  0.51239600  0.74612200  0.26797200  1
  C  C59  1  0.01239600  0.25387800  0.23202800  1
  C  C60  1  0.50386100  0.25135600  0.96297200  1
  C  C61  1  0.00386100  0.74864400  0.53702800  1
  C  C62  1  0.49613900  0.74864400  0.03702800  1
  C  C63  1  0.99613900  0.25135600  0.46297200  1
  C  C64  1  0.85939200  0.55204300  0.18187600  1
  C  C65  1  0.35939200  0.44795700  0.31812400  1
  C  C66  1  0.14060800  0.44795700  0.81812400  1
  C  C67  1  0.64060800  0.55204300  0.68187600  1
  C  C68  1  0.72239400  0.26016500  0.23525400  1
  C  C69  1  0.22239400  0.73983500  0.26474600  1
  C  C70  1  0.27760600  0.73983500  0.76474600  1
  C  C71  1  0.77760600  0.26016500  0.73525400  1
  C  C72  1  0.65838300  0.42647300  0.41214400  1
  C  C73  1  0.15838300  0.57352700  0.08785600  1
  C  C74  1  0.34161700  0.57352700  0.58785600  1
  C  C75  1  0.84161700  0.42647300  0.91214400  1
  C  C76  1  0.72335500  0.75112000  0.31587900  1
  C  C77  1  0.22335500  0.24888000  0.18412100  1
  C  C78  1  0.27664500  0.24888000  0.68412100  1
  C  C79  1  0.77664500  0.75112000  0.81587900  1
  C  C80  1  0.84587300  0.41004300  0.40996100  1
  C  C81  1  0.34587300  0.58995700  0.09003900  1
  C  C82  1  0.15412700  0.58995700  0.59003900  1
  C  C83  1  0.65412700  0.41004300  0.90996100  1
  C  C84  1  0.01844800  0.66607200  0.30599800  1
  C  C85  1  0.51844800  0.33392800  0.19400200  1
  C  C86  1  0.98155200  0.33392800  0.69400200  1
  C  C87  1  0.65971100  0.03545600  0.10709000  1
