# generated using pymatgen
data_Cu7(NiC2)4
_symmetry_space_group_name_H-M   'P 1'
_cell_length_a   7.98253937
_cell_length_b   7.98253937
_cell_length_c   9.80908336
_cell_angle_alpha   52.67132928
_cell_angle_beta   52.67132928
_cell_angle_gamma   60.63015255
_symmetry_Int_Tables_number   1
_chemical_formula_structural   Cu7(NiC2)4
_chemical_formula_sum   'Cu7 Ni4 C8'
_cell_volume   387.69476257
_cell_formula_units_Z   1
loop_
 _symmetry_equiv_pos_site_id
 _symmetry_equiv_pos_as_xyz
  1  'x, y, z'
loop_
 _atom_site_type_symbol
 _atom_site_label
 _atom_site_symmetry_multiplicity
 _atom_site_fract_x
 _atom_site_fract_y
 _atom_site_fract_z
 _atom_site_occupancy
  C  C0  1  0.18835500  0.18835500  0.83343000  1
  C  C1  1  0.69449100  0.69449100  0.82115700  1
  C  C2  1  0.17544700  0.69469200  0.33958300  1
  C  C3  1  0.69469200  0.17544700  0.33958300  1
  C  C4  1  0.80246800  0.30120000  0.66690100  1
  C  C5  1  0.30120000  0.80246800  0.66690100  1
  C  C6  1  0.29615400  0.29615400  0.16692100  1
  C  C7  1  0.80177800  0.80177800  0.16597400  1
  Ni  Ni8  1  0.99360800  0.49814600  0.00028900  1
  Ni  Ni9  1  0.49814600  0.99360800  0.00028900  1
  Ni  Ni10  1  0.49805500  0.49805500  0.49809600  1
  Ni  Ni11  1  0.00046500  0.00046500  0.50140900  1
  Cu  Cu12  1  0.01162300  0.01162300  0.83453900  1
  Cu  Cu13  1  0.51312300  0.51312300  0.83918200  1
  Cu  Cu14  1  0.51400800  0.02063900  0.32987300  1
  Cu  Cu15  1  0.02063900  0.51400800  0.32987300  1
  Cu  Cu16  1  0.97611200  0.47245300  0.66744700  1
  Cu  Cu17  1  0.47245300  0.97611200  0.66744700  1
  Cu  Cu18  1  0.97586400  0.97586400  0.16445600  1
