# generated using pymatgen
data_Cu2NiC10
_symmetry_space_group_name_H-M   'P 1'
_cell_length_a   4.52011100
_cell_length_b   9.58344100
_cell_length_c   13.83569600
_cell_angle_alpha   90.00000000
_cell_angle_beta   90.00000000
_cell_angle_gamma   90.00000000
_symmetry_Int_Tables_number   1
_chemical_formula_structural   Cu2NiC10
_chemical_formula_sum   'Cu8 Ni4 C40'
_cell_volume   599.33768281
_cell_formula_units_Z   4
loop_
 _symmetry_equiv_pos_site_id
 _symmetry_equiv_pos_as_xyz
  1  'x, y, z'
loop_
 _atom_site_type_symbol
 _atom_site_label
 _atom_site_symmetry_multiplicity
 _atom_site_fract_x
 _atom_site_fract_y
 _atom_site_fract_z
 _atom_site_occupancy
  C  C0  1  0.45840000  0.52595600  0.64037800  1
  C  C1  1  0.04160000  0.02595600  0.85962200  1
  C  C2  1  0.04160000  0.47404400  0.14037800  1
  C  C3  1  0.45840000  0.97404400  0.35962200  1
  C  C4  1  0.54160000  0.47404400  0.35962200  1
  C  C5  1  0.95840000  0.97404400  0.14037800  1
  C  C6  1  0.95840000  0.52595600  0.85962200  1
  C  C7  1  0.54160000  0.02595600  0.64037800  1
  Ni  Ni8  1  0.92274700  0.75000000  0.50000000  1
  Ni  Ni9  1  0.57725300  0.25000000  0.00000000  1
  Ni  Ni10  1  0.07725300  0.25000000  0.50000000  1
  Ni  Ni11  1  0.42274700  0.75000000  0.00000000  1
  Cu  Cu12  1  0.53257400  0.70433800  0.20053900  1
  Cu  Cu13  1  0.96742600  0.20433800  0.29946100  1
  Cu  Cu14  1  0.96742600  0.29566200  0.70053900  1
  Cu  Cu15  1  0.53257400  0.79566200  0.79946100  1
  Cu  Cu16  1  0.46742600  0.29566200  0.79946100  1
  Cu  Cu17  1  0.03257400  0.79566200  0.70053900  1
  Cu  Cu18  1  0.03257400  0.70433800  0.29946100  1
  Cu  Cu19  1  0.46742600  0.20433800  0.20053900  1
  C  C20  1  0.53767100  0.55400900  0.19286000  1
  C  C21  1  0.96232900  0.05400900  0.30714000  1
  C  C22  1  0.96232900  0.44599100  0.69286000  1
  C  C23  1  0.53767100  0.94599100  0.80714000  1
  C  C24  1  0.46232900  0.44599100  0.80714000  1
  C  C25  1  0.03767100  0.94599100  0.69286000  1
  C  C26  1  0.03767100  0.55400900  0.30714000  1
  C  C27  1  0.46232900  0.05400900  0.19286000  1
  C  C28  1  0.65002900  0.76678200  0.10661900  1
  C  C29  1  0.84997100  0.26678200  0.39338100  1
  C  C30  1  0.84997100  0.23321800  0.60661900  1
  C  C31  1  0.65002900  0.73321800  0.89338100  1
  C  C32  1  0.34997100  0.23321800  0.89338100  1
  C  C33  1  0.15002900  0.73321800  0.60661900  1
  C  C34  1  0.15002900  0.76678200  0.39338100  1
  C  C35  1  0.34997100  0.26678200  0.10661900  1
  C  C36  1  0.22658000  0.76044300  0.21937000  1
  C  C37  1  0.27342000  0.26044300  0.28063000  1
  C  C38  1  0.27342000  0.23955700  0.71937000  1
  C  C39  1  0.22658000  0.73955700  0.78063000  1
  C  C40  1  0.77342000  0.23955700  0.78063000  1
  C  C41  1  0.72658000  0.73955700  0.71937000  1
  C  C42  1  0.72658000  0.76044300  0.28063000  1
  C  C43  1  0.77342000  0.26044300  0.21937000  1
  C  C44  1  0.70490100  0.60023700  0.49537500  1
  C  C45  1  0.79509900  0.10023700  0.00462500  1
  C  C46  1  0.79509900  0.39976300  0.99537500  1
  C  C47  1  0.70490100  0.89976300  0.50462500  1
  C  C48  1  0.29509900  0.39976300  0.50462500  1
  C  C49  1  0.20490100  0.89976300  0.99537500  1
  C  C50  1  0.20490100  0.60023700  0.00462500  1
  C  C51  1  0.29509900  0.10023700  0.49537500  1
