# generated using pymatgen
data_CuNiC11
_symmetry_space_group_name_H-M   'P 1'
_cell_length_a   7.05117000
_cell_length_b   7.05117000
_cell_length_c   11.93528700
_cell_angle_alpha   90.00000000
_cell_angle_beta   90.00000000
_cell_angle_gamma   90.00000000
_symmetry_Int_Tables_number   1
_chemical_formula_structural   CuNiC11
_chemical_formula_sum   'Cu4 Ni4 C44'
_cell_volume   593.41051489
_cell_formula_units_Z   4
loop_
 _symmetry_equiv_pos_site_id
 _symmetry_equiv_pos_as_xyz
  1  'x, y, z'
loop_
 _atom_site_type_symbol
 _atom_site_label
 _atom_site_symmetry_multiplicity
 _atom_site_fract_x
 _atom_site_fract_y
 _atom_site_fract_z
 _atom_site_occupancy
  C  C0  1  0.87086400  0.61313800  0.72228600  1
  C  C1  1  0.12913600  0.38686200  0.22228600  1
  C  C2  1  0.61313800  0.12913600  0.47228600  1
  C  C3  1  0.38686200  0.87086400  0.97228600  1
  C  C4  1  0.36227700  0.52433600  0.68600700  1
  C  C5  1  0.63772300  0.47566400  0.18600700  1
  C  C6  1  0.52433600  0.63772300  0.43600700  1
  C  C7  1  0.47566400  0.36227700  0.93600700  1
  C  C8  1  0.04062300  0.88430400  0.54459300  1
  C  C9  1  0.95937700  0.11569600  0.04459300  1
  C  C10  1  0.88430400  0.95937700  0.29459300  1
  C  C11  1  0.11569600  0.04062300  0.79459300  1
  C  C12  1  0.10540800  0.67623800  0.50804700  1
  C  C13  1  0.89459200  0.32376200  0.00804700  1
  C  C14  1  0.67623800  0.89459200  0.25804700  1
  C  C15  1  0.32376200  0.10540800  0.75804700  1
  Ni  Ni16  1  0.36656500  0.61527500  0.76110100  1
  Ni  Ni17  1  0.63343500  0.38472500  0.26110100  1
  Ni  Ni18  1  0.61527500  0.63343500  0.51110100  1
  Ni  Ni19  1  0.38472500  0.36656500  0.01110100  1
  Cu  Cu20  1  0.73041600  0.11144300  0.77630300  1
  Cu  Cu21  1  0.26958400  0.88855700  0.27630300  1
  Cu  Cu22  1  0.11144300  0.26958400  0.52630300  1
  Cu  Cu23  1  0.88855700  0.73041600  0.02630300  1
  C  C24  1  0.87691500  0.95951500  0.75874800  1
  C  C25  1  0.12308500  0.04048500  0.25874800  1
  C  C26  1  0.95951500  0.12308500  0.50874800  1
  C  C27  1  0.04048500  0.87691500  0.00874800  1
  C  C28  1  0.61164300  0.06453700  0.87439300  1
  C  C29  1  0.38835700  0.93546300  0.37439300  1
  C  C30  1  0.06453700  0.38835700  0.62439300  1
  C  C31  1  0.93546300  0.61164300  0.12439300  1
  C  C32  1  0.60680700  0.12719500  0.67596000  1
  C  C33  1  0.39319300  0.87280500  0.17596000  1
  C  C34  1  0.12719500  0.39319300  0.42596000  1
  C  C35  1  0.87280500  0.60680700  0.92596000  1
  C  C36  1  0.82638400  0.29363000  0.79884700  1
  C  C37  1  0.17361600  0.70637000  0.29884700  1
  C  C38  1  0.29363000  0.17361600  0.54884700  1
  C  C39  1  0.70637000  0.82638400  0.04884700  1
  C  C40  1  0.21132900  0.66207500  0.80738400  1
  C  C41  1  0.78867100  0.33792500  0.30738400  1
  C  C42  1  0.66207500  0.78867100  0.55738400  1
  C  C43  1  0.33792500  0.21132900  0.05738400  1
  C  C44  1  0.52704300  0.66672500  0.80067400  1
  C  C45  1  0.47295700  0.33327500  0.30067400  1
  C  C46  1  0.66672500  0.47295700  0.55067400  1
  C  C47  1  0.33327500  0.52704300  0.05067400  1
  C  C48  1  0.06971300  0.75553100  0.57215800  1
  C  C49  1  0.93028700  0.24446900  0.07215800  1
  C  C50  1  0.75553100  0.93028700  0.32215800  1
  C  C51  1  0.24446900  0.06971300  0.82215800  1
