# generated using pymatgen
data_Cu(NiC2)2
_symmetry_space_group_name_H-M   'P 1'
_cell_length_a   8.33803135
_cell_length_b   8.33803135
_cell_length_c   8.33803135
_cell_angle_alpha   109.42387626
_cell_angle_beta   109.42387626
_cell_angle_gamma   109.56595093
_symmetry_Int_Tables_number   1
_chemical_formula_structural   Cu(NiC2)2
_chemical_formula_sum   'Cu2 Ni4 C8'
_cell_volume   446.23927352
_cell_formula_units_Z   2
loop_
 _symmetry_equiv_pos_site_id
 _symmetry_equiv_pos_as_xyz
  1  'x, y, z'
loop_
 _atom_site_type_symbol
 _atom_site_label
 _atom_site_symmetry_multiplicity
 _atom_site_fract_x
 _atom_site_fract_y
 _atom_site_fract_z
 _atom_site_occupancy
  Ni  Ni0  1  0.00008700  0.87500000  0.62508700  1
  Ni  Ni1  1  0.24991300  0.37500000  0.37491300  1
  Ni  Ni2  1  0.12500000  0.75008700  0.12508700  1
  Ni  Ni3  1  0.62500000  0.99991300  0.87491300  1
  Cu  Cu4  1  0.50000000  0.50000000  0.00000000  1
  Cu  Cu5  1  0.75000000  0.25000000  0.50000000  1
  C  C6  1  0.02842800  0.27878200  0.90142300  1
  C  C7  1  0.37735900  0.12700500  0.09857700  1
  C  C8  1  0.22157200  0.62299500  0.75035400  1
  C  C9  1  0.87264100  0.47121800  0.24964600  1
  C  C10  1  0.37700500  0.12735900  0.59857700  1
  C  C11  1  0.52878200  0.77842800  0.40142300  1
  C  C12  1  0.72121800  0.62264100  0.74964600  1
  C  C13  1  0.87299500  0.97157200  0.25035400  1
