# generated using pymatgen
data_CuNi3C11
_symmetry_space_group_name_H-M   'P 1'
_cell_length_a   7.09817400
_cell_length_b   7.09817400
_cell_length_c   10.19764600
_cell_angle_alpha   90.00000000
_cell_angle_beta   90.00000000
_cell_angle_gamma   119.99999996
_symmetry_Int_Tables_number   1
_chemical_formula_structural   CuNi3C11
_chemical_formula_sum   'Cu2 Ni6 C22'
_cell_volume   444.96294460
_cell_formula_units_Z   2
loop_
 _symmetry_equiv_pos_site_id
 _symmetry_equiv_pos_as_xyz
  1  'x, y, z'
loop_
 _atom_site_type_symbol
 _atom_site_label
 _atom_site_symmetry_multiplicity
 _atom_site_fract_x
 _atom_site_fract_y
 _atom_site_fract_z
 _atom_site_occupancy
  C  C0  1  0.33333300  0.66666700  0.06078700  1
  C  C1  1  0.66666700  0.33333300  0.56078700  1
  C  C2  1  0.33333300  0.66666700  0.43921300  1
  C  C3  1  0.66666700  0.33333300  0.93921300  1
  Ni  Ni4  1  0.61578700  0.75529100  0.75000000  1
  Ni  Ni5  1  0.86049600  0.61578700  0.25000000  1
  Ni  Ni6  1  0.75529100  0.13950400  0.25000000  1
  Ni  Ni7  1  0.24470900  0.86049600  0.75000000  1
  Ni  Ni8  1  0.13950400  0.38421300  0.75000000  1
  Ni  Ni9  1  0.38421300  0.24470900  0.25000000  1
  Cu  Cu10  1  0.00000000  0.00000000  0.00000000  1
  Cu  Cu11  1  0.00000000  0.00000000  0.50000000  1
  C  C12  1  0.25729000  0.22172100  0.38599500  1
  C  C13  1  0.03556900  0.25729000  0.88599500  1
  C  C14  1  0.22172100  0.96443100  0.88599500  1
  C  C15  1  0.77827900  0.03556900  0.38599500  1
  C  C16  1  0.96443100  0.74271000  0.38599500  1
  C  C17  1  0.74271000  0.77827900  0.88599500  1
  C  C18  1  0.74271000  0.77827900  0.61400500  1
  C  C19  1  0.96443100  0.74271000  0.11400500  1
  C  C20  1  0.77827900  0.03556900  0.11400500  1
  C  C21  1  0.22172100  0.96443100  0.61400500  1
  C  C22  1  0.03556900  0.25729000  0.61400500  1
  C  C23  1  0.25729000  0.22172100  0.11400500  1
  C  C24  1  0.49762500  0.08865300  0.25000000  1
  C  C25  1  0.40897200  0.49762500  0.75000000  1
  C  C26  1  0.08865300  0.59102800  0.75000000  1
  C  C27  1  0.91134700  0.40897200  0.25000000  1
  C  C28  1  0.59102800  0.50237500  0.25000000  1
  C  C29  1  0.50237500  0.91134700  0.75000000  1
