# generated using pymatgen
data_CuNiC6
_symmetry_space_group_name_H-M   'P 1'
_cell_length_a   5.32820663
_cell_length_b   5.32820663
_cell_length_c   7.06271725
_cell_angle_alpha   76.16685635
_cell_angle_beta   76.16685635
_cell_angle_gamma   102.11789891
_symmetry_Int_Tables_number   1
_chemical_formula_structural   CuNiC6
_chemical_formula_sum   'Cu2 Ni2 C12'
_cell_volume   181.30248414
_cell_formula_units_Z   2
loop_
 _symmetry_equiv_pos_site_id
 _symmetry_equiv_pos_as_xyz
  1  'x, y, z'
loop_
 _atom_site_type_symbol
 _atom_site_label
 _atom_site_symmetry_multiplicity
 _atom_site_fract_x
 _atom_site_fract_y
 _atom_site_fract_z
 _atom_site_occupancy
  Ni  Ni0  1  0.83298900  0.16701100  0.75000000  1
  Ni  Ni1  1  0.16701100  0.83298900  0.25000000  1
  Cu  Cu2  1  0.50000000  0.50000000  0.50000000  1
  Cu  Cu3  1  0.50000000  0.50000000  0.00000000  1
  C  C4  1  0.16840200  0.83159800  0.75000000  1
  C  C5  1  0.83159800  0.16840200  0.25000000  1
  C  C6  1  0.38420300  0.83302400  0.85997200  1
  C  C7  1  0.16697600  0.61579700  0.64002800  1
  C  C8  1  0.61579700  0.16697600  0.14002800  1
  C  C9  1  0.83302400  0.38420300  0.35997200  1
  C  C10  1  0.79393500  0.87797500  0.40393500  1
  C  C11  1  0.12202500  0.20606500  0.09606500  1
  C  C12  1  0.20606500  0.12202500  0.59606500  1
  C  C13  1  0.87797500  0.79393500  0.90393500  1
  C  C14  1  0.41173800  0.58826200  0.25000000  1
  C  C15  1  0.58826200  0.41173800  0.75000000  1
