# generated using pymatgen
data_Cu5(Ni2C7)2
_symmetry_space_group_name_H-M   'P 1'
_cell_length_a   5.62494200
_cell_length_b   10.24710145
_cell_length_c   10.39080852
_cell_angle_alpha   88.03873850
_cell_angle_beta   74.29591274
_cell_angle_gamma   82.73599674
_symmetry_Int_Tables_number   1
_chemical_formula_structural   Cu5(Ni2C7)2
_chemical_formula_sum   'Cu10 Ni8 C28'
_cell_volume   571.93580864
_cell_formula_units_Z   2
loop_
 _symmetry_equiv_pos_site_id
 _symmetry_equiv_pos_as_xyz
  1  'x, y, z'
loop_
 _atom_site_type_symbol
 _atom_site_label
 _atom_site_symmetry_multiplicity
 _atom_site_fract_x
 _atom_site_fract_y
 _atom_site_fract_z
 _atom_site_occupancy
  C  C0  1  0.81109900  0.84598400  0.05599800  1
  C  C1  1  0.86709700  0.34598400  0.94400200  1
  C  C2  1  0.82745200  0.73830900  0.91986200  1
  C  C3  1  0.74731400  0.23830900  0.08013800  1
  C  C4  1  0.47221100  0.82810200  0.26978800  1
  C  C5  1  0.74200000  0.32810200  0.73021200  1
  C  C6  1  0.29069500  0.31640000  0.33587500  1
  C  C7  1  0.62657000  0.81640000  0.66412500  1
  C  C8  1  0.05598900  0.40763100  0.46143600  1
  C  C9  1  0.51742600  0.90763100  0.53856400  1
  C  C10  1  0.05020100  0.12475800  0.32690700  1
  C  C11  1  0.37710800  0.62475800  0.67309300  1
  C  C12  1  0.80527300  0.09936500  0.47320400  1
  C  C13  1  0.27847700  0.59936500  0.52679600  1
  C  C14  1  0.02015500  0.96180200  0.39323900  1
  C  C15  1  0.41339400  0.46180200  0.60676100  1
  C  C16  1  0.55781300  0.71425600  0.09077100  1
  C  C17  1  0.64858500  0.21425600  0.90922900  1
  C  C18  1  0.23181600  0.58616500  0.20322600  1
  C  C19  1  0.43504300  0.08616500  0.79677400  1
  C  C20  1  0.91935400  0.05698400  0.37756200  1
  C  C21  1  0.29691600  0.55698400  0.62243800  1
  C  C22  1  0.43789400  0.58123200  0.04401500  1
  C  C23  1  0.48190900  0.08123200  0.95598500  1
  C  C24  1  0.03093300  0.45913700  0.25077800  1
  C  C25  1  0.28171100  0.95913700  0.74922200  1
  C  C26  1  0.72123300  0.03355200  0.27548200  1
  C  C27  1  0.99671500  0.53355200  0.72451800  1
  Ni  Ni28  1  0.74598300  0.77070300  0.01620300  1
  Ni  Ni29  1  0.76218600  0.27070300  0.98379700  1
  Ni  Ni30  1  0.24878900  0.67863100  0.28130800  1
  Ni  Ni31  1  0.53009700  0.17863100  0.71869200  1
  Ni  Ni32  1  0.42999400  0.75147800  0.21704500  1
  Ni  Ni33  1  0.64703800  0.25147800  0.78295500  1
  Ni  Ni34  1  0.12149500  0.37327900  0.36438200  1
  Ni  Ni35  1  0.48587700  0.87327900  0.63561800  1
  Cu  Cu36  1  0.09211100  0.38055900  0.13070000  1
  Cu  Cu37  1  0.22281100  0.88055900  0.86930000  1
  Cu  Cu38  1  0.78245900  0.52136400  0.30803400  1
  Cu  Cu39  1  0.09049300  0.02136400  0.69196600  1
  Cu  Cu40  1  0.87703100  0.96968100  0.15095800  1
  Cu  Cu41  1  0.02798900  0.46968100  0.84904200  1
  Cu  Cu42  1  0.54083400  0.94636600  0.35482000  1
  Cu  Cu43  1  0.89565500  0.44636600  0.64518000  1
  Cu  Cu44  1  0.59767100  0.16436100  0.25083300  1
  Cu  Cu45  1  0.84850400  0.66436100  0.74916700  1
