# generated using pymatgen
data_Cu4NiC
_symmetry_space_group_name_H-M   'P 1'
_cell_length_a   5.74658900
_cell_length_b   8.43306200
_cell_length_c   8.64602500
_cell_angle_alpha   90.00000000
_cell_angle_beta   90.00000000
_cell_angle_gamma   90.00000000
_symmetry_Int_Tables_number   1
_chemical_formula_structural   Cu4NiC
_chemical_formula_sum   'Cu16 Ni4 C4'
_cell_volume   418.99796863
_cell_formula_units_Z   4
loop_
 _symmetry_equiv_pos_site_id
 _symmetry_equiv_pos_as_xyz
  1  'x, y, z'
loop_
 _atom_site_type_symbol
 _atom_site_label
 _atom_site_symmetry_multiplicity
 _atom_site_fract_x
 _atom_site_fract_y
 _atom_site_fract_z
 _atom_site_occupancy
  Ni  Ni0  1  0.25000000  0.76643800  0.64420100  1
  Ni  Ni1  1  0.25000000  0.73356200  0.14420100  1
  Ni  Ni2  1  0.75000000  0.23356200  0.35579900  1
  Ni  Ni3  1  0.75000000  0.26643800  0.85579900  1
  C  C4  1  0.25000000  0.31809000  0.89371100  1
  C  C5  1  0.25000000  0.18191000  0.39371100  1
  C  C6  1  0.75000000  0.68191000  0.10628900  1
  C  C7  1  0.75000000  0.81809000  0.60628900  1
  Cu  Cu8  1  0.25000000  0.42028500  0.76245400  1
  Cu  Cu9  1  0.25000000  0.07971500  0.26245400  1
  Cu  Cu10  1  0.75000000  0.57971500  0.23754600  1
  Cu  Cu11  1  0.75000000  0.92028500  0.73754600  1
  Cu  Cu12  1  0.25000000  0.39922600  0.03886300  1
  Cu  Cu13  1  0.25000000  0.10077400  0.53886300  1
  Cu  Cu14  1  0.75000000  0.60077400  0.96113700  1
  Cu  Cu15  1  0.75000000  0.89922600  0.46113700  1
  Cu  Cu16  1  0.04725700  0.19923700  0.88658000  1
  Cu  Cu17  1  0.45274300  0.30076300  0.38658000  1
  Cu  Cu18  1  0.54725700  0.80076300  0.11342000  1
  Cu  Cu19  1  0.95274300  0.69923700  0.61342000  1
  Cu  Cu20  1  0.95274300  0.80076300  0.11342000  1
  Cu  Cu21  1  0.54725700  0.69923700  0.61342000  1
  Cu  Cu22  1  0.45274300  0.19923700  0.88658000  1
  Cu  Cu23  1  0.04725700  0.30076300  0.38658000  1
