# generated using pymatgen
data_Cu(NiC2)2
_symmetry_space_group_name_H-M   'P 1'
_cell_length_a   6.73530400
_cell_length_b   6.74561385
_cell_length_c   6.84284031
_cell_angle_alpha   92.00918422
_cell_angle_beta   94.15744121
_cell_angle_gamma   93.69491836
_symmetry_Int_Tables_number   1
_chemical_formula_structural   Cu(NiC2)2
_chemical_formula_sum   'Cu2 Ni4 C8'
_cell_volume   309.18667671
_cell_formula_units_Z   2
loop_
 _symmetry_equiv_pos_site_id
 _symmetry_equiv_pos_as_xyz
  1  'x, y, z'
loop_
 _atom_site_type_symbol
 _atom_site_label
 _atom_site_symmetry_multiplicity
 _atom_site_fract_x
 _atom_site_fract_y
 _atom_site_fract_z
 _atom_site_occupancy
  Ni  Ni0  1  0.23309600  0.54218000  0.41145600  1
  Ni  Ni1  1  0.41667600  0.23412800  0.55178900  1
  Ni  Ni2  1  0.76690400  0.45782000  0.58854400  1
  Ni  Ni3  1  0.58332400  0.76587200  0.44821100  1
  Cu  Cu4  1  0.54961400  0.41276300  0.23506200  1
  Cu  Cu5  1  0.45038600  0.58723700  0.76493800  1
  C  C6  1  0.22280500  0.21448900  0.21629100  1
  C  C7  1  0.77719500  0.78551100  0.78370900  1
  C  C8  1  0.37351700  0.71855100  0.11916600  1
  C  C9  1  0.13125200  0.37062900  0.73209500  1
  C  C10  1  0.73198200  0.13158600  0.37533800  1
  C  C11  1  0.62648300  0.28144900  0.88083400  1
  C  C12  1  0.86874800  0.62937100  0.26790500  1
  C  C13  1  0.26801800  0.86841400  0.62466200  1
