# generated using pymatgen
data_Cu3(NiC)16
_symmetry_space_group_name_H-M   'P 1'
_cell_length_a   12.76103706
_cell_length_b   12.76103706
_cell_length_c   5.06920600
_cell_angle_alpha   90.00000000
_cell_angle_beta   90.00000000
_cell_angle_gamma   119.99999512
_symmetry_Int_Tables_number   1
_chemical_formula_structural   Cu3(NiC)16
_chemical_formula_sum   'Cu6 Ni32 C32'
_cell_volume   714.89545015
_cell_formula_units_Z   2
loop_
 _symmetry_equiv_pos_site_id
 _symmetry_equiv_pos_as_xyz
  1  'x, y, z'
loop_
 _atom_site_type_symbol
 _atom_site_label
 _atom_site_symmetry_multiplicity
 _atom_site_fract_x
 _atom_site_fract_y
 _atom_site_fract_z
 _atom_site_occupancy
  C  C0  1  0.16843100  0.08342600  0.84706900  1
  C  C1  1  0.91499500  0.83156900  0.84706900  1
  C  C2  1  0.91657400  0.08500500  0.84706900  1
  C  C3  1  0.83156900  0.91657400  0.34706900  1
  C  C4  1  0.08500500  0.16843100  0.34706900  1
  C  C5  1  0.08342600  0.91499500  0.34706900  1
  C  C6  1  0.39509400  0.56965700  0.80083400  1
  C  C7  1  0.17456300  0.60490600  0.80083400  1
  C  C8  1  0.43034300  0.82543700  0.80083400  1
  C  C9  1  0.60490600  0.43034300  0.30083400  1
  C  C10  1  0.82543700  0.39509400  0.30083400  1
  C  C11  1  0.56965700  0.17456300  0.30083400  1
  C  C12  1  0.33408200  0.42047200  0.27002000  1
  C  C13  1  0.08638900  0.66591800  0.27002000  1
  C  C14  1  0.57952800  0.91361100  0.27002000  1
  C  C15  1  0.66591800  0.57952800  0.77002000  1
  C  C16  1  0.91361100  0.33408200  0.77002000  1
  C  C17  1  0.42047200  0.08638900  0.77002000  1
  C  C18  1  0.42520000  0.35780800  0.76899700  1
  C  C19  1  0.93260900  0.57480000  0.76899700  1
  C  C20  1  0.64219200  0.06739100  0.76899700  1
  C  C21  1  0.57480000  0.64219200  0.26899700  1
  C  C22  1  0.06739100  0.42520000  0.26899700  1
  C  C23  1  0.35780800  0.93260900  0.26899700  1
  C  C24  1  0.15323200  0.31928900  0.75420000  1
  C  C25  1  0.16605600  0.84676800  0.75420000  1
  C  C26  1  0.68071100  0.83394400  0.75420000  1
  C  C27  1  0.84676800  0.68071100  0.25420000  1
  C  C28  1  0.83394400  0.15323200  0.25420000  1
  C  C29  1  0.31928900  0.16605600  0.25420000  1
  C  C30  1  0.33333300  0.66666700  0.29512500  1
  C  C31  1  0.66666700  0.33333300  0.79512500  1
  Ni  Ni32  1  0.20242500  0.59818800  0.18566000  1
  Ni  Ni33  1  0.39576300  0.79757500  0.18566000  1
  Ni  Ni34  1  0.40181200  0.60423700  0.18566000  1
  Ni  Ni35  1  0.79757500  0.40181200  0.68566000  1
  Ni  Ni36  1  0.60423700  0.20242500  0.68566000  1
  Ni  Ni37  1  0.59818800  0.39576300  0.68566000  1
  Ni  Ni38  1  0.09149100  0.17787100  0.75251800  1
  Ni  Ni39  1  0.08638000  0.90850900  0.75251800  1
  Ni  Ni40  1  0.82212900  0.91362000  0.75251800  1
  Ni  Ni41  1  0.90850900  0.82212900  0.25251800  1
  Ni  Ni42  1  0.91362000  0.09149100  0.25251800  1
  Ni  Ni43  1  0.17787100  0.08638000  0.25251800  1
  Ni  Ni44  1  0.28097600  0.37867500  0.88161200  1
  Ni  Ni45  1  0.09769900  0.71902400  0.88161200  1
  Ni  Ni46  1  0.62132500  0.90230100  0.88161200  1
  Ni  Ni47  1  0.71902400  0.62132500  0.38161200  1
  Ni  Ni48  1  0.90230100  0.28097600  0.38161200  1
  Ni  Ni49  1  0.37867500  0.09769900  0.38161200  1
  Ni  Ni50  1  0.07376600  0.35806500  0.90596800  1
  Ni  Ni51  1  0.28429900  0.92623400  0.90596800  1
  Ni  Ni52  1  0.64193500  0.71570100  0.90596800  1
  Ni  Ni53  1  0.92623400  0.64193500  0.40596800  1
  Ni  Ni54  1  0.71570100  0.07376600  0.40596800  1
  Ni  Ni55  1  0.35806500  0.28429900  0.40596800  1
  Ni  Ni56  1  0.16637200  0.35960700  0.45787700  1
  Ni  Ni57  1  0.19323500  0.83362800  0.45787700  1
  Ni  Ni58  1  0.64039300  0.80676500  0.45787700  1
  Ni  Ni59  1  0.83362800  0.64039300  0.95787700  1
  Ni  Ni60  1  0.80676500  0.16637200  0.95787700  1
  Ni  Ni61  1  0.35960700  0.19323500  0.95787700  1
  Ni  Ni62  1  0.33333300  0.66666700  0.60378500  1
  Ni  Ni63  1  0.66666700  0.33333300  0.10378500  1
  Cu  Cu64  1  0.48346900  0.52284800  0.57394300  1
  Cu  Cu65  1  0.03937800  0.51653100  0.57394300  1
  Cu  Cu66  1  0.47715200  0.96062200  0.57394300  1
  Cu  Cu67  1  0.51653100  0.47715200  0.07394300  1
  Cu  Cu68  1  0.96062200  0.48346900  0.07394300  1
  Cu  Cu69  1  0.52284800  0.03937800  0.07394300  1
