# generated using pymatgen
data_Cu2NiC7
_symmetry_space_group_name_H-M   'P 1'
_cell_length_a   9.28116900
_cell_length_b   9.28116900
_cell_length_c   3.17039600
_cell_angle_alpha   90.00000000
_cell_angle_beta   90.00000000
_cell_angle_gamma   90.00000000
_symmetry_Int_Tables_number   1
_chemical_formula_structural   Cu2NiC7
_chemical_formula_sum   'Cu4 Ni2 C14'
_cell_volume   273.09822216
_cell_formula_units_Z   2
loop_
 _symmetry_equiv_pos_site_id
 _symmetry_equiv_pos_as_xyz
  1  'x, y, z'
loop_
 _atom_site_type_symbol
 _atom_site_label
 _atom_site_symmetry_multiplicity
 _atom_site_fract_x
 _atom_site_fract_y
 _atom_site_fract_z
 _atom_site_occupancy
  C  C0  1  0.67491100  0.17491100  0.00000000  1
  C  C1  1  0.32508900  0.82508900  0.00000000  1
  C  C2  1  0.17491100  0.32508900  0.00000000  1
  C  C3  1  0.82508900  0.67491100  0.00000000  1
  Ni  Ni4  1  0.00000000  0.00000000  0.00000000  1
  Ni  Ni5  1  0.50000000  0.50000000  0.00000000  1
  Cu  Cu6  1  0.12464600  0.62464600  0.00000000  1
  Cu  Cu7  1  0.87535400  0.37535400  0.00000000  1
  Cu  Cu8  1  0.62464600  0.87535400  0.00000000  1
  Cu  Cu9  1  0.37535400  0.12464600  0.00000000  1
  C  C10  1  0.21534300  0.07189800  0.50000000  1
  C  C11  1  0.78465700  0.92810200  0.50000000  1
  C  C12  1  0.07189800  0.78465700  0.50000000  1
  C  C13  1  0.71534300  0.42810200  0.50000000  1
  C  C14  1  0.92810200  0.21534300  0.50000000  1
  C  C15  1  0.28465700  0.57189800  0.50000000  1
  C  C16  1  0.57189800  0.71534300  0.50000000  1
  C  C17  1  0.42810200  0.28465700  0.50000000  1
  C  C18  1  0.50000000  0.00000000  0.50000000  1
  C  C19  1  0.00000000  0.50000000  0.50000000  1
