# generated using pymatgen
data_Cu2NiC11
_symmetry_space_group_name_H-M   'P 1'
_cell_length_a   7.78322301
_cell_length_b   7.78322301
_cell_length_c   7.78322319
_cell_angle_alpha   44.06683042
_cell_angle_beta   44.06683042
_cell_angle_gamma   44.06683280
_symmetry_Int_Tables_number   1
_chemical_formula_structural   Cu2NiC11
_chemical_formula_sum   'Cu2 Ni1 C11'
_cell_volume   207.17863167
_cell_formula_units_Z   1
loop_
 _symmetry_equiv_pos_site_id
 _symmetry_equiv_pos_as_xyz
  1  'x, y, z'
loop_
 _atom_site_type_symbol
 _atom_site_label
 _atom_site_symmetry_multiplicity
 _atom_site_fract_x
 _atom_site_fract_y
 _atom_site_fract_z
 _atom_site_occupancy
  Ni  Ni0  1  0.21148600  0.21148600  0.21148600  1
  Cu  Cu1  1  0.99864000  0.99864000  0.99864000  1
  Cu  Cu2  1  0.79312900  0.79312900  0.79312900  1
  C  C3  1  0.39099200  0.39099200  0.39099200  1
  C  C4  1  0.60580000  0.60580000  0.60580000  1
  C  C5  1  0.26886200  0.77604000  0.26886200  1
  C  C6  1  0.77604000  0.26886200  0.26886200  1
  C  C7  1  0.26886200  0.26886200  0.77604000  1
  C  C8  1  0.73154200  0.21924900  0.73154200  1
  C  C9  1  0.21924900  0.73154200  0.73154200  1
  C  C10  1  0.73154200  0.73154200  0.21924900  1
  C  C11  1  0.99480200  0.50452800  0.50452800  1
  C  C12  1  0.50452800  0.50452800  0.99480200  1
  C  C13  1  0.50452800  0.99480200  0.50452800  1
