# generated using pymatgen
data_Cu(Ni2C13)2
_symmetry_space_group_name_H-M   'P 1'
_cell_length_a   12.14651500
_cell_length_b   12.14651500
_cell_length_c   8.14943300
_cell_angle_alpha   90.00000000
_cell_angle_beta   90.00000000
_cell_angle_gamma   90.00000000
_symmetry_Int_Tables_number   1
_chemical_formula_structural   Cu(Ni2C13)2
_chemical_formula_sum   'Cu2 Ni8 C52'
_cell_volume   1202.34963321
_cell_formula_units_Z   2
loop_
 _symmetry_equiv_pos_site_id
 _symmetry_equiv_pos_as_xyz
  1  'x, y, z'
loop_
 _atom_site_type_symbol
 _atom_site_label
 _atom_site_symmetry_multiplicity
 _atom_site_fract_x
 _atom_site_fract_y
 _atom_site_fract_z
 _atom_site_occupancy
  C  C0  1  0.83247700  0.66752300  0.75000000  1
  C  C1  1  0.16752300  0.33247700  0.75000000  1
  C  C2  1  0.33247700  0.83247700  0.25000000  1
  C  C3  1  0.66752300  0.16752300  0.25000000  1
  C  C4  1  0.33247700  0.83247700  0.75000000  1
  C  C5  1  0.66752300  0.16752300  0.75000000  1
  C  C6  1  0.16752300  0.33247700  0.25000000  1
  C  C7  1  0.83247700  0.66752300  0.25000000  1
  C  C8  1  0.50000000  0.50000000  0.13858400  1
  C  C9  1  0.00000000  0.00000000  0.63858400  1
  C  C10  1  0.50000000  0.50000000  0.86141600  1
  C  C11  1  0.00000000  0.00000000  0.36141600  1
  Ni  Ni12  1  0.77201700  0.91027200  0.50000000  1
  Ni  Ni13  1  0.22798300  0.08972800  0.50000000  1
  Ni  Ni14  1  0.27201700  0.58972800  0.00000000  1
  Ni  Ni15  1  0.72798300  0.41027200  0.00000000  1
  Ni  Ni16  1  0.08972800  0.77201700  0.50000000  1
  Ni  Ni17  1  0.91027200  0.22798300  0.50000000  1
  Ni  Ni18  1  0.41027200  0.27201700  0.00000000  1
  Ni  Ni19  1  0.58972800  0.72798300  0.00000000  1
  Cu  Cu20  1  0.50000000  0.50000000  0.50000000  1
  Cu  Cu21  1  0.00000000  0.00000000  0.00000000  1
  C  C22  1  0.84873100  0.92735000  0.34880200  1
  C  C23  1  0.15126900  0.07265000  0.34880200  1
  C  C24  1  0.34873100  0.57265000  0.84880200  1
  C  C25  1  0.65126900  0.42735000  0.84880200  1
  C  C26  1  0.07265000  0.84873100  0.34880200  1
  C  C27  1  0.92735000  0.15126900  0.34880200  1
  C  C28  1  0.42735000  0.34873100  0.84880200  1
  C  C29  1  0.57265000  0.65126900  0.84880200  1
  C  C30  1  0.15126900  0.07265000  0.65119800  1
  C  C31  1  0.84873100  0.92735000  0.65119800  1
  C  C32  1  0.65126900  0.42735000  0.15119800  1
  C  C33  1  0.34873100  0.57265000  0.15119800  1
  C  C34  1  0.92735000  0.15126900  0.65119800  1
  C  C35  1  0.07265000  0.84873100  0.65119800  1
  C  C36  1  0.57265000  0.65126900  0.15119800  1
  C  C37  1  0.42735000  0.34873100  0.15119800  1
  C  C38  1  0.97789300  0.73650200  0.00000000  1
  C  C39  1  0.02210700  0.26349800  0.00000000  1
  C  C40  1  0.47789300  0.76349800  0.50000000  1
  C  C41  1  0.52210700  0.23650200  0.50000000  1
  C  C42  1  0.26349800  0.97789300  0.00000000  1
  C  C43  1  0.73650200  0.02210700  0.00000000  1
  C  C44  1  0.23650200  0.47789300  0.50000000  1
  C  C45  1  0.76349800  0.52210700  0.50000000  1
  C  C46  1  0.73465200  0.79739700  0.50000000  1
  C  C47  1  0.26534800  0.20260300  0.50000000  1
  C  C48  1  0.23465200  0.70260300  0.00000000  1
  C  C49  1  0.76534800  0.29739700  0.00000000  1
  C  C50  1  0.20260300  0.73465200  0.50000000  1
  C  C51  1  0.79739700  0.26534800  0.50000000  1
  C  C52  1  0.29739700  0.23465200  0.00000000  1
  C  C53  1  0.70260300  0.76534800  0.00000000  1
  C  C54  1  0.68831300  0.99593300  0.50000000  1
  C  C55  1  0.31168700  0.00406700  0.50000000  1
  C  C56  1  0.18831300  0.50406700  0.00000000  1
  C  C57  1  0.81168700  0.49593300  0.00000000  1
  C  C58  1  0.00406700  0.68831300  0.50000000  1
  C  C59  1  0.99593300  0.31168700  0.50000000  1
  C  C60  1  0.49593300  0.18831300  0.00000000  1
  C  C61  1  0.50406700  0.81168700  0.00000000  1
