# generated using pymatgen
data_CuNiC12
_symmetry_space_group_name_H-M   'P 1'
_cell_length_a   5.23670400
_cell_length_b   5.14130200
_cell_length_c   7.39010179
_cell_angle_alpha   89.91165404
_cell_angle_beta   90.00000000
_cell_angle_gamma   90.00000000
_symmetry_Int_Tables_number   1
_chemical_formula_structural   CuNiC12
_chemical_formula_sum   'Cu2 Ni2 C24'
_cell_volume   198.96699706
_cell_formula_units_Z   2
loop_
 _symmetry_equiv_pos_site_id
 _symmetry_equiv_pos_as_xyz
  1  'x, y, z'
loop_
 _atom_site_type_symbol
 _atom_site_label
 _atom_site_symmetry_multiplicity
 _atom_site_fract_x
 _atom_site_fract_y
 _atom_site_fract_z
 _atom_site_occupancy
  Ni  Ni0  1  0.99958200  0.74747300  0.24899200  1
  Ni  Ni1  1  0.49958200  0.25252700  0.75100800  1
  Cu  Cu2  1  0.49822400  0.25128800  0.24939800  1
  Cu  Cu3  1  0.99822400  0.74871200  0.75060200  1
  C  C4  1  0.63502000  0.48970400  0.49245400  1
  C  C5  1  0.13502000  0.51029600  0.50754600  1
  C  C6  1  0.88028300  0.99360400  0.98951800  1
  C  C7  1  0.38028300  0.00639600  0.01048200  1
  C  C8  1  0.05147300  0.27493000  0.23234400  1
  C  C9  1  0.55147300  0.72507000  0.76765600  1
  C  C10  1  0.46232600  0.81062100  0.28358200  1
  C  C11  1  0.96232600  0.18937900  0.71641800  1
  C  C12  1  0.31590800  0.91030600  0.55946100  1
  C  C13  1  0.81590800  0.08969400  0.44053900  1
  C  C14  1  0.15446800  0.43380500  0.95123200  1
  C  C15  1  0.65446800  0.56619500  0.04876800  1
  C  C16  1  0.48515300  0.37398400  0.47868600  1
  C  C17  1  0.98515300  0.62601600  0.52131400  1
  C  C18  1  0.02526100  0.87117000  0.97939700  1
  C  C19  1  0.52526100  0.12883000  0.02060300  1
  C  C20  1  0.30231200  0.90886900  0.69429000  1
  C  C21  1  0.80231200  0.09113100  0.30571000  1
  C  C22  1  0.15772000  0.45394300  0.81707600  1
  C  C23  1  0.65772000  0.54605700  0.18292400  1
  C  C24  1  0.33862600  0.95025900  0.31557000  1
  C  C25  1  0.83862600  0.04974100  0.68443000  1
  C  C26  1  0.19264300  0.39787300  0.19847600  1
  C  C27  1  0.69264300  0.60212700  0.80152400  1
