# generated using pymatgen
data_CuNi6C
_symmetry_space_group_name_H-M   'P 1'
_cell_length_a   4.96179100
_cell_length_b   5.84888600
_cell_length_c   10.82733900
_cell_angle_alpha   90.00000000
_cell_angle_beta   90.00000000
_cell_angle_gamma   90.00000000
_symmetry_Int_Tables_number   1
_chemical_formula_structural   CuNi6C
_chemical_formula_sum   'Cu2 Ni12 C2'
_cell_volume   314.21966283
_cell_formula_units_Z   2
loop_
 _symmetry_equiv_pos_site_id
 _symmetry_equiv_pos_as_xyz
  1  'x, y, z'
loop_
 _atom_site_type_symbol
 _atom_site_label
 _atom_site_symmetry_multiplicity
 _atom_site_fract_x
 _atom_site_fract_y
 _atom_site_fract_z
 _atom_site_occupancy
  Ni  Ni0  1  0.50000000  0.25101900  0.42072400  1
  Ni  Ni1  1  0.50000000  0.74898100  0.42072400  1
  Ni  Ni2  1  0.00000000  0.73887200  0.08453700  1
  Ni  Ni3  1  0.00000000  0.26112800  0.08453700  1
  Ni  Ni4  1  0.00000000  0.00000000  0.32728400  1
  Ni  Ni5  1  0.00000000  0.50000000  0.32137400  1
  Ni  Ni6  1  0.50000000  0.75101900  0.92072400  1
  Ni  Ni7  1  0.50000000  0.24898100  0.92072400  1
  Ni  Ni8  1  0.00000000  0.23887200  0.58453700  1
  Ni  Ni9  1  0.00000000  0.76112800  0.58453700  1
  Ni  Ni10  1  0.00000000  0.50000000  0.82728400  1
  Ni  Ni11  1  0.00000000  0.00000000  0.82137400  1
  Cu  Cu12  1  0.50000000  0.00000000  0.16860400  1
  Cu  Cu13  1  0.50000000  0.50000000  0.66860400  1
  C  C14  1  0.50000000  0.50000000  0.17221200  1
  C  C15  1  0.50000000  0.00000000  0.67221200  1
