# generated using pymatgen
data_Cu4Ni4C3
_symmetry_space_group_name_H-M   'P 1'
_cell_length_a   4.43312600
_cell_length_b   6.91255413
_cell_length_c   8.34409263
_cell_angle_alpha   113.79629030
_cell_angle_beta   105.40525748
_cell_angle_gamma   90.00000000
_symmetry_Int_Tables_number   1
_chemical_formula_structural   Cu4Ni4C3
_chemical_formula_sum   'Cu4 Ni4 C3'
_cell_volume   223.88304105
_cell_formula_units_Z   1
loop_
 _symmetry_equiv_pos_site_id
 _symmetry_equiv_pos_as_xyz
  1  'x, y, z'
loop_
 _atom_site_type_symbol
 _atom_site_label
 _atom_site_symmetry_multiplicity
 _atom_site_fract_x
 _atom_site_fract_y
 _atom_site_fract_z
 _atom_site_occupancy
  C  C0  1  0.00000000  0.50000000  0.00000000  1
  C  C1  1  0.86951500  0.85755200  0.73903000  1
  C  C2  1  0.13048500  0.14244800  0.26097000  1
  Ni  Ni3  1  0.68298900  0.87790200  0.36597800  1
  Ni  Ni4  1  0.31701100  0.12209800  0.63402200  1
  Ni  Ni5  1  0.65998000  0.47532000  0.31996000  1
  Ni  Ni6  1  0.34002000  0.52468000  0.68004000  1
  Cu  Cu7  1  0.78436000  0.30099600  0.56872000  1
  Cu  Cu8  1  0.21564000  0.69900400  0.43128000  1
  Cu  Cu9  1  0.49058200  0.19370300  0.98116400  1
  Cu  Cu10  1  0.50941800  0.80629700  0.01883600  1
