# generated using pymatgen
data_CuNiC
_symmetry_space_group_name_H-M   'P 1'
_cell_length_a   3.87668200
_cell_length_b   6.50736000
_cell_length_c   7.50787800
_cell_angle_alpha   90.00000000
_cell_angle_beta   90.00000000
_cell_angle_gamma   90.00000000
_symmetry_Int_Tables_number   1
_chemical_formula_structural   CuNiC
_chemical_formula_sum   'Cu4 Ni4 C4'
_cell_volume   189.40097838
_cell_formula_units_Z   4
loop_
 _symmetry_equiv_pos_site_id
 _symmetry_equiv_pos_as_xyz
  1  'x, y, z'
loop_
 _atom_site_type_symbol
 _atom_site_label
 _atom_site_symmetry_multiplicity
 _atom_site_fract_x
 _atom_site_fract_y
 _atom_site_fract_z
 _atom_site_occupancy
  C  C0  1  0.25000000  0.97196200  0.32165300  1
  C  C1  1  0.25000000  0.47196200  0.17834700  1
  C  C2  1  0.75000000  0.02803800  0.67834700  1
  C  C3  1  0.75000000  0.52803800  0.82165300  1
  Ni  Ni4  1  0.25000000  0.73952700  0.62373900  1
  Ni  Ni5  1  0.25000000  0.23952700  0.87626100  1
  Ni  Ni6  1  0.75000000  0.26047300  0.37626100  1
  Ni  Ni7  1  0.75000000  0.76047300  0.12373900  1
  Cu  Cu8  1  0.25000000  0.35545600  0.56233500  1
  Cu  Cu9  1  0.25000000  0.85545600  0.93766500  1
  Cu  Cu10  1  0.75000000  0.64454400  0.43766500  1
  Cu  Cu11  1  0.75000000  0.14454400  0.06233500  1
