# generated using pymatgen
data_Cu2NiC4
_symmetry_space_group_name_H-M   'P 1'
_cell_length_a   9.43565474
_cell_length_b   10.26324300
_cell_length_c   12.75026069
_cell_angle_alpha   90.00000000
_cell_angle_beta   99.89806396
_cell_angle_gamma   90.00000000
_symmetry_Int_Tables_number   1
_chemical_formula_structural   Cu2NiC4
_chemical_formula_sum   'Cu32 Ni16 C64'
_cell_volume   1216.36162129
_cell_formula_units_Z   16
loop_
 _symmetry_equiv_pos_site_id
 _symmetry_equiv_pos_as_xyz
  1  'x, y, z'
loop_
 _atom_site_type_symbol
 _atom_site_label
 _atom_site_symmetry_multiplicity
 _atom_site_fract_x
 _atom_site_fract_y
 _atom_site_fract_z
 _atom_site_occupancy
  C  C0  1  0.19665300  0.25180900  0.12622800  1
  C  C1  1  0.30334700  0.75180900  0.87377200  1
  C  C2  1  0.80334700  0.74819100  0.87377200  1
  C  C3  1  0.69665300  0.24819100  0.12622800  1
  C  C4  1  0.22548900  0.06456900  0.91529300  1
  C  C5  1  0.27451100  0.56456900  0.08470700  1
  C  C6  1  0.77451100  0.93543100  0.08470700  1
  C  C7  1  0.72548900  0.43543100  0.91529300  1
  C  C8  1  0.32556500  0.13094000  0.36469000  1
  C  C9  1  0.17443500  0.63094000  0.63531000  1
  C  C10  1  0.67443500  0.86906000  0.63531000  1
  C  C11  1  0.82556500  0.36906000  0.36469000  1
  Ni  Ni12  1  0.97403800  0.10126700  0.28916000  1
  Ni  Ni13  1  0.52596200  0.60126700  0.71084000  1
  Ni  Ni14  1  0.02596200  0.89873300  0.71084000  1
  Ni  Ni15  1  0.47403800  0.39873300  0.28916000  1
  Ni  Ni16  1  0.44441600  0.02456300  0.15140300  1
  Ni  Ni17  1  0.05558400  0.52456300  0.84859700  1
  Ni  Ni18  1  0.55558400  0.97543700  0.84859700  1
  Ni  Ni19  1  0.94441600  0.47543700  0.15140300  1
  Ni  Ni20  1  0.89861500  0.15802900  0.94042800  1
  Ni  Ni21  1  0.60138500  0.65802900  0.05957200  1
  Ni  Ni22  1  0.10138500  0.84197100  0.05957200  1
  Ni  Ni23  1  0.39861500  0.34197100  0.94042800  1
  Ni  Ni24  1  0.17602800  0.38820100  0.46768700  1
  Ni  Ni25  1  0.32397200  0.88820100  0.53231300  1
  Ni  Ni26  1  0.82397200  0.61179900  0.53231300  1
  Ni  Ni27  1  0.67602800  0.11179900  0.46768700  1
  Cu  Cu28  1  0.99574500  0.08199100  0.39970200  1
  Cu  Cu29  1  0.50425500  0.58199100  0.60029800  1
  Cu  Cu30  1  0.00425500  0.91800900  0.60029800  1
  Cu  Cu31  1  0.49574500  0.41800900  0.39970200  1
  Cu  Cu32  1  0.43611800  0.89768900  0.11038500  1
  Cu  Cu33  1  0.06388200  0.39768900  0.88961500  1
  Cu  Cu34  1  0.56388200  0.10231100  0.88961500  1
  Cu  Cu35  1  0.93611800  0.60231100  0.11038500  1
  Cu  Cu36  1  0.88638400  0.04988400  0.87248800  1
  Cu  Cu37  1  0.61361600  0.54988400  0.12751200  1
  Cu  Cu38  1  0.11361600  0.95011600  0.12751200  1
  Cu  Cu39  1  0.38638400  0.45011600  0.87248800  1
  Cu  Cu40  1  0.19684700  0.45997700  0.37744400  1
  Cu  Cu41  1  0.30315300  0.95997700  0.62255600  1
  Cu  Cu42  1  0.80315300  0.54002300  0.62255600  1
  Cu  Cu43  1  0.69684700  0.04002300  0.37744400  1
  Cu  Cu44  1  0.89382200  0.25130000  0.60022600  1
  Cu  Cu45  1  0.60617800  0.75130000  0.39977400  1
  Cu  Cu46  1  0.10617800  0.74870000  0.39977400  1
  Cu  Cu47  1  0.39382200  0.24870000  0.60022600  1
  Cu  Cu48  1  0.01421400  0.17273800  0.69588700  1
  Cu  Cu49  1  0.48578600  0.67273800  0.30411300  1
  Cu  Cu50  1  0.98578600  0.82726200  0.30411300  1
  Cu  Cu51  1  0.51421400  0.32726200  0.69588700  1
  Cu  Cu52  1  0.88818700  0.26684500  0.73350000  1
  Cu  Cu53  1  0.61181300  0.76684500  0.26650000  1
  Cu  Cu54  1  0.11181300  0.73315500  0.26650000  1
  Cu  Cu55  1  0.38818700  0.23315500  0.73350000  1
  Cu  Cu56  1  0.02050200  0.33951100  0.68210100  1
  Cu  Cu57  1  0.47949800  0.83951100  0.31789900  1
  Cu  Cu58  1  0.97949800  0.66048900  0.31789900  1
  Cu  Cu59  1  0.52050200  0.16048900  0.68210100  1
  C  C60  1  0.95469800  0.25785900  0.67647100  1
  C  C61  1  0.54530200  0.75785900  0.32352900  1
  C  C62  1  0.04530200  0.74214100  0.32352900  1
  C  C63  1  0.45469800  0.24214100  0.67647100  1
  C  C64  1  0.12422000  0.14020300  0.26274300  1
  C  C65  1  0.37578000  0.64020300  0.73725700  1
  C  C66  1  0.87578000  0.85979700  0.73725700  1
  C  C67  1  0.62422000  0.35979700  0.26274300  1
  C  C68  1  0.36602300  0.28353800  0.26589200  1
  C  C69  1  0.13397700  0.78353800  0.73410800  1
  C  C70  1  0.63397700  0.71646200  0.73410800  1
  C  C71  1  0.86602300  0.21646200  0.26589200  1
  C  C72  1  0.32661500  0.10482400  0.08093800  1
  C  C73  1  0.17338500  0.60482400  0.91906200  1
  C  C74  1  0.67338500  0.89517600  0.91906200  1
  C  C75  1  0.82661500  0.39517600  0.08093800  1
  C  C76  1  0.06162400  0.17695600  0.98117900  1
  C  C77  1  0.43837600  0.67695600  0.01882100  1
  C  C78  1  0.93837600  0.82304400  0.01882100  1
  C  C79  1  0.56162400  0.32304400  0.98117900  1
  C  C80  1  0.09769400  0.42748200  0.14475900  1
  C  C81  1  0.40230600  0.92748200  0.85524100  1
  C  C82  1  0.90230600  0.57251800  0.85524100  1
  C  C83  1  0.59769400  0.07251800  0.14475900  1
  C  C84  1  0.31834700  0.37835600  0.03235600  1
  C  C85  1  0.18165300  0.87835600  0.96764400  1
  C  C86  1  0.68165300  0.62164400  0.96764400  1
  C  C87  1  0.81834700  0.12164400  0.03235600  1
  C  C88  1  0.41385000  0.01223100  0.26599700  1
  C  C89  1  0.08615000  0.51223100  0.73400300  1
  C  C90  1  0.58615000  0.98776900  0.73400300  1
  C  C91  1  0.91385000  0.48776900  0.26599700  1
  C  C92  1  0.26561300  0.26147900  0.47044600  1
  C  C93  1  0.23438700  0.76147900  0.52955400  1
  C  C94  1  0.73438700  0.73852100  0.52955400  1
  C  C95  1  0.76561300  0.23852100  0.47044600  1
  C  C96  1  0.26385400  0.97097000  0.43393300  1
  C  C97  1  0.23614600  0.47097000  0.56606700  1
  C  C98  1  0.73614600  0.02903000  0.56606700  1
  C  C99  1  0.76385400  0.52903000  0.43393300  1
  C  C100  1  0.51555800  0.14264400  0.45876200  1
  C  C101  1  0.98444200  0.64264400  0.54123800  1
  C  C102  1  0.48444200  0.85735600  0.54123800  1
  C  C103  1  0.01555800  0.35735600  0.45876200  1
  C  C104  1  0.08688900  0.02575400  0.76332000  1
  C  C105  1  0.41311100  0.52575400  0.23668000  1
  C  C106  1  0.91311100  0.97424600  0.23668000  1
  C  C107  1  0.58688900  0.47424600  0.76332000  1
  C  C108  1  0.32871000  0.22796000  0.87134200  1
  C  C109  1  0.17129000  0.72796000  0.12865800  1
  C  C110  1  0.67129000  0.77204000  0.12865800  1
  C  C111  1  0.82871000  0.27204000  0.87134200  1
