# generated using pymatgen
data_Cu6NiC8
_symmetry_space_group_name_H-M   'P 1'
_cell_length_a   11.10545078
_cell_length_b   11.10545078
_cell_length_c   11.10545078
_cell_angle_alpha   109.47122063
_cell_angle_beta   109.47122063
_cell_angle_gamma   109.47122063
_symmetry_Int_Tables_number   1
_chemical_formula_structural   Cu6NiC8
_chemical_formula_sum   'Cu48 Ni8 C64'
_cell_volume   1054.35456981
_cell_formula_units_Z   8
loop_
 _symmetry_equiv_pos_site_id
 _symmetry_equiv_pos_as_xyz
  1  'x, y, z'
loop_
 _atom_site_type_symbol
 _atom_site_label
 _atom_site_symmetry_multiplicity
 _atom_site_fract_x
 _atom_site_fract_y
 _atom_site_fract_z
 _atom_site_occupancy
  C  C0  1  0.25000000  0.65050400  0.40050400  1
  C  C1  1  0.75000000  0.84949600  0.09949600  1
  C  C2  1  0.65050400  0.40050400  0.25000000  1
  C  C3  1  0.84949600  0.09949600  0.75000000  1
  C  C4  1  0.40050400  0.25000000  0.65050400  1
  C  C5  1  0.09949600  0.75000000  0.84949600  1
  C  C6  1  0.75000000  0.34949600  0.59949600  1
  C  C7  1  0.25000000  0.15050400  0.90050400  1
  C  C8  1  0.34949600  0.59949600  0.75000000  1
  C  C9  1  0.15050400  0.90050400  0.25000000  1
  C  C10  1  0.59949600  0.75000000  0.34949600  1
  C  C11  1  0.90050400  0.25000000  0.15050400  1
  C  C12  1  0.00000000  0.00000000  0.50000000  1
  C  C13  1  0.50000000  0.50000000  0.50000000  1
  C  C14  1  0.50000000  0.00000000  0.00000000  1
  C  C15  1  0.00000000  0.50000000  0.00000000  1
  Ni  Ni16  1  0.50000000  0.00000000  0.60065000  1
  Ni  Ni17  1  0.60065000  0.50000000  0.00000000  1
  Ni  Ni18  1  0.00000000  0.60065000  0.50000000  1
  Ni  Ni19  1  0.89935000  0.89935000  0.89935000  1
  Ni  Ni20  1  0.50000000  0.00000000  0.39935000  1
  Ni  Ni21  1  0.39935000  0.50000000  0.00000000  1
  Ni  Ni22  1  0.00000000  0.39935000  0.50000000  1
  Ni  Ni23  1  0.10065000  0.10065000  0.10065000  1
  Cu  Cu24  1  0.09003900  0.80110000  0.40703400  1
  Cu  Cu25  1  0.60593300  0.69890000  0.78893800  1
  Cu  Cu26  1  0.40996100  0.81699500  0.71106200  1
  Cu  Cu27  1  0.89406700  0.68300500  0.09296600  1
  Cu  Cu28  1  0.80110000  0.40703400  0.09003900  1
  Cu  Cu29  1  0.69890000  0.78893800  0.60593300  1
  Cu  Cu30  1  0.81699500  0.71106200  0.40996100  1
  Cu  Cu31  1  0.68300500  0.09296600  0.89406700  1
  Cu  Cu32  1  0.40703400  0.09003900  0.80110000  1
  Cu  Cu33  1  0.78893800  0.60593300  0.69890000  1
  Cu  Cu34  1  0.71106200  0.40996100  0.81699500  1
  Cu  Cu35  1  0.09296600  0.89406700  0.68300500  1
  Cu  Cu36  1  0.90996100  0.19890000  0.59296600  1
  Cu  Cu37  1  0.39406700  0.30110000  0.21106200  1
  Cu  Cu38  1  0.59003900  0.18300500  0.28893800  1
  Cu  Cu39  1  0.10593300  0.31699500  0.90703400  1
  Cu  Cu40  1  0.19890000  0.59296600  0.90996100  1
  Cu  Cu41  1  0.30110000  0.21106200  0.39406700  1
  Cu  Cu42  1  0.18300500  0.28893800  0.59003900  1
  Cu  Cu43  1  0.31699500  0.90703400  0.10593300  1
  Cu  Cu44  1  0.59296600  0.90996100  0.19890000  1
  Cu  Cu45  1  0.21106200  0.39406700  0.30110000  1
  Cu  Cu46  1  0.28893800  0.59003900  0.18300500  1
  Cu  Cu47  1  0.90703400  0.10593300  0.31699500  1
  Cu  Cu48  1  0.22209900  0.96316400  0.50497700  1
  Cu  Cu49  1  0.54181300  0.53683600  0.75893500  1
  Cu  Cu50  1  0.27790100  0.78287800  0.74106500  1
  Cu  Cu51  1  0.95818700  0.71712200  0.99502300  1
  Cu  Cu52  1  0.96316400  0.50497700  0.22209900  1
  Cu  Cu53  1  0.53683600  0.75893500  0.54181300  1
  Cu  Cu54  1  0.78287800  0.74106500  0.27790100  1
  Cu  Cu55  1  0.71712200  0.99502300  0.95818700  1
  Cu  Cu56  1  0.50497700  0.22209900  0.96316400  1
  Cu  Cu57  1  0.75893500  0.54181300  0.53683600  1
  Cu  Cu58  1  0.74106500  0.27790100  0.78287800  1
  Cu  Cu59  1  0.99502300  0.95818700  0.71712200  1
  Cu  Cu60  1  0.77790100  0.03683600  0.49502300  1
  Cu  Cu61  1  0.45818700  0.46316400  0.24106500  1
  Cu  Cu62  1  0.72209900  0.21712200  0.25893500  1
  Cu  Cu63  1  0.04181300  0.28287800  0.00497700  1
  Cu  Cu64  1  0.03683600  0.49502300  0.77790100  1
  Cu  Cu65  1  0.46316400  0.24106500  0.45818700  1
  Cu  Cu66  1  0.21712200  0.25893500  0.72209900  1
  Cu  Cu67  1  0.28287800  0.00497700  0.04181300  1
  Cu  Cu68  1  0.49502300  0.77790100  0.03683600  1
  Cu  Cu69  1  0.24106500  0.45818700  0.46316400  1
  Cu  Cu70  1  0.25893500  0.72209900  0.21712200  1
  Cu  Cu71  1  0.00497700  0.04181300  0.28287800  1
  C  C72  1  0.42979100  0.83751100  0.56431300  1
  C  C73  1  0.72680200  0.66248900  0.09228000  1
  C  C74  1  0.07020900  0.63452200  0.40772000  1
  C  C75  1  0.77319800  0.86547800  0.93568700  1
  C  C76  1  0.83751100  0.56431300  0.42979100  1
  C  C77  1  0.66248900  0.09228000  0.72680200  1
  C  C78  1  0.63452200  0.40772000  0.07020900  1
  C  C79  1  0.86547800  0.93568700  0.77319800  1
  C  C80  1  0.56431300  0.42979100  0.83751100  1
  C  C81  1  0.09228000  0.72680200  0.66248900  1
  C  C82  1  0.40772000  0.07020900  0.63452200  1
  C  C83  1  0.93568700  0.77319800  0.86547800  1
  C  C84  1  0.57020900  0.16248900  0.43568700  1
  C  C85  1  0.27319800  0.33751100  0.90772000  1
  C  C86  1  0.92979100  0.36547800  0.59228000  1
  C  C87  1  0.22680200  0.13452200  0.06431300  1
  C  C88  1  0.16248900  0.43568700  0.57020900  1
  C  C89  1  0.33751100  0.90772000  0.27319800  1
  C  C90  1  0.36547800  0.59228000  0.92979100  1
  C  C91  1  0.13452200  0.06431300  0.22680200  1
  C  C92  1  0.43568700  0.57020900  0.16248900  1
  C  C93  1  0.90772000  0.27319800  0.33751100  1
  C  C94  1  0.59228000  0.92979100  0.36547800  1
  C  C95  1  0.06431300  0.22680200  0.13452200  1
  C  C96  1  0.11972000  0.90111500  0.41870600  1
  C  C97  1  0.51759000  0.59888500  0.71860500  1
  C  C98  1  0.38028000  0.79898600  0.78139500  1
  C  C99  1  0.98241000  0.70101400  0.08129400  1
  C  C100  1  0.90111500  0.41870600  0.11972000  1
  C  C101  1  0.59888500  0.71860500  0.51759000  1
  C  C102  1  0.79898600  0.78139500  0.38028000  1
  C  C103  1  0.70101400  0.08129400  0.98241000  1
  C  C104  1  0.41870600  0.11972000  0.90111500  1
  C  C105  1  0.71860500  0.51759000  0.59888500  1
  C  C106  1  0.78139500  0.38028000  0.79898600  1
  C  C107  1  0.08129400  0.98241000  0.70101400  1
  C  C108  1  0.88028000  0.09888500  0.58129400  1
  C  C109  1  0.48241000  0.40111500  0.28139500  1
  C  C110  1  0.61972000  0.20101400  0.21860500  1
  C  C111  1  0.01759000  0.29898600  0.91870600  1
  C  C112  1  0.09888500  0.58129400  0.88028000  1
  C  C113  1  0.40111500  0.28139500  0.48241000  1
  C  C114  1  0.20101400  0.21860500  0.61972000  1
  C  C115  1  0.29898600  0.91870600  0.01759000  1
  C  C116  1  0.58129400  0.88028000  0.09888500  1
  C  C117  1  0.28139500  0.48241000  0.40111500  1
  C  C118  1  0.21860500  0.61972000  0.20101400  1
  C  C119  1  0.91870600  0.01759000  0.29898600  1
