# generated using pymatgen
data_Cu2NiC4
_symmetry_space_group_name_H-M   'P 1'
_cell_length_a   7.43919497
_cell_length_b   7.43919497
_cell_length_c   7.43919497
_cell_angle_alpha   131.42975354
_cell_angle_beta   131.42975354
_cell_angle_gamma   71.13117414
_symmetry_Int_Tables_number   1
_chemical_formula_structural   Cu2NiC4
_chemical_formula_sum   'Cu2 Ni1 C4'
_cell_volume   226.58916343
_cell_formula_units_Z   1
loop_
 _symmetry_equiv_pos_site_id
 _symmetry_equiv_pos_as_xyz
  1  'x, y, z'
loop_
 _atom_site_type_symbol
 _atom_site_label
 _atom_site_symmetry_multiplicity
 _atom_site_fract_x
 _atom_site_fract_y
 _atom_site_fract_z
 _atom_site_occupancy
  Ni  Ni0  1  0.00000000  0.00000000  0.00000000  1
  Cu  Cu1  1  0.50000000  0.50000000  0.00000000  1
  Cu  Cu2  1  0.25000000  0.75000000  0.50000000  1
  C  C3  1  0.50162000  0.00162000  0.50000000  1
  C  C4  1  0.24816200  0.24816200  0.00000000  1
  C  C5  1  0.99838000  0.49838000  0.50000000  1
  C  C6  1  0.75183800  0.75183800  0.00000000  1
