# generated using pymatgen
data_Cu11NiC21
_symmetry_space_group_name_H-M   'P 1'
_cell_length_a   9.82689413
_cell_length_b   9.82689413
_cell_length_c   11.94513500
_cell_angle_alpha   90.00000000
_cell_angle_beta   90.00000000
_cell_angle_gamma   120.00000091
_symmetry_Int_Tables_number   1
_chemical_formula_structural   Cu11NiC21
_chemical_formula_sum   'Cu22 Ni2 C42'
_cell_volume   998.97413759
_cell_formula_units_Z   2
loop_
 _symmetry_equiv_pos_site_id
 _symmetry_equiv_pos_as_xyz
  1  'x, y, z'
loop_
 _atom_site_type_symbol
 _atom_site_label
 _atom_site_symmetry_multiplicity
 _atom_site_fract_x
 _atom_site_fract_y
 _atom_site_fract_z
 _atom_site_occupancy
  Ni  Ni0  1  0.66666700  0.33333300  0.83362100  1
  Ni  Ni1  1  0.33333300  0.66666700  0.16637900  1
  Cu  Cu2  1  0.36582300  0.00000000  0.50000000  1
  Cu  Cu3  1  0.69002800  0.66640400  0.16613300  1
  Cu  Cu4  1  0.02362300  0.33359600  0.83386700  1
  Cu  Cu5  1  0.63417700  0.63417700  0.50000000  1
  Cu  Cu6  1  0.97637700  0.30997200  0.16613300  1
  Cu  Cu7  1  0.30997200  0.97637700  0.83386700  1
  Cu  Cu8  1  0.00000000  0.36582300  0.50000000  1
  Cu  Cu9  1  0.33359600  0.02362300  0.16613300  1
  Cu  Cu10  1  0.66640400  0.69002800  0.83386700  1
  Cu  Cu11  1  0.03620900  0.69828700  0.32976200  1
  Cu  Cu12  1  0.36785200  0.36785200  0.00000000  1
  Cu  Cu13  1  0.69828700  0.03620900  0.67023800  1
  Cu  Cu14  1  0.66207800  0.96379100  0.32976200  1
  Cu  Cu15  1  0.00000000  0.63214800  0.00000000  1
  Cu  Cu16  1  0.33792200  0.30171300  0.67023800  1
  Cu  Cu17  1  0.30171300  0.33792200  0.32976200  1
  Cu  Cu18  1  0.63214800  0.00000000  0.00000000  1
  Cu  Cu19  1  0.96379100  0.66207800  0.67023800  1
  Cu  Cu20  1  0.00000000  0.00000000  0.50000000  1
  Cu  Cu21  1  0.66666700  0.33333300  0.33330000  1
  Cu  Cu22  1  0.33333300  0.66666700  0.66670000  1
  Cu  Cu23  1  0.00000000  0.00000000  0.00000000  1
  C  C24  1  0.66666700  0.33333300  0.08080200  1
  C  C25  1  0.33333300  0.66666700  0.41431600  1
  C  C26  1  0.00000000  0.00000000  0.75015500  1
  C  C27  1  0.66666700  0.33333300  0.58568400  1
  C  C28  1  0.33333300  0.66666700  0.91919800  1
  C  C29  1  0.00000000  0.00000000  0.24984500  1
  C  C30  1  0.49041800  0.64116600  0.31528700  1
  C  C31  1  0.82366700  0.30794200  0.98261500  1
  C  C32  1  0.15947900  0.97414300  0.65015300  1
  C  C33  1  0.15074700  0.50958200  0.31528700  1
  C  C34  1  0.48427500  0.17633300  0.98261500  1
  C  C35  1  0.81466300  0.84052100  0.65015300  1
  C  C36  1  0.35883400  0.84925300  0.31528700  1
  C  C37  1  0.69205800  0.51572500  0.98261500  1
  C  C38  1  0.02585700  0.18533700  0.65015300  1
  C  C39  1  0.82552800  0.51828900  0.48376600  1
  C  C40  1  0.15878700  0.18447200  0.14974700  1
  C  C41  1  0.49149900  0.85081300  0.81725400  1
  C  C42  1  0.69276100  0.17447200  0.48376600  1
  C  C43  1  0.02568500  0.84121300  0.14974700  1
  C  C44  1  0.35931400  0.50850100  0.81725400  1
  C  C45  1  0.48171100  0.30723900  0.48376600  1
  C  C46  1  0.81552800  0.97431500  0.14974700  1
  C  C47  1  0.14918700  0.64068600  0.81725400  1
  C  C48  1  0.17447200  0.69276100  0.51623400  1
  C  C49  1  0.50850100  0.35931400  0.18274600  1
  C  C50  1  0.84121300  0.02568500  0.85025300  1
  C  C51  1  0.51828900  0.82552800  0.51623400  1
  C  C52  1  0.85081300  0.49149900  0.18274600  1
  C  C53  1  0.18447200  0.15878700  0.85025300  1
  C  C54  1  0.30723900  0.48171100  0.51623400  1
  C  C55  1  0.64068600  0.14918700  0.18274600  1
  C  C56  1  0.97431500  0.81552800  0.85025300  1
  C  C57  1  0.84052100  0.81466300  0.34984700  1
  C  C58  1  0.17633300  0.48427500  0.01738500  1
  C  C59  1  0.50958200  0.15074700  0.68471300  1
  C  C60  1  0.97414300  0.15947900  0.34984700  1
  C  C61  1  0.30794200  0.82366700  0.01738500  1
  C  C62  1  0.64116600  0.49041800  0.68471300  1
  C  C63  1  0.18533700  0.02585700  0.34984700  1
  C  C64  1  0.51572500  0.69205800  0.01738500  1
  C  C65  1  0.84925300  0.35883400  0.68471300  1
