# generated using pymatgen
data_CuNiC7
_symmetry_space_group_name_H-M   'P 1'
_cell_length_a   10.96289105
_cell_length_b   11.23147226
_cell_length_c   17.92143922
_cell_angle_alpha   108.35968128
_cell_angle_beta   107.92589218
_cell_angle_gamma   89.94126740
_symmetry_Int_Tables_number   1
_chemical_formula_structural   CuNiC7
_chemical_formula_sum   'Cu16 Ni16 C112'
_cell_volume   1981.39039000
_cell_formula_units_Z   16
loop_
 _symmetry_equiv_pos_site_id
 _symmetry_equiv_pos_as_xyz
  1  'x, y, z'
loop_
 _atom_site_type_symbol
 _atom_site_label
 _atom_site_symmetry_multiplicity
 _atom_site_fract_x
 _atom_site_fract_y
 _atom_site_fract_z
 _atom_site_occupancy
  C  C0  1  0.31296700  0.05913900  0.62211400  1
  C  C1  1  0.31039200  0.55962700  0.62257400  1
  C  C2  1  0.81071600  0.06004800  0.62274800  1
  C  C3  1  0.81358100  0.55991100  0.62445100  1
  C  C4  1  0.18991700  0.43922600  0.37800700  1
  C  C5  1  0.18289100  0.44303900  0.87624000  1
  C  C6  1  0.18775700  0.93966800  0.37568500  1
  C  C7  1  0.68967600  0.44058900  0.37811900  1
  C  C8  1  0.68978900  0.93978900  0.37816600  1
  C  C9  1  0.68662600  0.94148900  0.87667300  1
  C  C10  1  0.05874300  0.31706400  0.12477500  1
  C  C11  1  0.06154100  0.31161500  0.62143900  1
  C  C12  1  0.06061000  0.81636400  0.62474100  1
  C  C13  1  0.55969300  0.31488900  0.12420400  1
  C  C14  1  0.56025900  0.31593700  0.62438700  1
  C  C15  1  0.55658600  0.81707100  0.12435200  1
  C  C16  1  0.56149400  0.81261800  0.62241200  1
  C  C17  1  0.43827000  0.18587200  0.37595500  1
  C  C18  1  0.43630000  0.18543600  0.87639200  1
  C  C19  1  0.43587900  0.68408000  0.37470000  1
  C  C20  1  0.43502700  0.68328700  0.87629400  1
  C  C21  1  0.93567300  0.18450600  0.37501600  1
  C  C22  1  0.93689500  0.18316700  0.87579800  1
  C  C23  1  0.93722300  0.68471900  0.37489000  1
  C  C24  1  0.30111500  0.05824200  0.12288900  1
  C  C25  1  0.30353200  0.55803600  0.12161000  1
  C  C26  1  0.80365800  0.05782200  0.12098700  1
  C  C27  1  0.80400900  0.55916100  0.12239900  1
  C  C28  1  0.18899700  0.94109800  0.87951900  1
  C  C29  1  0.68907200  0.44125600  0.87992700  1
  C  C30  1  0.05685500  0.81358700  0.12238800  1
  C  C31  1  0.93428800  0.68603700  0.87783100  1
  Ni  Ni32  1  0.11427300  0.13249300  0.24792700  1
  Ni  Ni33  1  0.11947300  0.13336700  0.75129200  1
  Ni  Ni34  1  0.11625500  0.63464100  0.24814400  1
  Ni  Ni35  1  0.11702400  0.63646200  0.75144300  1
  Ni  Ni36  1  0.61480600  0.13358000  0.24891500  1
  Ni  Ni37  1  0.61882200  0.13509900  0.75090500  1
  Ni  Ni38  1  0.61577700  0.63404600  0.24862100  1
  Ni  Ni39  1  0.61954600  0.63340900  0.75183000  1
  Ni  Ni40  1  0.36771400  0.36563000  0.24840200  1
  Ni  Ni41  1  0.36823600  0.36670300  0.75076500  1
  Ni  Ni42  1  0.36495400  0.86446800  0.24816100  1
  Ni  Ni43  1  0.36706500  0.86547800  0.75093600  1
  Ni  Ni44  1  0.86728400  0.36577600  0.24867900  1
  Ni  Ni45  1  0.86633300  0.36662800  0.75159300  1
  Ni  Ni46  1  0.86699600  0.86558400  0.24764700  1
  Ni  Ni47  1  0.87042100  0.86534500  0.75155300  1
  Cu  Cu48  1  0.00343300  0.99932600  0.00125500  1
  Cu  Cu49  1  0.00183400  0.99953600  0.49974900  1
  Cu  Cu50  1  0.00117500  0.50164600  0.00034600  1
  Cu  Cu51  1  0.00120600  0.50051700  0.49960800  1
  Cu  Cu52  1  0.50150600  0.00024900  0.00083200  1
  Cu  Cu53  1  0.50105500  0.99988000  0.49939300  1
  Cu  Cu54  1  0.50333600  0.50083800  0.00075100  1
  Cu  Cu55  1  0.50206500  0.50018500  0.50012000  1
  Cu  Cu56  1  0.25191400  0.24959800  0.00045000  1
  Cu  Cu57  1  0.25096600  0.24913700  0.49911300  1
  Cu  Cu58  1  0.25060700  0.75123900  0.00107700  1
  Cu  Cu59  1  0.25086800  0.74985300  0.49967000  1
  Cu  Cu60  1  0.75250900  0.25103900  0.00103400  1
  Cu  Cu61  1  0.75115100  0.25061000  0.50030700  1
  Cu  Cu62  1  0.75438300  0.74943400  0.00039800  1
  Cu  Cu63  1  0.75132600  0.74987200  0.49977400  1
  C  C64  1  0.11262000  0.11260000  0.47361300  1
  C  C65  1  0.11435400  0.10760600  0.97007400  1
  C  C66  1  0.11293200  0.61196500  0.47296000  1
  C  C67  1  0.10733600  0.61453500  0.96897500  1
  C  C68  1  0.61283800  0.11283800  0.47371700  1
  C  C69  1  0.61233300  0.11241800  0.97219300  1
  C  C70  1  0.61276200  0.61367000  0.47428500  1
  C  C71  1  0.61532100  0.60969700  0.97049800  1
  C  C72  1  0.14040900  0.38860300  0.02893600  1
  C  C73  1  0.13875300  0.38715600  0.52530000  1
  C  C74  1  0.13993800  0.88706300  0.03298200  1
  C  C75  1  0.13906200  0.88687900  0.52628600  1
  C  C76  1  0.64126700  0.38831500  0.02962600  1
  C  C77  1  0.63963500  0.38809700  0.52695200  1
  C  C78  1  0.64066100  0.88637200  0.02811000  1
  C  C79  1  0.63953700  0.88783500  0.52612400  1
  C  C80  1  0.36238600  0.11028100  0.47277100  1
  C  C81  1  0.36089300  0.10812400  0.97105000  1
  C  C82  1  0.36369700  0.61165100  0.47403000  1
  C  C83  1  0.36303000  0.61126600  0.97359700  1
  C  C84  1  0.86431500  0.11255600  0.47487500  1
  C  C85  1  0.86390600  0.11022900  0.97318200  1
  C  C86  1  0.86345100  0.61195600  0.47310200  1
  C  C87  1  0.86138900  0.60812000  0.96863300  1
  C  C88  1  0.38926100  0.39514200  0.03095100  1
  C  C89  1  0.38828300  0.38820400  0.52437200  1
  C  C90  1  0.38672800  0.89728900  0.03181400  1
  C  C91  1  0.38906700  0.88817100  0.52525000  1
  C  C92  1  0.88802500  0.39789900  0.03197100  1
  C  C93  1  0.88841600  0.38982900  0.52552500  1
  C  C94  1  0.89224100  0.89465400  0.03324500  1
  C  C95  1  0.88832200  0.88904200  0.52526800  1
  C  C96  1  0.07867700  0.10690400  0.12225400  1
  C  C97  1  0.06740300  0.10144500  0.62289400  1
  C  C98  1  0.07911700  0.60873900  0.12151500  1
  C  C99  1  0.06442500  0.60405500  0.62261500  1
  C  C100  1  0.58046500  0.10325700  0.12250700  1
  C  C101  1  0.56448700  0.10384600  0.62231000  1
  C  C102  1  0.58087700  0.60609700  0.12240400  1
  C  C103  1  0.56664500  0.60171400  0.62329900  1
  C  C104  1  0.44400000  0.39776000  0.37700300  1
  C  C105  1  0.45300700  0.39684300  0.87823700  1
  C  C106  1  0.44256800  0.89638200  0.37657100  1
  C  C107  1  0.44420800  0.89414100  0.87877500  1
  C  C108  1  0.94293000  0.39668400  0.37689000  1
  C  C109  1  0.94341200  0.39321200  0.87890600  1
  C  C110  1  0.94248600  0.89740200  0.37648400  1
  C  C111  1  0.95257500  0.89129200  0.87922800  1
  C  C112  1  0.31836800  0.26144400  0.12150400  1
  C  C113  1  0.31654200  0.27020000  0.62208200  1
  C  C114  1  0.31820000  0.76098700  0.12153800  1
  C  C115  1  0.31669000  0.77016900  0.62248400  1
  C  C116  1  0.81861200  0.26206600  0.12190000  1
  C  C117  1  0.81749100  0.27176100  0.62318300  1
  C  C118  1  0.82814700  0.76145100  0.12147000  1
  C  C119  1  0.81686400  0.76952000  0.62253400  1
  C  C120  1  0.19245600  0.22733200  0.37628800  1
  C  C121  1  0.19624700  0.23509200  0.87864500  1
  C  C122  1  0.19195600  0.72996400  0.37693600  1
  C  C123  1  0.19835900  0.73715700  0.87935900  1
  C  C124  1  0.69228300  0.22946400  0.37738400  1
  C  C125  1  0.69773900  0.23598600  0.87901000  1
  C  C126  1  0.69208200  0.72900600  0.37706800  1
  C  C127  1  0.70659900  0.73432300  0.87847500  1
  C  C128  1  0.44332100  0.03717100  0.24410100  1
  C  C129  1  0.45131800  0.03738000  0.75022200  1
  C  C130  1  0.44471900  0.53738600  0.24303500  1
  C  C131  1  0.44993300  0.53827200  0.74886000  1
  C  C132  1  0.94254900  0.03907400  0.24373300  1
  C  C133  1  0.95120500  0.03646900  0.74845200  1
  C  C134  1  0.94531200  0.53736100  0.24331800  1
  C  C135  1  0.95056700  0.54314700  0.75624800  1
  C  C136  1  0.20166300  0.46347700  0.25152100  1
  C  C137  1  0.20017600  0.46278200  0.74968800  1
  C  C138  1  0.19338300  0.95631000  0.24492300  1
  C  C139  1  0.20176600  0.96189900  0.75664000  1
  C  C140  1  0.70079200  0.46280500  0.25124400  1
  C  C141  1  0.69918900  0.46035100  0.75596400  1
  C  C142  1  0.69982900  0.96197900  0.25116500  1
  C  C143  1  0.70285000  0.96232600  0.75049800  1
