# generated using pymatgen
data_Cu4Ni4C23
_symmetry_space_group_name_H-M   'P 1'
_cell_length_a   7.88430200
_cell_length_b   9.47296777
_cell_length_c   10.71894501
_cell_angle_alpha   69.85780859
_cell_angle_beta   68.42159069
_cell_angle_gamma   65.40840487
_symmetry_Int_Tables_number   1
_chemical_formula_structural   Cu4Ni4C23
_chemical_formula_sum   'Cu8 Ni8 C46'
_cell_volume   659.38828663
_cell_formula_units_Z   2
loop_
 _symmetry_equiv_pos_site_id
 _symmetry_equiv_pos_as_xyz
  1  'x, y, z'
loop_
 _atom_site_type_symbol
 _atom_site_label
 _atom_site_symmetry_multiplicity
 _atom_site_fract_x
 _atom_site_fract_y
 _atom_site_fract_z
 _atom_site_occupancy
  C  C0  1  0.00000000  0.00000000  0.50000000  1
  C  C1  1  0.50000000  0.50000000  0.00000000  1
  C  C2  1  0.52089000  0.12047800  0.87500400  1
  C  C3  1  0.51637200  0.37952200  0.62499600  1
  C  C4  1  0.47911000  0.87952200  0.12499600  1
  C  C5  1  0.48362800  0.62047800  0.37500400  1
  C  C6  1  0.01700100  0.15303000  0.24836100  1
  C  C7  1  0.41839200  0.34697000  0.25163900  1
  C  C8  1  0.98299900  0.84697000  0.75163900  1
  C  C9  1  0.58160800  0.65303000  0.74836100  1
  C  C10  1  0.79898200  0.83017500  0.53481500  1
  C  C11  1  0.16397100  0.66982500  0.96518500  1
  C  C12  1  0.20101800  0.16982500  0.46518500  1
  C  C13  1  0.83602900  0.33017500  0.03481500  1
  C  C14  1  0.74935600  0.14593800  0.20697800  1
  C  C15  1  0.10227200  0.35406200  0.29302200  1
  C  C16  1  0.25064400  0.85406200  0.79302200  1
  C  C17  1  0.89772800  0.64593800  0.70697800  1
  C  C18  1  0.63486800  0.11855200  0.38777800  1
  C  C19  1  0.14119800  0.38144800  0.11222200  1
  C  C20  1  0.36513200  0.88144800  0.61222200  1
  C  C21  1  0.85880200  0.61855200  0.88777800  1
  C  C22  1  0.78227100  0.85725600  0.31655000  1
  C  C23  1  0.95607600  0.64274400  0.18345000  1
  C  C24  1  0.21772900  0.14274400  0.68345000  1
  C  C25  1  0.04392400  0.35725600  0.81655000  1
  C  C26  1  0.02545900  0.73707100  0.46198500  1
  C  C27  1  0.22451500  0.76292900  0.03801500  1
  C  C28  1  0.97454100  0.26292900  0.53801500  1
  C  C29  1  0.77548500  0.23707100  0.96198500  1
  C  C30  1  0.00930600  0.89187400  0.24436300  1
  C  C31  1  0.14554200  0.60812600  0.25563700  1
  C  C32  1  0.99069400  0.10812600  0.75563700  1
  C  C33  1  0.85445800  0.39187400  0.74436300  1
  C  C34  1  0.82857900  0.26758800  0.34592700  1
  C  C35  1  0.44209400  0.23241200  0.15407300  1
  C  C36  1  0.17142100  0.73241200  0.65407300  1
  C  C37  1  0.55790600  0.76758800  0.84592700  1
  Ni  Ni38  1  0.77406200  0.09111100  0.30991600  1
  Ni  Ni39  1  0.17508900  0.40888900  0.19008400  1
  Ni  Ni40  1  0.22593800  0.90888900  0.69008400  1
  Ni  Ni41  1  0.82491200  0.59111100  0.80991600  1
  Ni  Ni42  1  0.87285400  0.91352000  0.32540200  1
  Ni  Ni43  1  0.11177700  0.58648000  0.17459800  1
  Ni  Ni44  1  0.12714600  0.08648000  0.67459800  1
  Ni  Ni45  1  0.88822300  0.41352000  0.82540200  1
  Cu  Cu46  1  0.67395100  0.09876600  0.64294900  1
  Cu  Cu47  1  0.41566600  0.40123400  0.85705100  1
  Cu  Cu48  1  0.32604900  0.90123400  0.35705100  1
  Cu  Cu49  1  0.58433400  0.59876600  0.14294900  1
  Cu  Cu50  1  0.75017500  0.96454100  0.00166300  1
  Cu  Cu51  1  0.71637900  0.53545900  0.49833700  1
  Cu  Cu52  1  0.24982500  0.03545900  0.99833700  1
  Cu  Cu53  1  0.28362100  0.46454100  0.50166300  1
  C  C54  1  0.90171200  0.15233700  0.33427200  1
  C  C55  1  0.38832100  0.34766300  0.16572800  1
  C  C56  1  0.09828800  0.84766300  0.66572800  1
  C  C57  1  0.61167900  0.65233700  0.83427200  1
  C  C58  1  0.91952800  0.84772100  0.46055100  1
  C  C59  1  0.22780000  0.65227900  0.03944900  1
  C  C60  1  0.08047200  0.15227900  0.53944900  1
  C  C61  1  0.77220000  0.34772100  0.96055100  1
