# generated using pymatgen
data_CuNi4C19
_symmetry_space_group_name_H-M   'P 1'
_cell_length_a   9.47697700
_cell_length_b   9.47697700
_cell_length_c   8.50482600
_cell_angle_alpha   90.00000000
_cell_angle_beta   90.00000000
_cell_angle_gamma   90.00000000
_symmetry_Int_Tables_number   1
_chemical_formula_structural   CuNi4C19
_chemical_formula_sum   'Cu2 Ni8 C38'
_cell_volume   763.84472898
_cell_formula_units_Z   2
loop_
 _symmetry_equiv_pos_site_id
 _symmetry_equiv_pos_as_xyz
  1  'x, y, z'
loop_
 _atom_site_type_symbol
 _atom_site_label
 _atom_site_symmetry_multiplicity
 _atom_site_fract_x
 _atom_site_fract_y
 _atom_site_fract_z
 _atom_site_occupancy
  Ni  Ni0  1  0.34469500  0.15530500  0.25000000  1
  Ni  Ni1  1  0.15530500  0.65530500  0.75000000  1
  Ni  Ni2  1  0.65530500  0.84469500  0.25000000  1
  Ni  Ni3  1  0.84469500  0.34469500  0.75000000  1
  Ni  Ni4  1  0.21365800  0.71365800  0.25000000  1
  Ni  Ni5  1  0.28634200  0.21365800  0.75000000  1
  Ni  Ni6  1  0.71365800  0.78634200  0.75000000  1
  Ni  Ni7  1  0.78634200  0.28634200  0.25000000  1
  Cu  Cu8  1  0.50000000  0.50000000  0.00000000  1
  Cu  Cu9  1  0.00000000  0.00000000  0.50000000  1
  C  C10  1  0.50000000  0.50000000  0.50000000  1
  C  C11  1  0.00000000  0.00000000  0.00000000  1
  C  C12  1  0.88055500  0.61882400  0.44445000  1
  C  C13  1  0.61944500  0.11882400  0.94445000  1
  C  C14  1  0.61882400  0.11944500  0.55555000  1
  C  C15  1  0.88117600  0.61944500  0.05555000  1
  C  C16  1  0.11944500  0.38117600  0.44445000  1
  C  C17  1  0.38055500  0.88117600  0.94445000  1
  C  C18  1  0.38117600  0.88055500  0.55555000  1
  C  C19  1  0.11882400  0.38055500  0.05555000  1
  C  C20  1  0.50000000  0.50000000  0.27928900  1
  C  C21  1  0.00000000  0.00000000  0.77928900  1
  C  C22  1  0.50000000  0.50000000  0.72071100  1
  C  C23  1  0.00000000  0.00000000  0.22071100  1
  C  C24  1  0.91443200  0.76975800  0.51716400  1
  C  C25  1  0.58556800  0.26975800  0.01716400  1
  C  C26  1  0.76975800  0.08556800  0.48283600  1
  C  C27  1  0.73024200  0.58556800  0.98283600  1
  C  C28  1  0.08556800  0.23024200  0.51716400  1
  C  C29  1  0.41443200  0.73024200  0.01716400  1
  C  C30  1  0.23024200  0.91443200  0.48283600  1
  C  C31  1  0.26975800  0.41443200  0.98283600  1
  C  C32  1  0.72863400  0.55382300  0.50387900  1
  C  C33  1  0.77136600  0.05382300  0.00387900  1
  C  C34  1  0.55382300  0.27136600  0.49612100  1
  C  C35  1  0.94617700  0.77136600  0.99612100  1
  C  C36  1  0.27136600  0.44617700  0.50387900  1
  C  C37  1  0.22863400  0.94617700  0.00387900  1
  C  C38  1  0.44617700  0.72863400  0.49612100  1
  C  C39  1  0.05382300  0.22863400  0.99612100  1
  C  C40  1  0.00000000  0.50000000  0.50086900  1
  C  C41  1  0.50000000  0.00000000  0.00086900  1
  C  C42  1  0.50000000  0.00000000  0.49913100  1
  C  C43  1  0.00000000  0.50000000  0.99913100  1
  C  C44  1  0.87988400  0.62011600  0.25000000  1
  C  C45  1  0.62011600  0.12011600  0.75000000  1
  C  C46  1  0.12011600  0.37988400  0.25000000  1
  C  C47  1  0.37988400  0.87988400  0.75000000  1
