# generated using pymatgen
data_Cu4Ni6C11
_symmetry_space_group_name_H-M   'P 1'
_cell_length_a   11.57741994
_cell_length_b   11.57741994
_cell_length_c   11.57741994
_cell_angle_alpha   119.87731658
_cell_angle_beta   119.87731658
_cell_angle_gamma   90.21262559
_symmetry_Int_Tables_number   1
_chemical_formula_structural   Cu4Ni6C11
_chemical_formula_sum   'Cu8 Ni12 C22'
_cell_volume   1099.31388921
_cell_formula_units_Z   2
loop_
 _symmetry_equiv_pos_site_id
 _symmetry_equiv_pos_as_xyz
  1  'x, y, z'
loop_
 _atom_site_type_symbol
 _atom_site_label
 _atom_site_symmetry_multiplicity
 _atom_site_fract_x
 _atom_site_fract_y
 _atom_site_fract_z
 _atom_site_occupancy
  C  C0  1  0.68579900  0.93485800  0.24906000  1
  C  C1  1  0.68579900  0.43673900  0.75094000  1
  C  C2  1  0.93485800  0.68579900  0.24906000  1
  C  C3  1  0.43673900  0.68579900  0.75094000  1
  C  C4  1  0.31420100  0.06514200  0.75094000  1
  C  C5  1  0.31420100  0.56326100  0.24906000  1
  C  C6  1  0.06514200  0.31420100  0.75094000  1
  C  C7  1  0.56326100  0.31420100  0.24906000  1
  C  C8  1  0.89892400  0.24448700  0.34556200  1
  C  C9  1  0.89892400  0.55336200  0.65443800  1
  C  C10  1  0.24448700  0.89892400  0.34556200  1
  C  C11  1  0.55336200  0.89892400  0.65443800  1
  C  C12  1  0.10107600  0.75551300  0.65443800  1
  C  C13  1  0.10107600  0.44663800  0.34556200  1
  C  C14  1  0.75551300  0.10107600  0.65443800  1
  C  C15  1  0.44663800  0.10107600  0.34556200  1
  C  C16  1  0.33149700  0.33149700  0.66299500  1
  C  C17  1  0.66850300  0.66850300  0.33700500  1
  C  C18  1  0.33149700  0.66850300  0.00000000  1
  C  C19  1  0.66850300  0.33149700  0.00000000  1
  C  C20  1  0.83372300  0.83372300  0.00000000  1
  C  C21  1  0.16627700  0.16627700  0.00000000  1
  Ni  Ni22  1  0.03435900  0.03435900  0.41137000  1
  Ni  Ni23  1  0.62298900  0.62298900  0.58863000  1
  Ni  Ni24  1  0.03435900  0.62298900  0.00000000  1
  Ni  Ni25  1  0.62298900  0.03435900  0.00000000  1
  Ni  Ni26  1  0.96564100  0.96564100  0.58863000  1
  Ni  Ni27  1  0.37701100  0.37701100  0.41137000  1
  Ni  Ni28  1  0.96564100  0.37701100  0.00000000  1
  Ni  Ni29  1  0.37701100  0.96564100  0.00000000  1
  Ni  Ni30  1  0.12932100  0.12932100  0.25864200  1
  Ni  Ni31  1  0.87067900  0.87067900  0.74135800  1
  Ni  Ni32  1  0.12932100  0.87067900  0.00000000  1
  Ni  Ni33  1  0.87067900  0.12932100  0.00000000  1
  Cu  Cu34  1  0.15332800  0.50000000  0.65332800  1
  Cu  Cu35  1  0.84667200  0.50000000  0.34667200  1
  Cu  Cu36  1  0.50000000  0.84667200  0.34667200  1
  Cu  Cu37  1  0.50000000  0.15332800  0.65332800  1
  Cu  Cu38  1  0.61703300  0.61703300  0.00000000  1
  Cu  Cu39  1  0.38296700  0.38296700  0.00000000  1
  Cu  Cu40  1  0.75000000  0.25000000  0.50000000  1
  Cu  Cu41  1  0.25000000  0.75000000  0.50000000  1
