# generated using pymatgen
data_Cu18Ni4C11
_symmetry_space_group_name_H-M   'P 1'
_cell_length_a   6.13316800
_cell_length_b   6.91434971
_cell_length_c   10.25130993
_cell_angle_alpha   109.63107887
_cell_angle_beta   92.58404882
_cell_angle_gamma   105.20835803
_symmetry_Int_Tables_number   1
_chemical_formula_structural   Cu18Ni4C11
_chemical_formula_sum   'Cu18 Ni4 C11'
_cell_volume   390.85044884
_cell_formula_units_Z   1
loop_
 _symmetry_equiv_pos_site_id
 _symmetry_equiv_pos_as_xyz
  1  'x, y, z'
loop_
 _atom_site_type_symbol
 _atom_site_label
 _atom_site_symmetry_multiplicity
 _atom_site_fract_x
 _atom_site_fract_y
 _atom_site_fract_z
 _atom_site_occupancy
  C  C0  1  0.44011300  0.70794300  0.10676800  1
  C  C1  1  0.55988700  0.29205700  0.89323200  1
  C  C2  1  0.95824900  0.21578900  0.33185800  1
  C  C3  1  0.04175100  0.78421100  0.66814200  1
  C  C4  1  0.39130400  0.73838300  0.46344900  1
  C  C5  1  0.60869600  0.26161700  0.53655100  1
  C  C6  1  0.00000000  0.00000000  0.00000000  1
  C  C7  1  0.99105600  0.63211900  0.13446500  1
  C  C8  1  0.00894400  0.36788100  0.86553500  1
  C  C9  1  0.91253300  0.64387900  0.96888700  1
  C  C10  1  0.08746700  0.35612100  0.03111300  1
  Ni  Ni11  1  0.87548600  0.73341100  0.32529200  1
  Ni  Ni12  1  0.12451400  0.26658900  0.67470800  1
  Ni  Ni13  1  0.44582800  0.20534500  0.19917200  1
  Ni  Ni14  1  0.55417200  0.79465500  0.80082800  1
  Cu  Cu15  1  0.82329100  0.88303900  0.18169500  1
  Cu  Cu16  1  0.17670900  0.11696100  0.81830500  1
  Cu  Cu17  1  0.01241400  0.85506900  0.42130100  1
  Cu  Cu18  1  0.98758600  0.14493100  0.57869900  1
  Cu  Cu19  1  0.01274500  0.58941700  0.31585900  1
  Cu  Cu20  1  0.98725500  0.41058300  0.68414100  1
  Cu  Cu21  1  0.65328900  0.61373400  0.37335600  1
  Cu  Cu22  1  0.34671100  0.38626600  0.62664400  1
  Cu  Cu23  1  0.63512200  0.35220800  0.12642900  1
  Cu  Cu24  1  0.36487800  0.64779200  0.87357100  1
  Cu  Cu25  1  0.53629600  0.09882000  0.34602300  1
  Cu  Cu26  1  0.46370400  0.90118000  0.65397700  1
  Cu  Cu27  1  0.33415400  0.04183300  0.12395400  1
  Cu  Cu28  1  0.66584600  0.95816700  0.87604600  1
  Cu  Cu29  1  0.27027000  0.32308400  0.19707900  1
  Cu  Cu30  1  0.72973000  0.67691600  0.80292100  1
  Cu  Cu31  1  0.03373000  0.69726300  0.03825800  1
  Cu  Cu32  1  0.96627000  0.30273700  0.96174200  1
