# generated using pymatgen
data_Cu2NiC4
_symmetry_space_group_name_H-M   'P 1'
_cell_length_a   6.39278234
_cell_length_b   6.39278234
_cell_length_c   15.48787200
_cell_angle_alpha   90.00000000
_cell_angle_beta   90.00000000
_cell_angle_gamma   120.00000347
_symmetry_Int_Tables_number   1
_chemical_formula_structural   Cu2NiC4
_chemical_formula_sum   'Cu12 Ni6 C24'
_cell_volume   548.15351389
_cell_formula_units_Z   6
loop_
 _symmetry_equiv_pos_site_id
 _symmetry_equiv_pos_as_xyz
  1  'x, y, z'
loop_
 _atom_site_type_symbol
 _atom_site_label
 _atom_site_symmetry_multiplicity
 _atom_site_fract_x
 _atom_site_fract_y
 _atom_site_fract_z
 _atom_site_occupancy
  Ni  Ni0  1  0.33333300  0.66666700  0.95425300  1
  Ni  Ni1  1  0.00000000  0.00000000  0.62374300  1
  Ni  Ni2  1  0.00000000  0.00000000  0.99799700  1
  Ni  Ni3  1  0.66666700  0.33333300  0.28890600  1
  Ni  Ni4  1  0.33333300  0.66666700  0.71006800  1
  Ni  Ni5  1  0.00000000  0.00000000  0.37717600  1
  Cu  Cu6  1  0.83585400  0.67170800  0.83349800  1
  Cu  Cu7  1  0.32829200  0.16414600  0.83349800  1
  Cu  Cu8  1  0.49997600  0.99995100  0.50013700  1
  Cu  Cu9  1  0.83585400  0.16414600  0.83349800  1
  Cu  Cu10  1  0.66666700  0.33333300  0.66677400  1
  Cu  Cu11  1  0.00004900  0.50002400  0.50013700  1
  Cu  Cu12  1  0.16511400  0.33022900  0.16628400  1
  Cu  Cu13  1  0.49997600  0.50002400  0.50013700  1
  Cu  Cu14  1  0.16511400  0.83488600  0.16628400  1
  Cu  Cu15  1  0.33333300  0.66666700  0.33402700  1
  Cu  Cu16  1  0.66977100  0.83488600  0.16628400  1
  Cu  Cu17  1  0.66666700  0.33333300  0.04193500  1
  C  C18  1  0.68666200  0.84333100  0.91758100  1
  C  C19  1  0.00000000  0.00000000  0.75400700  1
  C  C20  1  0.15666900  0.84333100  0.91758100  1
  C  C21  1  0.15666900  0.31333800  0.91758100  1
  C  C22  1  0.50519400  0.01038800  0.75321600  1
  C  C23  1  0.34166800  0.17083400  0.58171000  1
  C  C24  1  0.50519400  0.49480600  0.75321600  1
  C  C25  1  0.66666700  0.33333300  0.90280900  1
  C  C26  1  0.82916600  0.17083400  0.58171000  1
  C  C27  1  0.66666700  0.33333300  0.41867700  1
  C  C28  1  0.98961200  0.49480600  0.75321600  1
  C  C29  1  0.82916600  0.65833200  0.58171000  1
  C  C30  1  0.17149000  0.34298100  0.41885800  1
  C  C31  1  0.01537800  0.50768900  0.24316800  1
  C  C32  1  0.17149000  0.82851000  0.41885800  1
  C  C33  1  0.33333300  0.66666700  0.58034100  1
  C  C34  1  0.33333300  0.66666700  0.08270300  1
  C  C35  1  0.49231100  0.50768900  0.24316800  1
  C  C36  1  0.65701900  0.82851000  0.41885800  1
  C  C37  1  0.49231100  0.98462200  0.24316800  1
  C  C38  1  0.85447000  0.70893900  0.09047500  1
  C  C39  1  0.00000000  0.00000000  0.25140400  1
  C  C40  1  0.85447000  0.14553000  0.09047500  1
  C  C41  1  0.29106100  0.14553000  0.09047500  1
