# generated using pymatgen
data_CuNiC5
_symmetry_space_group_name_H-M   'P 1'
_cell_length_a   6.16045905
_cell_length_b   6.15828860
_cell_length_c   10.65797599
_cell_angle_alpha   90.09386547
_cell_angle_beta   107.00823180
_cell_angle_gamma   60.08898008
_symmetry_Int_Tables_number   1
_chemical_formula_structural   CuNiC5
_chemical_formula_sum   'Cu4 Ni4 C20'
_cell_volume   330.04174039
_cell_formula_units_Z   4
loop_
 _symmetry_equiv_pos_site_id
 _symmetry_equiv_pos_as_xyz
  1  'x, y, z'
loop_
 _atom_site_type_symbol
 _atom_site_label
 _atom_site_symmetry_multiplicity
 _atom_site_fract_x
 _atom_site_fract_y
 _atom_site_fract_z
 _atom_site_occupancy
  C  C0  1  0.13209300  0.94338700  0.19099000  1
  C  C1  1  0.12666400  0.44208400  0.69049500  1
  C  C2  1  0.87333300  0.55792000  0.30950900  1
  C  C3  1  0.86791900  0.05662100  0.80901700  1
  Ni  Ni4  1  0.49998600  0.99997500  0.49998800  1
  Ni  Ni5  1  0.49998900  0.50000100  0.99999300  1
  Ni  Ni6  1  0.49131300  0.74759600  0.75014700  1
  Ni  Ni7  1  0.50862500  0.25240000  0.24982500  1
  Cu  Cu8  1  0.99999400  0.49997200  0.00000300  1
  Cu  Cu9  1  0.50002500  0.49997200  0.50000000  1
  Cu  Cu10  1  0.99998200  0.00002300  0.50000000  1
  Cu  Cu11  1  0.50001700  0.99998800  0.99999500  1
  C  C12  1  0.26905000  0.87935900  0.39130300  1
  C  C13  1  0.26208200  0.38254900  0.89387900  1
  C  C14  1  0.26891200  0.63788700  0.62927500  1
  C  C15  1  0.25998300  0.15583500  0.12302300  1
  C  C16  1  0.74002600  0.84422100  0.87696300  1
  C  C17  1  0.73110800  0.36211500  0.37071600  1
  C  C18  1  0.73793300  0.61744800  0.10613400  1
  C  C19  1  0.73098300  0.12060000  0.60874400  1
  C  C20  1  0.27197600  0.09752000  0.62358600  1
  C  C21  1  0.25929100  0.60159400  0.12067500  1
  C  C22  1  0.71826800  0.65014200  0.62272600  1
  C  C23  1  0.72521200  0.13955000  0.12275800  1
  C  C24  1  0.74069000  0.39845100  0.87932100  1
  C  C25  1  0.72801700  0.90249000  0.37641900  1
  C  C26  1  0.27483600  0.86045200  0.87725300  1
  C  C27  1  0.28169100  0.34984800  0.37726300  1
