# generated using pymatgen
data_Cu2NiC5
_symmetry_space_group_name_H-M   'P 1'
_cell_length_a   7.94073500
_cell_length_b   8.84756100
_cell_length_c   12.32183100
_cell_angle_alpha   90.00000000
_cell_angle_beta   90.00000000
_cell_angle_gamma   90.00000000
_symmetry_Int_Tables_number   1
_chemical_formula_structural   Cu2NiC5
_chemical_formula_sum   'Cu8 Ni4 C20'
_cell_volume   865.68425049
_cell_formula_units_Z   4
loop_
 _symmetry_equiv_pos_site_id
 _symmetry_equiv_pos_as_xyz
  1  'x, y, z'
loop_
 _atom_site_type_symbol
 _atom_site_label
 _atom_site_symmetry_multiplicity
 _atom_site_fract_x
 _atom_site_fract_y
 _atom_site_fract_z
 _atom_site_occupancy
  C  C0  1  0.34508800  0.75000000  0.69991400  1
  C  C1  1  0.65491200  0.25000000  0.30008600  1
  C  C2  1  0.84508800  0.25000000  0.80008600  1
  C  C3  1  0.15491200  0.75000000  0.19991400  1
  C  C4  1  0.88563100  0.75000000  0.81081900  1
  C  C5  1  0.11436900  0.25000000  0.18918100  1
  C  C6  1  0.38563100  0.25000000  0.68918100  1
  C  C7  1  0.61436900  0.75000000  0.31081900  1
  C  C8  1  0.67561600  0.53842900  0.56294200  1
  C  C9  1  0.32438400  0.46157100  0.43705800  1
  C  C10  1  0.17561600  0.46157100  0.93705800  1
  C  C11  1  0.32438400  0.03842900  0.43705800  1
  C  C12  1  0.82438400  0.53842900  0.06294200  1
  C  C13  1  0.67561600  0.96157100  0.56294200  1
  C  C14  1  0.82438400  0.96157100  0.06294200  1
  C  C15  1  0.17561600  0.03842900  0.93705800  1
  C  C16  1  0.05354500  0.75000000  0.49813100  1
  C  C17  1  0.94645500  0.25000000  0.50186900  1
  C  C18  1  0.55354500  0.25000000  0.00186900  1
  C  C19  1  0.44645500  0.75000000  0.99813100  1
  Ni  Ni20  1  0.06791000  0.75000000  0.99151200  1
  Ni  Ni21  1  0.93209000  0.25000000  0.00848800  1
  Ni  Ni22  1  0.56791000  0.25000000  0.50848800  1
  Ni  Ni23  1  0.43209000  0.75000000  0.49151200  1
  Cu  Cu24  1  0.57140000  0.51040900  0.82631600  1
  Cu  Cu25  1  0.42860000  0.48959100  0.17368400  1
  Cu  Cu26  1  0.07140000  0.48959100  0.67368400  1
  Cu  Cu27  1  0.42860000  0.01040900  0.17368400  1
  Cu  Cu28  1  0.92860000  0.51040900  0.32631600  1
  Cu  Cu29  1  0.57140000  0.98959100  0.82631600  1
  Cu  Cu30  1  0.92860000  0.98959100  0.32631600  1
  Cu  Cu31  1  0.07140000  0.01040900  0.67368400  1
