# generated using pymatgen
data_Cu(Ni2C)2
_symmetry_space_group_name_H-M   'P 1'
_cell_length_a   6.46955200
_cell_length_b   6.77628900
_cell_length_c   26.57577721
_cell_angle_alpha   89.69230924
_cell_angle_beta   90.00000000
_cell_angle_gamma   90.00000000
_symmetry_Int_Tables_number   1
_chemical_formula_structural   Cu(Ni2C)2
_chemical_formula_sum   'Cu8 Ni32 C16'
_cell_volume   1165.05342173
_cell_formula_units_Z   8
loop_
 _symmetry_equiv_pos_site_id
 _symmetry_equiv_pos_as_xyz
  1  'x, y, z'
loop_
 _atom_site_type_symbol
 _atom_site_label
 _atom_site_symmetry_multiplicity
 _atom_site_fract_x
 _atom_site_fract_y
 _atom_site_fract_z
 _atom_site_occupancy
  Ni  Ni0  1  0.34623100  0.63069400  0.60897500  1
  Ni  Ni1  1  0.65376900  0.36930600  0.39102500  1
  Ni  Ni2  1  0.84623100  0.36930600  0.89102500  1
  Ni  Ni3  1  0.15376900  0.63069400  0.10897500  1
  Ni  Ni4  1  0.13690300  0.82894200  0.92591900  1
  Ni  Ni5  1  0.86309700  0.17105800  0.07408100  1
  Ni  Ni6  1  0.63690300  0.17105800  0.57408100  1
  Ni  Ni7  1  0.36309700  0.82894200  0.42591900  1
  Ni  Ni8  1  0.19311100  0.58796200  0.85895900  1
  Ni  Ni9  1  0.80688900  0.41203800  0.14104100  1
  Ni  Ni10  1  0.69311100  0.41203800  0.64104100  1
  Ni  Ni11  1  0.30688900  0.58796200  0.35895900  1
  Ni  Ni12  1  0.46248500  0.69293300  0.65071700  1
  Ni  Ni13  1  0.53751500  0.30706700  0.34928300  1
  Ni  Ni14  1  0.96248500  0.30706700  0.84928300  1
  Ni  Ni15  1  0.03751500  0.69293300  0.15071700  1
  Ni  Ni16  1  0.07801000  0.65263800  0.90072600  1
  Ni  Ni17  1  0.92199000  0.34736200  0.09927400  1
  Ni  Ni18  1  0.57801000  0.34736200  0.59927400  1
  Ni  Ni19  1  0.42199000  0.65263800  0.40072600  1
  Ni  Ni20  1  0.40382100  0.45766800  0.58361400  1
  Ni  Ni21  1  0.59617900  0.54233200  0.41638600  1
  Ni  Ni22  1  0.90382100  0.54233200  0.91638600  1
  Ni  Ni23  1  0.09617900  0.45766800  0.08361400  1
  Ni  Ni24  1  0.13700100  0.41549900  0.83307300  1
  Ni  Ni25  1  0.86299900  0.58450100  0.16692700  1
  Ni  Ni26  1  0.63700100  0.58450100  0.66692700  1
  Ni  Ni27  1  0.36299900  0.41549900  0.33307300  1
  Ni  Ni28  1  0.25466800  0.35343900  0.79067200  1
  Ni  Ni29  1  0.74533200  0.64656100  0.20932800  1
  Ni  Ni30  1  0.75466800  0.64656100  0.70932800  1
  Ni  Ni31  1  0.24533200  0.35343900  0.29067200  1
  Cu  Cu32  1  0.85414200  0.69313900  0.74393600  1
  Cu  Cu33  1  0.14585800  0.30686100  0.25606400  1
  Cu  Cu34  1  0.35414200  0.30686100  0.75606400  1
  Cu  Cu35  1  0.64585800  0.69313900  0.24393600  1
  Cu  Cu36  1  0.19059400  0.97511800  0.94489500  1
  Cu  Cu37  1  0.80940600  0.02488200  0.05510500  1
  Cu  Cu38  1  0.69059400  0.02488200  0.55510500  1
  Cu  Cu39  1  0.30940600  0.97511800  0.44489500  1
  C  C40  1  0.40100900  0.72204900  0.83885300  1
  C  C41  1  0.59899100  0.27795100  0.16114700  1
  C  C42  1  0.90100900  0.27795100  0.66114700  1
  C  C43  1  0.09899100  0.72204900  0.33885300  1
  C  C44  1  0.26178300  0.37648700  0.53387300  1
  C  C45  1  0.73821700  0.62351300  0.46612700  1
  C  C46  1  0.76178300  0.62351300  0.96612700  1
  C  C47  1  0.23821700  0.37648700  0.03387300  1
  C  C48  1  0.13675800  0.76318900  0.58930000  1
  C  C49  1  0.86324200  0.23681100  0.41070000  1
  C  C50  1  0.63675800  0.23681100  0.91070000  1
  C  C51  1  0.36324200  0.76318900  0.08930000  1
  C  C52  1  0.39301400  0.89926500  0.68283100  1
  C  C53  1  0.60698600  0.10073500  0.31716900  1
  C  C54  1  0.89301400  0.10073500  0.81716900  1
  C  C55  1  0.10698600  0.89926500  0.18283100  1
