# generated using pymatgen
data_CuNiC16
_symmetry_space_group_name_H-M   'P 1'
_cell_length_a   10.75828900
_cell_length_b   6.51812600
_cell_length_c   12.10979197
_cell_angle_alpha   67.49739205
_cell_angle_beta   90.00000000
_cell_angle_gamma   90.00000000
_symmetry_Int_Tables_number   1
_chemical_formula_structural   CuNiC16
_chemical_formula_sum   'Cu4 Ni4 C64'
_cell_volume   784.53043826
_cell_formula_units_Z   4
loop_
 _symmetry_equiv_pos_site_id
 _symmetry_equiv_pos_as_xyz
  1  'x, y, z'
loop_
 _atom_site_type_symbol
 _atom_site_label
 _atom_site_symmetry_multiplicity
 _atom_site_fract_x
 _atom_site_fract_y
 _atom_site_fract_z
 _atom_site_occupancy
  C  C0  1  0.24950700  0.49898700  0.50076900  1
  C  C1  1  0.75049300  0.49898700  0.00076900  1
  C  C2  1  0.19212000  0.09288500  0.09986000  1
  C  C3  1  0.69487500  0.85072600  0.44754000  1
  C  C4  1  0.30512500  0.85072600  0.94754000  1
  C  C5  1  0.80788000  0.09288500  0.59986000  1
  C  C6  1  0.40601800  0.80937400  0.40237700  1
  C  C7  1  0.90855900  0.18429700  0.09613500  1
  C  C8  1  0.09144100  0.18429700  0.59613500  1
  C  C9  1  0.59398200  0.80937400  0.90237700  1
  C  C10  1  0.35697700  0.02536800  0.09778300  1
  C  C11  1  0.86154300  0.93050200  0.45285200  1
  C  C12  1  0.13845700  0.93050200  0.95285200  1
  C  C13  1  0.64302300  0.02536800  0.59778300  1
  C  C14  1  0.26952200  0.92607000  0.38005700  1
  C  C15  1  0.76969900  0.07448000  0.12434400  1
  C  C16  1  0.23030100  0.07448000  0.62434400  1
  C  C17  1  0.73047800  0.92607000  0.88005700  1
  C  C18  1  0.39725500  0.48871100  0.32960000  1
  C  C19  1  0.89426300  0.50620900  0.17329600  1
  C  C20  1  0.10573700  0.50620900  0.67329600  1
  C  C21  1  0.60274500  0.48871100  0.82960000  1
  C  C22  1  0.07048600  0.50807500  0.35530600  1
  C  C23  1  0.57063600  0.48404500  0.14668900  1
  C  C24  1  0.42936400  0.48404500  0.64668900  1
  C  C25  1  0.92951400  0.50807500  0.85530600  1
  C  C26  1  0.06311000  0.73314800  0.38710900  1
  C  C27  1  0.55947100  0.26584300  0.10984600  1
  C  C28  1  0.44052900  0.26584300  0.60984600  1
  C  C29  1  0.93689000  0.73314800  0.88710900  1
  C  C30  1  0.27940400  0.32311800  0.34381700  1
  C  C31  1  0.77684700  0.67427200  0.15755200  1
  C  C32  1  0.22315300  0.67427200  0.65755200  1
  C  C33  1  0.72059600  0.32311800  0.84381700  1
  Ni  Ni34  1  0.23734800  0.96218600  0.96412900  1
  Ni  Ni35  1  0.72851000  0.19438700  0.42515000  1
  Ni  Ni36  1  0.27149000  0.19438700  0.92515000  1
  Ni  Ni37  1  0.76265200  0.96218600  0.46412900  1
  Cu  Cu38  1  0.56316300  0.82314500  0.23454200  1
  Cu  Cu39  1  0.07374700  0.17013600  0.26415600  1
  Cu  Cu40  1  0.92625300  0.17013600  0.76415600  1
  Cu  Cu41  1  0.43683700  0.82314500  0.73454200  1
  C  C42  1  0.26771800  0.05439900  0.05433500  1
  C  C43  1  0.73228200  0.05439900  0.55433500  1
  C  C44  1  0.31641900  0.79008700  0.43124600  1
  C  C45  1  0.81864800  0.20700900  0.07189700  1
  C  C46  1  0.18135200  0.20700900  0.57189700  1
  C  C47  1  0.68358100  0.79008700  0.93124600  1
  C  C48  1  0.09965800  0.57891200  0.41054700  1
  C  C49  1  0.60135900  0.41297400  0.09162700  1
  C  C50  1  0.39864100  0.41297400  0.59162700  1
  C  C51  1  0.90034200  0.57891200  0.91054700  1
  C  C52  1  0.32610600  0.41156400  0.38250000  1
  C  C53  1  0.82605400  0.58958500  0.11871600  1
  C  C54  1  0.17394600  0.58958500  0.61871600  1
  C  C55  1  0.67389400  0.41156400  0.88250000  1
  C  C56  1  0.54153100  0.83148700  0.35363700  1
  C  C57  1  0.05569400  0.15651200  0.14415800  1
  C  C58  1  0.94430600  0.15651200  0.64415800  1
  C  C59  1  0.45846900  0.83148700  0.85363700  1
  C  C60  1  0.51283200  0.61170700  0.23175200  1
  C  C61  1  0.01844300  0.38058900  0.26326500  1
  C  C62  1  0.98155700  0.38058900  0.76326500  1
  C  C63  1  0.48716800  0.61170700  0.73175200  1
  C  C64  1  0.69931100  0.84084400  0.20807800  1
  C  C65  1  0.21123800  0.16725500  0.28613000  1
  C  C66  1  0.78876200  0.16725500  0.78613000  1
  C  C67  1  0.30068900  0.84084400  0.70807800  1
  C  C68  1  0.49857800  0.01652900  0.13996100  1
  C  C69  1  0.01520400  0.97578500  0.35864200  1
  C  C70  1  0.98479600  0.97578500  0.85864200  1
  C  C71  1  0.50142200  0.01652900  0.63996100  1
