# generated using pymatgen
data_Cu(NiC6)2
_symmetry_space_group_name_H-M   'P 1'
_cell_length_a   5.53706576
_cell_length_b   5.53706576
_cell_length_c   13.57005070
_cell_angle_alpha   89.45708390
_cell_angle_beta   89.45708390
_cell_angle_gamma   59.92858775
_symmetry_Int_Tables_number   1
_chemical_formula_structural   Cu(NiC6)2
_chemical_formula_sum   'Cu2 Ni4 C24'
_cell_volume   360.02488415
_cell_formula_units_Z   2
loop_
 _symmetry_equiv_pos_site_id
 _symmetry_equiv_pos_as_xyz
  1  'x, y, z'
loop_
 _atom_site_type_symbol
 _atom_site_label
 _atom_site_symmetry_multiplicity
 _atom_site_fract_x
 _atom_site_fract_y
 _atom_site_fract_z
 _atom_site_occupancy
  Ni  Ni0  1  0.83242300  0.83242300  0.08397400  1
  Ni  Ni1  1  0.16521400  0.16521400  0.41724100  1
  Ni  Ni2  1  0.16757700  0.16757700  0.91602600  1
  Ni  Ni3  1  0.83478600  0.83478600  0.58275900  1
  Cu  Cu4  1  0.50756600  0.50756600  0.75047600  1
  Cu  Cu5  1  0.49243400  0.49243400  0.24952400  1
  C  C6  1  0.16651200  0.16651200  0.16601900  1
  C  C7  1  0.50000000  0.50000000  0.50000000  1
  C  C8  1  0.83348800  0.83348800  0.83398100  1
  C  C9  1  0.50000000  0.50000000  0.00000000  1
  C  C10  1  0.83329800  0.83329800  0.33448500  1
  C  C11  1  0.16670200  0.16670200  0.66551500  1
  C  C12  1  0.32429000  0.81011500  0.09578800  1
  C  C13  1  0.65071000  0.15734200  0.42116000  1
  C  C14  1  0.97470300  0.48461700  0.75653500  1
  C  C15  1  0.18988500  0.67571000  0.90421200  1
  C  C16  1  0.51538300  0.02529700  0.24346500  1
  C  C17  1  0.84265800  0.34929000  0.57884000  1
  C  C18  1  0.81011500  0.32429000  0.09578800  1
  C  C19  1  0.15734200  0.65071000  0.42116000  1
  C  C20  1  0.48461700  0.97470300  0.75653500  1
  C  C21  1  0.67571000  0.18988500  0.90421200  1
  C  C22  1  0.02529700  0.51538300  0.24346500  1
  C  C23  1  0.34929000  0.84265800  0.57884000  1
  C  C24  1  0.67904800  0.67904800  0.92865100  1
  C  C25  1  0.01437800  0.01437800  0.26321500  1
  C  C26  1  0.35189000  0.35189000  0.60326400  1
  C  C27  1  0.32095200  0.32095200  0.07134900  1
  C  C28  1  0.64811000  0.64811000  0.39673600  1
  C  C29  1  0.98562200  0.98562200  0.73678500  1
