# generated using pymatgen
data_Cu9NiC2
_symmetry_space_group_name_H-M   'P 1'
_cell_length_a   6.63803000
_cell_length_b   6.93784600
_cell_length_c   15.98125500
_cell_angle_alpha   90.00000000
_cell_angle_beta   90.00000000
_cell_angle_gamma   90.00000000
_symmetry_Int_Tables_number   1
_chemical_formula_structural   Cu9NiC2
_chemical_formula_sum   'Cu36 Ni4 C8'
_cell_volume   735.99480284
_cell_formula_units_Z   4
loop_
 _symmetry_equiv_pos_site_id
 _symmetry_equiv_pos_as_xyz
  1  'x, y, z'
loop_
 _atom_site_type_symbol
 _atom_site_label
 _atom_site_symmetry_multiplicity
 _atom_site_fract_x
 _atom_site_fract_y
 _atom_site_fract_z
 _atom_site_occupancy
  C  C0  1  0.69436600  0.75000000  0.39748000  1
  C  C1  1  0.80563400  0.75000000  0.89748000  1
  C  C2  1  0.30563400  0.25000000  0.60252000  1
  C  C3  1  0.19436700  0.25000000  0.10252000  1
  C  C4  1  0.97179300  0.75000000  0.15502500  1
  C  C5  1  0.52820700  0.75000000  0.65502500  1
  C  C6  1  0.02820700  0.25000000  0.84497500  1
  C  C7  1  0.47179300  0.25000000  0.34497500  1
  Ni  Ni8  1  0.06493200  0.75000000  0.56597900  1
  Ni  Ni9  1  0.43506800  0.75000000  0.06597900  1
  Ni  Ni10  1  0.93506800  0.25000000  0.43402100  1
  Ni  Ni11  1  0.56493200  0.25000000  0.93402100  1
  Cu  Cu12  1  0.58002900  0.75000000  0.50268300  1
  Cu  Cu13  1  0.91997100  0.75000000  0.00268300  1
  Cu  Cu14  1  0.41997100  0.25000000  0.49731700  1
  Cu  Cu15  1  0.08002900  0.25000000  0.99731700  1
  Cu  Cu16  1  0.80195500  0.75000000  0.29225000  1
  Cu  Cu17  1  0.69804500  0.75000000  0.79225000  1
  Cu  Cu18  1  0.19804500  0.25000000  0.70775000  1
  Cu  Cu19  1  0.30195500  0.25000000  0.20775000  1
  Cu  Cu20  1  0.95179400  0.47964700  0.14955800  1
  Cu  Cu21  1  0.54820600  0.02035300  0.64955800  1
  Cu  Cu22  1  0.04820600  0.97964700  0.85044200  1
  Cu  Cu23  1  0.45179400  0.52035300  0.35044200  1
  Cu  Cu24  1  0.04820600  0.52035300  0.85044200  1
  Cu  Cu25  1  0.45179400  0.97964700  0.35044200  1
  Cu  Cu26  1  0.95179400  0.02035300  0.14955800  1
  Cu  Cu27  1  0.54820600  0.47964700  0.64955800  1
  Cu  Cu28  1  0.00440700  0.75000000  0.47710700  1
  Cu  Cu29  1  0.49559300  0.75000000  0.97710700  1
  Cu  Cu30  1  0.99559300  0.25000000  0.52289300  1
  Cu  Cu31  1  0.50440700  0.25000000  0.02289300  1
  Cu  Cu32  1  0.19889900  0.58085000  0.58282800  1
  Cu  Cu33  1  0.30110100  0.91915000  0.08282800  1
  Cu  Cu34  1  0.80110100  0.08085000  0.41717200  1
  Cu  Cu35  1  0.69889900  0.41915000  0.91717200  1
  Cu  Cu36  1  0.80110100  0.41915000  0.41717200  1
  Cu  Cu37  1  0.69889900  0.08085000  0.91717200  1
  Cu  Cu38  1  0.19889900  0.91915000  0.58282800  1
  Cu  Cu39  1  0.30110100  0.58085000  0.08282800  1
  Cu  Cu40  1  0.89061100  0.75000000  0.62293300  1
  Cu  Cu41  1  0.60938900  0.75000000  0.12293300  1
  Cu  Cu42  1  0.10938900  0.25000000  0.37706700  1
  Cu  Cu43  1  0.39061100  0.25000000  0.87706700  1
  Cu  Cu44  1  0.17320200  0.75000000  0.23407800  1
  Cu  Cu45  1  0.32679800  0.75000000  0.73407800  1
  Cu  Cu46  1  0.82679800  0.25000000  0.76592200  1
  Cu  Cu47  1  0.67320200  0.25000000  0.26592200  1
