# generated using pymatgen
data_Cu3Ni13C9
_symmetry_space_group_name_H-M   'P 1'
_cell_length_a   7.17334717
_cell_length_b   5.84634463
_cell_length_c   6.85143308
_cell_angle_alpha   87.32348366
_cell_angle_beta   95.00904363
_cell_angle_gamma   80.31627749
_symmetry_Int_Tables_number   1
_chemical_formula_structural   Cu3Ni13C9
_chemical_formula_sum   'Cu3 Ni13 C9'
_cell_volume   281.60677600
_cell_formula_units_Z   1
loop_
 _symmetry_equiv_pos_site_id
 _symmetry_equiv_pos_as_xyz
  1  'x, y, z'
loop_
 _atom_site_type_symbol
 _atom_site_label
 _atom_site_symmetry_multiplicity
 _atom_site_fract_x
 _atom_site_fract_y
 _atom_site_fract_z
 _atom_site_occupancy
  C  C0  1  0.73689000  0.71204000  0.07052000  1
  C  C1  1  0.35229300  0.33068600  0.11936300  1
  C  C2  1  0.16274200  0.73503700  0.37463500  1
  C  C3  1  0.88275400  0.17284500  0.12649200  1
  C  C4  1  0.37153500  0.11131500  0.65746800  1
  C  C5  1  0.15191000  0.85758900  0.87869600  1
  C  C6  1  0.65595600  0.93453200  0.42775200  1
  C  C7  1  0.53161300  0.51422000  0.72223300  1
  C  C8  1  0.93564700  0.41447900  0.65613300  1
  Ni  Ni9  1  0.15919500  0.09128500  0.08618100  1
  Ni  Ni10  1  0.15133800  0.62473400  0.08900700  1
  Ni  Ni11  1  0.50705500  0.53866500  0.16350500  1
  Ni  Ni12  1  0.11904400  0.66082200  0.64806300  1
  Ni  Ni13  1  0.39580300  0.89253900  0.45944000  1
  Ni  Ni14  1  0.10833400  0.11387800  0.67598100  1
  Ni  Ni15  1  0.59150300  0.09911200  0.17158000  1
  Ni  Ni16  1  0.41963500  0.81577600  0.85103700  1
  Ni  Ni17  1  0.60569800  0.20901900  0.60633400  1
  Ni  Ni18  1  0.90365800  0.90572100  0.31689400  1
  Ni  Ni19  1  0.36504600  0.34346000  0.84825800  1
  Ni  Ni20  1  0.71977000  0.66248200  0.60853200  1
  Ni  Ni21  1  0.81976900  0.39334800  0.90731600  1
  Cu  Cu22  1  0.28252600  0.36879800  0.39463200  1
  Cu  Cu23  1  0.89951500  0.41274400  0.34421000  1
  Cu  Cu24  1  0.88077100  0.93010900  0.88573500  1
