# generated using pymatgen
data_Cu2NiC6
_symmetry_space_group_name_H-M   'P 1'
_cell_length_a   6.45918600
_cell_length_b   7.47057960
_cell_length_c   7.59838038
_cell_angle_alpha   116.14758586
_cell_angle_beta   97.46012070
_cell_angle_gamma   103.07832549
_symmetry_Int_Tables_number   1
_chemical_formula_structural   Cu2NiC6
_chemical_formula_sum   'Cu4 Ni2 C12'
_cell_volume   309.34611573
_cell_formula_units_Z   2
loop_
 _symmetry_equiv_pos_site_id
 _symmetry_equiv_pos_as_xyz
  1  'x, y, z'
loop_
 _atom_site_type_symbol
 _atom_site_label
 _atom_site_symmetry_multiplicity
 _atom_site_fract_x
 _atom_site_fract_y
 _atom_site_fract_z
 _atom_site_occupancy
  C  C0  1  0.66780600  0.15150100  0.72189800  1
  C  C1  1  0.33219400  0.84849900  0.27810200  1
  C  C2  1  0.03916300  0.71454800  0.74994200  1
  C  C3  1  0.96083700  0.28545200  0.25005800  1
  Ni  Ni4  1  0.18758900  0.50132300  0.79163300  1
  Ni  Ni5  1  0.81241100  0.49867700  0.20836700  1
  Cu  Cu6  1  0.15648200  0.84852900  0.82711200  1
  Cu  Cu7  1  0.84351800  0.15147100  0.17288800  1
  Cu  Cu8  1  0.81848000  0.73332500  0.64059600  1
  Cu  Cu9  1  0.18152000  0.26667500  0.35940400  1
  C  C10  1  0.28207700  0.10903000  0.41842700  1
  C  C11  1  0.27859600  0.41038100  0.40340800  1
  C  C12  1  0.64022700  0.17857400  0.08452300  1
  C  C13  1  0.35977300  0.82142600  0.91547700  1
  C  C14  1  0.71792300  0.89097000  0.58157300  1
  C  C15  1  0.06488800  0.98817900  0.81657000  1
  C  C16  1  0.72140400  0.58961900  0.59659200  1
  C  C17  1  0.93511200  0.01182100  0.18343000  1
