# generated using pymatgen
data_Cu4NiC16
_symmetry_space_group_name_H-M   'P 1'
_cell_length_a   7.62706301
_cell_length_b   7.62706301
_cell_length_c   7.62706322
_cell_angle_alpha   60.09613214
_cell_angle_beta   60.09613214
_cell_angle_gamma   60.09612579
_symmetry_Int_Tables_number   1
_chemical_formula_structural   Cu4NiC16
_chemical_formula_sum   'Cu4 Ni1 C16'
_cell_volume   314.41406230
_cell_formula_units_Z   1
loop_
 _symmetry_equiv_pos_site_id
 _symmetry_equiv_pos_as_xyz
  1  'x, y, z'
loop_
 _atom_site_type_symbol
 _atom_site_label
 _atom_site_symmetry_multiplicity
 _atom_site_fract_x
 _atom_site_fract_y
 _atom_site_fract_z
 _atom_site_occupancy
  C  C0  1  0.99895500  0.50062000  0.50062000  1
  C  C1  1  0.50062000  0.50062000  0.99895500  1
  C  C2  1  0.50062000  0.99895500  0.50062000  1
  Ni  Ni3  1  0.50035000  0.50035000  0.50035000  1
  Cu  Cu4  1  0.50017800  0.00075200  0.00075200  1
  Cu  Cu5  1  0.00075200  0.00075200  0.50017800  1
  Cu  Cu6  1  0.00075200  0.50017800  0.00075200  1
  Cu  Cu7  1  0.99943100  0.99943100  0.99943100  1
  C  C8  1  0.17185400  0.56889800  0.17185400  1
  C  C9  1  0.56624100  0.19674800  0.56624100  1
  C  C10  1  0.17185400  0.17185400  0.56889800  1
  C  C11  1  0.56624100  0.56624100  0.19674800  1
  C  C12  1  0.56889800  0.17185400  0.17185400  1
  C  C13  1  0.19674800  0.56624100  0.56624100  1
  C  C14  1  0.82462900  0.43628400  0.82462900  1
  C  C15  1  0.43576600  0.80241300  0.43576600  1
  C  C16  1  0.82462900  0.82462900  0.43628400  1
  C  C17  1  0.43576600  0.43576600  0.80241300  1
  C  C18  1  0.43628400  0.82462900  0.82462900  1
  C  C19  1  0.80241300  0.43576600  0.43576600  1
  C  C20  1  0.87201600  0.87201600  0.87201600  1
