# generated using pymatgen
data_Cu2NiC4
_symmetry_space_group_name_H-M   'P 1'
_cell_length_a   3.38504100
_cell_length_b   9.98920200
_cell_length_c   11.86974600
_cell_angle_alpha   90.00000000
_cell_angle_beta   90.00000000
_cell_angle_gamma   90.00000000
_symmetry_Int_Tables_number   1
_chemical_formula_structural   Cu2NiC4
_chemical_formula_sum   'Cu8 Ni4 C16'
_cell_volume   401.36190962
_cell_formula_units_Z   4
loop_
 _symmetry_equiv_pos_site_id
 _symmetry_equiv_pos_as_xyz
  1  'x, y, z'
loop_
 _atom_site_type_symbol
 _atom_site_label
 _atom_site_symmetry_multiplicity
 _atom_site_fract_x
 _atom_site_fract_y
 _atom_site_fract_z
 _atom_site_occupancy
  Ni  Ni0  1  0.25000000  0.74805100  0.14915700  1
  Ni  Ni1  1  0.75000000  0.25194900  0.85084300  1
  Ni  Ni2  1  0.75000000  0.75194900  0.64915700  1
  Ni  Ni3  1  0.25000000  0.24805100  0.35084300  1
  Cu  Cu4  1  0.25000000  0.57643400  0.88946400  1
  Cu  Cu5  1  0.75000000  0.42356600  0.11053600  1
  Cu  Cu6  1  0.75000000  0.92356600  0.38946400  1
  Cu  Cu7  1  0.25000000  0.07643400  0.61053600  1
  Cu  Cu8  1  0.25000000  0.07778000  0.11197700  1
  Cu  Cu9  1  0.75000000  0.92222000  0.88802300  1
  Cu  Cu10  1  0.75000000  0.42222000  0.61197700  1
  Cu  Cu11  1  0.25000000  0.57778000  0.38802300  1
  C  C12  1  0.25000000  0.57620700  0.57789000  1
  C  C13  1  0.75000000  0.42379300  0.42211000  1
  C  C14  1  0.75000000  0.92379300  0.07789000  1
  C  C15  1  0.25000000  0.07620700  0.92211000  1
  C  C16  1  0.25000000  0.87345300  0.52043400  1
  C  C17  1  0.75000000  0.12654700  0.47956600  1
  C  C18  1  0.75000000  0.62654700  0.02043400  1
  C  C19  1  0.25000000  0.37345300  0.97956600  1
  C  C20  1  0.25000000  0.78790600  0.82546600  1
  C  C21  1  0.75000000  0.21209400  0.17453400  1
  C  C22  1  0.75000000  0.71209400  0.32546600  1
  C  C23  1  0.25000000  0.28790600  0.67453400  1
  C  C24  1  0.25000000  0.98580100  0.28373100  1
  C  C25  1  0.75000000  0.01419900  0.71626900  1
  C  C26  1  0.75000000  0.51419900  0.78373100  1
  C  C27  1  0.25000000  0.48580100  0.21626900  1
