# generated using pymatgen
data_Cu9NiC21
_symmetry_space_group_name_H-M   'P 1'
_cell_length_a   7.99599394
_cell_length_b   19.94248249
_cell_length_c   10.55115315
_cell_angle_alpha   19.19743250
_cell_angle_beta   55.51999081
_cell_angle_gamma   60.19284906
_symmetry_Int_Tables_number   1
_chemical_formula_structural   Cu9NiC21
_chemical_formula_sum   'Cu9 Ni1 C21'
_cell_volume   451.65250735
_cell_formula_units_Z   1
loop_
 _symmetry_equiv_pos_site_id
 _symmetry_equiv_pos_as_xyz
  1  'x, y, z'
loop_
 _atom_site_type_symbol
 _atom_site_label
 _atom_site_symmetry_multiplicity
 _atom_site_fract_x
 _atom_site_fract_y
 _atom_site_fract_z
 _atom_site_occupancy
  Ni  Ni0  1  0.03581966  0.95327599  0.07508155  1
  Cu  Cu1  1  0.99555527  0.20768600  0.98256156  1
  Cu  Cu2  1  0.49268850  0.99808363  0.00329567  1
  Cu  Cu3  1  0.99888892  0.40399768  0.98392953  1
  Cu  Cu4  1  0.48670195  0.20113030  0.00760583  1
  Cu  Cu5  1  0.00410426  0.61424368  0.97956915  1
  Cu  Cu6  1  0.48941753  0.39984388  0.00467726  1
  Cu  Cu7  1  0.99598452  0.80548518  0.99356283  1
  Cu  Cu8  1  0.50598796  0.60103694  0.99609371  1
  Cu  Cu9  1  0.50238990  0.80248509  0.99280612  1
  C  C10  1  0.80645777  0.23916696  0.60161608  1
  C  C11  1  0.11878969  0.15373615  0.24643181  1
  C  C12  1  0.11381214  0.34619421  0.26332075  1
  C  C13  1  0.62000990  0.15352195  0.24476600  1
  C  C14  1  0.37685094  0.04311308  0.76071504  1
  C  C15  1  0.12214415  0.55902771  0.23478125  1
  C  C16  1  0.61744196  0.35355490  0.23746575  1
  C  C17  1  0.35705668  0.25438961  0.74873811  1
  C  C18  1  0.12880689  0.74545702  0.25322811  1
  C  C19  1  0.87196684  0.05629798  0.74506942  1
  C  C20  1  0.12529932  0.94825315  0.25302391  1
  C  C21  1  0.62144829  0.56274121  0.23263737  1
  C  C22  1  0.36907467  0.45041258  0.75233269  1
  C  C23  1  0.86983028  0.25577259  0.73734502  1
  C  C24  1  0.37222227  0.65433543  0.74380729  1
  C  C25  1  0.62286538  0.75051992  0.25036942  1
  C  C26  1  0.62958468  0.96283275  0.22352819  1
  C  C27  1  0.87301595  0.45422803  0.73917604  1
  C  C28  1  0.37197937  0.85602730  0.73886015  1
  C  C29  1  0.87831779  0.65062226  0.74529597  1
  C  C30  1  0.87548658  0.85919384  0.73455842  1
