# generated using pymatgen
data_Cu2Ni4C15
_symmetry_space_group_name_H-M   'P 1'
_cell_length_a   21.69838401
_cell_length_b   21.69838401
_cell_length_c   21.69838401
_cell_angle_alpha   169.67797475
_cell_angle_beta   169.67797475
_cell_angle_gamma   14.61742564
_symmetry_Int_Tables_number   1
_chemical_formula_structural   Cu2Ni4C15
_chemical_formula_sum   'Cu2 Ni4 C15'
_cell_volume   327.98110304
_cell_formula_units_Z   1
loop_
 _symmetry_equiv_pos_site_id
 _symmetry_equiv_pos_as_xyz
  1  'x, y, z'
loop_
 _atom_site_type_symbol
 _atom_site_label
 _atom_site_symmetry_multiplicity
 _atom_site_fract_x
 _atom_site_fract_y
 _atom_site_fract_z
 _atom_site_occupancy
  Ni  Ni0  1  0.46315400  0.46315400  0.00000000  1
  Ni  Ni1  1  0.53684600  0.53684600  0.00000000  1
  Ni  Ni2  1  0.14375400  0.14375400  0.00000000  1
  Ni  Ni3  1  0.85624600  0.85624600  0.00000000  1
  Cu  Cu4  1  0.22188500  0.22188500  0.00000000  1
  Cu  Cu5  1  0.77811500  0.77811500  0.00000000  1
  C  C6  1  0.32005100  0.32005100  0.00000000  1
  C  C7  1  0.67994900  0.67994900  0.00000000  1
  C  C8  1  0.00000000  0.00000000  0.00000000  1
  C  C9  1  0.38468400  0.38468400  0.00000000  1
  C  C10  1  0.61531600  0.61531600  0.00000000  1
  C  C11  1  0.06453200  0.06453200  0.00000000  1
  C  C12  1  0.93546800  0.93546800  0.00000000  1
  C  C13  1  0.50000000  0.00000000  0.50000000  1
  C  C14  1  0.00000000  0.50000000  0.50000000  1
  C  C15  1  0.75000000  0.25000000  0.50000000  1
  C  C16  1  0.25000000  0.75000000  0.50000000  1
  C  C17  1  0.67903800  0.17903800  0.50000000  1
  C  C18  1  0.32096200  0.82096200  0.50000000  1
  C  C19  1  0.17903800  0.67903800  0.50000000  1
  C  C20  1  0.82096200  0.32096200  0.50000000  1
