# generated using pymatgen
data_Cu3Ni9C2
_symmetry_space_group_name_H-M   'P 1'
_cell_length_a   7.65491738
_cell_length_b   7.65491738
_cell_length_c   9.67529100
_cell_angle_alpha   90.00000000
_cell_angle_beta   90.00000000
_cell_angle_gamma   119.31289598
_symmetry_Int_Tables_number   1
_chemical_formula_structural   Cu3Ni9C2
_chemical_formula_sum   'Cu6 Ni18 C4'
_cell_volume   494.35754444
_cell_formula_units_Z   2
loop_
 _symmetry_equiv_pos_site_id
 _symmetry_equiv_pos_as_xyz
  1  'x, y, z'
loop_
 _atom_site_type_symbol
 _atom_site_label
 _atom_site_symmetry_multiplicity
 _atom_site_fract_x
 _atom_site_fract_y
 _atom_site_fract_z
 _atom_site_occupancy
  C  C0  1  0.99626900  0.66953700  0.25000000  1
  C  C1  1  0.00373100  0.33046300  0.75000000  1
  C  C2  1  0.66953700  0.99626900  0.25000000  1
  C  C3  1  0.33046300  0.00373100  0.75000000  1
  Ni  Ni4  1  0.13092000  0.13092000  0.25000000  1
  Ni  Ni5  1  0.86908000  0.86908000  0.75000000  1
  Ni  Ni6  1  0.00469300  0.33504600  0.07214500  1
  Ni  Ni7  1  0.99530700  0.66495400  0.92785500  1
  Ni  Ni8  1  0.99530700  0.66495400  0.57214500  1
  Ni  Ni9  1  0.33504600  0.00469300  0.42785500  1
  Ni  Ni10  1  0.00469300  0.33504600  0.42785500  1
  Ni  Ni11  1  0.66495400  0.99530700  0.57214500  1
  Ni  Ni12  1  0.66495400  0.99530700  0.92785500  1
  Ni  Ni13  1  0.33504600  0.00469300  0.07214500  1
  Ni  Ni14  1  0.33497200  0.33497200  0.54650500  1
  Ni  Ni15  1  0.66502800  0.66502800  0.45349500  1
  Ni  Ni16  1  0.66502800  0.66502800  0.04650500  1
  Ni  Ni17  1  0.33497200  0.33497200  0.95349500  1
  Ni  Ni18  1  0.33816200  0.54359500  0.25000000  1
  Ni  Ni19  1  0.66183800  0.45640500  0.75000000  1
  Ni  Ni20  1  0.54359500  0.33816200  0.25000000  1
  Ni  Ni21  1  0.45640500  0.66183800  0.75000000  1
  Cu  Cu22  1  0.67052800  0.32947200  0.00000000  1
  Cu  Cu23  1  0.32947200  0.67052800  0.00000000  1
  Cu  Cu24  1  0.32947200  0.67052800  0.50000000  1
  Cu  Cu25  1  0.67052800  0.32947200  0.50000000  1
  Cu  Cu26  1  0.00000000  0.00000000  0.00000000  1
  Cu  Cu27  1  0.00000000  0.00000000  0.50000000  1
