# generated using pymatgen
data_CuNiC6
_symmetry_space_group_name_H-M   'P 1'
_cell_length_a   6.48376919
_cell_length_b   6.43045419
_cell_length_c   24.14050000
_cell_angle_alpha   90.00000000
_cell_angle_beta   90.00000000
_cell_angle_gamma   113.59350235
_symmetry_Int_Tables_number   1
_chemical_formula_structural   CuNiC6
_chemical_formula_sum   'Cu8 Ni8 C48'
_cell_volume   922.36833965
_cell_formula_units_Z   8
loop_
 _symmetry_equiv_pos_site_id
 _symmetry_equiv_pos_as_xyz
  1  'x, y, z'
loop_
 _atom_site_type_symbol
 _atom_site_label
 _atom_site_symmetry_multiplicity
 _atom_site_fract_x
 _atom_site_fract_y
 _atom_site_fract_z
 _atom_site_occupancy
  C  C0  1  0.83332500  0.53309500  0.70060500  1
  C  C1  1  0.16667500  0.96690500  0.20060500  1
  C  C2  1  0.16667500  0.46690500  0.29939500  1
  C  C3  1  0.83332500  0.03309500  0.79939500  1
  C  C4  1  0.74364800  0.45935000  0.54976100  1
  C  C5  1  0.25635200  0.04065000  0.04976100  1
  C  C6  1  0.25635200  0.54065000  0.45023900  1
  C  C7  1  0.74364800  0.95935000  0.95023900  1
  Ni  Ni8  1  0.34255200  0.46307200  0.74980500  1
  Ni  Ni9  1  0.65744800  0.03692800  0.24980500  1
  Ni  Ni10  1  0.65744800  0.53692800  0.25019500  1
  Ni  Ni11  1  0.34255200  0.96307200  0.75019500  1
  Ni  Ni12  1  0.77956600  0.94848700  0.49779900  1
  Ni  Ni13  1  0.22043400  0.55151300  0.99779900  1
  Ni  Ni14  1  0.22043400  0.05151300  0.50220100  1
  Ni  Ni15  1  0.77956600  0.44848700  0.00220100  1
  Cu  Cu16  1  0.46606200  0.81620700  0.62580700  1
  Cu  Cu17  1  0.53393800  0.68379300  0.12580700  1
  Cu  Cu18  1  0.53393800  0.18379300  0.37419300  1
  Cu  Cu19  1  0.46606200  0.31620700  0.87419300  1
  Cu  Cu20  1  0.10217100  0.18054600  0.62594000  1
  Cu  Cu21  1  0.89782900  0.31945400  0.12594000  1
  Cu  Cu22  1  0.89782900  0.81945400  0.37406000  1
  Cu  Cu23  1  0.10217100  0.68054600  0.87406000  1
  C  C24  1  0.11746300  0.54516000  0.61233400  1
  C  C25  1  0.88253700  0.95484000  0.11233400  1
  C  C26  1  0.88253700  0.45484000  0.38766600  1
  C  C27  1  0.11746300  0.04516000  0.88766600  1
  C  C28  1  0.50297500  0.76871000  0.72113000  1
  C  C29  1  0.49702500  0.73129000  0.22113000  1
  C  C30  1  0.49702500  0.23129000  0.27887000  1
  C  C31  1  0.50297500  0.26871000  0.77887000  1
  C  C32  1  0.45460300  0.45218200  0.63656500  1
  C  C33  1  0.54539700  0.04781800  0.13656500  1
  C  C34  1  0.54539700  0.54781800  0.36343500  1
  C  C35  1  0.45460300  0.95218200  0.86343500  1
  C  C36  1  0.53270600  0.75560800  0.53744900  1
  C  C37  1  0.46729400  0.74439200  0.03744900  1
  C  C38  1  0.46729400  0.24439200  0.46255100  1
  C  C39  1  0.53270600  0.25560800  0.96255100  1
  C  C40  1  0.31473000  0.03078300  0.57325100  1
  C  C41  1  0.68527000  0.46921700  0.07325100  1
  C  C42  1  0.68527000  0.96921700  0.42674900  1
  C  C43  1  0.31473000  0.53078300  0.92674900  1
  C  C44  1  0.73686000  0.16963000  0.63119800  1
  C  C45  1  0.26314000  0.33037000  0.13119800  1
  C  C46  1  0.26314000  0.83037000  0.36880200  1
  C  C47  1  0.73686000  0.66963000  0.86880200  1
  C  C48  1  0.83192200  0.82708200  0.62430200  1
  C  C49  1  0.16807800  0.67291800  0.12430200  1
  C  C50  1  0.16807800  0.17291800  0.37569800  1
  C  C51  1  0.83192200  0.32708200  0.87569800  1
  C  C52  1  0.01874700  0.18993600  0.53226500  1
  C  C53  1  0.98125300  0.31006400  0.03226500  1
  C  C54  1  0.98125300  0.81006400  0.46773500  1
  C  C55  1  0.01874700  0.68993600  0.96773500  1
  C  C56  1  0.07714200  0.27883500  0.71337400  1
  C  C57  1  0.92285800  0.22116500  0.21337400  1
  C  C58  1  0.92285800  0.72116500  0.28662600  1
  C  C59  1  0.07714200  0.77883500  0.78662600  1
  C  C60  1  0.25565400  0.97042700  0.67696500  1
  C  C61  1  0.74434600  0.52957300  0.17696500  1
  C  C62  1  0.74434600  0.02957300  0.32303500  1
  C  C63  1  0.25565400  0.47042700  0.82303500  1
