# generated using pymatgen
data_Cu20NiC17
_symmetry_space_group_name_H-M   'P 1'
_cell_length_a   8.61150774
_cell_length_b   15.11347216
_cell_length_c   15.11347216
_cell_angle_alpha   90.00000000
_cell_angle_beta   90.00000000
_cell_angle_gamma   90.00000000
_symmetry_Int_Tables_number   1
_chemical_formula_structural   Cu20NiC17
_chemical_formula_sum   'Cu80 Ni4 C68'
_cell_volume   1967.01511420
_cell_formula_units_Z   4
loop_
 _symmetry_equiv_pos_site_id
 _symmetry_equiv_pos_as_xyz
  1  'x, y, z'
loop_
 _atom_site_type_symbol
 _atom_site_label
 _atom_site_symmetry_multiplicity
 _atom_site_fract_x
 _atom_site_fract_y
 _atom_site_fract_z
 _atom_site_occupancy
  C  C0  1  0.18447168  0.62657607  0.14818629  1
  C  C1  1  0.18447168  0.87342393  0.35181371  1
  C  C2  1  0.18447168  0.14818629  0.87342393  1
  C  C3  1  0.18447168  0.35181371  0.62657607  1
  C  C4  1  0.81552832  0.37342393  0.85181371  1
  C  C5  1  0.81552832  0.12657607  0.64818629  1
  C  C6  1  0.81552832  0.85181371  0.12657607  1
  C  C7  1  0.81552832  0.64818629  0.37342393  1
  C  C8  1  0.50000000  0.75000000  0.25000000  1
  C  C9  1  0.50000000  0.25000000  0.75000000  1
  C  C10  1  0.79502755  0.60879990  0.12740371  1
  C  C11  1  0.79502755  0.89120010  0.37259629  1
  C  C12  1  0.79502755  0.12740371  0.89120010  1
  C  C13  1  0.79502755  0.37259629  0.60879990  1
  C  C14  1  0.20497245  0.39120010  0.87259629  1
  C  C15  1  0.20497245  0.10879990  0.62740371  1
  C  C16  1  0.20497245  0.87259629  0.10879990  1
  C  C17  1  0.20497245  0.62740371  0.39120010  1
  C  C18  1  0.31273719  0.62490240  0.85420047  1
  C  C19  1  0.31273719  0.87509760  0.64579953  1
  C  C20  1  0.31273719  0.85420047  0.87509760  1
  C  C21  1  0.31273719  0.64579953  0.62490240  1
  C  C22  1  0.68726281  0.37509760  0.14579953  1
  C  C23  1  0.68726281  0.12490240  0.35420047  1
  C  C24  1  0.68726281  0.14579953  0.12490240  1
  C  C25  1  0.68726281  0.35420047  0.37509760  1
  C  C26  1  0.98047938  0.75000000  0.75000000  1
  C  C27  1  0.01952062  0.25000000  0.25000000  1
  C  C28  1  0.70109921  0.61115251  0.87054264  1
  C  C29  1  0.70109921  0.88884749  0.62945736  1
  C  C30  1  0.70109921  0.87054264  0.88884749  1
  C  C31  1  0.70109921  0.62945736  0.61115251  1
  C  C32  1  0.29890079  0.38884749  0.12945736  1
  C  C33  1  0.29890079  0.11115251  0.37054264  1
  C  C34  1  0.29890079  0.12945736  0.11115251  1
  C  C35  1  0.29890079  0.37054264  0.38884749  1
  C  C36  1  0.38170243  0.56582142  0.02564983  1
  C  C37  1  0.38170243  0.93417858  0.47435017  1
  C  C38  1  0.38170243  0.02564983  0.93417858  1
  C  C39  1  0.38170243  0.47435017  0.56582142  1
  C  C40  1  0.61829757  0.43417858  0.97435017  1
  C  C41  1  0.61829757  0.06582142  0.52564983  1
  C  C42  1  0.61829757  0.97435017  0.06582142  1
  C  C43  1  0.61829757  0.52564983  0.43417858  1
  C  C44  1  0.11224958  0.56419152  0.97690231  1
  C  C45  1  0.11224958  0.93580848  0.52309769  1
  C  C46  1  0.11224958  0.97690231  0.93580848  1
  C  C47  1  0.11224958  0.52309769  0.56419152  1
  C  C48  1  0.88775042  0.43580848  0.02309769  1
  C  C49  1  0.88775042  0.06419152  0.47690231  1
  C  C50  1  0.88775042  0.02309769  0.06419152  1
  C  C51  1  0.88775042  0.47690231  0.43580848  1
  C  C52  1  0.49672804  0.73472541  0.04030576  1
  C  C53  1  0.49672804  0.76527459  0.45969424  1
  C  C54  1  0.49672804  0.04030576  0.76527459  1
  C  C55  1  0.49672804  0.45969424  0.73472541  1
  C  C56  1  0.50327196  0.26527459  0.95969424  1
  C  C57  1  0.50327196  0.23472541  0.54030576  1
  C  C58  1  0.50327196  0.95969424  0.23472541  1
  C  C59  1  0.50327196  0.54030576  0.26527459  1
  C  C60  1  0.00013230  0.73465147  0.95984803  1
  C  C61  1  0.00013230  0.76534853  0.54015197  1
  C  C62  1  0.00013230  0.95984803  0.76534853  1
  C  C63  1  0.00013230  0.54015197  0.73465147  1
  C  C64  1  0.99986770  0.26534853  0.04015197  1
  C  C65  1  0.99986770  0.23465147  0.45984803  1
  C  C66  1  0.99986770  0.04015197  0.23465147  1
  C  C67  1  0.99986770  0.45984803  0.26534853  1
  Ni  Ni68  1  -0.00000000  0.75000000  0.25000000  1
  Ni  Ni69  1  -0.00000000  0.25000000  0.75000000  1
  Ni  Ni70  1  0.50766978  0.75000000  0.75000000  1
  Ni  Ni71  1  0.49233022  0.25000000  0.25000000  1
  Cu  Cu72  1  0.29454910  0.52419665  0.04193890  1
  Cu  Cu73  1  0.29454910  0.97580335  0.45806110  1
  Cu  Cu74  1  0.29454910  0.04193890  0.97580335  1
  Cu  Cu75  1  0.29454910  0.45806110  0.52419665  1
  Cu  Cu76  1  0.70545090  0.47580335  0.95806110  1
  Cu  Cu77  1  0.70545090  0.02419665  0.54193890  1
  Cu  Cu78  1  0.70545090  0.95806110  0.02419665  1
  Cu  Cu79  1  0.70545090  0.54193890  0.47580335  1
  Cu  Cu80  1  0.20130424  0.52397885  0.96058248  1
  Cu  Cu81  1  0.20130424  0.97602115  0.53941752  1
  Cu  Cu82  1  0.20130424  0.96058248  0.97602115  1
  Cu  Cu83  1  0.20130424  0.53941752  0.52397885  1
  Cu  Cu84  1  0.79869576  0.47602115  0.03941752  1
  Cu  Cu85  1  0.79869576  0.02397885  0.46058248  1
  Cu  Cu86  1  0.79869576  0.03941752  0.02397885  1
  Cu  Cu87  1  0.79869576  0.46058248  0.47602115  1
  Cu  Cu88  1  0.49731083  0.81464589  0.98320528  1
  Cu  Cu89  1  0.49731083  0.68535411  0.51679472  1
  Cu  Cu90  1  0.49731083  0.98320528  0.68535411  1
  Cu  Cu91  1  0.49731083  0.51679472  0.81464589  1
  Cu  Cu92  1  0.50268917  0.18535411  0.01679472  1
  Cu  Cu93  1  0.50268917  0.31464589  0.48320528  1
  Cu  Cu94  1  0.50268917  0.01679472  0.31464589  1
  Cu  Cu95  1  0.50268917  0.48320528  0.18535411  1
  Cu  Cu96  1  0.63972403  0.73317222  0.09660866  1
  Cu  Cu97  1  0.63972403  0.76682778  0.40339134  1
  Cu  Cu98  1  0.63972403  0.09660866  0.76682778  1
  Cu  Cu99  1  0.63972403  0.40339134  0.73317222  1
  Cu  Cu100  1  0.36027597  0.26682778  0.90339134  1
  Cu  Cu101  1  0.36027597  0.23317222  0.59660866  1
  Cu  Cu102  1  0.36027597  0.90339134  0.23317222  1
  Cu  Cu103  1  0.36027597  0.59660866  0.26682778  1
  Cu  Cu104  1  0.49170988  0.65237124  0.98417293  1
  Cu  Cu105  1  0.49170988  0.84762876  0.51582707  1
  Cu  Cu106  1  0.49170988  0.98417293  0.84762876  1
  Cu  Cu107  1  0.49170988  0.51582707  0.65237124  1
  Cu  Cu108  1  0.50829012  0.34762876  0.01582707  1
  Cu  Cu109  1  0.50829012  0.15237124  0.48417293  1
  Cu  Cu110  1  0.50829012  0.01582707  0.15237124  1
  Cu  Cu111  1  0.50829012  0.48417293  0.34762876  1
  Cu  Cu112  1  0.35807521  0.73682957  0.10006733  1
  Cu  Cu113  1  0.35807521  0.76317043  0.39993267  1
  Cu  Cu114  1  0.35807521  0.10006733  0.76317043  1
  Cu  Cu115  1  0.35807521  0.39993267  0.73682957  1
  Cu  Cu116  1  0.64192479  0.26317043  0.89993267  1
  Cu  Cu117  1  0.64192479  0.23682957  0.60006733  1
  Cu  Cu118  1  0.64192479  0.89993267  0.23682957  1
  Cu  Cu119  1  0.64192479  0.60006733  0.26317043  1
  Cu  Cu120  1  0.00030138  0.81442796  0.01728801  1
  Cu  Cu121  1  0.00030138  0.68557204  0.48271199  1
  Cu  Cu122  1  0.00030138  0.01728801  0.68557204  1
  Cu  Cu123  1  0.00030138  0.48271199  0.81442796  1
  Cu  Cu124  1  0.99969862  0.18557204  0.98271199  1
  Cu  Cu125  1  0.99969862  0.31442796  0.51728801  1
  Cu  Cu126  1  0.99969862  0.98271199  0.31442796  1
  Cu  Cu127  1  0.99969862  0.51728801  0.18557204  1
  Cu  Cu128  1  0.85786920  0.73518414  0.90278990  1
  Cu  Cu129  1  0.85786920  0.76481586  0.59721010  1
  Cu  Cu130  1  0.85786920  0.90278990  0.76481586  1
  Cu  Cu131  1  0.85786920  0.59721010  0.73518414  1
  Cu  Cu132  1  0.14213080  0.26481586  0.09721010  1
  Cu  Cu133  1  0.14213080  0.23518414  0.40278990  1
  Cu  Cu134  1  0.14213080  0.09721010  0.23518414  1
  Cu  Cu135  1  0.14213080  0.40278990  0.26481586  1
  Cu  Cu136  1  0.00152697  0.65213750  0.01583072  1
  Cu  Cu137  1  0.00152697  0.84786250  0.48416928  1
  Cu  Cu138  1  0.00152697  0.01583072  0.84786250  1
  Cu  Cu139  1  0.00152697  0.48416928  0.65213750  1
  Cu  Cu140  1  0.99847303  0.34786250  0.98416928  1
  Cu  Cu141  1  0.99847303  0.15213750  0.51583072  1
  Cu  Cu142  1  0.99847303  0.98416928  0.15213750  1
  Cu  Cu143  1  0.99847303  0.51583072  0.34786250  1
  Cu  Cu144  1  0.13954318  0.73520289  0.90089330  1
  Cu  Cu145  1  0.13954318  0.76479711  0.59910670  1
  Cu  Cu146  1  0.13954318  0.90089330  0.76479711  1
  Cu  Cu147  1  0.13954318  0.59910670  0.73520289  1
  Cu  Cu148  1  0.86045682  0.26479711  0.09910670  1
  Cu  Cu149  1  0.86045682  0.23520289  0.40089330  1
  Cu  Cu150  1  0.86045682  0.09910670  0.23520289  1
  Cu  Cu151  1  0.86045682  0.40089330  0.26479711  1
