# generated using pymatgen
data_CuNiC11
_symmetry_space_group_name_H-M   'P 1'
_cell_length_a   8.24995500
_cell_length_b   10.30221900
_cell_length_c   15.88693000
_cell_angle_alpha   90.00000000
_cell_angle_beta   90.00000000
_cell_angle_gamma   90.00000000
_symmetry_Int_Tables_number   1
_chemical_formula_structural   CuNiC11
_chemical_formula_sum   'Cu8 Ni8 C88'
_cell_volume   1350.27534963
_cell_formula_units_Z   8
loop_
 _symmetry_equiv_pos_site_id
 _symmetry_equiv_pos_as_xyz
  1  'x, y, z'
loop_
 _atom_site_type_symbol
 _atom_site_label
 _atom_site_symmetry_multiplicity
 _atom_site_fract_x
 _atom_site_fract_y
 _atom_site_fract_z
 _atom_site_occupancy
  Ni  Ni0  1  0.35158600  0.50606000  0.14777300  1
  Ni  Ni1  1  0.64841400  0.00606000  0.35222700  1
  Ni  Ni2  1  0.14841400  0.49394000  0.64777300  1
  Ni  Ni3  1  0.85158600  0.99394000  0.85222700  1
  Ni  Ni4  1  0.64841400  0.49394000  0.85222700  1
  Ni  Ni5  1  0.35158600  0.99394000  0.64777300  1
  Ni  Ni6  1  0.85158600  0.50606000  0.35222700  1
  Ni  Ni7  1  0.14841400  0.00606000  0.14777300  1
  C  C8  1  0.25365500  0.82552200  0.50362900  1
  C  C9  1  0.74634500  0.32552200  0.99637100  1
  C  C10  1  0.24634500  0.17447800  0.00362900  1
  C  C11  1  0.75365500  0.67447800  0.49637100  1
  C  C12  1  0.74634500  0.17447800  0.49637100  1
  C  C13  1  0.25365500  0.67447800  0.00362900  1
  C  C14  1  0.75365500  0.82552200  0.99637100  1
  C  C15  1  0.24634500  0.32552200  0.50362900  1
  C  C16  1  0.40996400  0.64202400  0.34725900  1
  C  C17  1  0.59003600  0.14202400  0.15274100  1
  C  C18  1  0.09003600  0.35797600  0.84725900  1
  C  C19  1  0.90996400  0.85797600  0.65274100  1
  C  C20  1  0.59003600  0.35797600  0.65274100  1
  C  C21  1  0.40996400  0.85797600  0.84725900  1
  C  C22  1  0.90996400  0.64202400  0.15274100  1
  C  C23  1  0.09003600  0.14202400  0.34725900  1
  C  C24  1  0.19092400  0.76069900  0.32803200  1
  C  C25  1  0.80907600  0.26069900  0.17196800  1
  C  C26  1  0.30907600  0.23930100  0.82803200  1
  C  C27  1  0.69092400  0.73930100  0.67196800  1
  C  C28  1  0.80907600  0.23930100  0.67196800  1
  C  C29  1  0.19092400  0.73930100  0.82803200  1
  C  C30  1  0.69092400  0.76069900  0.17196800  1
  C  C31  1  0.30907600  0.26069900  0.32803200  1
  Cu  Cu32  1  0.25177000  0.75733400  0.38911600  1
  Cu  Cu33  1  0.74823000  0.25733400  0.11088400  1
  Cu  Cu34  1  0.24823000  0.24266600  0.88911600  1
  Cu  Cu35  1  0.75177000  0.74266600  0.61088400  1
  Cu  Cu36  1  0.74823000  0.24266600  0.61088400  1
  Cu  Cu37  1  0.25177000  0.74266600  0.88911600  1
  Cu  Cu38  1  0.75177000  0.75733400  0.11088400  1
  Cu  Cu39  1  0.24823000  0.25733400  0.38911600  1
  C  C40  1  0.19117600  0.82537900  0.44796000  1
  C  C41  1  0.80882400  0.32537900  0.05204000  1
  C  C42  1  0.30882400  0.17462100  0.94796000  1
  C  C43  1  0.69117600  0.67462100  0.55204000  1
  C  C44  1  0.80882400  0.17462100  0.55204000  1
  C  C45  1  0.19117600  0.67462100  0.94796000  1
  C  C46  1  0.69117600  0.82537900  0.05204000  1
  C  C47  1  0.30882400  0.32537900  0.44796000  1
  C  C48  1  0.38016300  0.68861600  0.40013600  1
  C  C49  1  0.61983700  0.18861600  0.09986400  1
  C  C50  1  0.11983700  0.31138400  0.90013600  1
  C  C51  1  0.88016300  0.81138400  0.59986400  1
  C  C52  1  0.61983700  0.31138400  0.59986400  1
  C  C53  1  0.38016300  0.81138400  0.90013600  1
  C  C54  1  0.88016300  0.68861600  0.09986400  1
  C  C55  1  0.11983700  0.18861600  0.40013600  1
  C  C56  1  0.34360300  0.65428200  0.08581500  1
  C  C57  1  0.65639700  0.15428200  0.41418500  1
  C  C58  1  0.15639700  0.34571800  0.58581500  1
  C  C59  1  0.84360300  0.84571800  0.91418500  1
  C  C60  1  0.65639700  0.34571800  0.91418500  1
  C  C61  1  0.34360300  0.84571800  0.58581500  1
  C  C62  1  0.84360300  0.65428200  0.41418500  1
  C  C63  1  0.15639700  0.15428200  0.08581500  1
  C  C64  1  0.34242600  0.41332700  0.05498500  1
  C  C65  1  0.65757400  0.91332700  0.44501500  1
  C  C66  1  0.15757400  0.58667300  0.55498500  1
  C  C67  1  0.84242600  0.08667300  0.94501500  1
  C  C68  1  0.65757400  0.58667300  0.94501500  1
  C  C69  1  0.34242600  0.08667300  0.55498500  1
  C  C70  1  0.84242600  0.41332700  0.44501500  1
  C  C71  1  0.15757400  0.91332700  0.05498500  1
  C  C72  1  0.36508000  0.36676800  0.21131200  1
  C  C73  1  0.63492000  0.86676800  0.28868800  1
  C  C74  1  0.13492000  0.63323200  0.71131200  1
  C  C75  1  0.86508000  0.13323200  0.78868800  1
  C  C76  1  0.63492000  0.63323200  0.78868800  1
  C  C77  1  0.36508000  0.13323200  0.71131200  1
  C  C78  1  0.86508000  0.36676800  0.28868800  1
  C  C79  1  0.13492000  0.86676800  0.21131200  1
  C  C80  1  0.36127200  0.60776900  0.23929200  1
  C  C81  1  0.63872800  0.10776900  0.26070800  1
  C  C82  1  0.13872800  0.39223100  0.73929200  1
  C  C83  1  0.86127200  0.89223100  0.76070800  1
  C  C84  1  0.63872800  0.39223100  0.76070800  1
  C  C85  1  0.36127200  0.89223100  0.73929200  1
  C  C86  1  0.86127200  0.60776900  0.26070800  1
  C  C87  1  0.13872800  0.10776900  0.23929200  1
  C  C88  1  0.56515500  0.51271300  0.13967100  1
  C  C89  1  0.43484500  0.01271300  0.36032900  1
  C  C90  1  0.93484500  0.48728700  0.63967100  1
  C  C91  1  0.06515500  0.98728700  0.86032900  1
  C  C92  1  0.43484500  0.48728700  0.86032900  1
  C  C93  1  0.56515500  0.98728700  0.63967100  1
  C  C94  1  0.06515500  0.51271300  0.36032900  1
  C  C95  1  0.93484500  0.01271300  0.13967100  1
  C  C96  1  0.13831800  0.50693100  0.15376800  1
  C  C97  1  0.86168200  0.00693100  0.34623200  1
  C  C98  1  0.36168200  0.49306900  0.65376800  1
  C  C99  1  0.63831800  0.99306900  0.84623200  1
  C  C100  1  0.86168200  0.49306900  0.84623200  1
  C  C101  1  0.13831800  0.99306900  0.65376800  1
  C  C102  1  0.63831800  0.50693100  0.34623200  1
  C  C103  1  0.36168200  0.00693100  0.15376800  1
