# generated using pymatgen
data_CuNi14C
_symmetry_space_group_name_H-M   'P 1'
_cell_length_a   6.32553075
_cell_length_b   6.32553025
_cell_length_c   10.36845657
_cell_angle_alpha   90.00000000
_cell_angle_beta   90.00000000
_cell_angle_gamma   120.00000267
_symmetry_Int_Tables_number   1
_chemical_formula_structural   CuNi14C
_chemical_formula_sum   'Cu1 Ni14 C1'
_cell_volume   359.28463192
_cell_formula_units_Z   1
loop_
 _symmetry_equiv_pos_site_id
 _symmetry_equiv_pos_as_xyz
  1  'x, y, z'
loop_
 _atom_site_type_symbol
 _atom_site_label
 _atom_site_symmetry_multiplicity
 _atom_site_fract_x
 _atom_site_fract_y
 _atom_site_fract_z
 _atom_site_occupancy
  Ni  Ni0  1  0.16682914  0.83341407  0.12500000  1
  Ni  Ni1  1  0.16645610  0.83322755  0.62500000  1
  Ni  Ni2  1  0.66658593  0.33317086  0.12500000  1
  Ni  Ni3  1  0.66677245  0.33354390  0.62500000  1
  Ni  Ni4  1  0.66658593  0.83341407  0.12500000  1
  Ni  Ni5  1  0.66677245  0.83322755  0.62500000  1
  Ni  Ni6  1  0.33323356  0.16676644  0.37178531  1
  Ni  Ni7  1  0.33323356  0.16676644  0.87821469  1
  Ni  Ni8  1  0.33323356  0.66646812  0.37178531  1
  Ni  Ni9  1  0.33323356  0.66646812  0.87821469  1
  Ni  Ni10  1  0.83353188  0.16676644  0.37178531  1
  Ni  Ni11  1  0.83353188  0.16676644  0.87821469  1
  Ni  Ni12  1  0.83333300  0.66666700  0.37422801  1
  Ni  Ni13  1  0.83333300  0.66666700  0.87577199  1
  Cu  Cu14  1  0.16666700  0.33333300  0.12500000  1
  C  C15  1  0.16666700  0.33333300  0.62500000  1
