# generated using pymatgen
data_Cu3Ni3C19
_symmetry_space_group_name_H-M   'P 1'
_cell_length_a   9.01846200
_cell_length_b   8.90228000
_cell_length_c   9.09320227
_cell_angle_alpha   89.70901475
_cell_angle_beta   90.00000000
_cell_angle_gamma   90.00000000
_symmetry_Int_Tables_number   1
_chemical_formula_structural   Cu3Ni3C19
_chemical_formula_sum   'Cu6 Ni6 C38'
_cell_volume   730.03718253
_cell_formula_units_Z   2
loop_
 _symmetry_equiv_pos_site_id
 _symmetry_equiv_pos_as_xyz
  1  'x, y, z'
loop_
 _atom_site_type_symbol
 _atom_site_label
 _atom_site_symmetry_multiplicity
 _atom_site_fract_x
 _atom_site_fract_y
 _atom_site_fract_z
 _atom_site_occupancy
  C  C0  1  0.82037800  0.18001600  0.18970200  1
  C  C1  1  0.82037800  0.81998400  0.81029800  1
  C  C2  1  0.68817800  0.32495600  0.68566800  1
  C  C3  1  0.68817800  0.67504400  0.31433200  1
  C  C4  1  0.32041100  0.32014900  0.31084200  1
  C  C5  1  0.32041100  0.67985100  0.68915800  1
  C  C6  1  0.18749400  0.17515100  0.81496600  1
  C  C7  1  0.18749400  0.82484900  0.18503400  1
  Ni  Ni8  1  0.00151800  0.50044500  0.24915400  1
  Ni  Ni9  1  0.00151800  0.49955500  0.75084600  1
  Ni  Ni10  1  0.75016400  0.00000000  0.50000000  1
  Ni  Ni11  1  0.50147100  0.75069700  0.00061800  1
  Ni  Ni12  1  0.50147100  0.24930300  0.99938200  1
  Ni  Ni13  1  0.25330800  0.00000000  0.50000000  1
  Cu  Cu14  1  0.00176700  0.25069700  0.50142300  1
  Cu  Cu15  1  0.00176700  0.74930300  0.49857700  1
  Cu  Cu16  1  0.75286500  0.50000000  0.00000000  1
  Cu  Cu17  1  0.50196000  0.00135400  0.74924200  1
  Cu  Cu18  1  0.50196000  0.99864600  0.25075800  1
  Cu  Cu19  1  0.24979900  0.50000000  0.00000000  1
  C  C20  1  0.96513900  0.00000000  0.00000000  1
  C  C21  1  0.46513200  0.50000000  0.50000000  1
  C  C22  1  0.94195400  0.34792700  0.64262400  1
  C  C23  1  0.94195400  0.65207300  0.35737600  1
  C  C24  1  0.86059900  0.15184300  0.44255200  1
  C  C25  1  0.86059900  0.84815700  0.55744800  1
  C  C26  1  0.85292600  0.43950600  0.13901700  1
  C  C27  1  0.85292600  0.56049400  0.86098300  1
  C  C28  1  0.65302900  0.35879900  0.94094800  1
  C  C29  1  0.65302900  0.64120100  0.05905200  1
  C  C30  1  0.64165800  0.06179300  0.64921200  1
  C  C31  1  0.64165800  0.93820700  0.35078800  1
  C  C32  1  0.56162700  0.13757200  0.14792600  1
  C  C33  1  0.56162700  0.86242800  0.85207400  1
  C  C34  1  0.54059600  0.45224800  0.39119500  1
  C  C35  1  0.54059600  0.54775200  0.60880500  1
  C  C36  1  0.44184400  0.14320700  0.84719400  1
  C  C37  1  0.44184400  0.85679300  0.15280600  1
  C  C38  1  0.36343700  0.05996000  0.35077100  1
  C  C39  1  0.36343700  0.94004000  0.64922900  1
  C  C40  1  0.34962900  0.35777800  0.05796700  1
  C  C41  1  0.34962900  0.64222200  0.94203300  1
  C  C42  1  0.15047000  0.56111100  0.13870700  1
  C  C43  1  0.15047000  0.43888900  0.86129300  1
  C  C44  1  0.14319900  0.15082000  0.55962500  1
  C  C45  1  0.14319900  0.84918000  0.44037500  1
  C  C46  1  0.06150800  0.35278200  0.36308300  1
  C  C47  1  0.06150800  0.64721800  0.63691700  1
  C  C48  1  0.04014100  0.95140100  0.89177300  1
  C  C49  1  0.04014100  0.04859900  0.10822700  1
