# generated using pymatgen
data_CuNi2C
_symmetry_space_group_name_H-M   'P 1'
_cell_length_a   9.35863411
_cell_length_b   9.35863411
_cell_length_c   9.35863475
_cell_angle_alpha   18.38215052
_cell_angle_beta   18.38215052
_cell_angle_gamma   18.38215656
_symmetry_Int_Tables_number   1
_chemical_formula_structural   CuNi2C
_chemical_formula_sum   'Cu1 Ni2 C1'
_cell_volume   71.19866224
_cell_formula_units_Z   1
loop_
 _symmetry_equiv_pos_site_id
 _symmetry_equiv_pos_as_xyz
  1  'x, y, z'
loop_
 _atom_site_type_symbol
 _atom_site_label
 _atom_site_symmetry_multiplicity
 _atom_site_fract_x
 _atom_site_fract_y
 _atom_site_fract_z
 _atom_site_occupancy
  C  C0  1  0.75051000  0.75051000  0.75051000  1
  Ni  Ni1  1  0.50452900  0.50452900  0.50452900  1
  Ni  Ni2  1  0.24837900  0.24837900  0.24837900  1
  Cu  Cu3  1  0.99658200  0.99658200  0.99658200  1
