# generated using pymatgen
data_Cu6NiC24
_symmetry_space_group_name_H-M   'P 1'
_cell_length_a   5.96820337
_cell_length_b   5.77739257
_cell_length_c   15.10676577
_cell_angle_alpha   90.35839309
_cell_angle_beta   89.63580075
_cell_angle_gamma   118.52940728
_symmetry_Int_Tables_number   1
_chemical_formula_structural   Cu6NiC24
_chemical_formula_sum   'Cu6 Ni1 C24'
_cell_volume   457.62811962
_cell_formula_units_Z   1
loop_
 _symmetry_equiv_pos_site_id
 _symmetry_equiv_pos_as_xyz
  1  'x, y, z'
loop_
 _atom_site_type_symbol
 _atom_site_label
 _atom_site_symmetry_multiplicity
 _atom_site_fract_x
 _atom_site_fract_y
 _atom_site_fract_z
 _atom_site_occupancy
  C  C0  1  0.99315642  0.99793770  0.75033322  1
  C  C1  1  0.11454571  0.06002035  0.27937382  1
  C  C2  1  0.30635285  0.64937270  0.89666322  1
  C  C3  1  0.35592510  0.68049724  0.59440073  1
  C  C4  1  0.58672749  0.28729407  0.05041107  1
  C  C5  1  0.71361109  0.35994336  0.41927547  1
  Ni  Ni6  1  0.56325856  0.77755809  0.18872241  1
  Cu  Cu7  1  0.96589473  0.97960800  0.98982814  1
  Cu  Cu8  1  0.02921519  0.01801825  0.50870785  1
  Cu  Cu9  1  0.10100209  0.55351452  0.14127410  1
  Cu  Cu10  1  0.37659889  0.69030054  0.35918458  1
  Cu  Cu11  1  0.64643453  0.32370223  0.83508665  1
  Cu  Cu12  1  0.68889181  0.35079211  0.65190041  1
  C  C13  1  0.14838692  0.32339944  0.42243093  1
  C  C14  1  0.66972833  0.82989935  0.06856062  1
  C  C15  1  0.91770480  0.71555403  0.59643412  1
  C  C16  1  0.28937627  0.15523608  0.89984034  1
  C  C17  1  0.15531166  0.85292286  0.06940869  1
  C  C18  1  0.15528179  0.83636199  0.42250017  1
  C  C19  1  0.76057620  0.08661554  0.90506551  1
  C  C20  1  0.91065794  0.20144014  0.59696607  1
  C  C21  1  0.66391511  0.82828755  0.45573606  1
  C  C22  1  0.14374257  0.32041893  0.05837651  1
  C  C23  1  0.39554788  0.20443308  0.55959712  1
  C  C24  1  0.84179233  0.62808590  0.92394046  1
  C  C25  1  0.52413481  0.49412327  0.74147183  1
  C  C26  1  0.55426344  0.54124568  0.28236694  1
  C  C27  1  0.51047507  0.04410599  0.73761139  1
  C  C28  1  0.95221568  0.47457470  0.75360932  1
  C  C29  1  0.56033750  0.01189357  0.28237443  1
  C  C30  1  0.08201922  0.54576274  0.26836881  1
