# generated using pymatgen
data_Cu14NiC16
_symmetry_space_group_name_H-M   'P 1'
_cell_length_a   8.64124655
_cell_length_b   8.71280399
_cell_length_c   4.27913592
_cell_angle_alpha   90.00000000
_cell_angle_beta   90.00000000
_cell_angle_gamma   90.00000000
_symmetry_Int_Tables_number   1
_chemical_formula_structural   Cu14NiC16
_chemical_formula_sum   'Cu14 Ni1 C16'
_cell_volume   322.17395001
_cell_formula_units_Z   1
loop_
 _symmetry_equiv_pos_site_id
 _symmetry_equiv_pos_as_xyz
  1  'x, y, z'
loop_
 _atom_site_type_symbol
 _atom_site_label
 _atom_site_symmetry_multiplicity
 _atom_site_fract_x
 _atom_site_fract_y
 _atom_site_fract_z
 _atom_site_occupancy
  Ni  Ni0  1  0.50234137  0.50000000  -0.00000000  1
  Cu  Cu1  1  0.99681534  0.50000000  -0.00000000  1
  Cu  Cu2  1  0.49423024  0.00000000  -0.00000000  1
  Cu  Cu3  1  0.00017981  0.24230363  0.50000000  1
  Cu  Cu4  1  0.00017981  0.75769637  0.50000000  1
  Cu  Cu5  1  0.49875481  0.23718629  0.50000000  1
  Cu  Cu6  1  0.49875481  0.76281371  0.50000000  1
  Cu  Cu7  1  0.24062601  0.00000000  0.50000000  1
  Cu  Cu8  1  0.23713790  0.50000000  0.50000000  1
  Cu  Cu9  1  0.76019584  0.00000000  0.50000000  1
  Cu  Cu10  1  0.76172929  0.50000000  0.50000000  1
  Cu  Cu11  1  0.23704242  0.24604116  -0.00000000  1
  Cu  Cu12  1  0.23704242  0.75395884  -0.00000000  1
  Cu  Cu13  1  0.76463207  0.23068580  -0.00000000  1
  Cu  Cu14  1  0.76463207  0.76931420  0.00000000  1
  C  C15  1  0.04485974  0.00000000  -0.00000000  1
  C  C16  1  0.25294855  0.50000000  -0.00000000  1
  C  C17  1  0.72325903  0.00000000  -0.00000000  1
  C  C18  1  0.74739174  0.50000000  -0.00000000  1
  C  C19  1  0.24962013  0.25244220  0.50000000  1
  C  C20  1  0.24962013  0.74755780  0.50000000  1
  C  C21  1  0.74936802  0.24815559  0.50000000  1
  C  C22  1  0.74936802  0.75184441  0.50000000  1
  C  C23  1  0.00380301  0.00000000  0.50000000  1
  C  C24  1  0.99922310  0.50000000  0.50000000  1
  C  C25  1  0.49164191  0.00000000  0.50000000  1
  C  C26  1  0.50131687  0.50000000  0.50000000  1
  C  C27  1  -0.00019863  0.27070333  -0.00000000  1
  C  C28  1  -0.00019863  0.72929667  -0.00000000  1
  C  C29  1  0.49684138  0.25398144  -0.00000000  1
  C  C30  1  0.49684138  0.74601856  -0.00000000  1
