# generated using pymatgen
data_Cu8NiC8
_symmetry_space_group_name_H-M   'P 1'
_cell_length_a   4.98408798
_cell_length_b   7.99700844
_cell_length_c   10.06802100
_cell_angle_alpha   90.00000000
_cell_angle_beta   90.00000000
_cell_angle_gamma   93.92120434
_symmetry_Int_Tables_number   1
_chemical_formula_structural   Cu8NiC8
_chemical_formula_sum   'Cu16 Ni2 C16'
_cell_volume   400.34970125
_cell_formula_units_Z   2
loop_
 _symmetry_equiv_pos_site_id
 _symmetry_equiv_pos_as_xyz
  1  'x, y, z'
loop_
 _atom_site_type_symbol
 _atom_site_label
 _atom_site_symmetry_multiplicity
 _atom_site_fract_x
 _atom_site_fract_y
 _atom_site_fract_z
 _atom_site_occupancy
  C  C0  1  0.12642000  0.69471900  0.70564400  1
  C  C1  1  0.62642000  0.19471900  0.29435600  1
  C  C2  1  0.06041200  0.56882800  0.14393500  1
  C  C3  1  0.56041200  0.06882800  0.85606500  1
  C  C4  1  0.81813100  0.70110000  0.35744200  1
  C  C5  1  0.31813100  0.20110000  0.64255800  1
  C  C6  1  0.98812900  0.34881300  0.12106700  1
  C  C7  1  0.48812900  0.84881300  0.87893300  1
  Ni  Ni8  1  0.80254100  0.45249400  0.27633900  1
  Ni  Ni9  1  0.30254100  0.95249400  0.72366100  1
  Cu  Cu10  1  0.01147400  0.86637800  0.56637500  1
  Cu  Cu11  1  0.51147400  0.36637800  0.43362500  1
  Cu  Cu12  1  0.15257300  0.81914500  0.67439700  1
  Cu  Cu13  1  0.65257300  0.31914500  0.32560300  1
  Cu  Cu14  1  0.96602400  0.45757500  0.17297300  1
  Cu  Cu15  1  0.46602400  0.95757500  0.82702700  1
  Cu  Cu16  1  0.56676200  0.52266300  0.45377100  1
  Cu  Cu17  1  0.06676200  0.02266300  0.54622900  1
  Cu  Cu18  1  0.72010900  0.54953500  0.82127500  1
  Cu  Cu19  1  0.22010900  0.04953500  0.17872500  1
  Cu  Cu20  1  0.74461300  0.57857300  0.35882400  1
  Cu  Cu21  1  0.24461300  0.07857300  0.64117600  1
  Cu  Cu22  1  0.32484500  0.92408500  0.24888600  1
  Cu  Cu23  1  0.82484500  0.42408500  0.75111400  1
  Cu  Cu24  1  0.00885500  0.00147700  0.09439700  1
  Cu  Cu25  1  0.50885500  0.50147700  0.90560300  1
  C  C26  1  0.54548000  0.97071500  0.30485600  1
  C  C27  1  0.04548000  0.47071500  0.69514400  1
  C  C28  1  0.21663500  0.78061100  0.26567100  1
  C  C29  1  0.71663500  0.28061100  0.73432900  1
  C  C30  1  0.95049900  0.85660300  0.05557500  1
  C  C31  1  0.45049900  0.35660300  0.94442500  1
  C  C32  1  0.89043800  0.12582600  0.05334700  1
  C  C33  1  0.39043800  0.62582600  0.94665300  1
