# generated using pymatgen
data_Cu9(NiC2)4
_symmetry_space_group_name_H-M   'P 1'
_cell_length_a   9.25769995
_cell_length_b   9.25769995
_cell_length_c   12.79964597
_cell_angle_alpha   47.37885516
_cell_angle_beta   47.37885516
_cell_angle_gamma   23.08310261
_symmetry_Int_Tables_number   1
_chemical_formula_structural   Cu9(NiC2)4
_chemical_formula_sum   'Cu9 Ni4 C8'
_cell_volume   310.84509445
_cell_formula_units_Z   1
loop_
 _symmetry_equiv_pos_site_id
 _symmetry_equiv_pos_as_xyz
  1  'x, y, z'
loop_
 _atom_site_type_symbol
 _atom_site_label
 _atom_site_symmetry_multiplicity
 _atom_site_fract_x
 _atom_site_fract_y
 _atom_site_fract_z
 _atom_site_occupancy
  C  C0  1  0.86672800  0.86672800  0.82367800  1
  C  C1  1  0.14105000  0.14105000  0.16065000  1
  C  C2  1  0.15634300  0.15634300  0.68951900  1
  C  C3  1  0.84275800  0.84275800  0.31198200  1
  C  C4  1  0.88043100  0.88043100  0.54195600  1
  C  C5  1  0.11639100  0.11639100  0.46520200  1
  C  C6  1  0.43536300  0.43536300  0.96656300  1
  C  C7  1  0.56459500  0.56459500  0.03207000  1
  Ni  Ni8  1  0.29545800  0.29545800  0.73031000  1
  Ni  Ni9  1  0.68921400  0.68921400  0.28424700  1
  Ni  Ni10  1  0.46089500  0.46089500  0.34961300  1
  Ni  Ni11  1  0.54442200  0.54442200  0.65855900  1
  Cu  Cu12  1  0.76805600  0.76805600  0.55930100  1
  Cu  Cu13  1  0.23297300  0.23297300  0.43976100  1
  Cu  Cu14  1  0.58994000  0.58994000  0.86478000  1
  Cu  Cu15  1  0.40915900  0.40915900  0.13640200  1
  Cu  Cu16  1  0.32266800  0.32266800  0.97567800  1
  Cu  Cu17  1  0.67952200  0.67952200  0.01794800  1
  Cu  Cu18  1  0.96094100  0.96094100  0.90538800  1
  Cu  Cu19  1  0.03733000  0.03733000  0.09855400  1
  Cu  Cu20  1  0.98426000  0.98426000  0.54043800  1
