# generated using pymatgen
data_Cu3NiC8
_symmetry_space_group_name_H-M   'P 1'
_cell_length_a   10.14977972
_cell_length_b   10.14977972
_cell_length_c   5.87283400
_cell_angle_alpha   90.00000000
_cell_angle_beta   90.00000000
_cell_angle_gamma   119.99999818
_symmetry_Int_Tables_number   1
_chemical_formula_structural   Cu3NiC8
_chemical_formula_sum   'Cu6 Ni2 C16'
_cell_volume   523.95211628
_cell_formula_units_Z   2
loop_
 _symmetry_equiv_pos_site_id
 _symmetry_equiv_pos_as_xyz
  1  'x, y, z'
loop_
 _atom_site_type_symbol
 _atom_site_label
 _atom_site_symmetry_multiplicity
 _atom_site_fract_x
 _atom_site_fract_y
 _atom_site_fract_z
 _atom_site_occupancy
  Ni  Ni0  1  0.00000000  0.00000000  0.47590700  1
  Ni  Ni1  1  0.00000000  0.00000000  0.97590700  1
  Cu  Cu2  1  0.77188900  0.13321900  0.75352900  1
  Cu  Cu3  1  0.36133000  0.22811100  0.75352900  1
  Cu  Cu4  1  0.86678100  0.63867000  0.75352900  1
  Cu  Cu5  1  0.22811100  0.86678100  0.25352900  1
  Cu  Cu6  1  0.63867000  0.77188900  0.25352900  1
  Cu  Cu7  1  0.13321900  0.36133000  0.25352900  1
  C  C8  1  0.66666700  0.33333300  0.33529500  1
  C  C9  1  0.33333300  0.66666700  0.83529500  1
  C  C10  1  0.66666700  0.33333300  0.95834100  1
  C  C11  1  0.33333300  0.66666700  0.45834100  1
  C  C12  1  0.73991900  0.83757400  0.71998300  1
  C  C13  1  0.09765500  0.26008100  0.71998300  1
  C  C14  1  0.16242600  0.90234500  0.71998300  1
  C  C15  1  0.26008100  0.16242600  0.21998300  1
  C  C16  1  0.90234500  0.73991900  0.21998300  1
  C  C17  1  0.83757400  0.09765500  0.21998300  1
  C  C18  1  0.58241500  0.47953800  0.49281600  1
  C  C19  1  0.89712300  0.41758500  0.49281600  1
  C  C20  1  0.52046200  0.10287700  0.49281600  1
  C  C21  1  0.41758500  0.52046200  0.99281600  1
  C  C22  1  0.10287700  0.58241500  0.99281600  1
  C  C23  1  0.47953800  0.89712300  0.99281600  1
