# generated using pymatgen
data_Cu9(NiC)5
_symmetry_space_group_name_H-M   'P 1'
_cell_length_a   8.20983700
_cell_length_b   12.79168100
_cell_length_c   27.51568500
_cell_angle_alpha   90.00000000
_cell_angle_beta   90.00000000
_cell_angle_gamma   90.00000000
_symmetry_Int_Tables_number   1
_chemical_formula_structural   Cu9(NiC)5
_chemical_formula_sum   'Cu36 Ni20 C20'
_cell_volume   2889.63164037
_cell_formula_units_Z   4
loop_
 _symmetry_equiv_pos_site_id
 _symmetry_equiv_pos_as_xyz
  1  'x, y, z'
loop_
 _atom_site_type_symbol
 _atom_site_label
 _atom_site_symmetry_multiplicity
 _atom_site_fract_x
 _atom_site_fract_y
 _atom_site_fract_z
 _atom_site_occupancy
  C  C0  1  0.53250200  0.35796000  0.75000000  1
  C  C1  1  0.03250200  0.14204000  0.75000000  1
  C  C2  1  0.46749800  0.64204000  0.25000000  1
  C  C3  1  0.96749800  0.85796000  0.25000000  1
  C  C4  1  0.52159800  0.71770400  0.85118800  1
  C  C5  1  0.02159800  0.78229600  0.64881200  1
  C  C6  1  0.47840200  0.28229600  0.35118800  1
  C  C7  1  0.97840200  0.21770400  0.14881200  1
  C  C8  1  0.47840200  0.28229600  0.14881200  1
  C  C9  1  0.97840200  0.21770400  0.35118800  1
  C  C10  1  0.52159800  0.71770400  0.64881200  1
  C  C11  1  0.02159800  0.78229600  0.85118800  1
  C  C12  1  0.55377700  0.36296900  0.94566100  1
  C  C13  1  0.05377700  0.13703100  0.55433900  1
  C  C14  1  0.44622300  0.63703100  0.44566100  1
  C  C15  1  0.94622300  0.86296900  0.05433900  1
  C  C16  1  0.44622300  0.63703100  0.05433900  1
  C  C17  1  0.94622300  0.86296900  0.44566100  1
  C  C18  1  0.55377700  0.36296900  0.55433900  1
  C  C19  1  0.05377700  0.13703100  0.94566100  1
  Ni  Ni20  1  0.47666500  0.09482900  0.01141300  1
  Ni  Ni21  1  0.97666500  0.40517100  0.48858700  1
  Ni  Ni22  1  0.52333500  0.90517100  0.51141300  1
  Ni  Ni23  1  0.02333500  0.59482900  0.98858700  1
  Ni  Ni24  1  0.52333500  0.90517100  0.98858700  1
  Ni  Ni25  1  0.02333500  0.59482900  0.51141300  1
  Ni  Ni26  1  0.47666500  0.09482900  0.48858700  1
  Ni  Ni27  1  0.97666500  0.40517100  0.01141300  1
  Ni  Ni28  1  0.48172900  0.91685700  0.11890200  1
  Ni  Ni29  1  0.98172900  0.58314300  0.38109800  1
  Ni  Ni30  1  0.51827100  0.08314300  0.61890200  1
  Ni  Ni31  1  0.01827100  0.41685700  0.88109800  1
  Ni  Ni32  1  0.51827100  0.08314300  0.88109800  1
  Ni  Ni33  1  0.01827100  0.41685700  0.61890200  1
  Ni  Ni34  1  0.48172900  0.91685700  0.38109800  1
  Ni  Ni35  1  0.98172900  0.58314300  0.11890200  1
  Ni  Ni36  1  0.40476900  0.98279300  0.25000000  1
  Ni  Ni37  1  0.90476900  0.51720700  0.25000000  1
  Ni  Ni38  1  0.59523100  0.01720700  0.75000000  1
  Ni  Ni39  1  0.09523100  0.48279300  0.75000000  1
  Cu  Cu40  1  0.30586800  0.05243200  0.08215100  1
  Cu  Cu41  1  0.80586800  0.44756800  0.41784900  1
  Cu  Cu42  1  0.69413200  0.94756800  0.58215100  1
  Cu  Cu43  1  0.19413200  0.55243200  0.91784900  1
  Cu  Cu44  1  0.69413200  0.94756800  0.91784900  1
  Cu  Cu45  1  0.19413200  0.55243200  0.58215100  1
  Cu  Cu46  1  0.30586800  0.05243200  0.41784900  1
  Cu  Cu47  1  0.80586800  0.44756800  0.08215100  1
  Cu  Cu48  1  0.73318500  0.13820500  0.04421700  1
  Cu  Cu49  1  0.23318500  0.36179500  0.45578300  1
  Cu  Cu50  1  0.26681500  0.86179500  0.54421700  1
  Cu  Cu51  1  0.76681500  0.63820500  0.95578300  1
  Cu  Cu52  1  0.26681500  0.86179500  0.95578300  1
  Cu  Cu53  1  0.76681500  0.63820500  0.54421700  1
  Cu  Cu54  1  0.73318500  0.13820500  0.45578300  1
  Cu  Cu55  1  0.23318500  0.36179500  0.04421700  1
  Cu  Cu56  1  0.27806800  0.81492300  0.15427200  1
  Cu  Cu57  1  0.77806800  0.68507700  0.34572800  1
  Cu  Cu58  1  0.72193200  0.18507700  0.65427200  1
  Cu  Cu59  1  0.22193200  0.31492300  0.84572800  1
  Cu  Cu60  1  0.72193200  0.18507700  0.84572800  1
  Cu  Cu61  1  0.22193200  0.31492300  0.65427200  1
  Cu  Cu62  1  0.27806800  0.81492300  0.34572800  1
  Cu  Cu63  1  0.77806800  0.68507700  0.15427200  1
  Cu  Cu64  1  0.61605500  0.01227000  0.18718000  1
  Cu  Cu65  1  0.11605500  0.48773000  0.31282000  1
  Cu  Cu66  1  0.38394500  0.98773000  0.68718000  1
  Cu  Cu67  1  0.88394500  0.51227000  0.81282000  1
  Cu  Cu68  1  0.38394500  0.98773000  0.81282000  1
  Cu  Cu69  1  0.88394500  0.51227000  0.68718000  1
  Cu  Cu70  1  0.61605500  0.01227000  0.31282000  1
  Cu  Cu71  1  0.11605500  0.48773000  0.18718000  1
  Cu  Cu72  1  0.24360800  0.13492600  0.25000000  1
  Cu  Cu73  1  0.74360800  0.36507400  0.25000000  1
  Cu  Cu74  1  0.75639200  0.86507400  0.75000000  1
  Cu  Cu75  1  0.25639200  0.63492600  0.75000000  1
