# generated using pymatgen
data_Cu24Ni2C17
_symmetry_space_group_name_H-M   'P 1'
_cell_length_a   11.01435563
_cell_length_b   10.88151151
_cell_length_c   7.79570230
_cell_angle_alpha   88.39603404
_cell_angle_beta   91.79108805
_cell_angle_gamma   117.05474815
_symmetry_Int_Tables_number   1
_chemical_formula_structural   Cu24Ni2C17
_chemical_formula_sum   'Cu24 Ni2 C17'
_cell_volume   831.58858041
_cell_formula_units_Z   1
loop_
 _symmetry_equiv_pos_site_id
 _symmetry_equiv_pos_as_xyz
  1  'x, y, z'
loop_
 _atom_site_type_symbol
 _atom_site_label
 _atom_site_symmetry_multiplicity
 _atom_site_fract_x
 _atom_site_fract_y
 _atom_site_fract_z
 _atom_site_occupancy
  C  C0  1  0.66262219  0.30828792  0.52103235  1
  C  C1  1  0.33161985  0.66033240  0.50185567  1
  C  C2  1  0.03590981  0.29044114  0.24373761  1
  C  C3  1  0.32050763  0.65397476  0.00151562  1
  C  C4  1  0.76134313  0.76520193  0.23905229  1
  C  C5  1  0.26327837  0.01516814  0.23641476  1
  C  C6  1  0.78280619  0.01172904  0.73559545  1
  C  C7  1  0.99107259  0.73951580  0.73925731  1
  C  C8  1  0.68682651  0.39061695  0.00594031  1
  C  C9  1  0.26705701  0.27553754  0.75185250  1
  C  C10  1  0.57531043  0.07942744  0.92090060  1
  C  C11  1  0.96914560  0.59208551  0.25074185  1
  C  C12  1  0.61720467  0.64270976  0.73218703  1
  C  C13  1  0.33717328  0.94919714  0.75281242  1
  C  C14  1  0.41864904  0.38208082  0.25830439  1
  C  C15  1  0.04172902  0.42821150  0.73683235  1
  C  C16  1  0.61515825  0.00759149  0.25048808  1
  Ni  Ni17  1  0.02409551  0.02609511  0.99575643  1
  Ni  Ni18  1  0.01295724  0.01896856  0.48195404  1
  Cu  Cu19  1  0.69138939  0.74820571  0.90498497  1
  Cu  Cu20  1  0.32615048  0.47422173  0.25967079  1
  Cu  Cu21  1  0.38142027  0.26696729  0.43031741  1
  Cu  Cu22  1  0.44213136  0.55253000  0.75641639  1
  Cu  Cu23  1  0.12118428  0.38130972  0.56813599  1
  Cu  Cu24  1  0.68744211  0.52917975  0.71930541  1
  Cu  Cu25  1  0.72086939  0.22032359  0.80037887  1
  Cu  Cu26  1  0.14840886  0.61367312  0.73862670  1
  Cu  Cu27  1  0.59233960  0.48902642  0.26241490  1
  Cu  Cu28  1  0.71522951  0.01783111  0.07985563  1
  Cu  Cu29  1  0.11780857  0.38421830  0.92269534  1
  Cu  Cu30  1  0.87343721  0.41302275  0.26786683  1
  Cu  Cu31  1  0.46551925  0.89727724  0.79432754  1
  Cu  Cu32  1  0.90897287  0.63860979  0.06408666  1
  Cu  Cu33  1  0.92822907  0.66919637  0.41244889  1
  Cu  Cu34  1  0.42711870  0.12564459  0.77944991  1
  Cu  Cu35  1  0.37868419  0.28233840  0.07655469  1
  Cu  Cu36  1  0.70884546  0.08330123  0.43028581  1
  Cu  Cu37  1  0.13942060  0.63433737  0.24534879  1
  Cu  Cu38  1  0.22711573  0.88156893  0.92108900  1
  Cu  Cu39  1  0.49145076  0.84042494  0.26896937  1
  Cu  Cu40  1  0.26066966  0.89806277  0.55596786  1
  Cu  Cu41  1  0.65169381  0.75107112  0.55541443  1
  Cu  Cu42  1  0.53625252  0.10798483  0.17082379  1
