# generated using pymatgen
data_Cu2Ni3
_symmetry_space_group_name_H-M   'P 1'
_cell_length_a   9.90585145
_cell_length_b   9.90585145
_cell_length_c   9.90585145
_cell_angle_alpha   109.47122063
_cell_angle_beta   109.47122063
_cell_angle_gamma   109.47122063
_symmetry_Int_Tables_number   1
_chemical_formula_structural   Cu2Ni3
_chemical_formula_sum   'Cu16 Ni24'
_cell_volume   748.26174389
_cell_formula_units_Z   8
loop_
 _symmetry_equiv_pos_site_id
 _symmetry_equiv_pos_as_xyz
  1  'x, y, z'
loop_
 _atom_site_type_symbol
 _atom_site_label
 _atom_site_symmetry_multiplicity
 _atom_site_fract_x
 _atom_site_fract_y
 _atom_site_fract_z
 _atom_site_occupancy
  Ni  Ni0  1  0.47555600  0.22774000  0.46451100  1
  Ni  Ni1  1  0.23677200  0.27226000  0.74781700  1
  Ni  Ni2  1  0.02444400  0.48895500  0.75218300  1
  Ni  Ni3  1  0.26322800  0.01104500  0.03548900  1
  Ni  Ni4  1  0.22774000  0.46451100  0.47555600  1
  Ni  Ni5  1  0.27226000  0.74781700  0.23677200  1
  Ni  Ni6  1  0.48895500  0.75218300  0.02444400  1
  Ni  Ni7  1  0.01104500  0.03548900  0.26322800  1
  Ni  Ni8  1  0.46451100  0.47555600  0.22774000  1
  Ni  Ni9  1  0.74781700  0.23677200  0.27226000  1
  Ni  Ni10  1  0.75218300  0.02444400  0.48895500  1
  Ni  Ni11  1  0.03548900  0.26322800  0.01104500  1
  Ni  Ni12  1  0.52444400  0.77226000  0.53548900  1
  Ni  Ni13  1  0.76322800  0.72774000  0.25218300  1
  Ni  Ni14  1  0.97555600  0.51104500  0.24781700  1
  Ni  Ni15  1  0.73677200  0.98895500  0.96451100  1
  Ni  Ni16  1  0.77226000  0.53548900  0.52444400  1
  Ni  Ni17  1  0.72774000  0.25218300  0.76322800  1
  Ni  Ni18  1  0.51104500  0.24781700  0.97555600  1
  Ni  Ni19  1  0.98895500  0.96451100  0.73677200  1
  Ni  Ni20  1  0.53548900  0.52444400  0.77226000  1
  Ni  Ni21  1  0.25218300  0.76322800  0.72774000  1
  Ni  Ni22  1  0.24781700  0.97555600  0.51104500  1
  Ni  Ni23  1  0.96451100  0.73677200  0.98895500  1
  Cu  Cu24  1  0.50000000  0.00000000  0.50000000  1
  Cu  Cu25  1  0.50000000  0.50000000  0.00000000  1
  Cu  Cu26  1  0.00000000  0.50000000  0.50000000  1
  Cu  Cu27  1  0.00000000  0.00000000  0.00000000  1
  Cu  Cu28  1  0.76023700  0.25000000  0.01023700  1
  Cu  Cu29  1  0.73976300  0.75000000  0.48976300  1
  Cu  Cu30  1  0.25000000  0.01023700  0.76023700  1
  Cu  Cu31  1  0.75000000  0.48976300  0.73976300  1
  Cu  Cu32  1  0.01023700  0.76023700  0.25000000  1
  Cu  Cu33  1  0.48976300  0.73976300  0.75000000  1
  Cu  Cu34  1  0.23976300  0.75000000  0.98976300  1
  Cu  Cu35  1  0.26023700  0.25000000  0.51023700  1
  Cu  Cu36  1  0.75000000  0.98976300  0.23976300  1
  Cu  Cu37  1  0.25000000  0.51023700  0.26023700  1
  Cu  Cu38  1  0.98976300  0.23976300  0.75000000  1
  Cu  Cu39  1  0.51023700  0.26023700  0.25000000  1
