# generated using pymatgen
data_CuNi4C3
_symmetry_space_group_name_H-M   'P 1'
_cell_length_a   7.16017500
_cell_length_b   10.83328600
_cell_length_c   14.30964800
_cell_angle_alpha   90.00000000
_cell_angle_beta   90.00000000
_cell_angle_gamma   90.00000000
_symmetry_Int_Tables_number   1
_chemical_formula_structural   CuNi4C3
_chemical_formula_sum   'Cu4 Ni16 C12'
_cell_volume   1109.97397549
_cell_formula_units_Z   4
loop_
 _symmetry_equiv_pos_site_id
 _symmetry_equiv_pos_as_xyz
  1  'x, y, z'
loop_
 _atom_site_type_symbol
 _atom_site_label
 _atom_site_symmetry_multiplicity
 _atom_site_fract_x
 _atom_site_fract_y
 _atom_site_fract_z
 _atom_site_occupancy
  C  C0  1  0.27961000  0.02840600  0.37173300  1
  C  C1  1  0.22039000  0.47159400  0.87173300  1
  C  C2  1  0.72039000  0.52840600  0.62826700  1
  C  C3  1  0.77961000  0.97159400  0.12826700  1
  C  C4  1  0.72039000  0.97159400  0.62826700  1
  C  C5  1  0.77961000  0.52840600  0.12826700  1
  C  C6  1  0.27961000  0.47159400  0.37173300  1
  C  C7  1  0.22039000  0.02840600  0.87173300  1
  C  C8  1  0.28181500  0.25000000  0.12293700  1
  C  C9  1  0.21818500  0.25000000  0.62293700  1
  C  C10  1  0.71818500  0.75000000  0.87706300  1
  C  C11  1  0.78181500  0.75000000  0.37706300  1
  Ni  Ni12  1  0.28144500  0.47702900  0.12313600  1
  Ni  Ni13  1  0.21855500  0.02297100  0.62313600  1
  Ni  Ni14  1  0.71855500  0.97702900  0.87686400  1
  Ni  Ni15  1  0.78144500  0.52297100  0.37686400  1
  Ni  Ni16  1  0.71855500  0.52297100  0.87686400  1
  Ni  Ni17  1  0.78144500  0.97702900  0.37686400  1
  Ni  Ni18  1  0.28144500  0.02297100  0.12313600  1
  Ni  Ni19  1  0.21855500  0.47702900  0.62313600  1
  Ni  Ni20  1  0.05481200  0.75000000  0.27444300  1
  Ni  Ni21  1  0.44518800  0.75000000  0.77444300  1
  Ni  Ni22  1  0.94518800  0.25000000  0.72555700  1
  Ni  Ni23  1  0.55481200  0.25000000  0.22555700  1
  Ni  Ni24  1  0.49906200  0.25000000  0.52463800  1
  Ni  Ni25  1  0.00093800  0.25000000  0.02463800  1
  Ni  Ni26  1  0.50093800  0.75000000  0.47536200  1
  Ni  Ni27  1  0.99906200  0.75000000  0.97536200  1
  Cu  Cu28  1  0.54199500  0.75000000  0.13970500  1
  Cu  Cu29  1  0.95800500  0.75000000  0.63970500  1
  Cu  Cu30  1  0.45800500  0.25000000  0.86029500  1
  Cu  Cu31  1  0.04199500  0.25000000  0.36029500  1
