# generated using pymatgen
data_Cu8(Ni4C3)5
_symmetry_space_group_name_H-M   'P 1'
_cell_length_a   7.11293000
_cell_length_b   7.71221900
_cell_length_c   33.66303177
_cell_angle_alpha   83.51118161
_cell_angle_beta   90.00000000
_cell_angle_gamma   90.00000000
_symmetry_Int_Tables_number   1
_chemical_formula_structural   Cu8(Ni4C3)5
_chemical_formula_sum   'Cu16 Ni40 C30'
_cell_volume   1834.80554714
_cell_formula_units_Z   2
loop_
 _symmetry_equiv_pos_site_id
 _symmetry_equiv_pos_as_xyz
  1  'x, y, z'
loop_
 _atom_site_type_symbol
 _atom_site_label
 _atom_site_symmetry_multiplicity
 _atom_site_fract_x
 _atom_site_fract_y
 _atom_site_fract_z
 _atom_site_occupancy
  C  C0  1  0.00000000  0.01822400  0.19241400  1
  C  C1  1  0.00000000  0.41753800  0.39213400  1
  C  C2  1  0.00000000  0.81778200  0.59206400  1
  C  C3  1  0.00000000  0.21625200  0.79237200  1
  C  C4  1  0.00000000  0.60913600  0.99203300  1
  C  C5  1  0.00000000  0.13010000  0.08336500  1
  C  C6  1  0.00000000  0.52150700  0.28105000  1
  C  C7  1  0.00000000  0.92270200  0.48117400  1
  C  C8  1  0.00000000  0.32225500  0.68104700  1
  C  C9  1  0.00000000  0.72336200  0.88090100  1
  C  C10  1  0.00000000  0.65874900  0.12656600  1
  C  C11  1  0.00000000  0.06037500  0.32688600  1
  C  C12  1  0.00000000  0.46092900  0.52693700  1
  C  C13  1  0.00000000  0.85993600  0.72692600  1
  C  C14  1  0.00000000  0.26566300  0.92492300  1
  C  C15  1  0.50000000  0.98564100  0.19066200  1
  C  C16  1  0.50000000  0.38555300  0.39019100  1
  C  C17  1  0.50000000  0.78545400  0.59024600  1
  C  C18  1  0.50000000  0.18518000  0.78996300  1
  C  C19  1  0.50000000  0.60886400  0.99176500  1
  C  C20  1  0.50000000  0.12599800  0.08489100  1
  C  C21  1  0.50000000  0.52991100  0.28886900  1
  C  C22  1  0.50000000  0.92998200  0.48866800  1
  C  C23  1  0.50000000  0.33015100  0.68857500  1
  C  C24  1  0.50000000  0.73033400  0.88734400  1
  C  C25  1  0.50000000  0.68333600  0.12193700  1
  C  C26  1  0.50000000  0.08418200  0.32062900  1
  C  C27  1  0.50000000  0.48455800  0.52057700  1
  C  C28  1  0.50000000  0.88432300  0.72047100  1
  C  C29  1  0.50000000  0.26826500  0.92373600  1
  Ni  Ni30  1  0.74782100  0.26579000  0.00049100  1
  Ni  Ni31  1  0.73044300  0.65093900  0.20056100  1
  Ni  Ni32  1  0.72916600  0.05088600  0.40042000  1
  Ni  Ni33  1  0.72887100  0.45074500  0.60043100  1
  Ni  Ni34  1  0.73031600  0.85071000  0.80021700  1
  Ni  Ni35  1  0.72840900  0.29888000  0.14960400  1
  Ni  Ni36  1  0.73035300  0.70082600  0.34959400  1
  Ni  Ni37  1  0.72980400  0.10092600  0.54953700  1
  Ni  Ni38  1  0.73059800  0.50041300  0.74970400  1
  Ni  Ni39  1  0.75177400  0.89669600  0.94623300  1
  Ni  Ni40  1  0.75226700  0.84127200  0.05315100  1
  Ni  Ni41  1  0.72888900  0.24942000  0.25013800  1
  Ni  Ni42  1  0.72903500  0.64971200  0.45006000  1
  Ni  Ni43  1  0.72913900  0.04959900  0.65003800  1
  Ni  Ni44  1  0.72877700  0.44886900  0.85061600  1
  Ni  Ni45  1  0.25217900  0.26579000  0.00049100  1
  Ni  Ni46  1  0.26955700  0.65093900  0.20056100  1
  Ni  Ni47  1  0.27083400  0.05088600  0.40042000  1
  Ni  Ni48  1  0.27112900  0.45074500  0.60043100  1
  Ni  Ni49  1  0.26968400  0.85071000  0.80021700  1
  Ni  Ni50  1  0.27159100  0.29888000  0.14960400  1
  Ni  Ni51  1  0.26964700  0.70082600  0.34959400  1
  Ni  Ni52  1  0.27019600  0.10092600  0.54953700  1
  Ni  Ni53  1  0.26940200  0.50041300  0.74970400  1
  Ni  Ni54  1  0.24822600  0.89669600  0.94623300  1
  Ni  Ni55  1  0.24773300  0.84127200  0.05315100  1
  Ni  Ni56  1  0.27111100  0.24942000  0.25013800  1
  Ni  Ni57  1  0.27096500  0.64971200  0.45006000  1
  Ni  Ni58  1  0.27086100  0.04959900  0.65003800  1
  Ni  Ni59  1  0.27122300  0.44886900  0.85061600  1
  Ni  Ni60  1  0.75096300  0.46526300  0.06764500  1
  Ni  Ni61  1  0.76449100  0.86608100  0.26671000  1
  Ni  Ni62  1  0.76418100  0.26655300  0.46661300  1
  Ni  Ni63  1  0.76493700  0.66636700  0.66657600  1
  Ni  Ni64  1  0.75834700  0.06869800  0.86551200  1
  Ni  Ni65  1  0.24903700  0.46526300  0.06764500  1
  Ni  Ni66  1  0.23550900  0.86608100  0.26671000  1
  Ni  Ni67  1  0.23581900  0.26655300  0.46661300  1
  Ni  Ni68  1  0.23506300  0.66636700  0.66657600  1
  Ni  Ni69  1  0.24165300  0.06869800  0.86551200  1
  Cu  Cu70  1  0.75998900  0.93256500  0.13361100  1
  Cu  Cu71  1  0.76179200  0.33247900  0.33327300  1
  Cu  Cu72  1  0.76164600  0.73252400  0.53330400  1
  Cu  Cu73  1  0.76171200  0.13218200  0.73306700  1
  Cu  Cu74  1  0.75410100  0.53215000  0.93349500  1
  Cu  Cu75  1  0.24001100  0.93256500  0.13361100  1
  Cu  Cu76  1  0.23820800  0.33247900  0.33327300  1
  Cu  Cu77  1  0.23835400  0.73252400  0.53330400  1
  Cu  Cu78  1  0.23828800  0.13218200  0.73306700  1
  Cu  Cu79  1  0.24589900  0.53215000  0.93349500  1
  Cu  Cu80  1  0.00000000  0.99995400  0.99965000  1
  Cu  Cu81  1  0.00000000  0.39787700  0.20002400  1
  Cu  Cu82  1  0.00000000  0.79951200  0.40002900  1
  Cu  Cu83  1  0.00000000  0.19937800  0.59985200  1
  Cu  Cu84  1  0.00000000  0.59852000  0.80016000  1
  Cu  Cu85  1  0.50000000  0.99742900  0.99976400  1
