# generated using pymatgen
data_Cu6NiC24
_symmetry_space_group_name_H-M   'P 1'
_cell_length_a   5.46342474
_cell_length_b   5.18913932
_cell_length_c   15.93251752
_cell_angle_alpha   90.29408405
_cell_angle_beta   101.04877417
_cell_angle_gamma   91.39564634
_symmetry_Int_Tables_number   1
_chemical_formula_structural   Cu6NiC24
_chemical_formula_sum   'Cu6 Ni1 C24'
_cell_volume   443.16834300
_cell_formula_units_Z   1
loop_
 _symmetry_equiv_pos_site_id
 _symmetry_equiv_pos_as_xyz
  1  'x, y, z'
loop_
 _atom_site_type_symbol
 _atom_site_label
 _atom_site_symmetry_multiplicity
 _atom_site_fract_x
 _atom_site_fract_y
 _atom_site_fract_z
 _atom_site_occupancy
  Ni  Ni0  1  0.31843500  0.99650900  0.44876300  1
  Cu  Cu1  1  0.05003800  0.96136000  0.00539700  1
  Cu  Cu2  1  0.13084000  0.49424500  0.31515300  1
  Cu  Cu3  1  0.30935900  0.04803000  0.67463800  1
  Cu  Cu4  1  0.53643300  0.45175500  0.99337100  1
  Cu  Cu5  1  0.66609100  0.02546000  0.31922900  1
  Cu  Cu6  1  0.81310500  0.49458800  0.67117900  1
  C  C7  1  0.04889100  0.22418300  0.65426600  1
  C  C8  1  0.53303500  0.27230600  0.65295000  1
  C  C9  1  0.70105900  0.22206000  0.96675300  1
  C  C10  1  0.29692700  0.79268300  0.03259900  1
  C  C11  1  0.85226400  0.31477200  0.29898700  1
  C  C12  1  0.21187800  0.27170800  0.97019100  1
  C  C13  1  0.11754900  0.72812000  0.68939500  1
  C  C14  1  0.02918500  0.12139900  0.10288800  1
  C  C15  1  0.21440300  0.35193900  0.43070000  1
  C  C16  1  0.38581000  0.07203600  0.78682800  1
  C  C17  1  0.14226500  0.65644400  0.21832700  1
  C  C18  1  0.27112700  0.90457700  0.55754400  1
  C  C19  1  0.44491600  0.61879200  0.89657400  1
  C  C20  1  0.34840900  0.21484100  0.28926300  1
  C  C21  1  0.43534100  0.73753600  0.36537400  1
  C  C22  1  0.61709900  0.77767100  0.68951600  1
  C  C23  1  0.53985500  0.39422400  0.10362300  1
  C  C24  1  0.66310500  0.10909300  0.43493200  1
  C  C25  1  0.88879700  0.43099500  0.78228400  1
  C  C26  1  0.63091200  0.84796900  0.22345000  1
  C  C27  1  0.77699800  0.56831100  0.55910900  1
  C  C28  1  0.94846300  0.88673600  0.89590800  1
  C  C29  1  0.80485200  0.70631100  0.03013700  1
  C  C30  1  0.98684300  0.82834500  0.36478100  1
