# generated using pymatgen
data_Cu3NiC16
_symmetry_space_group_name_H-M   'P 1'
_cell_length_a   5.53551256
_cell_length_b   7.87663019
_cell_length_c   5.59399342
_cell_angle_alpha   89.99277852
_cell_angle_beta   90.29463361
_cell_angle_gamma   90.82847540
_symmetry_Int_Tables_number   1
_chemical_formula_structural   Cu3NiC16
_chemical_formula_sum   'Cu3 Ni1 C16'
_cell_volume   243.87602166
_cell_formula_units_Z   1
loop_
 _symmetry_equiv_pos_site_id
 _symmetry_equiv_pos_as_xyz
  1  'x, y, z'
loop_
 _atom_site_type_symbol
 _atom_site_label
 _atom_site_symmetry_multiplicity
 _atom_site_fract_x
 _atom_site_fract_y
 _atom_site_fract_z
 _atom_site_occupancy
  Ni  Ni0  1  0.49995700  0.25002600  0.00292900  1
  Cu  Cu1  1  0.99992900  0.75016000  0.49673600  1
  Cu  Cu2  1  0.50011400  0.74998000  0.99982500  1
  Cu  Cu3  1  0.99998600  0.24994100  0.50073900  1
  C  C4  1  0.00001200  0.49938000  0.00022800  1
  C  C5  1  0.50024000  0.00072900  0.49974200  1
  C  C6  1  0.99988800  0.00062100  0.00026800  1
  C  C7  1  0.49971500  0.49932100  0.49984900  1
  C  C8  1  0.22063900  0.53273100  0.72011500  1
  C  C9  1  0.72562100  0.02201300  0.22592500  1
  C  C10  1  0.27439200  0.47795800  0.22555000  1
  C  C11  1  0.77958200  0.96732600  0.72033500  1
  C  C12  1  0.99989600  0.75000600  0.05971200  1
  C  C13  1  0.49991200  0.24995800  0.55090800  1
  C  C14  1  0.72340100  0.53779500  0.77647700  1
  C  C15  1  0.21454600  0.02552200  0.28589700  1
  C  C16  1  0.00009800  0.24999700  0.93486600  1
  C  C17  1  0.50011800  0.75005700  0.43746100  1
  C  C18  1  0.78521400  0.47443200  0.28611000  1
  C  C19  1  0.27674100  0.96204700  0.77632900  1
