# generated using pymatgen
data_CuNiC
_symmetry_space_group_name_H-M   'P 1'
_cell_length_a   6.22212400
_cell_length_b   6.22212400
_cell_length_c   6.22212400
_cell_angle_alpha   90.00000000
_cell_angle_beta   90.00000000
_cell_angle_gamma   90.00000000
_symmetry_Int_Tables_number   1
_chemical_formula_structural   CuNiC
_chemical_formula_sum   'Cu4 Ni4 C4'
_cell_volume   240.88845468
_cell_formula_units_Z   4
loop_
 _symmetry_equiv_pos_site_id
 _symmetry_equiv_pos_as_xyz
  1  'x, y, z'
loop_
 _atom_site_type_symbol
 _atom_site_label
 _atom_site_symmetry_multiplicity
 _atom_site_fract_x
 _atom_site_fract_y
 _atom_site_fract_z
 _atom_site_occupancy
  Ni  Ni0  1  0.12736100  0.62736100  0.87263900  1
  Ni  Ni1  1  0.62736100  0.87263900  0.12736100  1
  Ni  Ni2  1  0.87263900  0.12736100  0.62736100  1
  Ni  Ni3  1  0.37263900  0.37263900  0.37263900  1
  Cu  Cu4  1  0.47799300  0.97799300  0.52200700  1
  Cu  Cu5  1  0.97799300  0.52200700  0.47799300  1
  Cu  Cu6  1  0.52200700  0.47799300  0.97799300  1
  Cu  Cu7  1  0.02200700  0.02200700  0.02200700  1
  C  C8  1  0.88110600  0.38110600  0.11889400  1
  C  C9  1  0.38110600  0.11889400  0.88110600  1
  C  C10  1  0.11889400  0.88110600  0.38110600  1
  C  C11  1  0.61889400  0.61889400  0.61889400  1
