# generated using pymatgen
data_CuNiC5
_symmetry_space_group_name_H-M   'P 1'
_cell_length_a   3.24639000
_cell_length_b   9.59895312
_cell_length_c   9.36304919
_cell_angle_alpha   120.83700402
_cell_angle_beta   90.00000000
_cell_angle_gamma   90.00000000
_symmetry_Int_Tables_number   1
_chemical_formula_structural   CuNiC5
_chemical_formula_sum   'Cu3 Ni3 C15'
_cell_volume   250.52289982
_cell_formula_units_Z   3
loop_
 _symmetry_equiv_pos_site_id
 _symmetry_equiv_pos_as_xyz
  1  'x, y, z'
loop_
 _atom_site_type_symbol
 _atom_site_label
 _atom_site_symmetry_multiplicity
 _atom_site_fract_x
 _atom_site_fract_y
 _atom_site_fract_z
 _atom_site_occupancy
  Ni  Ni0  1  0.00000000  0.01640600  0.00000000  1
  Ni  Ni1  1  0.50000000  0.30046300  0.30024300  1
  Ni  Ni2  1  0.50000000  0.00021900  0.69975700  1
  Cu  Cu3  1  0.50000000  0.31647100  0.65847300  1
  Cu  Cu4  1  0.50000000  0.65799800  0.34152700  1
  Cu  Cu5  1  0.50000000  0.70193600  0.00000000  1
  C  C6  1  0.00000000  0.33170100  0.00000000  1
  C  C7  1  0.00000000  0.67267600  0.67476600  1
  C  C8  1  0.00000000  0.99791000  0.32523400  1
  C  C9  1  0.50000000  0.46303100  0.00000000  1
  C  C10  1  0.50000000  0.54509700  0.54422400  1
  C  C11  1  0.50000000  0.00087300  0.45577600  1
  C  C12  1  0.50000000  0.20075400  0.00000000  1
  C  C13  1  0.50000000  0.80583000  0.82002600  1
  C  C14  1  0.50000000  0.98580400  0.17997400  1
  C  C15  1  0.00000000  0.46633700  0.25018300  1
  C  C16  1  0.00000000  0.78264700  0.53971000  1
  C  C17  1  0.00000000  0.74380500  0.19295500  1
  C  C18  1  0.00000000  0.21615400  0.74981700  1
  C  C19  1  0.00000000  0.24293800  0.46029000  1
  C  C20  1  0.00000000  0.55085000  0.80704500  1
