# generated using pymatgen
data_Cu9(NiC)2
_symmetry_space_group_name_H-M   'P 1'
_cell_length_a   8.49901000
_cell_length_b   10.80791942
_cell_length_c   10.22486550
_cell_angle_alpha   120.88954974
_cell_angle_beta   90.00000000
_cell_angle_gamma   90.00000000
_symmetry_Int_Tables_number   1
_chemical_formula_structural   Cu9(NiC)2
_chemical_formula_sum   'Cu36 Ni8 C8'
_cell_volume   806.00099847
_cell_formula_units_Z   4
loop_
 _symmetry_equiv_pos_site_id
 _symmetry_equiv_pos_as_xyz
  1  'x, y, z'
loop_
 _atom_site_type_symbol
 _atom_site_label
 _atom_site_symmetry_multiplicity
 _atom_site_fract_x
 _atom_site_fract_y
 _atom_site_fract_z
 _atom_site_occupancy
  C  C0  1  0.37073500  0.97171700  0.71809500  1
  C  C1  1  0.62926500  0.02828300  0.28190500  1
  C  C2  1  0.87073500  0.52828300  0.78190500  1
  C  C3  1  0.12926500  0.47171700  0.21809500  1
  C  C4  1  0.34373000  0.67939500  0.95205700  1
  C  C5  1  0.65627000  0.32060500  0.04794300  1
  C  C6  1  0.84373000  0.82060500  0.54794300  1
  C  C7  1  0.15627000  0.17939500  0.45205700  1
  Ni  Ni8  1  0.12595700  0.31157600  0.87367800  1
  Ni  Ni9  1  0.87404300  0.68842400  0.12632200  1
  Ni  Ni10  1  0.62595700  0.18842400  0.62632200  1
  Ni  Ni11  1  0.37404300  0.81157600  0.37367800  1
  Ni  Ni12  1  0.19831600  0.61021300  0.59586300  1
  Ni  Ni13  1  0.80168400  0.38978700  0.40413700  1
  Ni  Ni14  1  0.69831600  0.88978700  0.90413700  1
  Ni  Ni15  1  0.30168400  0.11021300  0.09586300  1
  Cu  Cu16  1  0.79563600  0.02230800  0.98580900  1
  Cu  Cu17  1  0.20436400  0.97769200  0.01419100  1
  Cu  Cu18  1  0.29563600  0.47769200  0.51419100  1
  Cu  Cu19  1  0.70436400  0.52230800  0.48580900  1
  Cu  Cu20  1  0.19653400  0.16924800  0.76778900  1
  Cu  Cu21  1  0.80346600  0.83075200  0.23221100  1
  Cu  Cu22  1  0.69653400  0.33075200  0.73221100  1
  Cu  Cu23  1  0.30346600  0.66924800  0.26778900  1
  Cu  Cu24  1  0.30092300  0.74154400  0.67641300  1
  Cu  Cu25  1  0.69907700  0.25845600  0.32358700  1
  Cu  Cu26  1  0.80092300  0.75845600  0.82358700  1
  Cu  Cu27  1  0.19907700  0.24154400  0.17641300  1
  Cu  Cu28  1  0.40359200  0.12291000  0.98428900  1
  Cu  Cu29  1  0.59640800  0.87709000  0.01571100  1
  Cu  Cu30  1  0.90359200  0.37709000  0.51571100  1
  Cu  Cu31  1  0.09640800  0.62291000  0.48428900  1
  Cu  Cu32  1  0.11819400  0.93248600  0.77667100  1
  Cu  Cu33  1  0.88180600  0.06751400  0.22332900  1
  Cu  Cu34  1  0.61819400  0.56751400  0.72332900  1
  Cu  Cu35  1  0.38180600  0.43248600  0.27667100  1
  Cu  Cu36  1  0.24794900  0.41549300  0.98019400  1
  Cu  Cu37  1  0.75205100  0.58450700  0.01980600  1
  Cu  Cu38  1  0.74794900  0.08450700  0.51980600  1
  Cu  Cu39  1  0.25205100  0.91549300  0.48019400  1
  Cu  Cu40  1  0.00469300  0.30612500  0.97620100  1
  Cu  Cu41  1  0.99530700  0.69387500  0.02379900  1
  Cu  Cu42  1  0.50469300  0.19387500  0.52379900  1
  Cu  Cu43  1  0.49530700  0.80612500  0.47620100  1
  Cu  Cu44  1  0.05491300  0.36670800  0.77972600  1
  Cu  Cu45  1  0.94508700  0.63329200  0.22027400  1
  Cu  Cu46  1  0.55491300  0.13329200  0.72027400  1
  Cu  Cu47  1  0.44508700  0.86670800  0.27972600  1
  Cu  Cu48  1  0.60292200  0.89586600  0.78576100  1
  Cu  Cu49  1  0.39707800  0.10413400  0.21423900  1
  Cu  Cu50  1  0.10292200  0.60413400  0.71423900  1
  Cu  Cu51  1  0.89707800  0.39586600  0.28576100  1
