# generated using pymatgen
data_Cu(NiC2)2
_symmetry_space_group_name_H-M   'P 1'
_cell_length_a   6.01701042
_cell_length_b   6.01701042
_cell_length_c   14.92473300
_cell_angle_alpha   90.00000000
_cell_angle_beta   90.00000000
_cell_angle_gamma   120.00000462
_symmetry_Int_Tables_number   1
_chemical_formula_structural   Cu(NiC2)2
_chemical_formula_sum   'Cu6 Ni12 C24'
_cell_volume   467.94919997
_cell_formula_units_Z   6
loop_
 _symmetry_equiv_pos_site_id
 _symmetry_equiv_pos_as_xyz
  1  'x, y, z'
loop_
 _atom_site_type_symbol
 _atom_site_label
 _atom_site_symmetry_multiplicity
 _atom_site_fract_x
 _atom_site_fract_y
 _atom_site_fract_z
 _atom_site_occupancy
  Ni  Ni0  1  0.98692300  0.49346100  0.16730900  1
  Ni  Ni1  1  0.50653900  0.01307700  0.16730900  1
  Ni  Ni2  1  0.33467500  0.16733700  0.49950500  1
  Ni  Ni3  1  0.50653900  0.49346100  0.16730900  1
  Ni  Ni4  1  0.66666700  0.33333300  0.33986100  1
  Ni  Ni5  1  0.83266300  0.66532500  0.49950500  1
  Ni  Ni6  1  0.69530500  0.84765300  0.82867300  1
  Ni  Ni7  1  0.83266300  0.16733700  0.49950500  1
  Ni  Ni8  1  0.15234700  0.84765300  0.82867300  1
  Ni  Ni9  1  0.00000000  0.00000000  0.67137400  1
  Ni  Ni10  1  0.15234700  0.30469500  0.82867300  1
  Ni  Ni11  1  0.66666700  0.33333300  0.94980800  1
  Cu  Cu12  1  0.00000000  0.00000000  0.04911400  1
  Cu  Cu13  1  0.33333300  0.66666700  0.36951200  1
  Cu  Cu14  1  0.33333300  0.66666700  0.00153900  1
  Cu  Cu15  1  0.66666700  0.33333300  0.70133200  1
  Cu  Cu16  1  0.00000000  0.00000000  0.29264200  1
  Cu  Cu17  1  0.33333300  0.66666700  0.63089500  1
  C  C18  1  0.17801500  0.35603000  0.09438100  1
  C  C19  1  0.33333300  0.66666700  0.23850100  1
  C  C20  1  0.17801500  0.82198500  0.09438100  1
  C  C21  1  0.64397000  0.82198500  0.09438100  1
  C  C22  1  0.36076100  0.18038000  0.25117600  1
  C  C23  1  0.50938200  0.01876300  0.42031800  1
  C  C24  1  0.81962000  0.18038000  0.25117600  1
  C  C25  1  0.66666700  0.33333300  0.07844500  1
  C  C26  1  0.50938200  0.49061800  0.42031800  1
  C  C27  1  0.66666700  0.33333300  0.57163300  1
  C  C28  1  0.81962000  0.63923900  0.25117600  1
  C  C29  1  0.98123700  0.49061800  0.42031800  1
  C  C30  1  0.69265500  0.84632700  0.57967900  1
  C  C31  1  0.83929600  0.67859200  0.74818800  1
  C  C32  1  0.15367300  0.84632700  0.57967900  1
  C  C33  1  0.00000000  0.00000000  0.42658300  1
  C  C34  1  0.00000000  0.00000000  0.91580400  1
  C  C35  1  0.83929600  0.16070400  0.74818800  1
  C  C36  1  0.15367300  0.30734500  0.57967900  1
  C  C37  1  0.32140800  0.16070400  0.74818800  1
  C  C38  1  0.01063300  0.50531600  0.91098000  1
  C  C39  1  0.33333300  0.66666700  0.76346600  1
  C  C40  1  0.49468400  0.50531600  0.91098000  1
  C  C41  1  0.49468400  0.98936700  0.91098000  1
