# generated using pymatgen
data_Cu2NiC9
_symmetry_space_group_name_H-M   'P 1'
_cell_length_a   7.59613513
_cell_length_b   7.59613513
_cell_length_c   7.42265468
_cell_angle_alpha   65.23232896
_cell_angle_beta   65.23232896
_cell_angle_gamma   93.92416684
_symmetry_Int_Tables_number   1
_chemical_formula_structural   Cu2NiC9
_chemical_formula_sum   'Cu4 Ni2 C18'
_cell_volume   337.31527747
_cell_formula_units_Z   2
loop_
 _symmetry_equiv_pos_site_id
 _symmetry_equiv_pos_as_xyz
  1  'x, y, z'
loop_
 _atom_site_type_symbol
 _atom_site_label
 _atom_site_symmetry_multiplicity
 _atom_site_fract_x
 _atom_site_fract_y
 _atom_site_fract_z
 _atom_site_occupancy
  C  C0  1  0.70206100  0.29793900  0.00000000  1
  C  C1  1  0.29793900  0.70206100  0.00000000  1
  Ni  Ni2  1  0.68984100  0.68984100  0.48024000  1
  Ni  Ni3  1  0.31015900  0.31015900  0.51976000  1
  Cu  Cu4  1  0.21458300  0.21458300  0.02770800  1
  Cu  Cu5  1  0.78541700  0.78541700  0.97229200  1
  Cu  Cu6  1  0.84023300  0.15976700  0.50000000  1
  Cu  Cu7  1  0.15976700  0.84023300  0.50000000  1
  C  C8  1  0.34748900  0.10095400  0.23982500  1
  C  C9  1  0.65251100  0.89904600  0.76017500  1
  C  C10  1  0.89904600  0.65251100  0.76017500  1
  C  C11  1  0.10095400  0.34748900  0.23982500  1
  C  C12  1  0.68906000  0.20959100  0.35925600  1
  C  C13  1  0.31094000  0.79040900  0.64074400  1
  C  C14  1  0.79040900  0.31094000  0.64074400  1
  C  C15  1  0.20959100  0.68906000  0.35925600  1
  C  C16  1  0.69840100  0.94961400  0.09301600  1
  C  C17  1  0.30159900  0.05038600  0.90698400  1
  C  C18  1  0.05038600  0.30159900  0.90698400  1
  C  C19  1  0.94961400  0.69840100  0.09301600  1
  C  C20  1  0.98074000  0.98074000  0.34038700  1
  C  C21  1  0.01926000  0.01926000  0.65961300  1
  C  C22  1  0.55673300  0.55673300  0.14318600  1
  C  C23  1  0.44326700  0.44326700  0.85681400  1
