# generated using pymatgen
data_Cu4Ni13C3
_symmetry_space_group_name_H-M   'P 1'
_cell_length_a   9.16235700
_cell_length_b   9.16235700
_cell_length_c   9.16235700
_cell_angle_alpha   90.00000000
_cell_angle_beta   90.00000000
_cell_angle_gamma   90.00000000
_symmetry_Int_Tables_number   1
_chemical_formula_structural   Cu4Ni13C3
_chemical_formula_sum   'Cu8 Ni26 C6'
_cell_volume   769.16874517
_cell_formula_units_Z   2
loop_
 _symmetry_equiv_pos_site_id
 _symmetry_equiv_pos_as_xyz
  1  'x, y, z'
loop_
 _atom_site_type_symbol
 _atom_site_label
 _atom_site_symmetry_multiplicity
 _atom_site_fract_x
 _atom_site_fract_y
 _atom_site_fract_z
 _atom_site_occupancy
  C  C0  1  0.00000000  0.50000000  0.75000000  1
  C  C1  1  0.50000000  0.25000000  0.00000000  1
  C  C2  1  0.75000000  0.00000000  0.50000000  1
  C  C3  1  0.00000000  0.50000000  0.25000000  1
  C  C4  1  0.50000000  0.75000000  0.00000000  1
  C  C5  1  0.25000000  0.00000000  0.50000000  1
  Ni  Ni6  1  0.50000000  0.50000000  0.50000000  1
  Ni  Ni7  1  0.00000000  0.00000000  0.00000000  1
  Ni  Ni8  1  0.79606000  0.35349900  0.50000000  1
  Ni  Ni9  1  0.64650100  0.50000000  0.79606000  1
  Ni  Ni10  1  0.50000000  0.20394000  0.64650100  1
  Ni  Ni11  1  0.20394000  0.64650100  0.50000000  1
  Ni  Ni12  1  0.35349900  0.50000000  0.20394000  1
  Ni  Ni13  1  0.50000000  0.79606000  0.35349900  1
  Ni  Ni14  1  0.79606000  0.64650100  0.50000000  1
  Ni  Ni15  1  0.64650100  0.50000000  0.20394000  1
  Ni  Ni16  1  0.20394000  0.35349900  0.50000000  1
  Ni  Ni17  1  0.35349900  0.50000000  0.79606000  1
  Ni  Ni18  1  0.50000000  0.79606000  0.64650100  1
  Ni  Ni19  1  0.50000000  0.20394000  0.35349900  1
  Ni  Ni20  1  0.29606000  0.00000000  0.85349900  1
  Ni  Ni21  1  0.14650100  0.29606000  0.00000000  1
  Ni  Ni22  1  0.00000000  0.14650100  0.70394000  1
  Ni  Ni23  1  0.70394000  0.00000000  0.14650100  1
  Ni  Ni24  1  0.85349900  0.70394000  0.00000000  1
  Ni  Ni25  1  0.00000000  0.85349900  0.29606000  1
  Ni  Ni26  1  0.29606000  0.00000000  0.14650100  1
  Ni  Ni27  1  0.14650100  0.70394000  0.00000000  1
  Ni  Ni28  1  0.70394000  0.00000000  0.85349900  1
  Ni  Ni29  1  0.85349900  0.29606000  0.00000000  1
  Ni  Ni30  1  0.00000000  0.14650100  0.29606000  1
  Ni  Ni31  1  0.00000000  0.85349900  0.70394000  1
  Cu  Cu32  1  0.75000000  0.25000000  0.75000000  1
  Cu  Cu33  1  0.25000000  0.75000000  0.25000000  1
  Cu  Cu34  1  0.75000000  0.75000000  0.25000000  1
  Cu  Cu35  1  0.25000000  0.25000000  0.75000000  1
  Cu  Cu36  1  0.25000000  0.75000000  0.75000000  1
  Cu  Cu37  1  0.75000000  0.25000000  0.25000000  1
  Cu  Cu38  1  0.25000000  0.25000000  0.25000000  1
  Cu  Cu39  1  0.75000000  0.75000000  0.75000000  1
