# generated using pymatgen
data_CuNi2C9
_symmetry_space_group_name_H-M   'P 1'
_cell_length_a   11.17436297
_cell_length_b   11.17436297
_cell_length_c   11.17436297
_cell_angle_alpha   109.47122063
_cell_angle_beta   109.47122063
_cell_angle_gamma   109.47122063
_symmetry_Int_Tables_number   1
_chemical_formula_structural   CuNi2C9
_chemical_formula_sum   'Cu6 Ni12 C54'
_cell_volume   1074.10424265
_cell_formula_units_Z   6
loop_
 _symmetry_equiv_pos_site_id
 _symmetry_equiv_pos_as_xyz
  1  'x, y, z'
loop_
 _atom_site_type_symbol
 _atom_site_label
 _atom_site_symmetry_multiplicity
 _atom_site_fract_x
 _atom_site_fract_y
 _atom_site_fract_z
 _atom_site_occupancy
  C  C0  1  0.69308402  0.69308402  0.38616803  1
  C  C1  1  0.30691598  0.30691598  0.61383197  1
  C  C2  1  0.30691598  0.69308402  -0.00000000  1
  C  C3  1  0.69308402  0.30691598  0.00000000  1
  C  C4  1  0.69308402  0.38616803  0.69308402  1
  C  C5  1  0.69308402  -0.00000000  0.30691598  1
  C  C6  1  0.30691598  0.61383197  0.30691598  1
  C  C7  1  0.30691598  -0.00000000  0.69308402  1
  C  C8  1  0.38616803  0.69308402  0.69308402  1
  C  C9  1  0.61383197  0.30691598  0.30691598  1
  C  C10  1  -0.00000000  0.69308402  0.30691598  1
  C  C11  1  0.00000000  0.30691598  0.69308402  1
  Ni  Ni12  1  0.76071798  0.76071798  0.76071798  1
  Ni  Ni13  1  0.23928202  0.23928202  0.23928202  1
  Ni  Ni14  1  0.23928202  -0.00000000  -0.00000000  1
  Ni  Ni15  1  0.00000000  0.23928202  0.00000000  1
  Ni  Ni16  1  0.76071798  0.00000000  -0.00000000  1
  Ni  Ni17  1  -0.00000000  0.76071798  -0.00000000  1
  Ni  Ni18  1  -0.00000000  -0.00000000  0.23928202  1
  Ni  Ni19  1  0.00000000  0.00000000  0.76071798  1
  Ni  Ni20  1  0.50000000  0.50000000  0.50000000  1
  Ni  Ni21  1  0.50000000  0.00000000  -0.00000000  1
  Ni  Ni22  1  0.00000000  0.50000000  -0.00000000  1
  Ni  Ni23  1  0.00000000  0.00000000  0.50000000  1
  Cu  Cu24  1  0.63472438  0.63472438  0.00000000  1
  Cu  Cu25  1  0.36527562  0.36527562  -0.00000000  1
  Cu  Cu26  1  0.63472438  0.00000000  0.63472438  1
  Cu  Cu27  1  0.36527562  -0.00000000  0.36527562  1
  Cu  Cu28  1  0.00000000  0.63472438  0.63472438  1
  Cu  Cu29  1  -0.00000000  0.36527562  0.36527562  1
  C  C30  1  0.74747545  0.57150235  0.57150235  1
  C  C31  1  0.25252455  0.42849765  0.42849765  1
  C  C32  1  0.25252455  0.82402690  0.82402690  1
  C  C33  1  -0.00000000  0.42849765  0.17597310  1
  C  C34  1  0.57150235  0.57150235  0.74747545  1
  C  C35  1  0.74747545  0.17597310  0.17597310  1
  C  C36  1  0.00000000  0.57150235  0.82402690  1
  C  C37  1  0.42849765  0.42849765  0.25252455  1
  C  C38  1  0.00000000  0.17597310  0.42849765  1
  C  C39  1  0.82402690  0.82402690  0.25252455  1
  C  C40  1  0.00000000  0.82402690  0.57150235  1
  C  C41  1  0.17597310  0.17597310  0.74747545  1
  C  C42  1  0.42849765  0.17597310  -0.00000000  1
  C  C43  1  0.57150235  0.82402690  0.00000000  1
  C  C44  1  0.17597310  0.42849765  -0.00000000  1
  C  C45  1  0.82402690  0.57150235  -0.00000000  1
  C  C46  1  0.57150235  0.74747545  0.57150235  1
  C  C47  1  0.57150235  0.00000000  0.82402690  1
  C  C48  1  0.42849765  0.25252455  0.42849765  1
  C  C49  1  0.42849765  0.00000000  0.17597310  1
  C  C50  1  0.17597310  0.00000000  0.42849765  1
  C  C51  1  0.82402690  0.00000000  0.57150235  1
  C  C52  1  0.17597310  0.74747545  0.17597310  1
  C  C53  1  0.82402690  0.25252455  0.82402690  1
  C  C54  1  0.86267577  0.36267577  0.50000000  1
  C  C55  1  0.13732423  0.63732423  0.50000000  1
  C  C56  1  0.36267577  0.50000000  0.86267577  1
  C  C57  1  0.86267577  0.50000000  0.36267577  1
  C  C58  1  0.63732423  0.50000000  0.13732423  1
  C  C59  1  0.13732423  0.50000000  0.63732423  1
  C  C60  1  0.50000000  0.86267577  0.36267577  1
  C  C61  1  0.36267577  0.86267577  0.50000000  1
  C  C62  1  0.50000000  0.13732423  0.63732423  1
  C  C63  1  0.63732423  0.13732423  0.50000000  1
  C  C64  1  0.50000000  0.36267577  0.86267577  1
  C  C65  1  0.50000000  0.63732423  0.13732423  1
  C  C66  1  0.82377888  0.82377888  0.00000000  1
  C  C67  1  0.17622112  0.17622112  -0.00000000  1
  C  C68  1  0.82377888  0.00000000  0.82377888  1
  C  C69  1  0.17622112  -0.00000000  0.17622112  1
  C  C70  1  0.00000000  0.82377888  0.82377888  1
  C  C71  1  -0.00000000  0.17622112  0.17622112  1
