# generated using pymatgen
data_CuNiC6
_symmetry_space_group_name_H-M   'P 1'
_cell_length_a   5.37803275
_cell_length_b   7.73859656
_cell_length_c   11.42367922
_cell_angle_alpha   93.92103517
_cell_angle_beta   96.52412901
_cell_angle_gamma   70.75441440
_symmetry_Int_Tables_number   1
_chemical_formula_structural   CuNiC6
_chemical_formula_sum   'Cu4 Ni4 C24'
_cell_volume   445.71623058
_cell_formula_units_Z   4
loop_
 _symmetry_equiv_pos_site_id
 _symmetry_equiv_pos_as_xyz
  1  'x, y, z'
loop_
 _atom_site_type_symbol
 _atom_site_label
 _atom_site_symmetry_multiplicity
 _atom_site_fract_x
 _atom_site_fract_y
 _atom_site_fract_z
 _atom_site_occupancy
  C  C0  1  0.71698000  0.95156300  0.31604300  1
  C  C1  1  0.28301100  0.04843900  0.68395700  1
  C  C2  1  0.21763000  0.45148000  0.81594100  1
  C  C3  1  0.78235000  0.54851800  0.18406400  1
  Ni  Ni4  1  0.29898200  0.60211000  0.36398800  1
  Ni  Ni5  1  0.79906800  0.10195000  0.86404700  1
  Ni  Ni6  1  0.70101000  0.39789200  0.63601000  1
  Ni  Ni7  1  0.20094100  0.89805800  0.13595500  1
  Cu  Cu8  1  0.63332600  0.71173000  0.89906900  1
  Cu  Cu9  1  0.13311000  0.21175600  0.39906000  1
  Cu  Cu10  1  0.36668300  0.28826600  0.10093000  1
  Cu  Cu11  1  0.86688600  0.78824600  0.60093600  1
  C  C12  1  0.96858200  0.66390000  0.90731500  1
  C  C13  1  0.46850100  0.16370600  0.40746100  1
  C  C14  1  0.03142800  0.33608300  0.09268500  1
  C  C15  1  0.53149600  0.83629700  0.59252900  1
  C  C16  1  0.50985200  0.57480400  0.79902400  1
  C  C17  1  0.00991600  0.07476900  0.29900100  1
  C  C18  1  0.49014700  0.42519800  0.20097700  1
  C  C19  1  0.99007900  0.92523300  0.70099900  1
  C  C20  1  0.99727400  0.27206100  0.77444500  1
  C  C21  1  0.49728500  0.77211000  0.27438900  1
  C  C22  1  0.00272900  0.72792800  0.22555300  1
  C  C23  1  0.50271000  0.22790000  0.72561800  1
  C  C24  1  0.98651900  0.43823200  0.35639900  1
  C  C25  1  0.48661900  0.93818200  0.85633400  1
  C  C26  1  0.01345900  0.56177100  0.64360400  1
  C  C27  1  0.51339800  0.06181400  0.14367000  1
  C  C28  1  0.54177000  0.68969200  0.03636800  1
  C  C29  1  0.04141000  0.18964600  0.53630400  1
  C  C30  1  0.45825200  0.31031900  0.96363500  1
  C  C31  1  0.95859700  0.81034700  0.46369200  1
