# generated using pymatgen
data_Cu(NiC5)2
_symmetry_space_group_name_H-M   'P 1'
_cell_length_a   3.86629601
_cell_length_b   3.91930101
_cell_length_c   11.81992400
_cell_angle_alpha   90.00012149
_cell_angle_beta   89.99999516
_cell_angle_gamma   89.99256716
_symmetry_Int_Tables_number   1
_chemical_formula_structural   Cu(NiC5)2
_chemical_formula_sum   'Cu1 Ni2 C10'
_cell_volume   179.10940895
_cell_formula_units_Z   1
loop_
 _symmetry_equiv_pos_site_id
 _symmetry_equiv_pos_as_xyz
  1  'x, y, z'
loop_
 _atom_site_type_symbol
 _atom_site_label
 _atom_site_symmetry_multiplicity
 _atom_site_fract_x
 _atom_site_fract_y
 _atom_site_fract_z
 _atom_site_occupancy
  Ni  Ni0  1  0.50000000  0.49999700  0.18383600  1
  Ni  Ni1  1  0.50000000  0.50000200  0.81615400  1
  Cu  Cu2  1  0.50000100  0.50000100  0.50001000  1
  C  C3  1  0.99999900  0.00000100  0.00000600  1
  C  C4  1  0.00000100  0.99999700  0.35978500  1
  C  C5  1  0.00000100  0.00000200  0.64021300  1
  C  C6  1  0.00000000  0.50000100  0.00000000  1
  C  C7  1  0.49999900  0.99999900  0.37776300  1
  C  C8  1  0.50000000  0.99999800  0.62223600  1
  C  C9  1  0.99999900  0.99999900  0.15265300  1
  C  C10  1  0.99999900  0.00000200  0.84734700  1
  C  C11  1  0.00000000  0.49999900  0.37796700  1
  C  C12  1  0.00000100  0.50000000  0.62203300  1
