# generated using pymatgen
data_Cu7Ni5C6
_symmetry_space_group_name_H-M   'P 1'
_cell_length_a   5.69043000
_cell_length_b   5.70234933
_cell_length_c   7.25005236
_cell_angle_alpha   73.49081208
_cell_angle_beta   73.41316609
_cell_angle_gamma   74.91739691
_symmetry_Int_Tables_number   1
_chemical_formula_structural   Cu7Ni5C6
_chemical_formula_sum   'Cu7 Ni5 C6'
_cell_volume   212.02567169
_cell_formula_units_Z   1
loop_
 _symmetry_equiv_pos_site_id
 _symmetry_equiv_pos_as_xyz
  1  'x, y, z'
loop_
 _atom_site_type_symbol
 _atom_site_label
 _atom_site_symmetry_multiplicity
 _atom_site_fract_x
 _atom_site_fract_y
 _atom_site_fract_z
 _atom_site_occupancy
  C  C0  1  0.67081200  0.70025600  0.81853300  1
  C  C1  1  0.37402800  0.32628800  0.67138000  1
  C  C2  1  0.64594800  0.65006100  0.33069100  1
  C  C3  1  0.32714400  0.32833500  0.16538900  1
  C  C4  1  0.98871400  0.99809800  0.50770400  1
  C  C5  1  0.99331600  0.00334600  0.99975100  1
  Ni  Ni6  1  0.22261700  0.22455600  0.97296300  1
  Ni  Ni7  1  0.57587000  0.57372900  0.62455200  1
  Ni  Ni8  1  0.77323900  0.77208600  0.03852600  1
  Ni  Ni9  1  0.42528800  0.42843200  0.36462200  1
  Ni  Ni10  1  0.63354200  0.03233400  0.67091100  1
  Cu  Cu11  1  0.03874900  0.62132300  0.67240000  1
  Cu  Cu12  1  0.36282600  0.97090400  0.33269300  1
  Cu  Cu13  1  0.90003200  0.89490300  0.29624200  1
  Cu  Cu14  1  0.10375000  0.10294400  0.70496000  1
  Cu  Cu15  1  0.96869000  0.36972400  0.33044900  1
  Cu  Cu16  1  0.30298100  0.69601600  0.99898000  1
  Cu  Cu17  1  0.69245500  0.30667000  0.99925400  1
