# generated using pymatgen
data_CuNiC16
_symmetry_space_group_name_H-M   'P 1'
_cell_length_a   8.44805585
_cell_length_b   8.44805628
_cell_length_c   8.44805664
_cell_angle_alpha   64.04831774
_cell_angle_beta   64.04831926
_cell_angle_gamma   64.04832302
_symmetry_Int_Tables_number   1
_chemical_formula_structural   CuNiC16
_chemical_formula_sum   'Cu2 Ni2 C32'
_cell_volume   464.33612495
_cell_formula_units_Z   2
loop_
 _symmetry_equiv_pos_site_id
 _symmetry_equiv_pos_as_xyz
  1  'x, y, z'
loop_
 _atom_site_type_symbol
 _atom_site_label
 _atom_site_symmetry_multiplicity
 _atom_site_fract_x
 _atom_site_fract_y
 _atom_site_fract_z
 _atom_site_occupancy
  C  C0  1  0.14943800  0.14943800  0.14943800  1
  C  C1  1  0.64943800  0.64943800  0.64943800  1
  Ni  Ni2  1  0.99354900  0.99354900  0.99354900  1
  Ni  Ni3  1  0.49354900  0.49354900  0.49354900  1
  Cu  Cu4  1  0.33211300  0.33211300  0.33211300  1
  Cu  Cu5  1  0.83211300  0.83211300  0.83211300  1
  C  C6  1  0.06499400  0.42934400  0.75957400  1
  C  C7  1  0.42934400  0.75957400  0.06499400  1
  C  C8  1  0.75957400  0.06499400  0.42934400  1
  C  C9  1  0.25957400  0.92934400  0.56499400  1
  C  C10  1  0.56499400  0.25957400  0.92934400  1
  C  C11  1  0.92934400  0.56499400  0.25957400  1
  C  C12  1  0.05701900  0.56407900  0.34159900  1
  C  C13  1  0.34159900  0.05701900  0.56407900  1
  C  C14  1  0.07141000  0.23540000  0.90808200  1
  C  C15  1  0.56407900  0.34159900  0.05701900  1
  C  C16  1  0.06407900  0.55701900  0.84159900  1
  C  C17  1  0.24170500  0.41864500  0.58982900  1
  C  C18  1  0.23540000  0.90808200  0.07141000  1
  C  C19  1  0.41864500  0.58982900  0.24170500  1
  C  C20  1  0.21003900  0.00556900  0.37761000  1
  C  C21  1  0.58982900  0.24170500  0.41864500  1
  C  C22  1  0.08982900  0.91864500  0.74170500  1
  C  C23  1  0.37761000  0.21003900  0.00556900  1
  C  C24  1  0.55701900  0.84159900  0.06407900  1
  C  C25  1  0.90808200  0.07141000  0.23540000  1
  C  C26  1  0.40808200  0.73540000  0.57141000  1
  C  C27  1  0.84159900  0.06407900  0.55701900  1
  C  C28  1  0.57141000  0.40808200  0.73540000  1
  C  C29  1  0.74170500  0.08982900  0.91864500  1
  C  C30  1  0.73540000  0.57141000  0.40808200  1
  C  C31  1  0.00556900  0.37761000  0.21003900  1
  C  C32  1  0.50556900  0.71003900  0.87761000  1
  C  C33  1  0.91864500  0.74170500  0.08982900  1
  C  C34  1  0.71003900  0.87761000  0.50556900  1
  C  C35  1  0.87761000  0.50556900  0.71003900  1
