# generated using pymatgen
data_Cu3Ni3C4
_symmetry_space_group_name_H-M   'P 1'
_cell_length_a   5.95290169
_cell_length_b   5.95290148
_cell_length_c   5.95290160
_cell_angle_alpha   57.14258377
_cell_angle_beta   57.14258394
_cell_angle_gamma   57.14258028
_symmetry_Int_Tables_number   1
_chemical_formula_structural   Cu3Ni3C4
_chemical_formula_sum   'Cu3 Ni3 C4'
_cell_volume   139.34550772
_cell_formula_units_Z   1
loop_
 _symmetry_equiv_pos_site_id
 _symmetry_equiv_pos_as_xyz
  1  'x, y, z'
loop_
 _atom_site_type_symbol
 _atom_site_label
 _atom_site_symmetry_multiplicity
 _atom_site_fract_x
 _atom_site_fract_y
 _atom_site_fract_z
 _atom_site_occupancy
  C  C0  1  0.77342600  0.77342600  0.77342400  1
  C  C1  1  0.49077300  0.49077300  0.49077300  1
  C  C2  1  0.27197500  0.27197500  0.27197600  1
  C  C3  1  0.99886300  0.99886300  0.99886300  1
  Ni  Ni4  1  0.30963200  0.74775000  0.09289800  1
  Ni  Ni5  1  0.09289800  0.30963200  0.74774900  1
  Ni  Ni6  1  0.74774900  0.09289800  0.30963300  1
  Cu  Cu7  1  0.64163200  0.17484000  0.87241200  1
  Cu  Cu8  1  0.17484000  0.87241200  0.64163100  1
  Cu  Cu9  1  0.87241100  0.64163100  0.17484100  1
