# generated using pymatgen
data_Cu4NiC3
_symmetry_space_group_name_H-M   'P 1'
_cell_length_a   9.11052500
_cell_length_b   9.23742100
_cell_length_c   11.14442900
_cell_angle_alpha   90.00000000
_cell_angle_beta   90.00000000
_cell_angle_gamma   90.00000000
_symmetry_Int_Tables_number   1
_chemical_formula_structural   Cu4NiC3
_chemical_formula_sum   'Cu16 Ni4 C12'
_cell_volume   937.89012491
_cell_formula_units_Z   4
loop_
 _symmetry_equiv_pos_site_id
 _symmetry_equiv_pos_as_xyz
  1  'x, y, z'
loop_
 _atom_site_type_symbol
 _atom_site_label
 _atom_site_symmetry_multiplicity
 _atom_site_fract_x
 _atom_site_fract_y
 _atom_site_fract_z
 _atom_site_occupancy
  C  C0  1  0.39973100  0.60984300  0.75000000  1
  C  C1  1  0.89973100  0.89015700  0.75000000  1
  C  C2  1  0.10026900  0.10984300  0.25000000  1
  C  C3  1  0.60026900  0.39015700  0.25000000  1
  C  C4  1  0.43351400  0.80257300  0.44451800  1
  C  C5  1  0.93351400  0.69742700  0.05548200  1
  C  C6  1  0.06648600  0.30257300  0.55548200  1
  C  C7  1  0.56648600  0.19742700  0.94451800  1
  C  C8  1  0.56648600  0.19742700  0.55548200  1
  C  C9  1  0.06648600  0.30257300  0.94451800  1
  C  C10  1  0.93351400  0.69742700  0.44451800  1
  C  C11  1  0.43351400  0.80257300  0.05548200  1
  Ni  Ni12  1  0.27868100  0.02745900  0.75000000  1
  Ni  Ni13  1  0.77868100  0.47254100  0.75000000  1
  Ni  Ni14  1  0.22131900  0.52745900  0.25000000  1
  Ni  Ni15  1  0.72131900  0.97254100  0.25000000  1
  Cu  Cu16  1  0.30357500  0.25167800  0.75000000  1
  Cu  Cu17  1  0.80357500  0.24832200  0.75000000  1
  Cu  Cu18  1  0.19642500  0.75167800  0.25000000  1
  Cu  Cu19  1  0.69642500  0.74832200  0.25000000  1
  Cu  Cu20  1  0.48569200  0.93947600  0.75000000  1
  Cu  Cu21  1  0.98569200  0.56052400  0.75000000  1
  Cu  Cu22  1  0.01430800  0.43947600  0.25000000  1
  Cu  Cu23  1  0.51430800  0.06052400  0.25000000  1
  Cu  Cu24  1  0.83530000  0.03215100  0.09854200  1
  Cu  Cu25  1  0.33530000  0.46784900  0.40145800  1
  Cu  Cu26  1  0.66470000  0.53215100  0.90145800  1
  Cu  Cu27  1  0.16470000  0.96784900  0.59854200  1
  Cu  Cu28  1  0.16470000  0.96784900  0.90145800  1
  Cu  Cu29  1  0.66470000  0.53215100  0.59854200  1
  Cu  Cu30  1  0.33530000  0.46784900  0.09854200  1
  Cu  Cu31  1  0.83530000  0.03215100  0.40145800  1
