# generated using pymatgen
data_Cu2NiC2
_symmetry_space_group_name_H-M   'P 1'
_cell_length_a   5.61987524
_cell_length_b   5.61987524
_cell_length_c   5.61987524
_cell_angle_alpha   120.76493013
_cell_angle_beta   120.04050761
_cell_angle_gamma   89.30503328
_symmetry_Int_Tables_number   1
_chemical_formula_structural   Cu2NiC2
_chemical_formula_sum   'Cu4 Ni2 C4'
_cell_volume   124.72591522
_cell_formula_units_Z   2
loop_
 _symmetry_equiv_pos_site_id
 _symmetry_equiv_pos_as_xyz
  1  'x, y, z'
loop_
 _atom_site_type_symbol
 _atom_site_label
 _atom_site_symmetry_multiplicity
 _atom_site_fract_x
 _atom_site_fract_y
 _atom_site_fract_z
 _atom_site_occupancy
  C  C0  1  0.24964900  0.25000000  0.99964900  1
  C  C1  1  0.75035100  0.75000000  0.00035100  1
  C  C2  1  0.50000000  0.00000000  0.50000000  1
  C  C3  1  0.00000000  0.50000000  0.50000000  1
  Ni  Ni4  1  0.68229000  0.25000000  0.43229000  1
  Ni  Ni5  1  0.31771000  0.75000000  0.56771000  1
  Cu  Cu6  1  0.78510000  0.78510000  0.50000000  1
  Cu  Cu7  1  0.21490000  0.71490000  0.00000000  1
  Cu  Cu8  1  0.78510000  0.28510000  0.00000000  1
  Cu  Cu9  1  0.21490000  0.21490000  0.50000000  1
