# generated using pymatgen
data_Cu2NiC12
_symmetry_space_group_name_H-M   'P 1'
_cell_length_a   5.59979090
_cell_length_b   5.59979090
_cell_length_c   13.70097797
_cell_angle_alpha   89.32828365
_cell_angle_beta   89.32828365
_cell_angle_gamma   59.80663064
_symmetry_Int_Tables_number   1
_chemical_formula_structural   Cu2NiC12
_chemical_formula_sum   'Cu4 Ni2 C24'
_cell_volume   371.30993536
_cell_formula_units_Z   2
loop_
 _symmetry_equiv_pos_site_id
 _symmetry_equiv_pos_as_xyz
  1  'x, y, z'
loop_
 _atom_site_type_symbol
 _atom_site_label
 _atom_site_symmetry_multiplicity
 _atom_site_fract_x
 _atom_site_fract_y
 _atom_site_fract_z
 _atom_site_occupancy
  Ni  Ni0  1  0.50583000  0.50583000  0.74996600  1
  Ni  Ni1  1  0.49417000  0.49417000  0.25003400  1
  Cu  Cu2  1  0.82424200  0.82424200  0.07597600  1
  Cu  Cu3  1  0.15904400  0.15904400  0.41945700  1
  Cu  Cu4  1  0.84095600  0.84095600  0.58054300  1
  Cu  Cu5  1  0.17575800  0.17575800  0.92402400  1
  C  C6  1  0.50000000  0.50000000  0.50000000  1
  C  C7  1  0.83662900  0.83662900  0.83038300  1
  C  C8  1  0.16337100  0.16337100  0.16961700  1
  C  C9  1  0.50000000  0.50000000  0.00000000  1
  C  C10  1  0.83119300  0.83119300  0.33261900  1
  C  C11  1  0.16880700  0.16880700  0.66738100  1
  C  C12  1  0.82419200  0.29687700  0.58621000  1
  C  C13  1  0.14220400  0.64345000  0.93087700  1
  C  C14  1  0.46927300  0.98972800  0.26621200  1
  C  C15  1  0.01027200  0.53072700  0.73378800  1
  C  C16  1  0.35655000  0.85779600  0.06912300  1
  C  C17  1  0.70312300  0.17580800  0.41379000  1
  C  C18  1  0.29687700  0.82419200  0.58621000  1
  C  C19  1  0.64345000  0.14220400  0.93087700  1
  C  C20  1  0.98972800  0.46927300  0.26621200  1
  C  C21  1  0.53072700  0.01027200  0.73378800  1
  C  C22  1  0.85779600  0.35655000  0.06912300  1
  C  C23  1  0.17580800  0.70312300  0.41379000  1
  C  C24  1  0.68857000  0.68857000  0.44096500  1
  C  C25  1  0.02977900  0.02977900  0.77654500  1
  C  C26  1  0.34114200  0.34114200  0.09295900  1
  C  C27  1  0.65885800  0.65885800  0.90704100  1
  C  C28  1  0.97022100  0.97022100  0.22345500  1
  C  C29  1  0.31143000  0.31143000  0.55903500  1
