# generated using pymatgen
data_Cu8NiC12
_symmetry_space_group_name_H-M   'P 1'
_cell_length_a   6.07906748
_cell_length_b   6.08567017
_cell_length_c   54.61484804
_cell_angle_alpha   59.87695703
_cell_angle_beta   59.90172283
_cell_angle_gamma   59.96525210
_symmetry_Int_Tables_number   1
_chemical_formula_structural   Cu8NiC12
_chemical_formula_sum   'Cu48 Ni6 C72'
_cell_volume   1425.93204734
_cell_formula_units_Z   6
loop_
 _symmetry_equiv_pos_site_id
 _symmetry_equiv_pos_as_xyz
  1  'x, y, z'
loop_
 _atom_site_type_symbol
 _atom_site_label
 _atom_site_symmetry_multiplicity
 _atom_site_fract_x
 _atom_site_fract_y
 _atom_site_fract_z
 _atom_site_occupancy
  Ni  Ni0  1  0.99708335  0.99960159  0.00054398  1
  Ni  Ni1  1  0.24636218  0.24629302  0.02901725  1
  Ni  Ni2  1  0.00550592  0.00713534  0.10919703  1
  Ni  Ni3  1  0.00212997  0.99700388  0.22210099  1
  Ni  Ni4  1  0.99915004  0.00430866  0.77682161  1
  Ni  Ni5  1  0.00067487  0.00163101  0.88855385  1
  Cu  Cu6  1  0.12970865  0.62664055  0.06874279  1
  Cu  Cu7  1  0.62473527  0.62086544  0.01420789  1
  Cu  Cu8  1  0.25265004  0.24927721  0.13826272  1
  Cu  Cu9  1  0.62594788  0.12644524  0.06925748  1
  Cu  Cu10  1  0.12434737  0.62641393  0.18003782  1
  Cu  Cu11  1  0.62722858  0.62609762  0.06862005  1
  Cu  Cu12  1  0.62648896  0.62902394  0.12422875  1
  Cu  Cu13  1  0.24818589  0.25247211  0.25021060  1
  Cu  Cu14  1  0.62778588  0.12481224  0.17988581  1
  Cu  Cu15  1  0.99837068  0.99627342  0.33362395  1
  Cu  Cu16  1  0.11895687  0.62683929  0.29213604  1
  Cu  Cu17  1  0.62768596  0.62577471  0.18013822  1
  Cu  Cu18  1  0.62805045  0.62438013  0.23558806  1
  Cu  Cu19  1  0.24958536  0.24807342  0.36187076  1
  Cu  Cu20  1  0.99579148  0.00086412  0.44417460  1
  Cu  Cu21  1  0.62281643  0.12492115  0.29201418  1
  Cu  Cu22  1  0.12549163  0.62498821  0.40250842  1
  Cu  Cu23  1  0.62491537  0.62659496  0.29228098  1
  Cu  Cu24  1  0.62286141  0.62806625  0.34718842  1
  Cu  Cu25  1  0.25437922  0.25045853  0.47234200  1
  Cu  Cu26  1  0.62394236  0.12592398  0.40282279  1
  Cu  Cu27  1  0.12584906  0.62546696  0.51368223  1
  Cu  Cu28  1  0.62331008  0.62453242  0.40317336  1
  Cu  Cu29  1  0.62573939  0.62163780  0.45871671  1
  Cu  Cu30  1  0.62593205  0.12542137  0.51368430  1
  Cu  Cu31  1  0.25005557  0.25000652  0.58320393  1
  Cu  Cu32  1  0.99905659  0.00322458  0.66676966  1
  Cu  Cu33  1  0.12384430  0.62413356  0.62538130  1
  Cu  Cu34  1  0.62680070  0.62578747  0.51278625  1
  Cu  Cu35  1  0.62881656  0.62824770  0.56854793  1
  Cu  Cu36  1  0.00089213  0.00088766  0.55549237  1
  Cu  Cu37  1  0.62406388  0.12180410  0.62553345  1
  Cu  Cu38  1  0.25041289  0.24444061  0.69528008  1
  Cu  Cu39  1  0.62479382  0.62534938  0.62505488  1
  Cu  Cu40  1  0.12452371  0.62478167  0.73590812  1
  Cu  Cu41  1  0.61815213  0.62467532  0.68113946  1
  Cu  Cu42  1  0.25448269  0.25384718  0.80474196  1
  Cu  Cu43  1  0.62367027  0.12462772  0.73647819  1
  Cu  Cu44  1  0.12485399  0.62731574  0.84697043  1
  Cu  Cu45  1  0.62463861  0.62173413  0.73654474  1
  Cu  Cu46  1  0.63086756  0.62428716  0.79118158  1
  Cu  Cu47  1  0.24752018  0.24709067  0.91756299  1
  Cu  Cu48  1  0.62649435  0.12426025  0.84703234  1
  Cu  Cu49  1  0.62576596  0.62748591  0.84696961  1
  Cu  Cu50  1  0.11728919  0.62394977  0.95932366  1
  Cu  Cu51  1  0.62711127  0.62663705  0.90215368  1
  Cu  Cu52  1  0.62368915  0.11815323  0.95920917  1
  Cu  Cu53  1  0.62381606  0.62448453  0.95937561  1
  C  C54  1  0.38036926  0.37677506  0.04414015  1
  C  C55  1  0.37668198  0.84705351  0.04451901  1
  C  C56  1  0.38739029  0.38641102  0.09333323  1
  C  C57  1  0.84744325  0.37390368  0.04460015  1
  C  C58  1  0.38503599  0.38564256  0.15473184  1
  C  C59  1  0.40690935  0.86428710  0.09647354  1
  C  C60  1  0.86457501  0.86603556  0.04514455  1
  C  C61  1  0.38294877  0.83630384  0.15526940  1
  C  C62  1  0.86214811  0.40888624  0.09664476  1
  C  C63  1  0.38057913  0.37938686  0.20672059  1
  C  C64  1  0.83583104  0.38480516  0.15495433  1
  C  C65  1  0.86151457  0.86329699  0.09663524  1
  C  C66  1  0.37532536  0.39468661  0.26364786  1
  C  C67  1  0.40828107  0.86442452  0.20711865  1
  C  C68  1  0.86515629  0.86469778  0.15598176  1
  C  C69  1  0.86414994  0.40480588  0.20746817  1
  C  C70  1  0.38345630  0.85138192  0.26462457  1
  C  C71  1  0.37702136  0.39105189  0.31716635  1
  C  C72  1  0.85767348  0.39583496  0.26359123  1
  C  C73  1  0.86353795  0.86454210  0.20707121  1
  C  C74  1  0.38833543  0.37118424  0.37555695  1
  C  C75  1  0.38492332  0.86194242  0.31865245  1
  C  C76  1  0.87669288  0.39037370  0.31747356  1
  C  C77  1  0.86862776  0.85492591  0.26748909  1
  C  C78  1  0.38839150  0.86427292  0.37542906  1
  C  C79  1  0.39549978  0.37585327  0.42799039  1
  C  C80  1  0.85660572  0.37772484  0.37634038  1
  C  C81  1  0.88412131  0.86249563  0.31833606  1
  C  C82  1  0.37976891  0.38216126  0.48617295  1
  C  C83  1  0.39211560  0.87857574  0.42806626  1
  C  C84  1  0.86703019  0.38777392  0.42875446  1
  C  C85  1  0.85501716  0.87633805  0.37692980  1
  C  C86  1  0.38424255  0.86418556  0.48770348  1
  C  C87  1  0.38376691  0.38164861  0.54065342  1
  C  C88  1  0.86708875  0.38412212  0.48751898  1
  C  C89  1  0.86464224  0.88030814  0.42882722  1
  C  C90  1  0.38252619  0.38359761  0.59835337  1
  C  C91  1  0.39223609  0.85307821  0.54212848  1
  C  C92  1  0.86557596  0.86697645  0.48745614  1
  C  C93  1  0.85314442  0.39215457  0.54214460  1
  C  C94  1  0.37604168  0.85541266  0.59716772  1
  C  C95  1  0.37523630  0.37508526  0.65066405  1
  C  C96  1  0.85597906  0.37440722  0.59714613  1
  C  C97  1  0.86313194  0.86163457  0.54335032  1
  C  C98  1  0.38814619  0.36253976  0.70933180  1
  C  C99  1  0.38601675  0.88658307  0.65114378  1
  C  C100  1  0.87520255  0.87503326  0.59942990  1
  C  C101  1  0.39240281  0.86152325  0.70901309  1
  C  C102  1  0.88208721  0.39149466  0.65133092  1
  C  C103  1  0.39423388  0.38398316  0.75940285  1
  C  C104  1  0.85958390  0.37371728  0.71035035  1
  C  C105  1  0.87879063  0.87701629  0.65028168  1
  C  C106  1  0.38189170  0.38433779  0.82210171  1
  C  C107  1  0.40536942  0.86299592  0.76304611  1
  C  C108  1  0.86284600  0.87161979  0.71019014  1
  C  C109  1  0.84575921  0.40295307  0.76411171  1
  C  C110  1  0.38467915  0.83584298  0.82161852  1
  C  C111  1  0.37898550  0.37866115  0.87384427  1
  C  C112  1  0.83831231  0.38387354  0.82175921  1
  C  C113  1  0.84928372  0.87260441  0.76371018  1
  C  C114  1  0.38603652  0.38606981  0.93047398  1
  C  C115  1  0.40709450  0.86410901  0.87385856  1
  C  C116  1  0.86490052  0.86450072  0.82296211  1
  C  C117  1  0.86356934  0.40754179  0.87389635  1
  C  C118  1  0.38534311  0.85355999  0.93047910  1
  C  C119  1  0.38703630  0.38716330  0.98200180  1
  C  C120  1  0.85355705  0.38521107  0.93051019  1
  C  C121  1  0.86389870  0.86416454  0.87391322  1
  C  C122  1  0.40148210  0.87639961  0.98294183  1
  C  C123  1  0.86542829  0.86634282  0.93369715  1
  C  C124  1  0.87694703  0.40189702  0.98264436  1
  C  C125  1  0.87107023  0.87236443  0.98353717  1
