# generated using pymatgen
data_Cu2Ni9C19
_symmetry_space_group_name_H-M   'P 1'
_cell_length_a   5.77991000
_cell_length_b   7.77661381
_cell_length_c   8.16057672
_cell_angle_alpha   90.09880956
_cell_angle_beta   110.62195772
_cell_angle_gamma   90.17866708
_symmetry_Int_Tables_number   1
_chemical_formula_structural   Cu2Ni9C19
_chemical_formula_sum   'Cu2 Ni9 C19'
_cell_volume   343.29640014
_cell_formula_units_Z   1
loop_
 _symmetry_equiv_pos_site_id
 _symmetry_equiv_pos_as_xyz
  1  'x, y, z'
loop_
 _atom_site_type_symbol
 _atom_site_label
 _atom_site_symmetry_multiplicity
 _atom_site_fract_x
 _atom_site_fract_y
 _atom_site_fract_z
 _atom_site_occupancy
  Ni  Ni0  1  0.55321300  0.81902800  0.11369200  1
  Ni  Ni1  1  0.44034100  0.31408300  0.88301700  1
  Ni  Ni2  1  0.74453600  0.81405800  0.49180800  1
  Ni  Ni3  1  0.25901900  0.31168400  0.51123800  1
  Ni  Ni4  1  0.29841200  0.66435600  0.59466500  1
  Ni  Ni5  1  0.70382900  0.16254900  0.41029700  1
  Ni  Ni6  1  0.63223500  0.99797500  0.76883400  1
  Ni  Ni7  1  0.13620600  0.99755800  0.76700800  1
  Ni  Ni8  1  0.36795100  0.49711600  0.23224100  1
  C  C9  1  0.86436400  0.49956800  0.23091200  1
  Cu  Cu10  1  0.01717200  0.78268200  0.03337200  1
  Cu  Cu11  1  0.98431200  0.27763500  0.96321100  1
  C  C12  1  0.95451800  0.90682100  0.90615700  1
  C  C13  1  0.05509900  0.40234000  0.08930900  1
  C  C14  1  0.64862500  0.96062900  0.29891100  1
  C  C15  1  0.35108700  0.46039500  0.70238400  1
  C  C16  1  0.65984600  0.63148300  0.34104300  1
  C  C17  1  0.33377200  0.12875800  0.66208800  1
  C  C18  1  0.45363400  0.92772900  0.90950600  1
  C  C19  1  0.52866400  0.42644900  0.08450400  1
  C  C20  1  0.25625000  0.71880100  0.09976500  1
  C  C21  1  0.83738100  0.72396400  0.09760500  1
  C  C22  1  0.74123400  0.21737200  0.89995300  1
  C  C23  1  0.15629900  0.21328900  0.89530800  1
  C  C24  1  0.20506400  0.56018100  0.38668100  1
  C  C25  1  0.80867400  0.05835300  0.61842100  1
  C  C26  1  0.55268300  0.79812700  0.62169100  1
  C  C27  1  0.06702400  0.79654700  0.61814900  1
  C  C28  1  0.44985600  0.29534100  0.38139300  1
  C  C29  1  0.93869900  0.28992900  0.38683600  1
