# generated using pymatgen
data_Cu2NiC9
_symmetry_space_group_name_H-M   'P 1'
_cell_length_a   8.25775900
_cell_length_b   8.25775900
_cell_length_c   5.40083900
_cell_angle_alpha   90.00000000
_cell_angle_beta   90.00000000
_cell_angle_gamma   90.00000000
_symmetry_Int_Tables_number   1
_chemical_formula_structural   Cu2NiC9
_chemical_formula_sum   'Cu4 Ni2 C18'
_cell_volume   368.28636389
_cell_formula_units_Z   2
loop_
 _symmetry_equiv_pos_site_id
 _symmetry_equiv_pos_as_xyz
  1  'x, y, z'
loop_
 _atom_site_type_symbol
 _atom_site_label
 _atom_site_symmetry_multiplicity
 _atom_site_fract_x
 _atom_site_fract_y
 _atom_site_fract_z
 _atom_site_occupancy
  C  C0  1  0.66565700  0.16565700  0.50731500  1
  C  C1  1  0.83434300  0.66565700  0.49268500  1
  C  C2  1  0.16565700  0.33434300  0.49268500  1
  C  C3  1  0.33434300  0.83434300  0.50731500  1
  Ni  Ni4  1  0.00000000  0.00000000  0.00000000  1
  Ni  Ni5  1  0.50000000  0.50000000  0.00000000  1
  Cu  Cu6  1  0.85709900  0.35709900  0.95290700  1
  Cu  Cu7  1  0.14290100  0.64290100  0.95290700  1
  Cu  Cu8  1  0.64290100  0.85709900  0.04709300  1
  Cu  Cu9  1  0.35709900  0.14290100  0.04709300  1
  C  C10  1  0.67896500  0.41723800  0.79246100  1
  C  C11  1  0.32103500  0.58276200  0.79246100  1
  C  C12  1  0.41723800  0.32103500  0.20753900  1
  C  C13  1  0.58276200  0.67896500  0.20753900  1
  C  C14  1  0.91723800  0.17896500  0.79246100  1
  C  C15  1  0.82103500  0.91723800  0.20753900  1
  C  C16  1  0.17896500  0.08276200  0.20753900  1
  C  C17  1  0.08276200  0.82103500  0.79246100  1
  C  C18  1  0.86158400  0.36158400  0.27490200  1
  C  C19  1  0.63841600  0.86158400  0.72509800  1
  C  C20  1  0.50000000  0.00000000  0.18295300  1
  C  C21  1  0.00000000  0.50000000  0.81704700  1
  C  C22  1  0.13841600  0.63841600  0.27490200  1
  C  C23  1  0.36158400  0.13841600  0.72509800  1
