# generated using pymatgen
data_Cu15(Ni2C)4
_symmetry_space_group_name_H-M   'P 1'
_cell_length_a   10.85739660
_cell_length_b   10.85739660
_cell_length_c   10.85739660
_cell_angle_alpha   90.00000000
_cell_angle_beta   90.00000000
_cell_angle_gamma   90.00000000
_symmetry_Int_Tables_number   1
_chemical_formula_structural   Cu15(Ni2C)4
_chemical_formula_sum   'Cu30 Ni16 C8'
_cell_volume   1279.90314494
_cell_formula_units_Z   2
loop_
 _symmetry_equiv_pos_site_id
 _symmetry_equiv_pos_as_xyz
  1  'x, y, z'
loop_
 _atom_site_type_symbol
 _atom_site_label
 _atom_site_symmetry_multiplicity
 _atom_site_fract_x
 _atom_site_fract_y
 _atom_site_fract_z
 _atom_site_occupancy
  C  C0  1  0.50000000  0.50000000  0.50000000  1
  C  C1  1  0.00000000  0.00000000  -0.00000000  1
  C  C2  1  0.50000000  0.00000000  0.75000000  1
  C  C3  1  0.00000000  0.25000000  0.50000000  1
  C  C4  1  0.75000000  0.50000000  -0.00000000  1
  C  C5  1  0.50000000  0.00000000  0.25000000  1
  C  C6  1  0.00000000  0.75000000  0.50000000  1
  C  C7  1  0.25000000  0.50000000  -0.00000000  1
  Ni  Ni8  1  0.68218528  0.31781472  0.68218528  1
  Ni  Ni9  1  0.31781472  0.68218528  0.31781472  1
  Ni  Ni10  1  0.68218528  0.68218528  0.31781472  1
  Ni  Ni11  1  0.31781472  0.31781472  0.68218528  1
  Ni  Ni12  1  0.31781472  0.68218528  0.68218528  1
  Ni  Ni13  1  0.68218528  0.31781472  0.31781472  1
  Ni  Ni14  1  0.31781472  0.31781472  0.31781472  1
  Ni  Ni15  1  0.68218528  0.68218528  0.68218528  1
  Ni  Ni16  1  0.18218528  0.18218528  0.81781472  1
  Ni  Ni17  1  0.81781472  0.81781472  0.18218528  1
  Ni  Ni18  1  0.18218528  0.81781472  0.18218528  1
  Ni  Ni19  1  0.81781472  0.18218528  0.81781472  1
  Ni  Ni20  1  0.81781472  0.18218528  0.18218528  1
  Ni  Ni21  1  0.18218528  0.81781472  0.81781472  1
  Ni  Ni22  1  0.81781472  0.81781472  0.81781472  1
  Ni  Ni23  1  0.18218528  0.18218528  0.18218528  1
  Cu  Cu24  1  0.00000000  0.50000000  0.75000000  1
  Cu  Cu25  1  0.50000000  0.25000000  -0.00000000  1
  Cu  Cu26  1  0.75000000  0.00000000  0.50000000  1
  Cu  Cu27  1  0.00000000  0.50000000  0.25000000  1
  Cu  Cu28  1  0.50000000  0.75000000  -0.00000000  1
  Cu  Cu29  1  0.25000000  0.00000000  0.50000000  1
  Cu  Cu30  1  0.61526883  0.18859421  0.50000000  1
  Cu  Cu31  1  0.81140579  0.50000000  0.61526883  1
  Cu  Cu32  1  0.50000000  0.38473117  0.81140579  1
  Cu  Cu33  1  0.38473117  0.81140579  0.50000000  1
  Cu  Cu34  1  0.18859421  0.50000000  0.38473117  1
  Cu  Cu35  1  0.50000000  0.61526883  0.18859421  1
  Cu  Cu36  1  0.61526883  0.81140579  0.50000000  1
  Cu  Cu37  1  0.81140579  0.50000000  0.38473117  1
  Cu  Cu38  1  0.38473117  0.18859421  0.50000000  1
  Cu  Cu39  1  0.18859421  0.50000000  0.61526883  1
  Cu  Cu40  1  0.50000000  0.61526883  0.81140579  1
  Cu  Cu41  1  0.50000000  0.38473117  0.18859421  1
  Cu  Cu42  1  0.11526883  0.00000000  0.68859421  1
  Cu  Cu43  1  0.31140579  0.11526883  -0.00000000  1
  Cu  Cu44  1  -0.00000000  0.31140579  0.88473117  1
  Cu  Cu45  1  0.88473117  0.00000000  0.31140579  1
  Cu  Cu46  1  0.68859421  0.88473117  -0.00000000  1
  Cu  Cu47  1  0.00000000  0.68859421  0.11526883  1
  Cu  Cu48  1  0.11526883  0.00000000  0.31140579  1
  Cu  Cu49  1  0.31140579  0.88473117  -0.00000000  1
  Cu  Cu50  1  0.88473117  0.00000000  0.68859421  1
  Cu  Cu51  1  0.68859421  0.11526883  -0.00000000  1
  Cu  Cu52  1  0.00000000  0.31140579  0.11526883  1
  Cu  Cu53  1  -0.00000000  0.68859421  0.88473117  1
