# generated using pymatgen
data_Cu5(NiC12)3
_symmetry_space_group_name_H-M   'P 1'
_cell_length_a   7.68759407
_cell_length_b   7.68759407
_cell_length_c   11.98158101
_cell_angle_alpha   80.42818618
_cell_angle_beta   80.42818618
_cell_angle_gamma   60.51774235
_symmetry_Int_Tables_number   1
_chemical_formula_structural   Cu5(NiC12)3
_chemical_formula_sum   'Cu5 Ni3 C36'
_cell_volume   604.87727663
_cell_formula_units_Z   1
loop_
 _symmetry_equiv_pos_site_id
 _symmetry_equiv_pos_as_xyz
  1  'x, y, z'
loop_
 _atom_site_type_symbol
 _atom_site_label
 _atom_site_symmetry_multiplicity
 _atom_site_fract_x
 _atom_site_fract_y
 _atom_site_fract_z
 _atom_site_occupancy
  C  C0  1  0.74602900  0.50737700  0.74510300  1
  C  C1  1  0.49262300  0.25397100  0.25489700  1
  C  C2  1  0.24937400  0.50251800  0.75121500  1
  C  C3  1  0.49748200  0.75062600  0.24878500  1
  C  C4  1  0.01162100  0.75173000  0.22845600  1
  C  C5  1  0.24827000  0.98837900  0.77154400  1
  C  C6  1  0.99168100  0.23818200  0.28397800  1
  C  C7  1  0.76181800  0.00831900  0.71602200  1
  Ni  Ni8  1  0.54793500  0.45206500  0.50000000  1
  Ni  Ni9  1  0.43874000  0.56126000  0.00000000  1
  Ni  Ni10  1  0.14967200  0.85032800  0.50000000  1
  Cu  Cu11  1  0.88252500  0.61882500  0.99492200  1
  Cu  Cu12  1  0.38117500  0.11747500  0.00507800  1
  Cu  Cu13  1  0.11818600  0.36402800  0.50680800  1
  Cu  Cu14  1  0.63597200  0.88181400  0.49319200  1
  Cu  Cu15  1  0.86489700  0.13510300  0.00000000  1
  C  C16  1  0.12575400  0.84768900  0.66401400  1
  C  C17  1  0.15231100  0.87424600  0.33598600  1
  C  C18  1  0.87511200  0.14684200  0.83192900  1
  C  C19  1  0.85315800  0.12488800  0.16807100  1
  C  C20  1  0.75916000  0.44839300  0.96875400  1
  C  C21  1  0.55160700  0.24084000  0.03124600  1
  C  C22  1  0.23707200  0.55830700  0.52869800  1
  C  C23  1  0.44169300  0.76292800  0.47130200  1
  C  C24  1  0.83527200  0.56378300  0.52104300  1
  C  C25  1  0.43621700  0.16472800  0.47895700  1
  C  C26  1  0.16431100  0.43658200  0.97468300  1
  C  C27  1  0.56341800  0.83568900  0.02531700  1
  C  C28  1  0.44288100  0.13828300  0.83852100  1
  C  C29  1  0.86171700  0.55711900  0.16147900  1
  C  C30  1  0.56560600  0.85888800  0.66057600  1
  C  C31  1  0.14111200  0.43439400  0.33942400  1
  C  C32  1  0.63321100  0.41064300  0.34512700  1
  C  C33  1  0.58935700  0.36678900  0.65487300  1
  C  C34  1  0.35684700  0.59546900  0.15836300  1
  C  C35  1  0.40453100  0.64315300  0.84163700  1
  C  C36  1  0.88535000  0.68737900  0.82230300  1
  C  C37  1  0.31262100  0.11465000  0.17769700  1
  C  C38  1  0.11171100  0.31887500  0.67929300  1
  C  C39  1  0.68112500  0.88828900  0.32070700  1
  C  C40  1  0.91981500  0.85403700  0.01790500  1
  C  C41  1  0.14596300  0.08018500  0.98209500  1
  C  C42  1  0.07614300  0.14107400  0.48761700  1
  C  C43  1  0.85892600  0.92385700  0.51238300  1
