# generated using pymatgen
data_Cu3Ni6C43
_symmetry_space_group_name_H-M   'P 1'
_cell_length_a   9.82542184
_cell_length_b   9.80374943
_cell_length_c   9.80648529
_cell_angle_alpha   113.71517993
_cell_angle_beta   113.45407907
_cell_angle_gamma   113.48861553
_symmetry_Int_Tables_number   1
_chemical_formula_structural   Cu3Ni6C43
_chemical_formula_sum   'Cu3 Ni6 C43'
_cell_volume   592.45719541
_cell_formula_units_Z   1
loop_
 _symmetry_equiv_pos_site_id
 _symmetry_equiv_pos_as_xyz
  1  'x, y, z'
loop_
 _atom_site_type_symbol
 _atom_site_label
 _atom_site_symmetry_multiplicity
 _atom_site_fract_x
 _atom_site_fract_y
 _atom_site_fract_z
 _atom_site_occupancy
  C  C0  1  0.23908300  0.23683800  0.24729000  1
  C  C1  1  0.35279900  0.56646700  0.90516800  1
  C  C2  1  0.35135700  0.91438800  0.57971000  1
  C  C3  1  0.58563600  0.76374500  0.58696500  1
  C  C4  1  0.57720500  0.57730500  0.76782500  1
  C  C5  1  0.57846200  0.91271800  0.34932800  1
  C  C6  1  0.56743300  0.35459100  0.90786300  1
  C  C7  1  0.76348500  0.57873800  0.58137100  1
  C  C8  1  0.91464900  0.35484000  0.58103100  1
  C  C9  1  0.90982500  0.57687600  0.34901000  1
  Ni  Ni10  1  0.18690700  0.99603600  0.81099200  1
  Ni  Ni11  1  0.19157000  0.81175000  0.99962400  1
  Ni  Ni12  1  0.81336700  0.00023700  0.18784800  1
  Ni  Ni13  1  0.81072100  0.18974300  0.99780800  1
  Ni  Ni14  1  0.99678200  0.18638800  0.81136400  1
  Ni  Ni15  1  0.00059000  0.81453700  0.18798700  1
  Cu  Cu16  1  0.23773500  0.56674500  0.56601600  1
  Cu  Cu17  1  0.56320800  0.56659600  0.24059900  1
  Cu  Cu18  1  0.56538300  0.23836700  0.56749200  1
  C  C19  1  0.26156500  0.64179500  0.26066600  1
  C  C20  1  0.64594700  0.25597800  0.25549500  1
  C  C21  1  0.26705400  0.99148800  0.99224700  1
  C  C22  1  0.07740900  0.79602000  0.35621200  1
  C  C23  1  0.07600300  0.35435400  0.79401700  1
  C  C24  1  0.17464300  0.50538800  0.64872200  1
  C  C25  1  0.17439900  0.64846000  0.50118500  1
  C  C26  1  0.15759700  0.15744900  0.88444800  1
  C  C27  1  0.16586600  0.88767400  0.16407500  1
  C  C28  1  0.60015200  0.78231800  0.97795100  1
  C  C29  1  0.60005700  0.97787600  0.77621600  1
  C  C30  1  0.40056400  0.39989600  0.78506700  1
  C  C31  1  0.38728400  0.77401300  0.38755300  1
  C  C32  1  0.36642000  0.55129600  0.55135500  1
  C  C33  1  0.36092400  0.79642900  0.07933600  1
  C  C34  1  0.35743800  0.07676200  0.79681300  1
  C  C35  1  0.78229100  0.60177200  0.97809800  1
  C  C36  1  0.77460900  0.97603500  0.60100400  1
  C  C37  1  0.76093500  0.77312100  0.77810900  1
  C  C38  1  0.50687600  0.17359400  0.65126900  1
  C  C39  1  0.50520900  0.65097700  0.17594900  1
  C  C40  1  0.54614100  0.36481800  0.55311400  1
  C  C41  1  0.54014000  0.55010300  0.36414000  1
  C  C42  1  0.64583300  0.50192200  0.17809700  1
  C  C43  1  0.64777500  0.17550500  0.50222700  1
  C  C44  1  0.97968400  0.77610100  0.59890400  1
  C  C45  1  0.98386200  0.59921800  0.78170500  1
  C  C46  1  0.77856900  0.38115100  0.38144400  1
  C  C47  1  0.99116900  0.26778800  0.99224400  1
  C  C48  1  0.99132400  0.99223600  0.25932200  1
  C  C49  1  0.79709700  0.07727200  0.35825300  1
  C  C50  1  0.79222700  0.35750100  0.07514800  1
  C  C51  1  0.88484100  0.16488500  0.16242300  1
