# generated using pymatgen
data_Cu6Ni4C7
_symmetry_space_group_name_H-M   'P 1'
_cell_length_a   8.05189300
_cell_length_b   11.93366800
_cell_length_c   13.02901000
_cell_angle_alpha   90.00000000
_cell_angle_beta   90.00000000
_cell_angle_gamma   90.00000000
_symmetry_Int_Tables_number   1
_chemical_formula_structural   Cu6Ni4C7
_chemical_formula_sum   'Cu24 Ni16 C28'
_cell_volume   1251.93956264
_cell_formula_units_Z   4
loop_
 _symmetry_equiv_pos_site_id
 _symmetry_equiv_pos_as_xyz
  1  'x, y, z'
loop_
 _atom_site_type_symbol
 _atom_site_label
 _atom_site_symmetry_multiplicity
 _atom_site_fract_x
 _atom_site_fract_y
 _atom_site_fract_z
 _atom_site_occupancy
  C  C0  1  0.75000000  0.14217900  0.00000000  1
  C  C1  1  0.25000000  0.35782100  0.50000000  1
  C  C2  1  0.25000000  0.85782100  0.00000000  1
  C  C3  1  0.75000000  0.64217900  0.50000000  1
  C  C4  1  0.91487400  0.34193400  0.33010700  1
  C  C5  1  0.41487400  0.15806600  0.16989300  1
  C  C6  1  0.08512600  0.15806600  0.83010700  1
  C  C7  1  0.58512600  0.34193400  0.66989300  1
  C  C8  1  0.08512600  0.65806600  0.66989300  1
  C  C9  1  0.58512600  0.84193400  0.83010700  1
  C  C10  1  0.91487400  0.84193400  0.16989300  1
  C  C11  1  0.41487400  0.65806600  0.33010700  1
  Ni  Ni12  1  0.79507600  0.10717200  0.25142100  1
  Ni  Ni13  1  0.29507600  0.39282800  0.24857900  1
  Ni  Ni14  1  0.20492400  0.39282800  0.75142100  1
  Ni  Ni15  1  0.70492400  0.10717200  0.74857900  1
  Ni  Ni16  1  0.20492400  0.89282800  0.74857900  1
  Ni  Ni17  1  0.70492400  0.60717200  0.75142100  1
  Ni  Ni18  1  0.79507600  0.60717200  0.24857900  1
  Ni  Ni19  1  0.29507600  0.89282800  0.25142100  1
  Ni  Ni20  1  0.92324300  0.18873900  0.40774200  1
  Ni  Ni21  1  0.42324300  0.31126100  0.09225800  1
  Ni  Ni22  1  0.07675700  0.31126100  0.90774200  1
  Ni  Ni23  1  0.57675700  0.18873900  0.59225800  1
  Ni  Ni24  1  0.07675700  0.81126100  0.59225800  1
  Ni  Ni25  1  0.57675700  0.68873900  0.90774200  1
  Ni  Ni26  1  0.92324300  0.68873900  0.09225800  1
  Ni  Ni27  1  0.42324300  0.81126100  0.40774200  1
  Cu  Cu28  1  0.70455600  0.02109700  0.16127500  1
  Cu  Cu29  1  0.20455600  0.47890300  0.33872500  1
  Cu  Cu30  1  0.29544400  0.47890300  0.66127500  1
  Cu  Cu31  1  0.79544400  0.02109700  0.83872500  1
  Cu  Cu32  1  0.29544400  0.97890300  0.83872500  1
  Cu  Cu33  1  0.79544400  0.52109700  0.66127500  1
  Cu  Cu34  1  0.70455600  0.52109700  0.33872500  1
  Cu  Cu35  1  0.20455600  0.97890300  0.16127500  1
  Cu  Cu36  1  0.86063800  0.05521500  0.37131000  1
  Cu  Cu37  1  0.36063800  0.44478500  0.12869000  1
  Cu  Cu38  1  0.13936200  0.44478500  0.87131000  1
  Cu  Cu39  1  0.63936200  0.05521500  0.62869000  1
  Cu  Cu40  1  0.13936200  0.94478500  0.62869000  1
  Cu  Cu41  1  0.63936200  0.55521500  0.87131000  1
  Cu  Cu42  1  0.86063800  0.55521500  0.12869000  1
  Cu  Cu43  1  0.36063800  0.94478500  0.37131000  1
  Cu  Cu44  1  0.99859500  0.22100800  0.52540200  1
  Cu  Cu45  1  0.49859500  0.27899200  0.97459800  1
  Cu  Cu46  1  0.00140500  0.27899200  0.02540200  1
  Cu  Cu47  1  0.50140500  0.22100800  0.47459800  1
  Cu  Cu48  1  0.00140500  0.77899200  0.47459800  1
  Cu  Cu49  1  0.50140500  0.72100800  0.02540200  1
  Cu  Cu50  1  0.99859500  0.72100800  0.97459800  1
  Cu  Cu51  1  0.49859500  0.77899200  0.52540200  1
  C  C52  1  0.89457500  0.25683700  0.32754000  1
  C  C53  1  0.39457500  0.24316300  0.17246000  1
  C  C54  1  0.10542500  0.24316300  0.82754000  1
  C  C55  1  0.60542500  0.25683700  0.67246000  1
  C  C56  1  0.10542500  0.74316300  0.67246000  1
  C  C57  1  0.60542500  0.75683700  0.82754000  1
  C  C58  1  0.89457500  0.75683700  0.17246000  1
  C  C59  1  0.39457500  0.74316300  0.32754000  1
  C  C60  1  0.82374600  0.21510500  0.24109600  1
  C  C61  1  0.32374600  0.28489500  0.25890400  1
  C  C62  1  0.17625400  0.28489500  0.74109600  1
  C  C63  1  0.67625400  0.21510500  0.75890400  1
  C  C64  1  0.17625400  0.78489500  0.75890400  1
  C  C65  1  0.67625400  0.71510500  0.74109600  1
  C  C66  1  0.82374600  0.71510500  0.25890400  1
  C  C67  1  0.32374600  0.78489500  0.24109600  1
