# generated using pymatgen
data_Cu4(NiC3)3
_symmetry_space_group_name_H-M   'P 1'
_cell_length_a   4.68594000
_cell_length_b   4.34064500
_cell_length_c   18.95319100
_cell_angle_alpha   90.00000000
_cell_angle_beta   90.00000000
_cell_angle_gamma   90.00000000
_symmetry_Int_Tables_number   1
_chemical_formula_structural   Cu4(NiC3)3
_chemical_formula_sum   'Cu4 Ni3 C9'
_cell_volume   385.50794344
_cell_formula_units_Z   1
loop_
 _symmetry_equiv_pos_site_id
 _symmetry_equiv_pos_as_xyz
  1  'x, y, z'
loop_
 _atom_site_type_symbol
 _atom_site_label
 _atom_site_symmetry_multiplicity
 _atom_site_fract_x
 _atom_site_fract_y
 _atom_site_fract_z
 _atom_site_occupancy
  Ni  Ni0  1  0.25000000  0.50000000  0.67492700  1
  Ni  Ni1  1  0.75000000  0.50000000  0.32838000  1
  Ni  Ni2  1  0.75000000  0.00000000  0.82504000  1
  Cu  Cu3  1  0.25000000  0.00000000  0.40461900  1
  Cu  Cu4  1  0.25000000  0.50000000  0.89121700  1
  Cu  Cu5  1  0.75000000  0.50000000  0.10638600  1
  Cu  Cu6  1  0.75000000  0.00000000  0.60560200  1
  C  C7  1  0.25000000  0.00000000  0.16720800  1
  C  C8  1  0.25000000  0.50000000  0.25587200  1
  C  C9  1  0.25000000  0.00000000  0.75339500  1
  C  C10  1  0.75000000  0.00000000  0.24682600  1
  C  C11  1  0.75000000  0.50000000  0.74630000  1
  C  C12  1  0.25000000  0.00000000  0.03448300  1
  C  C13  1  0.25000000  0.50000000  0.54427000  1
  C  C14  1  0.75000000  0.50000000  0.46017900  1
  C  C15  1  0.75000000  0.00000000  0.95529600  1
