# generated using pymatgen
data_CuNiC7
_symmetry_space_group_name_H-M   'P 1'
_cell_length_a   5.63071300
_cell_length_b   5.63071300
_cell_length_c   7.84965800
_cell_angle_alpha   90.00000000
_cell_angle_beta   90.00000000
_cell_angle_gamma   90.00000000
_symmetry_Int_Tables_number   1
_chemical_formula_structural   CuNiC7
_chemical_formula_sum   'Cu2 Ni2 C14'
_cell_volume   248.87284869
_cell_formula_units_Z   2
loop_
 _symmetry_equiv_pos_site_id
 _symmetry_equiv_pos_as_xyz
  1  'x, y, z'
loop_
 _atom_site_type_symbol
 _atom_site_label
 _atom_site_symmetry_multiplicity
 _atom_site_fract_x
 _atom_site_fract_y
 _atom_site_fract_z
 _atom_site_occupancy
  Ni  Ni0  1  0.00000000  0.00000000  0.00000000  1
  Ni  Ni1  1  0.50000000  0.50000000  0.00000000  1
  Cu  Cu2  1  0.00000000  0.00000000  0.50000000  1
  Cu  Cu3  1  0.50000000  0.50000000  0.50000000  1
  C  C4  1  0.00000000  0.50000000  0.25659100  1
  C  C5  1  0.50000000  0.00000000  0.74340900  1
  C  C6  1  0.00000000  0.50000000  0.72532500  1
  C  C7  1  0.50000000  0.00000000  0.27467500  1
  C  C8  1  0.24347300  0.74347300  0.67978400  1
  C  C9  1  0.75652700  0.74347300  0.67978400  1
  C  C10  1  0.24347300  0.25652700  0.67978400  1
  C  C11  1  0.75652700  0.25652700  0.67978400  1
  C  C12  1  0.25652700  0.75652700  0.32021600  1
  C  C13  1  0.74347300  0.75652700  0.32021600  1
  C  C14  1  0.25652700  0.24347300  0.32021600  1
  C  C15  1  0.74347300  0.24347300  0.32021600  1
  C  C16  1  0.00000000  0.50000000  0.99315100  1
  C  C17  1  0.50000000  0.00000000  0.00684900  1
