# generated using pymatgen
data_Cu4NiC13
_symmetry_space_group_name_H-M   'P 1'
_cell_length_a   7.44111097
_cell_length_b   7.44111097
_cell_length_c   10.27035298
_cell_angle_alpha   68.53243946
_cell_angle_beta   68.53243946
_cell_angle_gamma   72.22402659
_symmetry_Int_Tables_number   1
_chemical_formula_structural   Cu4NiC13
_chemical_formula_sum   'Cu8 Ni2 C26'
_cell_volume   482.76797435
_cell_formula_units_Z   2
loop_
 _symmetry_equiv_pos_site_id
 _symmetry_equiv_pos_as_xyz
  1  'x, y, z'
loop_
 _atom_site_type_symbol
 _atom_site_label
 _atom_site_symmetry_multiplicity
 _atom_site_fract_x
 _atom_site_fract_y
 _atom_site_fract_z
 _atom_site_occupancy
  C  C0  1  0.95000100  0.04999900  0.75000000  1
  C  C1  1  0.04999900  0.95000100  0.25000000  1
  Ni  Ni2  1  0.00000000  0.50000000  0.50000000  1
  Ni  Ni3  1  0.50000000  0.00000000  0.00000000  1
  Cu  Cu4  1  0.69319100  0.68386600  0.80942300  1
  Cu  Cu5  1  0.31613400  0.30680900  0.69057700  1
  Cu  Cu6  1  0.30680900  0.31613400  0.19057700  1
  Cu  Cu7  1  0.68386600  0.69319100  0.30942300  1
  Cu  Cu8  1  0.73045400  0.28226700  0.02387100  1
  Cu  Cu9  1  0.71773300  0.26954600  0.47612900  1
  Cu  Cu10  1  0.26954600  0.71773300  0.97612900  1
  Cu  Cu11  1  0.28226700  0.73045400  0.52387100  1
  C  C12  1  0.46575900  0.67192800  0.84796000  1
  C  C13  1  0.32807200  0.53424100  0.65204000  1
  C  C14  1  0.53424100  0.32807200  0.15204000  1
  C  C15  1  0.67192800  0.46575900  0.34796000  1
  C  C16  1  0.77325800  0.49895100  0.93217400  1
  C  C17  1  0.50104900  0.22674200  0.56782600  1
  C  C18  1  0.22674200  0.50104900  0.06782600  1
  C  C19  1  0.49895100  0.77325800  0.43217400  1
  C  C20  1  0.80195300  0.66393100  0.66112500  1
  C  C21  1  0.33606900  0.19804700  0.83887500  1
  C  C22  1  0.19804700  0.33606900  0.33887500  1
  C  C23  1  0.66393100  0.80195300  0.16112500  1
  C  C24  1  0.69665500  0.86857500  0.84017500  1
  C  C25  1  0.13142500  0.30334500  0.65982500  1
  C  C26  1  0.30334500  0.13142500  0.15982500  1
  C  C27  1  0.86857500  0.69665500  0.34017500  1
  C  C28  1  0.68293800  0.19673000  0.92842600  1
  C  C29  1  0.80327000  0.31706200  0.57157400  1
  C  C30  1  0.31706200  0.80327000  0.07157400  1
  C  C31  1  0.19673000  0.68293800  0.42842600  1
  C  C32  1  0.89694500  0.17109500  0.08606200  1
  C  C33  1  0.82890500  0.10305500  0.41393800  1
  C  C34  1  0.10305500  0.82890500  0.91393800  1
  C  C35  1  0.17109500  0.89694500  0.58606200  1
