# generated using pymatgen
data_Cu(NiC8)2
_symmetry_space_group_name_H-M   'P 1'
_cell_length_a   8.19427356
_cell_length_b   8.38775400
_cell_length_c   8.38665542
_cell_angle_alpha   59.99566676
_cell_angle_beta   90.03663030
_cell_angle_gamma   90.00000000
_symmetry_Int_Tables_number   1
_chemical_formula_structural   Cu(NiC8)2
_chemical_formula_sum   'Cu2 Ni4 C32'
_cell_volume   499.17921261
_cell_formula_units_Z   2
loop_
 _symmetry_equiv_pos_site_id
 _symmetry_equiv_pos_as_xyz
  1  'x, y, z'
loop_
 _atom_site_type_symbol
 _atom_site_label
 _atom_site_symmetry_multiplicity
 _atom_site_fract_x
 _atom_site_fract_y
 _atom_site_fract_z
 _atom_site_occupancy
  Ni  Ni0  1  0.26528100  0.66657600  0.66684800  1
  Ni  Ni1  1  0.73471900  0.33342400  0.33315200  1
  Ni  Ni2  1  0.74681200  0.99985300  0.00029300  1
  Ni  Ni3  1  0.25318800  0.00014700  0.99970700  1
  Cu  Cu4  1  0.11395100  0.33330300  0.33339300  1
  Cu  Cu5  1  0.88604900  0.66669700  0.66660700  1
  C  C6  1  0.74837200  0.67184100  0.36820600  1
  C  C7  1  0.74838600  0.36828000  0.95983700  1
  C  C8  1  0.74841000  0.95983000  0.67177100  1
  C  C9  1  0.74841000  0.36839900  0.67177100  1
  C  C10  1  0.74837200  0.95995300  0.36820600  1
  C  C11  1  0.74838600  0.67188300  0.95983700  1
  C  C12  1  0.25162800  0.32815900  0.63179400  1
  C  C13  1  0.25161400  0.63172000  0.04016300  1
  C  C14  1  0.25159000  0.04017000  0.32822900  1
  C  C15  1  0.25159000  0.63160100  0.32822900  1
  C  C16  1  0.25162800  0.04004700  0.63179400  1
  C  C17  1  0.25161400  0.32811700  0.04016300  1
  C  C18  1  0.50000000  0.50000000  0.50000000  1
  C  C19  1  0.50000000  0.50000000  0.00000000  1
  C  C20  1  0.50000000  0.00000000  0.50000000  1
  C  C21  1  0.00000000  0.50000000  0.50000000  1
  C  C22  1  0.00000000  0.50000000  0.00000000  1
  C  C23  1  0.00000000  0.00000000  0.50000000  1
  C  C24  1  0.48514900  0.83275600  0.83289700  1
  C  C25  1  0.48533500  0.83280400  0.33439100  1
  C  C26  1  0.48514900  0.33434700  0.83289700  1
  C  C27  1  0.51485100  0.16724400  0.16710300  1
  C  C28  1  0.51466500  0.16719600  0.66560900  1
  C  C29  1  0.51485100  0.66565300  0.16710300  1
  C  C30  1  0.97665100  0.16181300  0.16189800  1
  C  C31  1  0.97681300  0.16181600  0.67636900  1
  C  C32  1  0.97665100  0.67628900  0.16189800  1
  C  C33  1  0.02334900  0.83818700  0.83810200  1
  C  C34  1  0.02318700  0.83818400  0.32363100  1
  C  C35  1  0.02334900  0.32371100  0.83810200  1
  C  C36  1  0.59368900  0.66663700  0.66672700  1
  C  C37  1  0.40631100  0.33336300  0.33327300  1
