# generated using pymatgen
data_CuNiC34
_symmetry_space_group_name_H-M   'P 1'
_cell_length_a   24.01951900
_cell_length_b   6.83678400
_cell_length_c   7.08866147
_cell_angle_alpha   89.94333193
_cell_angle_beta   90.00000000
_cell_angle_gamma   90.00000000
_symmetry_Int_Tables_number   1
_chemical_formula_structural   CuNiC34
_chemical_formula_sum   'Cu2 Ni2 C68'
_cell_volume   1164.07292777
_cell_formula_units_Z   2
loop_
 _symmetry_equiv_pos_site_id
 _symmetry_equiv_pos_as_xyz
  1  'x, y, z'
loop_
 _atom_site_type_symbol
 _atom_site_label
 _atom_site_symmetry_multiplicity
 _atom_site_fract_x
 _atom_site_fract_y
 _atom_site_fract_z
 _atom_site_occupancy
  Ni  Ni0  1  0.75664500  0.91793100  0.25099900  1
  Ni  Ni1  1  0.25664500  0.08206900  0.74900100  1
  Cu  Cu2  1  0.50288800  0.47139300  0.48984000  1
  Cu  Cu3  1  0.00288800  0.52860700  0.51016000  1
  C  C4  1  0.49563800  0.94731400  0.24765200  1
  C  C5  1  0.99563800  0.05268600  0.75234800  1
  C  C6  1  0.51296800  0.04033300  0.75854600  1
  C  C7  1  0.01296800  0.95966700  0.24145400  1
  C  C8  1  0.89601600  0.43530200  0.75372600  1
  C  C9  1  0.39601600  0.56469800  0.24627400  1
  C  C10  1  0.89149500  0.78872200  0.47441300  1
  C  C11  1  0.89103400  0.79010100  0.02993000  1
  C  C12  1  0.39149500  0.21127800  0.52558700  1
  C  C13  1  0.39103400  0.20989900  0.97007000  1
  C  C14  1  0.68858900  0.04460800  0.75281600  1
  C  C15  1  0.18858900  0.95539200  0.24718400  1
  C  C16  1  0.61415400  0.43123600  0.75243100  1
  C  C17  1  0.11415400  0.56876400  0.24756900  1
  C  C18  1  0.62111400  0.78306500  0.47336200  1
  C  C19  1  0.62050000  0.78735600  0.03085500  1
  C  C20  1  0.12111400  0.21693500  0.52663800  1
  C  C21  1  0.12050000  0.21264400  0.96914500  1
  C  C22  1  0.82279700  0.04768400  0.75337000  1
  C  C23  1  0.32279700  0.95231600  0.24663000  1
  C  C24  1  0.64057500  0.76301900  0.25213400  1
  C  C25  1  0.14057500  0.23698100  0.74786600  1
  C  C26  1  0.62972900  0.56737300  0.56687900  1
  C  C27  1  0.62226700  0.56795400  0.94056600  1
  C  C28  1  0.12972900  0.43262700  0.43312100  1
  C  C29  1  0.12226700  0.43204600  0.05943400  1
  C  C30  1  0.66918300  0.93250900  0.55971900  1
  C  C31  1  0.67352000  0.91440200  0.93967900  1
  C  C32  1  0.16918300  0.06749100  0.44028100  1
  C  C33  1  0.17352000  0.08559800  0.06032100  1
  C  C34  1  0.87228700  0.77196200  0.25272800  1
  C  C35  1  0.37228700  0.22803800  0.74727200  1
  C  C36  1  0.55865000  0.86776800  0.49934500  1
  C  C37  1  0.56234700  0.89972600  0.00916900  1
  C  C38  1  0.05865000  0.13223200  0.50065500  1
  C  C39  1  0.06234700  0.10027400  0.99083100  1
  C  C40  1  0.75558100  0.06429900  0.74239600  1
  C  C41  1  0.25558100  0.93570100  0.25760400  1
  C  C42  1  0.97993500  0.29214700  0.29028700  1
  C  C43  1  0.47993500  0.70785300  0.70971300  1
  C  C44  1  0.66277600  0.26188500  0.76506900  1
  C  C45  1  0.16277600  0.73811500  0.23493100  1
  C  C46  1  0.55391700  0.33625100  0.72852100  1
  C  C47  1  0.05391700  0.66374900  0.27147900  1
  C  C48  1  0.80292400  0.34770400  0.29688000  1
  C  C49  1  0.30292400  0.65229600  0.70312000  1
  C  C50  1  0.63420600  0.25954700  0.25560600  1
  C  C51  1  0.13420600  0.74045300  0.74439400  1
  C  C52  1  0.58322400  0.27011200  0.26600800  1
  C  C53  1  0.08322400  0.72988800  0.73399200  1
  C  C54  1  0.95706900  0.34519400  0.73298200  1
  C  C55  1  0.45706900  0.65480600  0.26701800  1
  C  C56  1  0.95438200  0.86463100  0.50386300  1
  C  C57  1  0.94963300  0.89654500  0.99831900  1
  C  C58  1  0.45438200  0.13536900  0.49613700  1
  C  C59  1  0.44963300  0.10345500  0.00168100  1
  C  C60  1  0.84309000  0.93724100  0.56091100  1
  C  C61  1  0.83795500  0.91969300  0.94130200  1
  C  C62  1  0.34309000  0.06275900  0.43908900  1
  C  C63  1  0.33795500  0.08030700  0.05869800  1
  C  C64  1  0.88177100  0.57250200  0.56778600  1
  C  C65  1  0.88687300  0.56946700  0.94306400  1
  C  C66  1  0.38177100  0.42749800  0.43221400  1
  C  C67  1  0.38687300  0.43053300  0.05693600  1
  C  C68  1  0.84714300  0.26699300  0.76360600  1
  C  C69  1  0.34714300  0.73300700  0.23639400  1
  C  C70  1  0.77342200  0.46870400  0.37766300  1
  C  C71  1  0.27342200  0.53129600  0.62233700  1
