# generated using pymatgen
data_Cu2Ni5C11
_symmetry_space_group_name_H-M   'P 1'
_cell_length_a   3.14338400
_cell_length_b   9.35306800
_cell_length_c   12.49964800
_cell_angle_alpha   90.00000000
_cell_angle_beta   90.00000000
_cell_angle_gamma   90.00000000
_symmetry_Int_Tables_number   1
_chemical_formula_structural   Cu2Ni5C11
_chemical_formula_sum   'Cu4 Ni10 C22'
_cell_volume   367.49320488
_cell_formula_units_Z   2
loop_
 _symmetry_equiv_pos_site_id
 _symmetry_equiv_pos_as_xyz
  1  'x, y, z'
loop_
 _atom_site_type_symbol
 _atom_site_label
 _atom_site_symmetry_multiplicity
 _atom_site_fract_x
 _atom_site_fract_y
 _atom_site_fract_z
 _atom_site_occupancy
  C  C0  1  0.00000000  0.01114400  0.61625100  1
  C  C1  1  0.00000000  0.98885600  0.11625100  1
  Ni  Ni2  1  0.50000000  0.26834600  0.21977600  1
  Ni  Ni3  1  0.50000000  0.26249100  0.78567800  1
  Ni  Ni4  1  0.50000000  0.73750900  0.28567800  1
  Ni  Ni5  1  0.50000000  0.73165400  0.71977600  1
  Ni  Ni6  1  0.50000000  0.26637000  0.49604800  1
  Ni  Ni7  1  0.50000000  0.73363000  0.99604800  1
  Ni  Ni8  1  0.00000000  0.73364700  0.49544000  1
  Ni  Ni9  1  0.00000000  0.26635300  0.99544000  1
  Ni  Ni10  1  0.00000000  0.48700300  0.38398300  1
  Ni  Ni11  1  0.00000000  0.51299700  0.88398300  1
  Cu  Cu12  1  0.00000000  0.52825700  0.14028200  1
  Cu  Cu13  1  0.00000000  0.97568300  0.86015100  1
  Cu  Cu14  1  0.00000000  0.02431700  0.36015100  1
  Cu  Cu15  1  0.00000000  0.47174300  0.64028200  1
  C  C16  1  0.00000000  0.37788600  0.14084900  1
  C  C17  1  0.00000000  0.12269300  0.85615200  1
  C  C18  1  0.00000000  0.87730700  0.35615200  1
  C  C19  1  0.00000000  0.62211400  0.64084900  1
  C  C20  1  0.00000000  0.39743200  0.54390500  1
  C  C21  1  0.00000000  0.09925900  0.45692400  1
  C  C22  1  0.00000000  0.90074100  0.95692400  1
  C  C23  1  0.00000000  0.60256800  0.04390500  1
  C  C24  1  0.50000000  0.35813200  0.35690200  1
  C  C25  1  0.50000000  0.14951800  0.64545400  1
  C  C26  1  0.50000000  0.85048200  0.14545400  1
  C  C27  1  0.50000000  0.64186800  0.85690200  1
  C  C28  1  0.00000000  0.60134100  0.23673200  1
  C  C29  1  0.00000000  0.89671500  0.76467900  1
  C  C30  1  0.00000000  0.10328500  0.26467900  1
  C  C31  1  0.00000000  0.39865900  0.73673200  1
  C  C32  1  0.50000000  0.63966900  0.42412700  1
  C  C33  1  0.50000000  0.86664900  0.57666800  1
  C  C34  1  0.50000000  0.13335100  0.07666800  1
  C  C35  1  0.50000000  0.36033100  0.92412700  1
