# generated using pymatgen
data_Cu4Ni16C11
_symmetry_space_group_name_H-M   'P 1'
_cell_length_a   4.90998478
_cell_length_b   13.07760976
_cell_length_c   5.62424774
_cell_angle_alpha   103.67200371
_cell_angle_beta   93.05293871
_cell_angle_gamma   87.15981673
_symmetry_Int_Tables_number   1
_chemical_formula_structural   Cu4Ni16C11
_chemical_formula_sum   'Cu4 Ni16 C11'
_cell_volume   350.15251672
_cell_formula_units_Z   1
loop_
 _symmetry_equiv_pos_site_id
 _symmetry_equiv_pos_as_xyz
  1  'x, y, z'
loop_
 _atom_site_type_symbol
 _atom_site_label
 _atom_site_symmetry_multiplicity
 _atom_site_fract_x
 _atom_site_fract_y
 _atom_site_fract_z
 _atom_site_occupancy
  C  C0  1  0.32006572  0.43575376  0.68726268  1
  C  C1  1  0.49058603  0.99302896  0.49527606  1
  C  C2  1  0.53376709  0.42049441  0.25028684  1
  C  C3  1  0.42932894  0.19844361  0.89230675  1
  C  C4  1  0.56716754  0.62200123  0.68026138  1
  C  C5  1  0.55255549  0.80871642  0.08632755  1
  C  C6  1  0.89073067  0.36423888  0.80225136  1
  C  C7  1  0.02018351  0.80845348  0.61079984  1
  C  C8  1  0.98088645  0.18502413  0.40500628  1
  C  C9  1  0.00754810  0.60385367  0.21309667  1
  C  C10  1  0.02159776  0.99811369  0.00480600  1
  Ni  Ni11  1  0.74710627  0.23237472  0.70191665  1
  Ni  Ni12  1  0.83951400  0.87076637  0.92243579  1
  Ni  Ni13  1  0.84873708  0.67183878  0.52033925  1
  Ni  Ni14  1  0.81114342  0.05617297  0.30026944  1
  Ni  Ni15  1  0.81937779  0.46819168  0.10380385  1
  Ni  Ni16  1  0.68815003  0.46052296  0.61584818  1
  Ni  Ni17  1  0.72275770  0.67250873  0.01746777  1
  Ni  Ni18  1  0.70833662  0.86029762  0.41080003  1
  Ni  Ni19  1  0.30295726  0.35158418  0.95340713  1
  Ni  Ni20  1  0.34990605  0.75309210  0.78480565  1
  Ni  Ni21  1  0.28171230  0.12597496  0.57932818  1
  Ni  Ni22  1  0.33228767  0.93370271  0.17431268  1
  Ni  Ni23  1  0.30513572  0.53908701  0.41242375  1
  Ni  Ni24  1  0.15931939  0.13846768  0.08253942  1
  Ni  Ni25  1  0.18507091  0.94493582  0.68804551  1
  Ni  Ni26  1  0.10264166  0.32266824  0.49405241  1
  Cu  Cu27  1  0.66945534  0.05690689  0.82480459  1
  Cu  Cu28  1  0.64402412  0.26266387  0.21163451  1
  Cu  Cu29  1  0.22885266  0.56265340  0.91433599  1
  Cu  Cu30  1  0.21687969  0.74101008  0.29069981  1
