# generated using pymatgen
data_Cu12Ni16C
_symmetry_space_group_name_H-M   'P 1'
_cell_length_a   9.17802465
_cell_length_b   9.17802465
_cell_length_c   9.17802465
_cell_angle_alpha   109.47122063
_cell_angle_beta   109.47122063
_cell_angle_gamma   109.47122063
_symmetry_Int_Tables_number   1
_chemical_formula_structural   Cu12Ni16C
_chemical_formula_sum   'Cu12 Ni16 C1'
_cell_volume   595.14908193
_cell_formula_units_Z   1
loop_
 _symmetry_equiv_pos_site_id
 _symmetry_equiv_pos_as_xyz
  1  'x, y, z'
loop_
 _atom_site_type_symbol
 _atom_site_label
 _atom_site_symmetry_multiplicity
 _atom_site_fract_x
 _atom_site_fract_y
 _atom_site_fract_z
 _atom_site_occupancy
  Ni  Ni0  1  0.78330200  0.00000000  0.00000000  1
  Ni  Ni1  1  0.21669800  0.21669800  0.21669800  1
  Ni  Ni2  1  0.72335400  0.30052700  0.30052700  1
  Ni  Ni3  1  0.27664600  0.57717400  0.57717400  1
  Ni  Ni4  1  0.00000000  0.00000000  0.78330200  1
  Ni  Ni5  1  0.00000000  0.69947300  0.42282600  1
  Ni  Ni6  1  0.57717400  0.57717400  0.27664600  1
  Ni  Ni7  1  0.42282600  0.00000000  0.69947300  1
  Ni  Ni8  1  0.69947300  0.42282600  0.00000000  1
  Ni  Ni9  1  0.30052700  0.72335400  0.30052700  1
  Ni  Ni10  1  0.30052700  0.30052700  0.72335400  1
  Ni  Ni11  1  0.69947300  0.00000000  0.42282600  1
  Ni  Ni12  1  0.42282600  0.69947300  0.00000000  1
  Ni  Ni13  1  0.57717400  0.27664600  0.57717400  1
  Ni  Ni14  1  0.00000000  0.42282600  0.69947300  1
  Ni  Ni15  1  0.00000000  0.78330200  0.00000000  1
  Cu  Cu16  1  0.19686200  0.80834600  0.80834600  1
  Cu  Cu17  1  0.80313800  0.61148400  0.61148400  1
  Cu  Cu18  1  0.61148400  0.80313800  0.61148400  1
  Cu  Cu19  1  0.38851600  0.19165400  0.00000000  1
  Cu  Cu20  1  0.00000000  0.38851600  0.19165400  1
  Cu  Cu21  1  0.80834600  0.19686200  0.80834600  1
  Cu  Cu22  1  0.19165400  0.38851600  0.00000000  1
  Cu  Cu23  1  0.19165400  0.00000000  0.38851600  1
  Cu  Cu24  1  0.80834600  0.80834600  0.19686200  1
  Cu  Cu25  1  0.00000000  0.19165400  0.38851600  1
  Cu  Cu26  1  0.38851600  0.00000000  0.19165400  1
  Cu  Cu27  1  0.61148400  0.61148400  0.80313800  1
  C  C28  1  0.00000000  0.00000000  0.00000000  1
