# generated using pymatgen
data_CuNiC5
_symmetry_space_group_name_H-M   'P 1'
_cell_length_a   5.81740800
_cell_length_b   10.71552200
_cell_length_c   16.76032900
_cell_angle_alpha   90.00000000
_cell_angle_beta   90.00000000
_cell_angle_gamma   90.00000000
_symmetry_Int_Tables_number   1
_chemical_formula_structural   CuNiC5
_chemical_formula_sum   'Cu8 Ni8 C40'
_cell_volume   1044.78131143
_cell_formula_units_Z   8
loop_
 _symmetry_equiv_pos_site_id
 _symmetry_equiv_pos_as_xyz
  1  'x, y, z'
loop_
 _atom_site_type_symbol
 _atom_site_label
 _atom_site_symmetry_multiplicity
 _atom_site_fract_x
 _atom_site_fract_y
 _atom_site_fract_z
 _atom_site_occupancy
  Ni  Ni0  1  0.94193200  0.83839400  0.80218400  1
  Ni  Ni1  1  0.05806800  0.16160600  0.19781600  1
  Ni  Ni2  1  0.55806800  0.33839400  0.19781600  1
  Ni  Ni3  1  0.05806800  0.66160600  0.30218400  1
  Ni  Ni4  1  0.44193200  0.16160600  0.69781600  1
  Ni  Ni5  1  0.44193200  0.66160600  0.80218400  1
  Ni  Ni6  1  0.55806800  0.83839400  0.30218400  1
  Ni  Ni7  1  0.94193200  0.33839400  0.69781600  1
  Cu  Cu8  1  0.97147600  0.35020700  0.39180800  1
  Cu  Cu9  1  0.52852400  0.85020700  0.60819200  1
  Cu  Cu10  1  0.02852400  0.64979300  0.60819200  1
  Cu  Cu11  1  0.47147600  0.14979300  0.39180800  1
  Cu  Cu12  1  0.02852400  0.14979300  0.89180800  1
  Cu  Cu13  1  0.97147600  0.85020700  0.10819200  1
  Cu  Cu14  1  0.52852400  0.35020700  0.89180800  1
  Cu  Cu15  1  0.47147600  0.64979300  0.10819200  1
  C  C16  1  0.86355800  0.29029700  0.28549900  1
  C  C17  1  0.20433700  0.02309300  0.94587800  1
  C  C18  1  0.29566300  0.52309300  0.05412200  1
  C  C19  1  0.25633200  0.80043500  0.86072600  1
  C  C20  1  0.24366800  0.30043500  0.13927400  1
  C  C21  1  0.86355800  0.79029700  0.21450100  1
  C  C22  1  0.24366800  0.80043500  0.36072600  1
  C  C23  1  0.63644200  0.79029700  0.71450100  1
  C  C24  1  0.20433700  0.52309300  0.55412200  1
  C  C25  1  0.13644200  0.70970300  0.71450100  1
  C  C26  1  0.63644200  0.29029700  0.78549900  1
  C  C27  1  0.71978100  0.24132000  0.44155000  1
  C  C28  1  0.70433700  0.97690700  0.55412200  1
  C  C29  1  0.74366800  0.69956500  0.36072600  1
  C  C30  1  0.17317800  0.97782400  0.15936100  1
  C  C31  1  0.70433700  0.47690700  0.94587800  1
  C  C32  1  0.13644200  0.20970300  0.78549900  1
  C  C33  1  0.75633200  0.19956500  0.63927400  1
  C  C34  1  0.21978100  0.75868000  0.05845000  1
  C  C35  1  0.29566300  0.02309300  0.44587800  1
  C  C36  1  0.28021900  0.75868000  0.55845000  1
  C  C37  1  0.82682200  0.02217600  0.84063900  1
  C  C38  1  0.74366800  0.19956500  0.13927400  1
  C  C39  1  0.67317800  0.02217600  0.34063900  1
  C  C40  1  0.28021900  0.25868000  0.94155000  1
  C  C41  1  0.21978100  0.25868000  0.44155000  1
  C  C42  1  0.79566300  0.47690700  0.44587800  1
  C  C43  1  0.79566300  0.97690700  0.05412200  1
  C  C44  1  0.67317800  0.52217600  0.15936100  1
  C  C45  1  0.78021900  0.74132000  0.55845000  1
  C  C46  1  0.78021900  0.24132000  0.94155000  1
  C  C47  1  0.71978100  0.74132000  0.05845000  1
  C  C48  1  0.82682200  0.52217600  0.65936100  1
  C  C49  1  0.75633200  0.69956500  0.86072600  1
  C  C50  1  0.25633200  0.30043500  0.63927400  1
  C  C51  1  0.17317800  0.47782400  0.34063900  1
  C  C52  1  0.32682200  0.47782400  0.84063900  1
  C  C53  1  0.36355800  0.20970300  0.28549900  1
  C  C54  1  0.32682200  0.97782400  0.65936100  1
  C  C55  1  0.36355800  0.70970300  0.21450100  1
