# generated using pymatgen
data_CuNiC16
_symmetry_space_group_name_H-M   'P 1'
_cell_length_a   5.70110440
_cell_length_b   5.70110440
_cell_length_c   8.04082599
_cell_angle_alpha   90.00000000
_cell_angle_beta   90.00000000
_cell_angle_gamma   89.89379480
_symmetry_Int_Tables_number   1
_chemical_formula_structural   CuNiC16
_chemical_formula_sum   'Cu1 Ni1 C16'
_cell_volume   261.34723251
_cell_formula_units_Z   1
loop_
 _symmetry_equiv_pos_site_id
 _symmetry_equiv_pos_as_xyz
  1  'x, y, z'
loop_
 _atom_site_type_symbol
 _atom_site_label
 _atom_site_symmetry_multiplicity
 _atom_site_fract_x
 _atom_site_fract_y
 _atom_site_fract_z
 _atom_site_occupancy
  Ni  Ni0  1  0.50000000  0.50000000  -0.00000000  1
  Cu  Cu1  1  0.00000000  0.00000000  0.50000000  1
  C  C2  1  0.00000000  0.50000000  0.25188066  1
  C  C3  1  0.00000000  0.50000000  0.74811934  1
  C  C4  1  0.50000000  0.00000000  0.25188066  1
  C  C5  1  0.50000000  0.00000000  0.74811934  1
  C  C6  1  0.25304601  0.25304601  0.26017917  1
  C  C7  1  0.25304601  0.25304601  0.73982083  1
  C  C8  1  0.74695399  0.74695399  0.26017917  1
  C  C9  1  0.74695399  0.74695399  0.73982083  1
  C  C10  1  0.76580720  0.23419280  0.73769684  1
  C  C11  1  0.76580720  0.23419280  0.26230316  1
  C  C12  1  0.23419280  0.76580720  0.73769684  1
  C  C13  1  0.23419280  0.76580720  0.26230316  1
  C  C14  1  0.00000000  0.50000000  -0.00000000  1
  C  C15  1  0.00000000  0.50000000  0.50000000  1
  C  C16  1  0.50000000  0.00000000  -0.00000000  1
  C  C17  1  0.50000000  0.00000000  0.50000000  1
