# generated using pymatgen
data_Cu8Ni4C35
_symmetry_space_group_name_H-M   'P 1'
_cell_length_a   10.01769007
_cell_length_b   10.01769007
_cell_length_c   7.46428717
_cell_angle_alpha   75.09055820
_cell_angle_beta   75.09055820
_cell_angle_gamma   83.24947894
_symmetry_Int_Tables_number   1
_chemical_formula_structural   Cu8Ni4C35
_chemical_formula_sum   'Cu8 Ni4 C35'
_cell_volume   698.42568711
_cell_formula_units_Z   1
loop_
 _symmetry_equiv_pos_site_id
 _symmetry_equiv_pos_as_xyz
  1  'x, y, z'
loop_
 _atom_site_type_symbol
 _atom_site_label
 _atom_site_symmetry_multiplicity
 _atom_site_fract_x
 _atom_site_fract_y
 _atom_site_fract_z
 _atom_site_occupancy
  C  C0  1  0.75220000  0.75220000  0.28253800  1
  C  C1  1  0.24780000  0.24780000  0.71746200  1
  Ni  Ni2  1  0.82272800  0.43580300  0.26714500  1
  Ni  Ni3  1  0.43580300  0.82272800  0.26714500  1
  Ni  Ni4  1  0.17727200  0.56419700  0.73285500  1
  Ni  Ni5  1  0.56419700  0.17727200  0.73285500  1
  Cu  Cu6  1  0.85589700  0.62215000  0.84779000  1
  Cu  Cu7  1  0.62215000  0.85589700  0.84779000  1
  Cu  Cu8  1  0.14410300  0.37785000  0.15221000  1
  Cu  Cu9  1  0.37785000  0.14410300  0.15221000  1
  Cu  Cu10  1  0.69411500  0.45994800  0.68500700  1
  Cu  Cu11  1  0.45994800  0.69411500  0.68500700  1
  Cu  Cu12  1  0.30588500  0.54005200  0.31499300  1
  Cu  Cu13  1  0.54005200  0.30588500  0.31499300  1
  C  C14  1  0.76328500  0.76328500  0.77880400  1
  C  C15  1  0.23671500  0.23671500  0.22119600  1
  C  C16  1  0.83919700  0.59194500  0.07910800  1
  C  C17  1  0.59194500  0.83919700  0.07910800  1
  C  C18  1  0.16080300  0.40805500  0.92089200  1
  C  C19  1  0.40805500  0.16080300  0.92089200  1
  C  C20  1  0.76055400  0.52286000  0.45551000  1
  C  C21  1  0.52286000  0.76055400  0.45551000  1
  C  C22  1  0.23944600  0.47714000  0.54449000  1
  C  C23  1  0.47714000  0.23944600  0.54449000  1
  C  C24  1  0.80072000  0.49046200  0.80177600  1
  C  C25  1  0.49046200  0.80072000  0.80177600  1
  C  C26  1  0.19928000  0.50953800  0.19822400  1
  C  C27  1  0.50953800  0.19928000  0.19822400  1
  C  C28  1  0.01434900  0.64894900  0.73187100  1
  C  C29  1  0.64894900  0.01434900  0.73187100  1
  C  C30  1  0.98565100  0.35105100  0.26812900  1
  C  C31  1  0.35105100  0.98565100  0.26812900  1
  C  C32  1  0.54582800  0.54582800  0.74244300  1
  C  C33  1  0.45417200  0.45417200  0.25755700  1
  C  C34  1  0.70259200  0.32596200  0.26605400  1
  C  C35  1  0.32596200  0.70259200  0.26605400  1
  C  C36  1  0.29740800  0.67403800  0.73394600  1
  C  C37  1  0.67403800  0.29740800  0.73394600  1
  C  C38  1  0.92084600  0.07915400  0.00000000  1
  C  C39  1  0.07915400  0.92084600  0.00000000  1
  C  C40  1  0.93861000  0.93861000  0.96286600  1
  C  C41  1  0.06139000  0.06139000  0.03713400  1
  C  C42  1  0.00000000  0.00000000  0.50000000  1
  C  C43  1  0.01666900  0.26165400  0.63103900  1
  C  C44  1  0.26165400  0.01666900  0.63103900  1
  C  C45  1  0.98333100  0.73834600  0.36896100  1
  C  C46  1  0.73834600  0.98333100  0.36896100  1
