# generated using pymatgen
data_Cu5(NiC5)4
_symmetry_space_group_name_H-M   'P 1'
_cell_length_a   10.12621734
_cell_length_b   10.12621734
_cell_length_c   9.39429400
_cell_angle_alpha   90.00000000
_cell_angle_beta   90.00000000
_cell_angle_gamma   120.83316806
_symmetry_Int_Tables_number   1
_chemical_formula_structural   Cu5(NiC5)4
_chemical_formula_sum   'Cu10 Ni8 C40'
_cell_volume   827.14482193
_cell_formula_units_Z   2
loop_
 _symmetry_equiv_pos_site_id
 _symmetry_equiv_pos_as_xyz
  1  'x, y, z'
loop_
 _atom_site_type_symbol
 _atom_site_label
 _atom_site_symmetry_multiplicity
 _atom_site_fract_x
 _atom_site_fract_y
 _atom_site_fract_z
 _atom_site_occupancy
  C  C0  1  0.16287400  0.83712600  0.75000000  1
  C  C1  1  0.83712600  0.16287400  0.75000000  1
  C  C2  1  0.83712600  0.16287400  0.25000000  1
  C  C3  1  0.16287400  0.83712600  0.25000000  1
  Ni  Ni4  1  0.75822000  0.85283800  0.50000000  1
  Ni  Ni5  1  0.24178000  0.14716200  0.50000000  1
  Ni  Ni6  1  0.85283800  0.75822000  0.00000000  1
  Ni  Ni7  1  0.14716200  0.24178000  0.00000000  1
  Ni  Ni8  1  0.00000000  0.50000000  0.74992300  1
  Ni  Ni9  1  0.50000000  0.00000000  0.75007700  1
  Ni  Ni10  1  0.00000000  0.50000000  0.25007700  1
  Ni  Ni11  1  0.50000000  0.00000000  0.24992300  1
  Cu  Cu12  1  0.59551300  0.86542100  0.00000000  1
  Cu  Cu13  1  0.60603400  0.23014900  0.50000000  1
  Cu  Cu14  1  0.76985100  0.39396600  0.00000000  1
  Cu  Cu15  1  0.40448700  0.13457900  0.00000000  1
  Cu  Cu16  1  0.00000000  0.00000000  0.75000000  1
  Cu  Cu17  1  0.00000000  0.00000000  0.25000000  1
  Cu  Cu18  1  0.86542100  0.59551300  0.50000000  1
  Cu  Cu19  1  0.13457900  0.40448700  0.50000000  1
  Cu  Cu20  1  0.39396600  0.76985100  0.50000000  1
  Cu  Cu21  1  0.23014900  0.60603400  0.00000000  1
  C  C22  1  0.26466800  0.58763600  0.50000000  1
  C  C23  1  0.73533200  0.41236400  0.50000000  1
  C  C24  1  0.58763600  0.26466800  0.00000000  1
  C  C25  1  0.41236400  0.73533200  0.00000000  1
  C  C26  1  0.56745200  0.80461900  0.50000000  1
  C  C27  1  0.43254800  0.19538100  0.50000000  1
  C  C28  1  0.80461900  0.56745200  0.00000000  1
  C  C29  1  0.19538100  0.43254800  0.00000000  1
  C  C30  1  0.20828000  0.29814000  0.50000000  1
  C  C31  1  0.79172000  0.70186000  0.50000000  1
  C  C32  1  0.29814000  0.20828000  0.00000000  1
  C  C33  1  0.70186000  0.79172000  0.00000000  1
  C  C34  1  0.62865900  0.97562700  0.85820400  1
  C  C35  1  0.37134100  0.02437300  0.85820400  1
  C  C36  1  0.97562700  0.62865900  0.64179600  1
  C  C37  1  0.02437300  0.37134100  0.64179600  1
  C  C38  1  0.37134100  0.02437300  0.14179600  1
  C  C39  1  0.62865900  0.97562700  0.14179600  1
  C  C40  1  0.02437300  0.37134100  0.35820400  1
  C  C41  1  0.97562700  0.62865900  0.35820400  1
  C  C42  1  0.97321300  0.85439300  0.84925000  1
  C  C43  1  0.02678700  0.14560700  0.84925000  1
  C  C44  1  0.36385100  0.84867600  0.35849700  1
  C  C45  1  0.63614900  0.15132400  0.35849700  1
  C  C46  1  0.84867600  0.36385100  0.14150300  1
  C  C47  1  0.15132400  0.63614900  0.14150300  1
  C  C48  1  0.63614900  0.15132400  0.64150300  1
  C  C49  1  0.36385100  0.84867600  0.64150300  1
  C  C50  1  0.15132400  0.63614900  0.85849700  1
  C  C51  1  0.85439300  0.97321300  0.65075000  1
  C  C52  1  0.85439300  0.97321300  0.34925000  1
  C  C53  1  0.14560700  0.02678700  0.34925000  1
  C  C54  1  0.97321300  0.85439300  0.15075000  1
  C  C55  1  0.02678700  0.14560700  0.15075000  1
  C  C56  1  0.14560700  0.02678700  0.65075000  1
  C  C57  1  0.84867600  0.36385100  0.85849700  1
