# generated using pymatgen
data_CuNiC6
_symmetry_space_group_name_H-M   'P 1'
_cell_length_a   9.69771987
_cell_length_b   9.69771987
_cell_length_c   11.40314759
_cell_angle_alpha   68.83319000
_cell_angle_beta   68.83319000
_cell_angle_gamma   37.14737818
_symmetry_Int_Tables_number   1
_chemical_formula_structural   CuNiC6
_chemical_formula_sum   'Cu4 Ni4 C24'
_cell_volume   598.77300576
_cell_formula_units_Z   4
loop_
 _symmetry_equiv_pos_site_id
 _symmetry_equiv_pos_as_xyz
  1  'x, y, z'
loop_
 _atom_site_type_symbol
 _atom_site_label
 _atom_site_symmetry_multiplicity
 _atom_site_fract_x
 _atom_site_fract_y
 _atom_site_fract_z
 _atom_site_occupancy
  C  C0  1  0.79017400  0.57995700  0.03422500  1
  C  C1  1  0.42004300  0.20982600  0.46577500  1
  C  C2  1  0.20982600  0.42004300  0.96577500  1
  C  C3  1  0.57995700  0.79017400  0.53422500  1
  C  C4  1  0.96051500  0.39055700  0.86676400  1
  C  C5  1  0.60944300  0.03948500  0.63323600  1
  C  C6  1  0.03948500  0.60944300  0.13323600  1
  C  C7  1  0.39055700  0.96051500  0.36676400  1
  C  C8  1  0.96261900  0.29674000  0.77945400  1
  C  C9  1  0.70326000  0.03738100  0.72054600  1
  C  C10  1  0.03738100  0.70326000  0.22054600  1
  C  C11  1  0.29674000  0.96261900  0.27945400  1
  C  C12  1  0.72888400  0.52407000  0.98934100  1
  C  C13  1  0.47593000  0.27111600  0.51065900  1
  C  C14  1  0.27111600  0.47593000  0.01065900  1
  C  C15  1  0.52407000  0.72888400  0.48934100  1
  Ni  Ni16  1  0.14641600  0.00156100  0.82984500  1
  Ni  Ni17  1  0.99843900  0.85358400  0.67015400  1
  Ni  Ni18  1  0.85358400  0.99843900  0.17015400  1
  Ni  Ni19  1  0.00156100  0.14641600  0.32984600  1
  Cu  Cu20  1  0.11327500  0.36337200  0.84646200  1
  Cu  Cu21  1  0.63662800  0.88672500  0.65353800  1
  Cu  Cu22  1  0.88672500  0.63662800  0.15353800  1
  Cu  Cu23  1  0.36337200  0.11327500  0.34646200  1
  C  C24  1  0.74497800  0.41554200  0.78218200  1
  C  C25  1  0.58445800  0.25502200  0.71781800  1
  C  C26  1  0.25502200  0.58445800  0.21781800  1
  C  C27  1  0.41554200  0.74497800  0.28218200  1
  C  C28  1  0.03739700  0.32504100  0.65736500  1
  C  C29  1  0.67495900  0.96260300  0.84263500  1
  C  C30  1  0.96260300  0.67495900  0.34263500  1
  C  C31  1  0.32504100  0.03739700  0.15736500  1
