# generated using pymatgen
data_Cu3NiC5
_symmetry_space_group_name_H-M   'P 1'
_cell_length_a   10.80046211
_cell_length_b   10.80046211
_cell_length_c   10.80046211
_cell_angle_alpha   60.00000000
_cell_angle_beta   60.00000000
_cell_angle_gamma   60.00000000
_symmetry_Int_Tables_number   1
_chemical_formula_structural   Cu3NiC5
_chemical_formula_sum   'Cu12 Ni4 C20'
_cell_volume   890.86524341
_cell_formula_units_Z   4
loop_
 _symmetry_equiv_pos_site_id
 _symmetry_equiv_pos_as_xyz
  1  'x, y, z'
loop_
 _atom_site_type_symbol
 _atom_site_label
 _atom_site_symmetry_multiplicity
 _atom_site_fract_x
 _atom_site_fract_y
 _atom_site_fract_z
 _atom_site_occupancy
  C  C0  1  0.62500000  0.12500000  0.12500000  1
  C  C1  1  0.12500000  0.62500000  0.12500000  1
  C  C2  1  0.12500000  0.12500000  0.62500000  1
  C  C3  1  0.12500000  0.12500000  0.12500000  1
  C  C4  1  0.77529400  0.40823500  0.40823500  1
  C  C5  1  0.40823500  0.77529400  0.40823500  1
  C  C6  1  0.40823500  0.40823500  0.77529400  1
  C  C7  1  0.40823500  0.40823500  0.40823500  1
  C  C8  1  0.47470600  0.84176500  0.84176500  1
  C  C9  1  0.84176500  0.47470600  0.84176500  1
  C  C10  1  0.84176500  0.84176500  0.47470600  1
  C  C11  1  0.84176500  0.84176500  0.84176500  1
  Ni  Ni12  1  0.12500000  0.62500000  0.62500000  1
  Ni  Ni13  1  0.62500000  0.12500000  0.62500000  1
  Ni  Ni14  1  0.62500000  0.62500000  0.12500000  1
  Ni  Ni15  1  0.62500000  0.62500000  0.62500000  1
  Cu  Cu16  1  0.80029100  0.80029100  0.19970900  1
  Cu  Cu17  1  0.19970900  0.19970900  0.80029100  1
  Cu  Cu18  1  0.80029100  0.19970900  0.80029100  1
  Cu  Cu19  1  0.19970900  0.80029100  0.19970900  1
  Cu  Cu20  1  0.19970900  0.80029100  0.80029100  1
  Cu  Cu21  1  0.80029100  0.19970900  0.19970900  1
  Cu  Cu22  1  0.44970900  0.44970900  0.05029100  1
  Cu  Cu23  1  0.05029100  0.05029100  0.44970900  1
  Cu  Cu24  1  0.44970900  0.05029100  0.44970900  1
  Cu  Cu25  1  0.05029100  0.44970900  0.05029100  1
  Cu  Cu26  1  0.05029100  0.44970900  0.44970900  1
  Cu  Cu27  1  0.44970900  0.05029100  0.05029100  1
  C  C28  1  0.26568200  0.57810600  0.57810600  1
  C  C29  1  0.57810600  0.26568200  0.57810600  1
  C  C30  1  0.57810600  0.57810600  0.26568200  1
  C  C31  1  0.57810600  0.57810600  0.57810600  1
  C  C32  1  0.98431800  0.67189400  0.67189400  1
  C  C33  1  0.67189400  0.98431800  0.67189400  1
  C  C34  1  0.67189400  0.67189400  0.98431800  1
  C  C35  1  0.67189400  0.67189400  0.67189400  1
