# generated using pymatgen
data_Cu2Ni4C95
_symmetry_space_group_name_H-M   'P 1'
_cell_length_a   10.59423749
_cell_length_b   10.59423749
_cell_length_c   14.53261407
_cell_angle_alpha   72.09667683
_cell_angle_beta   72.09667683
_cell_angle_gamma   84.77713368
_symmetry_Int_Tables_number   1
_chemical_formula_structural   Cu2Ni4C95
_chemical_formula_sum   'Cu2 Ni4 C95'
_cell_volume   1476.95560813
_cell_formula_units_Z   1
loop_
 _symmetry_equiv_pos_site_id
 _symmetry_equiv_pos_as_xyz
  1  'x, y, z'
loop_
 _atom_site_type_symbol
 _atom_site_label
 _atom_site_symmetry_multiplicity
 _atom_site_fract_x
 _atom_site_fract_y
 _atom_site_fract_z
 _atom_site_occupancy
  Ni  Ni0  1  0.58979078  0.58979078  0.81767196  1
  Ni  Ni1  1  0.41020922  0.41020922  0.18232804  1
  Ni  Ni2  1  0.08740952  0.08740952  0.30723886  1
  Ni  Ni3  1  0.91259048  0.91259048  0.69276114  1
  Cu  Cu4  1  0.39601705  0.39601705  0.67023831  1
  Cu  Cu5  1  0.60398295  0.60398295  0.32976169  1
  C  C6  1  0.52198304  0.02891443  0.61470648  1
  C  C7  1  0.47801696  0.97108557  0.38529352  1
  C  C8  1  0.97108557  0.47801696  0.38529352  1
  C  C9  1  0.02891443  0.52198304  0.61470648  1
  C  C10  1  0.27278481  0.72721519  0.50000000  1
  C  C11  1  0.72721519  0.27278481  0.50000000  1
  C  C12  1  0.23458006  0.76541994  -0.00000000  1
  C  C13  1  0.76541994  0.23458006  0.00000000  1
  C  C14  1  0.26223606  0.73576536  0.74282073  1
  C  C15  1  0.73776394  0.26423464  0.25717927  1
  C  C16  1  0.26423464  0.73776394  0.25717927  1
  C  C17  1  0.73576536  0.26223606  0.74282073  1
  C  C18  1  -0.00000000  -0.00000000  0.00000000  1
  C  C19  1  0.73689299  0.95670380  0.93888479  1
  C  C20  1  0.26310701  0.04329620  0.06111521  1
  C  C21  1  0.04329620  0.26310701  0.06111521  1
  C  C22  1  0.95670380  0.73689299  0.93888479  1
  C  C23  1  0.47994909  0.26488732  0.93662205  1
  C  C24  1  0.52005091  0.73511268  0.06337795  1
  C  C25  1  0.73511268  0.52005091  0.06337795  1
  C  C26  1  0.26488732  0.47994909  0.93662205  1
  C  C27  1  0.23537550  0.01439515  0.55971928  1
  C  C28  1  0.76462450  0.98560485  0.44028072  1
  C  C29  1  0.98560485  0.76462450  0.44028072  1
  C  C30  1  0.01439515  0.23537550  0.55971928  1
  C  C31  1  0.54192821  0.75667782  0.56044772  1
  C  C32  1  0.45807179  0.24332218  0.43955228  1
  C  C33  1  0.24332218  0.45807179  0.43955228  1
  C  C34  1  0.75667782  0.54192821  0.56044772  1
  C  C35  1  0.24838895  0.03309348  0.78503199  1
  C  C36  1  0.75161105  0.96690652  0.21496801  1
  C  C37  1  0.96690652  0.75161105  0.21496801  1
  C  C38  1  0.03309348  0.24838895  0.78503199  1
  C  C39  1  0.50448207  0.94925055  0.83545870  1
  C  C40  1  0.49551793  0.05074945  0.16454130  1
  C  C41  1  0.05074945  0.49551793  0.16454130  1
  C  C42  1  0.94925055  0.50448207  0.83545870  1
  C  C43  1  0.38655028  0.13394336  0.97112760  1
  C  C44  1  0.61344972  0.86605664  0.02887240  1
  C  C45  1  0.86605664  0.61344972  0.02887240  1
  C  C46  1  0.13394336  0.38655028  0.97112760  1
  C  C47  1  0.67998269  0.23283666  0.64638142  1
  C  C48  1  0.32001731  0.76716334  0.35361858  1
  C  C49  1  0.76716334  0.32001731  0.35361858  1
  C  C50  1  0.23283666  0.67998269  0.64638142  1
  C  C51  1  0.84897170  0.84897170  0.90016876  1
  C  C52  1  0.15102830  0.15102830  0.09983124  1
  C  C53  1  0.38785935  0.38785935  0.96928555  1
  C  C54  1  0.61214065  0.61214065  0.03071445  1
  C  C55  1  0.36066399  0.36066399  0.39407539  1
  C  C56  1  0.63933601  0.63933601  0.60592461  1
  C  C57  1  0.55484295  0.31550239  0.81595316  1
  C  C58  1  0.44515705  0.68449761  0.18404684  1
  C  C59  1  0.68449761  0.44515705  0.18404684  1
  C  C60  1  0.31550239  0.55484295  0.81595316  1
  C  C61  1  0.21031751  0.96009422  0.00214478  1
  C  C62  1  0.78968249  0.03990578  0.99785522  1
  C  C63  1  0.03990578  0.78968249  0.99785522  1
  C  C64  1  0.96009422  0.21031751  0.00214478  1
  C  C65  1  0.36632938  0.11251747  0.51746026  1
  C  C66  1  0.63367062  0.88748253  0.48253974  1
  C  C67  1  0.88748253  0.63367062  0.48253974  1
  C  C68  1  0.11251747  0.36632938  0.51746026  1
  C  C69  1  0.26870871  0.91735366  0.48948334  1
  C  C70  1  0.73129129  0.08264634  0.51051666  1
  C  C71  1  0.08264634  0.73129129  0.51051666  1
  C  C72  1  0.91735366  0.26870871  0.48948334  1
  C  C73  1  0.41864981  0.77057398  0.99530669  1
  C  C74  1  0.58135019  0.22942602  0.00469331  1
  C  C75  1  0.22942602  0.58135019  0.00469331  1
  C  C76  1  0.77057398  0.41864981  0.99530669  1
  C  C77  1  0.47266007  0.71141945  0.49051172  1
  C  C78  1  0.52733993  0.28858055  0.50948828  1
  C  C79  1  0.28858055  0.52733993  0.50948828  1
  C  C80  1  0.71141945  0.47266007  0.49051172  1
  C  C81  1  0.30222482  0.83042753  0.84941484  1
  C  C82  1  0.69777518  0.16957247  0.15058516  1
  C  C83  1  0.16957247  0.69777518  0.15058516  1
  C  C84  1  0.83042753  0.30222482  0.84941484  1
  C  C85  1  0.44589960  0.79531212  0.65837815  1
  C  C86  1  0.55410040  0.20468788  0.34162185  1
  C  C87  1  0.20468788  0.55410040  0.34162185  1
  C  C88  1  0.79531212  0.44589960  0.65837815  1
  C  C89  1  0.20820905  0.93718110  0.68076115  1
  C  C90  1  0.79179095  0.06281890  0.31923885  1
  C  C91  1  0.06281890  0.79179095  0.31923885  1
  C  C92  1  0.93718110  0.20820905  0.68076115  1
  C  C93  1  0.68609177  0.04816563  0.84288949  1
  C  C94  1  0.31390823  0.95183437  0.15711051  1
  C  C95  1  0.95183437  0.31390823  0.15711051  1
  C  C96  1  0.04816563  0.68609177  0.84288949  1
  C  C97  1  0.04617915  0.04617915  0.84257357  1
  C  C98  1  0.95382085  0.95382085  0.15742643  1
  C  C99  1  0.10341313  0.10341313  0.54218793  1
  C  C100  1  0.89658687  0.89658687  0.45781207  1
