# generated using pymatgen
data_CuNiC8
_symmetry_space_group_name_H-M   'P 1'
_cell_length_a   5.64149100
_cell_length_b   5.93542000
_cell_length_c   7.99501900
_cell_angle_alpha   90.00000000
_cell_angle_beta   90.00000000
_cell_angle_gamma   90.00000000
_symmetry_Int_Tables_number   1
_chemical_formula_structural   CuNiC8
_chemical_formula_sum   'Cu2 Ni2 C16'
_cell_volume   267.71016120
_cell_formula_units_Z   2
loop_
 _symmetry_equiv_pos_site_id
 _symmetry_equiv_pos_as_xyz
  1  'x, y, z'
loop_
 _atom_site_type_symbol
 _atom_site_label
 _atom_site_symmetry_multiplicity
 _atom_site_fract_x
 _atom_site_fract_y
 _atom_site_fract_z
 _atom_site_occupancy
  Ni  Ni0  1  0.47942100  0.18415900  0.00000000  1
  Ni  Ni1  1  0.97942100  0.81584100  0.50000000  1
  Cu  Cu2  1  0.02172000  0.68537800  0.00000000  1
  Cu  Cu3  1  0.52172000  0.31462200  0.50000000  1
  C  C4  1  0.00086200  0.24721300  0.75093300  1
  C  C5  1  0.00086200  0.24721300  0.24906700  1
  C  C6  1  0.50086200  0.75278700  0.25093300  1
  C  C7  1  0.50086200  0.75278700  0.74906700  1
  C  C8  1  0.11257500  0.20268300  0.50000000  1
  C  C9  1  0.20170000  0.95250800  0.80894200  1
  C  C10  1  0.20170000  0.95250800  0.19105800  1
  C  C11  1  0.29819800  0.45243000  0.19060800  1
  C  C12  1  0.29819800  0.45243000  0.80939200  1
  C  C13  1  0.38260200  0.70492400  0.50000000  1
  C  C14  1  0.61257500  0.79731700  0.00000000  1
  C  C15  1  0.70170000  0.04749200  0.69105800  1
  C  C16  1  0.70170000  0.04749200  0.30894200  1
  C  C17  1  0.79819800  0.54757000  0.69060800  1
  C  C18  1  0.79819800  0.54757000  0.30939200  1
  C  C19  1  0.88260200  0.29507600  0.00000000  1
