# generated using pymatgen
data_Cu3Ni2C15
_symmetry_space_group_name_H-M   'P 1'
_cell_length_a   5.15796700
_cell_length_b   8.99257000
_cell_length_c   12.80228700
_cell_angle_alpha   90.00000000
_cell_angle_beta   90.00000000
_cell_angle_gamma   90.00000000
_symmetry_Int_Tables_number   1
_chemical_formula_structural   Cu3Ni2C15
_chemical_formula_sum   'Cu6 Ni4 C30'
_cell_volume   593.81333389
_cell_formula_units_Z   2
loop_
 _symmetry_equiv_pos_site_id
 _symmetry_equiv_pos_as_xyz
  1  'x, y, z'
loop_
 _atom_site_type_symbol
 _atom_site_label
 _atom_site_symmetry_multiplicity
 _atom_site_fract_x
 _atom_site_fract_y
 _atom_site_fract_z
 _atom_site_occupancy
  Ni  Ni0  1  0.14126300  0.35207800  0.20784000  1
  Ni  Ni1  1  0.14126300  0.64792200  0.79216000  1
  Ni  Ni2  1  0.14126300  0.14792200  0.70784000  1
  Ni  Ni3  1  0.14126300  0.85207800  0.29216000  1
  Cu  Cu4  1  0.12930600  0.50000000  0.50000000  1
  Cu  Cu5  1  0.12930600  0.00000000  0.00000000  1
  Cu  Cu6  1  0.69161300  0.32302600  0.93959400  1
  Cu  Cu7  1  0.69161300  0.67697400  0.06040600  1
  Cu  Cu8  1  0.69161300  0.17697400  0.43959400  1
  Cu  Cu9  1  0.69161300  0.82302600  0.56040600  1
  C  C10  1  0.69599200  0.42631700  0.65732900  1
  C  C11  1  0.69599200  0.57368300  0.34267100  1
  C  C12  1  0.69599200  0.07368300  0.15732900  1
  C  C13  1  0.69599200  0.92631700  0.84267100  1
  C  C14  1  0.38204300  0.42201200  0.64253400  1
  C  C15  1  0.38204300  0.57798800  0.35746600  1
  C  C16  1  0.38204300  0.07798800  0.14253400  1
  C  C17  1  0.38204300  0.92201200  0.85746600  1
  C  C18  1  0.85280700  0.18583500  0.07478100  1
  C  C19  1  0.85280700  0.81416500  0.92521900  1
  C  C20  1  0.85280700  0.31416500  0.57478100  1
  C  C21  1  0.85280700  0.68583500  0.42521900  1
  C  C22  1  0.82046200  0.09037300  0.87392500  1
  C  C23  1  0.82046200  0.90962700  0.12607500  1
  C  C24  1  0.82046200  0.40962700  0.37392500  1
  C  C25  1  0.82046200  0.59037300  0.62607500  1
  C  C26  1  0.79850400  0.38019700  0.77437200  1
  C  C27  1  0.79850400  0.61980300  0.22562800  1
  C  C28  1  0.79850400  0.11980300  0.27437200  1
  C  C29  1  0.79850400  0.88019700  0.72562800  1
  C  C30  1  0.97667100  0.50000000  0.00000000  1
  C  C31  1  0.97667100  0.00000000  0.50000000  1
  C  C32  1  0.52368300  0.43755000  0.08959500  1
  C  C33  1  0.52368300  0.56245000  0.91040500  1
  C  C34  1  0.52368300  0.06245000  0.58959500  1
  C  C35  1  0.52368300  0.93755000  0.41040500  1
  C  C36  1  0.29469500  0.22861900  0.92405200  1
  C  C37  1  0.29469500  0.77138100  0.07594800  1
  C  C38  1  0.29469500  0.27138100  0.42405200  1
  C  C39  1  0.29469500  0.72861900  0.57594800  1
