# generated using pymatgen
data_Cu13NiC10
_symmetry_space_group_name_H-M   'P 1'
_cell_length_a   8.69426000
_cell_length_b   8.69605500
_cell_length_c   12.29967700
_cell_angle_alpha   90.00000000
_cell_angle_beta   90.00000000
_cell_angle_gamma   90.00000000
_symmetry_Int_Tables_number   1
_chemical_formula_structural   Cu13NiC10
_chemical_formula_sum   'Cu52 Ni4 C40'
_cell_volume   929.92646601
_cell_formula_units_Z   4
loop_
 _symmetry_equiv_pos_site_id
 _symmetry_equiv_pos_as_xyz
  1  'x, y, z'
loop_
 _atom_site_type_symbol
 _atom_site_label
 _atom_site_symmetry_multiplicity
 _atom_site_fract_x
 _atom_site_fract_y
 _atom_site_fract_z
 _atom_site_occupancy
  C  C0  1  0.26064700  0.75085000  0.11676400  1
  C  C1  1  0.73935300  0.24915000  0.61676400  1
  C  C2  1  0.76064700  0.24915000  0.11676400  1
  C  C3  1  0.23935300  0.75085000  0.61676400  1
  C  C4  1  0.51131000  0.02669200  0.34430300  1
  C  C5  1  0.48869000  0.97330800  0.84430300  1
  C  C6  1  0.01131000  0.97330800  0.34430300  1
  C  C7  1  0.98869000  0.02669200  0.84430300  1
  C  C8  1  0.01120900  0.52714400  0.34133800  1
  C  C9  1  0.98879100  0.47285600  0.84133800  1
  C  C10  1  0.51120900  0.47285600  0.34133800  1
  C  C11  1  0.48879100  0.52714400  0.84133800  1
  C  C12  1  0.09467200  0.24983700  0.02262400  1
  C  C13  1  0.90532800  0.75016300  0.52262400  1
  C  C14  1  0.59467200  0.75016300  0.02262400  1
  C  C15  1  0.40532800  0.24983700  0.52262400  1
  C  C16  1  0.24594600  0.40273700  0.17465900  1
  C  C17  1  0.75405400  0.59726300  0.67465900  1
  C  C18  1  0.74594600  0.59726300  0.17465900  1
  C  C19  1  0.25405400  0.40273700  0.67465900  1
  C  C20  1  0.04547400  0.25064900  0.49477200  1
  C  C21  1  0.95452600  0.74935100  0.99477200  1
  C  C22  1  0.54547400  0.74935100  0.49477200  1
  C  C23  1  0.45452600  0.25064900  0.99477200  1
  C  C24  1  0.24362100  0.25291700  0.34774900  1
  C  C25  1  0.75637900  0.74708300  0.84774900  1
  C  C26  1  0.74362100  0.74708300  0.34774900  1
  C  C27  1  0.25637900  0.25291700  0.84774900  1
  C  C28  1  0.50199900  0.00322200  0.09540700  1
  C  C29  1  0.49800100  0.99677800  0.59540700  1
  C  C30  1  0.00199900  0.99677800  0.09540700  1
  C  C31  1  0.99800100  0.00322200  0.59540700  1
  C  C32  1  0.24660600  0.09752000  0.17530300  1
  C  C33  1  0.75339400  0.90248000  0.67530300  1
  C  C34  1  0.74660600  0.90248000  0.17530300  1
  C  C35  1  0.25339400  0.09752000  0.67530300  1
  C  C36  1  0.00118500  0.50216200  0.09480200  1
  C  C37  1  0.99881500  0.49783800  0.59480200  1
  C  C38  1  0.50118500  0.49783800  0.09480200  1
  C  C39  1  0.49881500  0.50216200  0.59480200  1
  Ni  Ni40  1  0.73804300  0.25005300  0.33980700  1
  Ni  Ni41  1  0.26195700  0.74994700  0.83980700  1
  Ni  Ni42  1  0.23804300  0.74994700  0.33980700  1
  Ni  Ni43  1  0.76195700  0.25005300  0.83980700  1
  Cu  Cu44  1  0.16549000  0.52386700  0.11673800  1
  Cu  Cu45  1  0.83451000  0.47613300  0.61673800  1
  Cu  Cu46  1  0.66549000  0.47613300  0.11673800  1
  Cu  Cu47  1  0.33451000  0.52386700  0.61673800  1
  Cu  Cu48  1  0.04962900  0.09134900  0.00212700  1
  Cu  Cu49  1  0.95037100  0.90865100  0.50212700  1
  Cu  Cu50  1  0.54962900  0.90865100  0.00212700  1
  Cu  Cu51  1  0.45037100  0.09134900  0.50212700  1
  Cu  Cu52  1  0.35730400  0.32355800  0.42123200  1
  Cu  Cu53  1  0.64269600  0.67644200  0.92123200  1
  Cu  Cu54  1  0.85730400  0.67644200  0.42123200  1
  Cu  Cu55  1  0.14269600  0.32355800  0.92123200  1
  Cu  Cu56  1  0.23101200  0.24959400  0.10667100  1
  Cu  Cu57  1  0.76898800  0.75040600  0.60667100  1
  Cu  Cu58  1  0.73101200  0.75040600  0.10667100  1
  Cu  Cu59  1  0.26898800  0.24959400  0.60667100  1
  Cu  Cu60  1  0.17376000  0.37286100  0.28000500  1
  Cu  Cu61  1  0.82624000  0.62713900  0.78000500  1
  Cu  Cu62  1  0.67376000  0.62713900  0.28000500  1
  Cu  Cu63  1  0.32624000  0.37286100  0.78000500  1
  Cu  Cu64  1  0.83653000  0.01603400  0.11526500  1
  Cu  Cu65  1  0.16347000  0.98396600  0.61526500  1
  Cu  Cu66  1  0.33653000  0.98396600  0.11526500  1
  Cu  Cu67  1  0.66347000  0.01603400  0.61526500  1
  Cu  Cu68  1  0.11780700  0.17344200  0.41085700  1
  Cu  Cu69  1  0.88219300  0.82655800  0.91085700  1
  Cu  Cu70  1  0.61780700  0.82655800  0.41085700  1
  Cu  Cu71  1  0.38219300  0.17344200  0.91085700  1
  Cu  Cu72  1  0.31981100  0.13624600  0.27886400  1
  Cu  Cu73  1  0.68018900  0.86375400  0.77886400  1
  Cu  Cu74  1  0.81981100  0.86375400  0.27886400  1
  Cu  Cu75  1  0.18018900  0.13624600  0.77886400  1
  Cu  Cu76  1  0.03722200  0.40939800  0.49296400  1
  Cu  Cu77  1  0.96277800  0.59060200  0.99296400  1
  Cu  Cu78  1  0.53722200  0.59060200  0.49296400  1
  Cu  Cu79  1  0.46277800  0.40939800  0.99296400  1
  Cu  Cu80  1  0.46819800  0.66176900  0.07251500  1
  Cu  Cu81  1  0.53180200  0.33823100  0.57251500  1
  Cu  Cu82  1  0.96819800  0.33823100  0.07251500  1
  Cu  Cu83  1  0.03180200  0.66176900  0.57251500  1
  Cu  Cu84  1  0.40892900  0.44329700  0.18821100  1
  Cu  Cu85  1  0.59107100  0.55670300  0.68821100  1
  Cu  Cu86  1  0.90892900  0.55670300  0.18821100  1
  Cu  Cu87  1  0.09107100  0.44329700  0.68821100  1
  Cu  Cu88  1  0.08934500  0.04082300  0.19273700  1
  Cu  Cu89  1  0.91065500  0.95917700  0.69273700  1
  Cu  Cu90  1  0.58934500  0.95917700  0.19273700  1
  Cu  Cu91  1  0.41065500  0.04082300  0.69273700  1
  Cu  Cu92  1  0.54104600  0.16876500  0.06948600  1
  Cu  Cu93  1  0.45895400  0.83123500  0.56948600  1
  Cu  Cu94  1  0.04104600  0.83123500  0.06948600  1
  Cu  Cu95  1  0.95895400  0.16876500  0.56948600  1
