# generated using pymatgen
data_Cu2NiC20
_symmetry_space_group_name_H-M   'P 1'
_cell_length_a   7.15713900
_cell_length_b   9.65405000
_cell_length_c   9.92287955
_cell_angle_alpha   78.80705202
_cell_angle_beta   90.00000000
_cell_angle_gamma   90.00000000
_symmetry_Int_Tables_number   1
_chemical_formula_structural   Cu2NiC20
_chemical_formula_sum   'Cu4 Ni2 C40'
_cell_volume   672.58387321
_cell_formula_units_Z   2
loop_
 _symmetry_equiv_pos_site_id
 _symmetry_equiv_pos_as_xyz
  1  'x, y, z'
loop_
 _atom_site_type_symbol
 _atom_site_label
 _atom_site_symmetry_multiplicity
 _atom_site_fract_x
 _atom_site_fract_y
 _atom_site_fract_z
 _atom_site_occupancy
  Ni  Ni0  1  0.50000000  0.00000000  0.50000000  1
  Ni  Ni1  1  0.00000000  0.00000000  0.00000000  1
  Cu  Cu2  1  0.37349400  0.48561200  0.74440100  1
  Cu  Cu3  1  0.87349400  0.51438800  0.75559900  1
  Cu  Cu4  1  0.62650600  0.51438800  0.25559900  1
  Cu  Cu5  1  0.12650600  0.48561200  0.24440100  1
  C  C6  1  0.13936100  0.30851500  0.00366200  1
  C  C7  1  0.63936100  0.69148500  0.49633800  1
  C  C8  1  0.86063900  0.69148500  0.99633800  1
  C  C9  1  0.36063900  0.30851500  0.50366200  1
  C  C10  1  0.38013800  0.32439900  0.65574700  1
  C  C11  1  0.88013800  0.67560100  0.84425300  1
  C  C12  1  0.61986200  0.67560100  0.34425300  1
  C  C13  1  0.11986200  0.32439900  0.15574700  1
  C  C14  1  0.30805500  0.39046600  0.93364900  1
  C  C15  1  0.80805500  0.60953400  0.56635100  1
  C  C16  1  0.69194500  0.60953400  0.06635100  1
  C  C17  1  0.19194500  0.39046600  0.43364900  1
  C  C18  1  0.32746900  0.14961600  0.50413100  1
  C  C19  1  0.82746900  0.85038400  0.99586900  1
  C  C20  1  0.67253100  0.85038400  0.49586900  1
  C  C21  1  0.17253100  0.14961600  0.00413100  1
  C  C22  1  0.45059000  0.63991900  0.56985100  1
  C  C23  1  0.95059000  0.36008100  0.93014900  1
  C  C24  1  0.54941000  0.36008100  0.43014900  1
  C  C25  1  0.04941000  0.63991900  0.06985100  1
  C  C26  1  0.36854400  0.53744000  0.19674300  1
  C  C27  1  0.86854400  0.46256000  0.30325700  1
  C  C28  1  0.63145600  0.46256000  0.80325700  1
  C  C29  1  0.13145600  0.53744000  0.69674300  1
  C  C30  1  0.34076800  0.66439900  0.79538100  1
  C  C31  1  0.84076800  0.33560100  0.70461900  1
  C  C32  1  0.65923200  0.33560100  0.20461900  1
  C  C33  1  0.15923200  0.66439900  0.29538100  1
  C  C34  1  0.53676000  0.96077600  0.75826400  1
  C  C35  1  0.03676000  0.03922400  0.74173600  1
  C  C36  1  0.46324000  0.03922400  0.24173600  1
  C  C37  1  0.96324000  0.96077600  0.25826400  1
  C  C38  1  0.30957300  0.88115900  0.51959500  1
  C  C39  1  0.80957300  0.11884100  0.98040500  1
  C  C40  1  0.69042700  0.11884100  0.48040500  1
  C  C41  1  0.19042700  0.88115900  0.01959500  1
  C  C42  1  0.50708600  0.05401000  0.82427500  1
  C  C43  1  0.00708600  0.94599000  0.67572500  1
  C  C44  1  0.49291400  0.94599000  0.17572500  1
  C  C45  1  0.99291400  0.05401000  0.32427500  1
