# generated using pymatgen
data_CuNiC8
_symmetry_space_group_name_H-M   'P 1'
_cell_length_a   5.59681505
_cell_length_b   5.69930880
_cell_length_c   9.82922874
_cell_angle_alpha   89.21589423
_cell_angle_beta   73.24384932
_cell_angle_gamma   60.70266057
_symmetry_Int_Tables_number   1
_chemical_formula_structural   CuNiC8
_chemical_formula_sum   'Cu2 Ni2 C16'
_cell_volume   258.75495645
_cell_formula_units_Z   2
loop_
 _symmetry_equiv_pos_site_id
 _symmetry_equiv_pos_as_xyz
  1  'x, y, z'
loop_
 _atom_site_type_symbol
 _atom_site_label
 _atom_site_symmetry_multiplicity
 _atom_site_fract_x
 _atom_site_fract_y
 _atom_site_fract_z
 _atom_site_occupancy
  C  C0  1  0.25360700  0.38155500  0.12301000  1
  C  C1  1  0.24830600  0.86668000  0.62474500  1
  C  C2  1  0.75228300  0.62413600  0.86238500  1
  C  C3  1  0.74437800  0.13013500  0.38628900  1
  Ni  Ni4  1  0.99862700  0.50031300  0.50014600  1
  Ni  Ni5  1  0.99903000  0.00022800  0.99975700  1
  Cu  Cu6  1  0.49705600  0.24605100  0.74907600  1
  Cu  Cu7  1  0.50291900  0.75424900  0.25169600  1
  C  C8  1  0.74396100  0.39963700  0.13507300  1
  C  C9  1  0.74611800  0.86812600  0.62204500  1
  C  C10  1  0.26581600  0.61225100  0.87147000  1
  C  C11  1  0.25443000  0.11459100  0.37456700  1
  C  C12  1  0.20385800  0.15986300  0.84073800  1
  C  C13  1  0.22283400  0.64660400  0.35372700  1
  C  C14  1  0.77849100  0.34535300  0.63834900  1
  C  C15  1  0.79007700  0.85287600  0.16655700  1
  C  C16  1  0.69096700  0.10046200  0.89439700  1
  C  C17  1  0.71343600  0.60326100  0.39747200  1
  C  C18  1  0.27483300  0.39926500  0.59820600  1
  C  C19  1  0.31897100  0.89436700  0.11029300  1
