# generated using pymatgen
data_CuNiC4
_symmetry_space_group_name_H-M   'P 1'
_cell_length_a   6.95217855
_cell_length_b   6.95217855
_cell_length_c   6.95217859
_cell_angle_alpha   33.41766340
_cell_angle_beta   33.41766340
_cell_angle_gamma   33.41766261
_symmetry_Int_Tables_number   1
_chemical_formula_structural   CuNiC4
_chemical_formula_sum   'Cu1 Ni1 C4'
_cell_volume   90.76039034
_cell_formula_units_Z   1
loop_
 _symmetry_equiv_pos_site_id
 _symmetry_equiv_pos_as_xyz
  1  'x, y, z'
loop_
 _atom_site_type_symbol
 _atom_site_label
 _atom_site_symmetry_multiplicity
 _atom_site_fract_x
 _atom_site_fract_y
 _atom_site_fract_z
 _atom_site_occupancy
  Ni  Ni0  1  0.50000000  0.50000000  0.50000000  1
  Cu  Cu1  1  0.00000000  0.00000000  0.00000000  1
  C  C2  1  0.62797100  0.62797100  0.62797100  1
  C  C3  1  0.12143200  0.12143200  0.12143200  1
  C  C4  1  0.87856800  0.87856800  0.87856800  1
  C  C5  1  0.37202900  0.37202900  0.37202900  1
