# generated using pymatgen
data_Cu6NiC29
_symmetry_space_group_name_H-M   'P 1'
_cell_length_a   7.36427674
_cell_length_b   14.55453420
_cell_length_c   14.55453420
_cell_angle_alpha   120.00000094
_cell_angle_beta   90.00000000
_cell_angle_gamma   90.00000000
_symmetry_Int_Tables_number   1
_chemical_formula_structural   Cu6NiC29
_chemical_formula_sum   'Cu18 Ni3 C87'
_cell_volume   1351.00622354
_cell_formula_units_Z   3
loop_
 _symmetry_equiv_pos_site_id
 _symmetry_equiv_pos_as_xyz
  1  'x, y, z'
loop_
 _atom_site_type_symbol
 _atom_site_label
 _atom_site_symmetry_multiplicity
 _atom_site_fract_x
 _atom_site_fract_y
 _atom_site_fract_z
 _atom_site_occupancy
  C  C0  1  0.95802726  0.99747264  0.34403649  1
  C  C1  1  0.04197274  0.00252736  0.65596351  1
  C  C2  1  0.95802726  0.34656385  0.00252736  1
  C  C3  1  0.04197274  0.65343615  0.99747264  1
  C  C4  1  0.95802726  0.65596351  0.65343615  1
  C  C5  1  0.04197274  0.34403649  0.34656385  1
  C  C6  1  0.55111373  0.67747366  0.67993468  1
  C  C7  1  0.44888627  0.32252634  0.32006532  1
  C  C8  1  0.55111373  0.00246102  0.32252634  1
  C  C9  1  0.44888627  0.99753898  0.67747366  1
  C  C10  1  0.55111373  0.32006532  0.99753898  1
  C  C11  1  0.44888627  0.67993468  0.00246102  1
  C  C12  1  0.49812284  0.66666700  0.33333300  1
  C  C13  1  0.50187716  0.33333300  0.66666700  1
  C  C14  1  -0.00000000  -0.00000000  -0.00000000  1
  Ni  Ni15  1  0.99974846  0.66666700  0.33333300  1
  Ni  Ni16  1  0.00025154  0.33333300  0.66666700  1
  Ni  Ni17  1  0.50000000  -0.00000000  -0.00000000  1
  Cu  Cu18  1  0.75903871  0.86802452  0.09659040  1
  Cu  Cu19  1  0.24096129  0.13197548  0.90340960  1
  Cu  Cu20  1  0.75903871  0.22856587  0.13197548  1
  Cu  Cu21  1  0.24096129  0.77143413  0.86802452  1
  Cu  Cu22  1  0.75903871  0.90340960  0.77143413  1
  Cu  Cu23  1  0.24096129  0.09659040  0.22856587  1
  Cu  Cu24  1  0.74127133  0.56138969  0.79603361  1
  Cu  Cu25  1  0.25872867  0.43861031  0.20396639  1
  Cu  Cu26  1  0.74127133  0.23464392  0.43861031  1
  Cu  Cu27  1  0.25872867  0.76535608  0.56138969  1
  Cu  Cu28  1  0.74127133  0.20396639  0.76535608  1
  Cu  Cu29  1  0.25872867  0.79603361  0.23464392  1
  Cu  Cu30  1  0.73820700  0.89452648  0.46405086  1
  Cu  Cu31  1  0.26179300  0.10547352  0.53594914  1
  Cu  Cu32  1  0.73820700  0.56952438  0.10547352  1
  Cu  Cu33  1  0.26179300  0.43047562  0.89452648  1
  Cu  Cu34  1  0.73820700  0.53594914  0.43047562  1
  Cu  Cu35  1  0.26179300  0.46405086  0.56952438  1
  C  C36  1  0.70591180  0.45263395  0.70486468  1
  C  C37  1  0.29408820  0.54736605  0.29513532  1
  C  C38  1  0.70591180  0.25223073  0.54736605  1
  C  C39  1  0.29408820  0.74776927  0.45263395  1
  C  C40  1  0.70591180  0.29513532  0.74776927  1
  C  C41  1  0.29408820  0.70486468  0.25223073  1
  C  C42  1  0.92031997  0.89534750  0.50931421  1
  C  C43  1  0.07968003  0.10465250  0.49068579  1
  C  C44  1  0.92031997  0.61396671  0.10465250  1
  C  C45  1  0.07968003  0.38603329  0.89534750  1
  C  C46  1  0.92031997  0.49068579  0.38603329  1
  C  C47  1  0.07968003  0.50931421  0.61396671  1
  C  C48  1  0.57258407  0.82926247  0.05510163  1
  C  C49  1  0.42741593  0.17073753  0.94489837  1
  C  C50  1  0.57258407  0.22583916  0.17073753  1
  C  C51  1  0.42741593  0.77416084  0.82926247  1
  C  C52  1  0.57258407  0.94489837  0.77416084  1
  C  C53  1  0.42741593  0.05510163  0.22583916  1
  C  C54  1  0.59549754  0.61991305  0.07648342  1
  C  C55  1  0.40450246  0.38008695  0.92351658  1
  C  C56  1  0.59549754  0.45657036  0.38008695  1
  C  C57  1  0.40450246  0.54342964  0.61991305  1
  C  C58  1  0.59549754  0.92351658  0.54342964  1
  C  C59  1  0.40450246  0.07648342  0.45657036  1
  C  C60  1  0.80368869  0.95707502  0.07781002  1
  C  C61  1  0.19631131  0.04292498  0.92218998  1
  C  C62  1  0.80368869  0.12073499  0.04292498  1
  C  C63  1  0.19631131  0.87926501  0.95707502  1
  C  C64  1  0.80368869  0.92218998  0.87926501  1
  C  C65  1  0.19631131  0.07781002  0.12073499  1
  C  C66  1  0.74407936  0.96943173  0.42154660  1
  C  C67  1  0.25592064  0.03056827  0.57845340  1
  C  C68  1  0.74407936  0.45211487  0.03056827  1
  C  C69  1  0.25592064  0.54788513  0.96943173  1
  C  C70  1  0.74407936  0.57845340  0.54788513  1
  C  C71  1  0.25592064  0.42154660  0.45211487  1
  C  C72  1  0.76023011  0.91082206  0.21409522  1
  C  C73  1  0.23976989  0.08917794  0.78590478  1
  C  C74  1  0.76023011  0.30327316  0.08917794  1
  C  C75  1  0.23976989  0.69672684  0.91082206  1
  C  C76  1  0.76023011  0.78590478  0.69672684  1
  C  C77  1  0.23976989  0.21409522  0.30327316  1
  C  C78  1  0.91443724  0.55929140  0.84779723  1
  C  C79  1  0.08556276  0.44070860  0.15220277  1
  C  C80  1  0.91443724  0.28850583  0.44070860  1
  C  C81  1  0.08556276  0.71149417  0.55929140  1
  C  C82  1  0.91443724  0.15220277  0.71149417  1
  C  C83  1  0.08556276  0.84779723  0.28850583  1
  C  C84  1  0.58783236  0.59414250  0.86915464  1
  C  C85  1  0.41216764  0.40585750  0.13084536  1
  C  C86  1  0.58783236  0.27501214  0.40585750  1
  C  C87  1  0.41216764  0.72498786  0.59414250  1
  C  C88  1  0.58783236  0.13084536  0.72498786  1
  C  C89  1  0.41216764  0.86915464  0.27501214  1
  C  C90  1  0.70159973  0.78590913  0.37302123  1
  C  C91  1  0.29840027  0.21409087  0.62697877  1
  C  C92  1  0.70159973  0.58711210  0.21409087  1
  C  C93  1  0.29840027  0.41288790  0.78590913  1
  C  C94  1  0.70159973  0.62697877  0.41288790  1
  C  C95  1  0.29840027  0.37302123  0.58711210  1
  C  C96  1  0.75950520  0.63543001  0.75281099  1
  C  C97  1  0.24049480  0.36456999  0.24718901  1
  C  C98  1  0.75950520  0.11738098  0.36456999  1
  C  C99  1  0.24049480  0.88261902  0.63543001  1
  C  C100  1  0.75950520  0.24718901  0.88261902  1
  C  C101  1  0.24049480  0.75281099  0.11738098  1
  C  C102  1  0.89157860  0.78238909  0.04318446  1
  C  C103  1  0.10842140  0.21761091  0.95681554  1
  C  C104  1  0.89157860  0.26079538  0.21761091  1
  C  C105  1  0.10842140  0.73920462  0.78238909  1
  C  C106  1  0.89157860  0.95681554  0.73920462  1
  C  C107  1  0.10842140  0.04318446  0.26079538  1
