# generated using pymatgen
data_Cu2Ni12C7
_symmetry_space_group_name_H-M   'P 1'
_cell_length_a   3.16586400
_cell_length_b   4.76900089
_cell_length_c   19.13805546
_cell_angle_alpha   88.18482338
_cell_angle_beta   90.00000000
_cell_angle_gamma   90.00000000
_symmetry_Int_Tables_number   1
_chemical_formula_structural   Cu2Ni12C7
_chemical_formula_sum   'Cu2 Ni12 C7'
_cell_volume   288.80152707
_cell_formula_units_Z   1
loop_
 _symmetry_equiv_pos_site_id
 _symmetry_equiv_pos_as_xyz
  1  'x, y, z'
loop_
 _atom_site_type_symbol
 _atom_site_label
 _atom_site_symmetry_multiplicity
 _atom_site_fract_x
 _atom_site_fract_y
 _atom_site_fract_z
 _atom_site_occupancy
  C  C0  1  0.50000000  0.45885600  0.12827700  1
  C  C1  1  0.50000000  0.65294000  0.39538400  1
  C  C2  1  0.50000000  0.47786700  0.88340700  1
  C  C3  1  0.00000000  0.95962300  0.24919500  1
  C  C4  1  0.00000000  0.96471000  0.00913600  1
  C  C5  1  0.50000000  0.58175300  0.64687300  1
  C  C6  1  0.00000000  0.06536200  0.74426100  1
  Ni  Ni7  1  0.50000000  0.23213800  0.70203700  1
  Ni  Ni8  1  0.50000000  0.18413700  0.19946700  1
  Ni  Ni9  1  0.50000000  0.76576900  0.04376300  1
  Ni  Ni10  1  0.50000000  0.28331800  0.38752000  1
  Ni  Ni11  1  0.50000000  0.78555000  0.29978900  1
  Ni  Ni12  1  0.50000000  0.18613300  0.94815400  1
  Ni  Ni13  1  0.00000000  0.27266900  0.07442800  1
  Ni  Ni14  1  0.00000000  0.65971000  0.16378300  1
  Ni  Ni15  1  0.00000000  0.32670200  0.82652400  1
  Ni  Ni16  1  0.00000000  0.76127800  0.44185100  1
  Ni  Ni17  1  0.00000000  0.74984200  0.68085900  1
  Ni  Ni18  1  0.00000000  0.68383500  0.92054800  1
  Cu  Cu19  1  0.50000000  0.83191600  0.80348500  1
  Cu  Cu20  1  0.50000000  0.52989500  0.55475900  1
