# generated using pymatgen
data_Cu(NiC5)2
_symmetry_space_group_name_H-M   'P 1'
_cell_length_a   11.78676274
_cell_length_b   11.78676274
_cell_length_c   11.78676274
_cell_angle_alpha   153.29113345
_cell_angle_beta   152.28689437
_cell_angle_gamma   38.86842240
_symmetry_Int_Tables_number   1
_chemical_formula_structural   Cu(NiC5)2
_chemical_formula_sum   'Cu2 Ni4 C20'
_cell_volume   341.68088929
_cell_formula_units_Z   2
loop_
 _symmetry_equiv_pos_site_id
 _symmetry_equiv_pos_as_xyz
  1  'x, y, z'
loop_
 _atom_site_type_symbol
 _atom_site_label
 _atom_site_symmetry_multiplicity
 _atom_site_fract_x
 _atom_site_fract_y
 _atom_site_fract_z
 _atom_site_occupancy
  Ni  Ni0  1  0.61114500  0.68747300  0.98913500  1
  Ni  Ni1  1  0.38885500  0.37799000  0.07632800  1
  Ni  Ni2  1  0.19833800  0.18747300  0.07632800  1
  Ni  Ni3  1  0.80166200  0.87799000  0.98913500  1
  Cu  Cu4  1  0.00000000  0.00491500  0.00491500  1
  Cu  Cu5  1  0.50000000  0.50491500  0.00491500  1
  C  C6  1  0.17663100  0.80461100  0.48124300  1
  C  C7  1  0.82336900  0.30461100  0.62798000  1
  C  C8  1  0.58578700  0.08878800  0.51184500  1
  C  C9  1  0.41421300  0.92605800  0.50300100  1
  C  C10  1  0.07694300  0.58878800  0.50300100  1
  C  C11  1  0.92305700  0.42605800  0.51184500  1
  C  C12  1  0.13381400  0.15806100  0.79187500  1
  C  C13  1  0.86618600  0.65806100  0.02424700  1
  C  C14  1  0.60947900  0.14094100  0.39092800  1
  C  C15  1  0.39052100  0.78144900  0.53146200  1
  C  C16  1  0.25001300  0.64094100  0.53146200  1
  C  C17  1  0.74998700  0.28144900  0.39092800  1
  C  C18  1  0.32220500  0.32703200  0.50940900  1
  C  C19  1  0.67779500  0.18720400  0.00482700  1
  C  C20  1  0.31762200  0.82703200  0.00482700  1
  C  C21  1  0.68237800  0.68720400  0.50940900  1
  C  C22  1  0.82420900  0.83066800  0.50501800  1
  C  C23  1  0.17579100  0.68080900  0.00645900  1
  C  C24  1  0.82565000  0.33066800  0.00645900  1
  C  C25  1  0.17435000  0.18080900  0.50501800  1
