# generated using pymatgen
data_Cu6Ni5C4
_symmetry_space_group_name_H-M   'P 1'
_cell_length_a   9.55925485
_cell_length_b   9.55925485
_cell_length_c   15.26673500
_cell_angle_alpha   90.00000000
_cell_angle_beta   90.00000000
_cell_angle_gamma   154.43084894
_symmetry_Int_Tables_number   1
_chemical_formula_structural   Cu6Ni5C4
_chemical_formula_sum   'Cu12 Ni10 C8'
_cell_volume   602.10995822
_cell_formula_units_Z   2
loop_
 _symmetry_equiv_pos_site_id
 _symmetry_equiv_pos_as_xyz
  1  'x, y, z'
loop_
 _atom_site_type_symbol
 _atom_site_label
 _atom_site_symmetry_multiplicity
 _atom_site_fract_x
 _atom_site_fract_y
 _atom_site_fract_z
 _atom_site_occupancy
  C  C0  1  0.01784300  0.98215700  0.76355400  1
  C  C1  1  0.98215700  0.01784300  0.26355400  1
  C  C2  1  0.17472200  0.82527800  0.31871800  1
  C  C3  1  0.82527800  0.17472200  0.81871800  1
  C  C4  1  0.16715300  0.83284700  0.95987800  1
  C  C5  1  0.83284700  0.16715300  0.45987800  1
  C  C6  1  0.03269100  0.96730900  0.49983700  1
  C  C7  1  0.96730900  0.03269100  0.99983700  1
  Ni  Ni8  1  0.34446400  0.65553600  0.99040400  1
  Ni  Ni9  1  0.65553600  0.34446400  0.49040400  1
  Ni  Ni10  1  0.30077500  0.69922500  0.63941300  1
  Ni  Ni11  1  0.69922500  0.30077500  0.13941300  1
  Ni  Ni12  1  0.65036400  0.34963600  0.78230400  1
  Ni  Ni13  1  0.34963600  0.65036400  0.28230400  1
  Ni  Ni14  1  0.15189500  0.84810500  0.63647700  1
  Ni  Ni15  1  0.84810500  0.15189500  0.13647700  1
  Ni  Ni16  1  0.43478400  0.56521600  0.57901300  1
  Ni  Ni17  1  0.56521600  0.43478400  0.07901300  1
  Cu  Cu18  1  0.22881600  0.77118400  0.49761000  1
  Cu  Cu19  1  0.77118400  0.22881600  0.99761000  1
  Cu  Cu20  1  0.43075200  0.56924800  0.85637300  1
  Cu  Cu21  1  0.56924800  0.43075200  0.35637300  1
  Cu  Cu22  1  0.22355900  0.77644100  0.77833300  1
  Cu  Cu23  1  0.77644100  0.22355900  0.27833300  1
  Cu  Cu24  1  0.55990300  0.44009700  0.90909000  1
  Cu  Cu25  1  0.44009700  0.55990300  0.40909000  1
  Cu  Cu26  1  0.56693800  0.43306200  0.63425000  1
  Cu  Cu27  1  0.43306200  0.56693800  0.13425000  1
  Cu  Cu28  1  0.11274900  0.88725100  0.14612100  1
  Cu  Cu29  1  0.88725100  0.11274900  0.64612100  1
