# generated using pymatgen
data_Cu(Ni2C3)2
_symmetry_space_group_name_H-M   'P 1'
_cell_length_a   9.65217120
_cell_length_b   9.65217120
_cell_length_c   7.26053772
_cell_angle_alpha   89.01497667
_cell_angle_beta   89.01497667
_cell_angle_gamma   120.04618757
_symmetry_Int_Tables_number   1
_chemical_formula_structural   Cu(Ni2C3)2
_chemical_formula_sum   'Cu2 Ni8 C12'
_cell_volume   585.18061022
_cell_formula_units_Z   2
loop_
 _symmetry_equiv_pos_site_id
 _symmetry_equiv_pos_as_xyz
  1  'x, y, z'
loop_
 _atom_site_type_symbol
 _atom_site_label
 _atom_site_symmetry_multiplicity
 _atom_site_fract_x
 _atom_site_fract_y
 _atom_site_fract_z
 _atom_site_occupancy
  C  C0  1  0.07205100  0.53355000  0.62303100  1
  C  C1  1  0.53355000  0.07205100  0.12303100  1
  C  C2  1  0.27668600  0.13417900  0.81031200  1
  C  C3  1  0.86337900  0.71091400  0.77718300  1
  C  C4  1  0.86431400  0.14796100  0.78998800  1
  C  C5  1  0.71091400  0.86337900  0.27718300  1
  C  C6  1  0.13417900  0.27668600  0.31031200  1
  C  C7  1  0.14796100  0.86431400  0.28998800  1
  C  C8  1  0.46781700  0.94267600  0.61669900  1
  C  C9  1  0.46348400  0.51680400  0.62456500  1
  C  C10  1  0.94267600  0.46781700  0.11669900  1
  C  C11  1  0.51680400  0.46348400  0.12456500  1
  Ni  Ni12  1  0.62965700  0.80785200  0.85983900  1
  Ni  Ni13  1  0.18779400  0.36949100  0.90778000  1
  Ni  Ni14  1  0.17904200  0.80930600  0.88664400  1
  Ni  Ni15  1  0.36949100  0.18779400  0.40778000  1
  Ni  Ni16  1  0.80785200  0.62965700  0.35983900  1
  Ni  Ni17  1  0.80930600  0.17904200  0.38664400  1
  Ni  Ni18  1  0.66508900  0.34194900  0.87221500  1
  Ni  Ni19  1  0.34194900  0.66508900  0.37221500  1
  Cu  Cu20  1  0.67786600  0.34073600  0.50732600  1
  Cu  Cu21  1  0.34073600  0.67786600  0.00732600  1
