# generated using pymatgen
data_Cu6NiC30
_symmetry_space_group_name_H-M   'P 1'
_cell_length_a   8.72069929
_cell_length_b   8.73606070
_cell_length_c   8.73415605
_cell_angle_alpha   60.04124987
_cell_angle_beta   59.86891339
_cell_angle_gamma   60.04404136
_symmetry_Int_Tables_number   1
_chemical_formula_structural   Cu6NiC30
_chemical_formula_sum   'Cu6 Ni1 C30'
_cell_volume   470.34864124
_cell_formula_units_Z   1
loop_
 _symmetry_equiv_pos_site_id
 _symmetry_equiv_pos_as_xyz
  1  'x, y, z'
loop_
 _atom_site_type_symbol
 _atom_site_label
 _atom_site_symmetry_multiplicity
 _atom_site_fract_x
 _atom_site_fract_y
 _atom_site_fract_z
 _atom_site_occupancy
  C  C0  1  0.37931600  0.87303700  0.87407900  1
  C  C1  1  0.10392500  0.63229400  0.63192000  1
  C  C2  1  0.74424600  0.75195600  0.75221700  1
  C  C3  1  0.92526800  0.35820700  0.35793400  1
  C  C4  1  0.98830400  0.00794000  0.00061200  1
  C  C5  1  0.49797500  0.49901000  0.50322600  1
  Ni  Ni6  1  0.54472700  0.15139800  0.15171500  1
  Cu  Cu7  1  0.22998600  0.25517900  0.55063000  1
  Cu  Cu8  1  0.23031300  0.96359800  0.25475600  1
  Cu  Cu9  1  0.23117300  0.55058100  0.96371600  1
  Cu  Cu10  1  0.73155400  0.45554900  0.06115300  1
  Cu  Cu11  1  0.73264000  0.06078200  0.75131900  1
  Cu  Cu12  1  0.73174300  0.75209600  0.45548800  1
  C  C13  1  0.06272700  0.10747900  0.34288000  1
  C  C14  1  0.06267200  0.48676800  0.10690600  1
  C  C15  1  0.06186800  0.34373500  0.48739200  1
  C  C16  1  0.19315900  0.10193000  0.74582400  1
  C  C17  1  0.41043100  0.15586000  0.40876600  1
  C  C18  1  0.28540400  0.39806800  0.55031400  1
  C  C19  1  0.19456500  0.95824600  0.10148500  1
  C  C20  1  0.28399300  0.76699300  0.39888800  1
  C  C21  1  0.56315300  0.62181000  0.00812100  1
  C  C22  1  0.28617200  0.54889200  0.76602200  1
  C  C23  1  0.74245300  0.25855900  0.07756600  1
  C  C24  1  0.56334500  0.00835100  0.80654300  1
  C  C25  1  0.41202900  0.02321900  0.15595200  1
  C  C26  1  0.19524600  0.74460700  0.95852000  1
  C  C27  1  0.71752000  0.42877400  0.25544000  1
  C  C28  1  0.41157900  0.40778200  0.02402400  1
  C  C29  1  0.72009900  0.25409800  0.59718300  1
  C  C30  1  0.74318500  0.07838700  0.92067600  1
  C  C31  1  0.71749800  0.59787700  0.42985100  1
  C  C32  1  0.56299800  0.80781700  0.62216500  1
  C  C33  1  0.74324700  0.92110500  0.25802700  1
  C  C34  1  0.90967900  0.70511700  0.48926100  1
  C  C35  1  0.90988900  0.48917900  0.89587000  1
  C  C36  1  0.91029400  0.89559600  0.70543100  1
