# generated using pymatgen
data_CuNiC8
_symmetry_space_group_name_H-M   'P 1'
_cell_length_a   8.51566086
_cell_length_b   8.39582308
_cell_length_c   8.55492972
_cell_angle_alpha   90.00000000
_cell_angle_beta   90.00000000
_cell_angle_gamma   90.00000000
_symmetry_Int_Tables_number   1
_chemical_formula_structural   CuNiC8
_chemical_formula_sum   'Cu4 Ni4 C32'
_cell_volume   611.64310119
_cell_formula_units_Z   4
loop_
 _symmetry_equiv_pos_site_id
 _symmetry_equiv_pos_as_xyz
  1  'x, y, z'
loop_
 _atom_site_type_symbol
 _atom_site_label
 _atom_site_symmetry_multiplicity
 _atom_site_fract_x
 _atom_site_fract_y
 _atom_site_fract_z
 _atom_site_occupancy
  C  C0  1  -0.00000000  0.50000000  0.50000000  1
  C  C1  1  0.50000000  0.50000000  0.00000000  1
  C  C2  1  0.50000000  0.00000000  -0.00000000  1
  C  C3  1  0.00000000  0.00000000  0.50000000  1
  Ni  Ni4  1  0.50000000  0.00000000  0.50000000  1
  Ni  Ni5  1  0.00000000  0.50000000  -0.00000000  1
  Ni  Ni6  1  -0.00000000  0.00000000  -0.00000000  1
  Ni  Ni7  1  0.50000000  0.50000000  0.50000000  1
  Cu  Cu8  1  0.75000000  0.75000000  0.75000000  1
  Cu  Cu9  1  0.25000000  0.25000000  0.75000000  1
  Cu  Cu10  1  0.25000000  0.75000000  0.25000000  1
  Cu  Cu11  1  0.75000000  0.25000000  0.25000000  1
  C  C12  1  0.25000000  0.25000000  0.25000000  1
  C  C13  1  0.75000000  0.75000000  0.25000000  1
  C  C14  1  0.75000000  0.25000000  0.75000000  1
  C  C15  1  0.25000000  0.75000000  0.75000000  1
  C  C16  1  0.00711765  0.21295204  0.25924766  1
  C  C17  1  0.99288235  0.78704796  0.25924766  1
  C  C18  1  0.99288235  0.21295204  0.74075234  1
  C  C19  1  0.00711765  0.78704796  0.74075234  1
  C  C20  1  0.27327255  0.00792918  0.21650501  1
  C  C21  1  0.27327255  0.99207082  0.78349499  1
  C  C22  1  0.72672745  0.99207082  0.21650501  1
  C  C23  1  0.72672745  0.00792918  0.78349499  1
  C  C24  1  0.19270946  0.27966758  0.00948319  1
  C  C25  1  0.80729054  0.27966758  0.99051681  1
  C  C26  1  0.19270946  0.72033242  0.99051681  1
  C  C27  1  0.80729054  0.72033242  0.00948319  1
  C  C28  1  0.49288235  0.28704796  0.24075234  1
  C  C29  1  0.50711765  0.71295204  0.24075234  1
  C  C30  1  0.50711765  0.28704796  0.75924766  1
  C  C31  1  0.49288235  0.71295204  0.75924766  1
  C  C32  1  0.22672745  0.49207082  0.28349499  1
  C  C33  1  0.22672745  0.50792918  0.71650501  1
  C  C34  1  0.77327255  0.50792918  0.28349499  1
  C  C35  1  0.77327255  0.49207082  0.71650501  1
  C  C36  1  0.30729054  0.22033242  0.49051681  1
  C  C37  1  0.69270946  0.22033242  0.50948319  1
  C  C38  1  0.30729054  0.77966758  0.50948319  1
  C  C39  1  0.69270946  0.77966758  0.49051681  1
