# generated using pymatgen
data_Cu2NiC9
_symmetry_space_group_name_H-M   'P 1'
_cell_length_a   5.99657700
_cell_length_b   5.08136900
_cell_length_c   10.99776050
_cell_angle_alpha   65.61083791
_cell_angle_beta   90.00000000
_cell_angle_gamma   90.00000000
_symmetry_Int_Tables_number   1
_chemical_formula_structural   Cu2NiC9
_chemical_formula_sum   'Cu4 Ni2 C18'
_cell_volume   305.20609795
_cell_formula_units_Z   2
loop_
 _symmetry_equiv_pos_site_id
 _symmetry_equiv_pos_as_xyz
  1  'x, y, z'
loop_
 _atom_site_type_symbol
 _atom_site_label
 _atom_site_symmetry_multiplicity
 _atom_site_fract_x
 _atom_site_fract_y
 _atom_site_fract_z
 _atom_site_occupancy
  C  C0  1  0.33082100  0.00000000  0.25000000  1
  C  C1  1  0.66917900  0.00000000  0.75000000  1
  Ni  Ni2  1  0.72082100  0.50000000  0.25000000  1
  Ni  Ni3  1  0.27917900  0.50000000  0.75000000  1
  Cu  Cu4  1  0.16933100  0.76278900  0.98766100  1
  Cu  Cu5  1  0.83066900  0.23721100  0.01233900  1
  Cu  Cu6  1  0.16933100  0.23721100  0.51233900  1
  Cu  Cu7  1  0.83066900  0.76278900  0.48766100  1
  C  C8  1  0.36078500  0.73050500  0.86262100  1
  C  C9  1  0.36078500  0.26949500  0.63737900  1
  C  C10  1  0.63921500  0.26949500  0.13737900  1
  C  C11  1  0.63921500  0.73050500  0.36262100  1
  C  C12  1  0.91255500  0.15981800  0.38871600  1
  C  C13  1  0.91255500  0.84018200  0.11128400  1
  C  C14  1  0.08744500  0.84018200  0.61128400  1
  C  C15  1  0.08744500  0.15981800  0.88871600  1
  C  C16  1  0.63430400  0.21487700  0.88951700  1
  C  C17  1  0.63430400  0.78512300  0.61048300  1
  C  C18  1  0.36569600  0.78512300  0.11048300  1
  C  C19  1  0.36569600  0.21487700  0.38951700  1
  C  C20  1  0.11441300  0.65843000  0.40362800  1
  C  C21  1  0.11441300  0.34157000  0.09637200  1
  C  C22  1  0.88558700  0.34157000  0.59637200  1
  C  C23  1  0.88558700  0.65843000  0.90362800  1
