# generated using pymatgen
data_Cu(NiC7)2
_symmetry_space_group_name_H-M   'P 1'
_cell_length_a   9.63181400
_cell_length_b   12.79686892
_cell_length_c   23.74639891
_cell_angle_alpha   97.37618395
_cell_angle_beta   90.00000000
_cell_angle_gamma   112.10683517
_symmetry_Int_Tables_number   1
_chemical_formula_structural   Cu(NiC7)2
_chemical_formula_sum   'Cu12 Ni24 C168'
_cell_volume   2685.57447140
_cell_formula_units_Z   12
loop_
 _symmetry_equiv_pos_site_id
 _symmetry_equiv_pos_as_xyz
  1  'x, y, z'
loop_
 _atom_site_type_symbol
 _atom_site_label
 _atom_site_symmetry_multiplicity
 _atom_site_fract_x
 _atom_site_fract_y
 _atom_site_fract_z
 _atom_site_occupancy
  C  C0  1  0.50000000  0.50000000  0.50000000  1
  C  C1  1  0.00000000  0.50000000  0.00000000  1
  C  C2  1  0.92216600  0.00000000  0.25000000  1
  C  C3  1  0.07783400  0.00000000  0.75000000  1
  C  C4  1  0.74785100  0.39593800  0.37089200  1
  C  C5  1  0.35191300  0.60406200  0.12910800  1
  C  C6  1  0.25214900  0.60406200  0.62910800  1
  C  C7  1  0.64808700  0.39593800  0.87089200  1
  C  C8  1  0.90374000  0.65207400  0.44444900  1
  C  C9  1  0.25166600  0.34792600  0.05555100  1
  C  C10  1  0.09626000  0.34792600  0.55555100  1
  C  C11  1  0.74833400  0.65207400  0.94444900  1
  C  C12  1  0.90239700  0.53802300  0.55917500  1
  C  C13  1  0.36437300  0.46197700  0.94082500  1
  C  C14  1  0.09760300  0.46197700  0.44082500  1
  C  C15  1  0.63562700  0.53802300  0.05917500  1
  C  C16  1  0.74543300  0.28211600  0.48838800  1
  C  C17  1  0.46331600  0.71788400  0.01161200  1
  C  C18  1  0.25456700  0.71788400  0.51161200  1
  C  C19  1  0.53668400  0.28211600  0.98838800  1
  C  C20  1  0.19051200  0.79210200  0.33322700  1
  C  C21  1  0.39841000  0.20789800  0.16677300  1
  C  C22  1  0.80948800  0.20789800  0.66677300  1
  C  C23  1  0.60159000  0.79210200  0.83322700  1
  C  C24  1  0.10907900  0.64146500  0.31467100  1
  C  C25  1  0.46761400  0.35853500  0.18532900  1
  C  C26  1  0.89092100  0.35853500  0.68532900  1
  C  C27  1  0.53238600  0.64146500  0.81467100  1
  C  C28  1  0.20767900  0.72796200  0.26170500  1
  C  C29  1  0.47971800  0.27203800  0.23829500  1
  C  C30  1  0.79232100  0.27203800  0.73829500  1
  C  C31  1  0.52028200  0.72796200  0.76170500  1
  C  C32  1  0.78895700  0.60559700  0.20742200  1
  C  C33  1  0.18336000  0.39440300  0.29257800  1
  C  C34  1  0.21104300  0.39440300  0.79257800  1
  C  C35  1  0.81664000  0.60559700  0.70742200  1
  C  C36  1  0.97751700  0.62064000  0.19070100  1
  C  C37  1  0.35687700  0.37936000  0.30929900  1
  C  C38  1  0.02248300  0.37936000  0.80929900  1
  C  C39  1  0.64312300  0.62064000  0.69070100  1
  C  C40  1  0.88278500  0.53601200  0.24523800  1
  C  C41  1  0.34677300  0.46398800  0.25476200  1
  C  C42  1  0.11721500  0.46398800  0.75476200  1
  C  C43  1  0.65322700  0.53601200  0.74523800  1
  C  C44  1  0.94613400  0.89161700  0.02767300  1
  C  C45  1  0.05451700  0.10838300  0.47232700  1
  C  C46  1  0.05386600  0.10838300  0.97232700  1
  C  C47  1  0.94548300  0.89161700  0.52767300  1
  C  C48  1  0.13127400  0.00032900  0.04731100  1
  C  C49  1  0.13094500  0.99967100  0.45268900  1
  C  C50  1  0.86872600  0.99967100  0.95268900  1
  C  C51  1  0.86905500  0.00032900  0.54731100  1
  C  C52  1  0.10614400  0.85386200  0.02134100  1
  C  C53  1  0.25228300  0.14613800  0.47865900  1
  C  C54  1  0.89385600  0.14613800  0.97865900  1
  C  C55  1  0.74771700  0.85386200  0.52134100  1
  C  C56  1  0.23932300  0.88624500  0.17664300  1
  C  C57  1  0.35307800  0.11375500  0.32335700  1
  C  C58  1  0.76067700  0.11375500  0.82335700  1
  C  C59  1  0.64692200  0.88624500  0.67664300  1
  C  C60  1  0.27088500  0.85091800  0.10325600  1
  C  C61  1  0.41996700  0.14908200  0.39674400  1
  C  C62  1  0.72911500  0.14908200  0.89674400  1
  C  C63  1  0.58003300  0.85091800  0.60325600  1
  C  C64  1  0.29526700  0.99595200  0.13053500  1
  C  C65  1  0.29931500  0.00404800  0.36946500  1
  C  C66  1  0.70473300  0.00404800  0.86946500  1
  C  C67  1  0.70068500  0.99595200  0.63053500  1
  C  C68  1  0.96107900  0.37371100  0.16427700  1
  C  C69  1  0.58736800  0.62628900  0.33572300  1
  C  C70  1  0.03892100  0.62628900  0.83572300  1
  C  C71  1  0.41263200  0.37371100  0.66427700  1
  C  C72  1  0.82713900  0.33474600  0.10562800  1
  C  C73  1  0.49239300  0.66525400  0.39437200  1
  C  C74  1  0.17286100  0.66525400  0.89437200  1
  C  C75  1  0.50760700  0.33474600  0.60562800  1
  C  C76  1  0.76342600  0.31414100  0.17687600  1
  C  C77  1  0.44928400  0.68585900  0.32312400  1
  C  C78  1  0.23657400  0.68585900  0.82312400  1
  C  C79  1  0.55071600  0.31414100  0.67687600  1
  C  C80  1  0.65738900  0.00807800  0.09421300  1
  C  C81  1  0.64931200  0.99192200  0.40578700  1
  C  C82  1  0.34261100  0.99192200  0.90578700  1
  C  C83  1  0.35068800  0.00807800  0.59421300  1
  C  C84  1  0.59050300  0.10584500  0.13641000  1
  C  C85  1  0.48465800  0.89415500  0.36359000  1
  C  C86  1  0.40949700  0.89415500  0.86359000  1
  C  C87  1  0.51534200  0.10584500  0.63641000  1
  C  C88  1  0.65840900  0.13188800  0.06649600  1
  C  C89  1  0.52652100  0.86811200  0.43350400  1
  C  C90  1  0.34159100  0.86811200  0.93350400  1
  C  C91  1  0.47347900  0.13188800  0.56649600  1
  C  C92  1  0.77973400  0.14933900  0.34339700  1
  C  C93  1  0.63039600  0.85066100  0.15660300  1
  C  C94  1  0.22026600  0.85066100  0.65660300  1
  C  C95  1  0.36960400  0.14933900  0.84339700  1
  C  C96  1  0.77920700  0.17633800  0.28139600  1
  C  C97  1  0.60286900  0.82366200  0.21860400  1
  C  C98  1  0.22079300  0.82366200  0.71860400  1
  C  C99  1  0.39713100  0.17633800  0.78139600  1
  Ni  Ni100  1  0.13729200  0.72309700  0.29842200  1
  Ni  Ni101  1  0.41419500  0.27690300  0.20157800  1
  Ni  Ni102  1  0.86270800  0.27690300  0.70157800  1
  Ni  Ni103  1  0.58580500  0.72309700  0.79842200  1
  Ni  Ni104  1  0.89762600  0.61123700  0.22449600  1
  Ni  Ni105  1  0.28638800  0.38876300  0.27550400  1
  Ni  Ni106  1  0.10237400  0.38876300  0.77550400  1
  Ni  Ni107  1  0.71361200  0.61123700  0.72449600  1
  Ni  Ni108  1  0.05858600  0.91013400  0.04588700  1
  Ni  Ni109  1  0.14845200  0.08986600  0.45411300  1
  Ni  Ni110  1  0.94141400  0.08986600  0.95411300  1
  Ni  Ni111  1  0.85154800  0.91013400  0.54588700  1
  Ni  Ni112  1  0.23254800  0.90551500  0.13342000  1
  Ni  Ni113  1  0.32703300  0.09448500  0.36658000  1
  Ni  Ni114  1  0.76745200  0.09448500  0.86658000  1
  Ni  Ni115  1  0.67296700  0.90551500  0.63342000  1
  Ni  Ni116  1  0.85031500  0.31356000  0.14708700  1
  Ni  Ni117  1  0.53675500  0.68644000  0.35291300  1
  Ni  Ni118  1  0.14968500  0.68644000  0.85291300  1
  Ni  Ni119  1  0.46324500  0.31356000  0.64708700  1
  Ni  Ni120  1  0.67101900  0.09723300  0.10528700  1
  Ni  Ni121  1  0.57378600  0.90276700  0.39471300  1
  Ni  Ni122  1  0.32898100  0.90276700  0.89471300  1
  Ni  Ni123  1  0.42621400  0.09723300  0.60528700  1
  Cu  Cu124  1  0.85870900  0.17424000  0.13568600  1
  Cu  Cu125  1  0.68446900  0.82576000  0.36431400  1
  Cu  Cu126  1  0.14129100  0.82576000  0.86431400  1
  Cu  Cu127  1  0.31553100  0.17424000  0.63568600  1
  Cu  Cu128  1  0.03740400  0.87111800  0.11632600  1
  Cu  Cu129  1  0.16628500  0.12888200  0.38367400  1
  Cu  Cu130  1  0.96259600  0.12888200  0.88367400  1
  Cu  Cu131  1  0.83371500  0.87111800  0.61632600  1
  Cu  Cu132  1  0.96269000  0.73285800  0.27891100  1
  Cu  Cu133  1  0.22983200  0.26714200  0.22108900  1
  Cu  Cu134  1  0.03731000  0.26714200  0.72108900  1
  Cu  Cu135  1  0.77016800  0.73285800  0.77891100  1
  C  C136  1  0.57605600  0.40136500  0.39021700  1
  C  C137  1  0.17469200  0.59863500  0.10978300  1
  C  C138  1  0.42394400  0.59863500  0.60978300  1
  C  C139  1  0.82530800  0.40136500  0.89021700  1
  C  C140  1  0.72526300  0.64529700  0.46252000  1
  C  C141  1  0.07996600  0.35470300  0.03748000  1
  C  C142  1  0.27473700  0.35470300  0.53748000  1
  C  C143  1  0.92003400  0.64529700  0.96252000  1
  C  C144  1  0.72355300  0.53653000  0.56914700  1
  C  C145  1  0.18702300  0.46347000  0.93085300  1
  C  C146  1  0.27644700  0.46347000  0.43085300  1
  C  C147  1  0.81297700  0.53653000  0.06914700  1
  C  C148  1  0.57601400  0.29700300  0.50301800  1
  C  C149  1  0.27901100  0.70299700  0.99698200  1
  C  C150  1  0.42398600  0.70299700  0.49698200  1
  C  C151  1  0.72098900  0.29700300  0.00301800  1
  C  C152  1  0.72399100  0.34111300  0.29903900  1
  C  C153  1  0.38287800  0.65888700  0.20096100  1
  C  C154  1  0.27600900  0.65888700  0.70096100  1
  C  C155  1  0.61712200  0.34111300  0.79903900  1
  C  C156  1  0.85819100  0.55861100  0.37095500  1
  C  C157  1  0.29958000  0.44138900  0.12904500  1
  C  C158  1  0.14180900  0.44138900  0.62904500  1
  C  C159  1  0.70042000  0.55861100  0.87095500  1
  C  C160  1  0.99643300  0.78484700  0.42414300  1
  C  C161  1  0.21158600  0.21515300  0.07585700  1
  C  C162  1  0.00356700  0.21515300  0.57585700  1
  C  C163  1  0.78841400  0.78484700  0.92414300  1
  C  C164  1  0.99400600  0.67902800  0.52442600  1
  C  C165  1  0.31497800  0.32097200  0.97557400  1
  C  C166  1  0.00599400  0.32097200  0.47557400  1
  C  C167  1  0.68502200  0.67902800  0.02442600  1
  C  C168  1  0.00410600  0.58942600  0.62633500  1
  C  C169  1  0.41468000  0.41057400  0.87366500  1
  C  C170  1  0.99589400  0.41057400  0.37366500  1
  C  C171  1  0.58532000  0.58942600  0.12633500  1
  C  C172  1  0.86306200  0.37482200  0.56017000  1
  C  C173  1  0.48824000  0.62517800  0.93983000  1
  C  C174  1  0.13693800  0.62517800  0.43983000  1
  C  C175  1  0.51176000  0.37482200  0.06017000  1
  C  C176  1  0.71971900  0.14575800  0.50011900  1
  C  C177  1  0.57396100  0.85424200  0.99988100  1
  C  C178  1  0.28028100  0.85424200  0.49988100  1
  C  C179  1  0.42603900  0.14575800  0.00011900  1
  C  C180  1  0.73357900  0.26118000  0.40576500  1
  C  C181  1  0.47239900  0.73882000  0.09423500  1
  C  C182  1  0.26642100  0.73882000  0.59423500  1
  C  C183  1  0.52760100  0.26118000  0.90576500  1
  C  C184  1  0.86590700  0.47132400  0.46817600  1
  C  C185  1  0.39458200  0.52867600  0.03182400  1
  C  C186  1  0.13409300  0.52867600  0.53182400  1
  C  C187  1  0.60541800  0.47132400  0.96817600  1
  C  C188  1  0.99727700  0.96272600  0.15303900  1
  C  C189  1  0.03455000  0.03727400  0.34696100  1
  C  C190  1  0.00272300  0.03727400  0.84696100  1
  C  C191  1  0.96545000  0.96272600  0.65303900  1
  C  C192  1  0.00502500  0.83786700  0.24743100  1
  C  C193  1  0.16715800  0.16213300  0.25256900  1
  C  C194  1  0.99497500  0.16213300  0.75256900  1
  C  C195  1  0.83284200  0.83786700  0.74743100  1
  C  C196  1  0.85927100  0.13867800  0.19497400  1
  C  C197  1  0.72059300  0.86132200  0.30502600  1
  C  C198  1  0.14072900  0.86132200  0.80502600  1
  C  C199  1  0.27940700  0.13867800  0.69497400  1
  C  C200  1  0.79007000  0.12082500  0.30395100  1
  C  C201  1  0.66924500  0.87917500  0.19604900  1
  C  C202  1  0.20993000  0.87917500  0.69604900  1
  C  C203  1  0.33075500  0.12082500  0.80395100  1
