# generated using pymatgen
data_Cu3Ni4C
_symmetry_space_group_name_H-M   'P 1'
_cell_length_a   4.16942827
_cell_length_b   4.16942827
_cell_length_c   13.62856262
_cell_angle_alpha   98.79888150
_cell_angle_beta   90.00000000
_cell_angle_gamma   120.00000000
_symmetry_Int_Tables_number   1
_chemical_formula_structural   Cu3Ni4C
_chemical_formula_sum   'Cu3 Ni4 C1'
_cell_volume   201.95338307
_cell_formula_units_Z   1
loop_
 _symmetry_equiv_pos_site_id
 _symmetry_equiv_pos_as_xyz
  1  'x, y, z'
loop_
 _atom_site_type_symbol
 _atom_site_label
 _atom_site_symmetry_multiplicity
 _atom_site_fract_x
 _atom_site_fract_y
 _atom_site_fract_z
 _atom_site_occupancy
  Ni  Ni0  1  0.98867100  0.97734100  0.96601200  1
  Ni  Ni1  1  0.74619200  0.49238400  0.23857500  1
  Ni  Ni2  1  0.50426300  0.00852500  0.51278800  1
  Ni  Ni3  1  0.26336800  0.52673600  0.79010500  1
  Cu  Cu4  1  0.05426200  0.10852400  0.16278600  1
  Cu  Cu5  1  0.81189500  0.62379000  0.43568600  1
  Cu  Cu6  1  0.56966900  0.13933900  0.70900800  1
  C  C7  1  0.31168000  0.62336100  0.93504100  1
