# generated using pymatgen
data_CuNiC8
_symmetry_space_group_name_H-M   'P 1'
_cell_length_a   8.41301375
_cell_length_b   8.42879572
_cell_length_c   8.45541765
_cell_angle_alpha   90.00000000
_cell_angle_beta   90.00000000
_cell_angle_gamma   90.00000000
_symmetry_Int_Tables_number   1
_chemical_formula_structural   CuNiC8
_chemical_formula_sum   'Cu4 Ni4 C32'
_cell_volume   599.58697683
_cell_formula_units_Z   4
loop_
 _symmetry_equiv_pos_site_id
 _symmetry_equiv_pos_as_xyz
  1  'x, y, z'
loop_
 _atom_site_type_symbol
 _atom_site_label
 _atom_site_symmetry_multiplicity
 _atom_site_fract_x
 _atom_site_fract_y
 _atom_site_fract_z
 _atom_site_occupancy
  Ni  Ni0  1  -0.00000000  0.00000000  -0.00000000  1
  Ni  Ni1  1  0.50000000  0.50000000  0.50000000  1
  Ni  Ni2  1  0.50000000  0.00000000  0.00000000  1
  Ni  Ni3  1  -0.00000000  0.00000000  0.50000000  1
  Cu  Cu4  1  0.25089178  0.25114586  0.25030495  1
  Cu  Cu5  1  0.74910822  0.74885414  0.25030495  1
  Cu  Cu6  1  0.74910822  0.25114586  0.74969505  1
  Cu  Cu7  1  0.25089178  0.74885414  0.74969505  1
  C  C8  1  -0.00000000  0.50000000  0.50000000  1
  C  C9  1  0.50000000  0.00000000  0.50000000  1
  C  C10  1  0.50000000  0.50000000  0.00000000  1
  C  C11  1  -0.00000000  0.50000000  0.00000000  1
  C  C12  1  0.75158148  0.74553900  0.74899517  1
  C  C13  1  0.24841852  0.25446100  0.74899517  1
  C  C14  1  0.24841852  0.74553900  0.25100483  1
  C  C15  1  0.75158148  0.25446100  0.25100483  1
  C  C16  1  0.96783854  0.22570991  0.27844324  1
  C  C17  1  0.03216146  0.77429009  0.27844324  1
  C  C18  1  0.03216146  0.22570991  0.72155676  1
  C  C19  1  0.96783854  0.77429009  0.72155676  1
  C  C20  1  0.27456360  0.96389304  0.22118573  1
  C  C21  1  0.27456360  0.03610696  0.77881427  1
  C  C22  1  0.72543640  0.03610696  0.22118573  1
  C  C23  1  0.72543640  0.96389304  0.77881427  1
  C  C24  1  0.21354308  0.28846843  0.96605722  1
  C  C25  1  0.78645692  0.28846843  0.03394278  1
  C  C26  1  0.21354308  0.71153157  0.03394278  1
  C  C27  1  0.78645692  0.71153157  0.96605722  1
  C  C28  1  0.53528060  0.29230955  0.21330084  1
  C  C29  1  0.46471940  0.70769045  0.21330084  1
  C  C30  1  0.46471940  0.29230955  0.78669916  1
  C  C31  1  0.53528060  0.70769045  0.78669916  1
  C  C32  1  0.21467823  0.53133872  0.29190532  1
  C  C33  1  0.21467823  0.46866128  0.70809468  1
  C  C34  1  0.78532177  0.46866128  0.29190532  1
  C  C35  1  0.78532177  0.53133872  0.70809468  1
  C  C36  1  0.29141458  0.21846065  0.53472740  1
  C  C37  1  0.70858542  0.21846065  0.46527260  1
  C  C38  1  0.29141458  0.78153935  0.46527260  1
  C  C39  1  0.70858542  0.78153935  0.53472740  1
