# generated using pymatgen
data_Cu5Ni3C4
_symmetry_space_group_name_H-M   'P 1'
_cell_length_a   3.57908400
_cell_length_b   5.93455800
_cell_length_c   6.71124298
_cell_angle_alpha   89.20811619
_cell_angle_beta   90.00000000
_cell_angle_gamma   90.00000000
_symmetry_Int_Tables_number   1
_chemical_formula_structural   Cu5Ni3C4
_chemical_formula_sum   'Cu5 Ni3 C4'
_cell_volume   142.53507608
_cell_formula_units_Z   1
loop_
 _symmetry_equiv_pos_site_id
 _symmetry_equiv_pos_as_xyz
  1  'x, y, z'
loop_
 _atom_site_type_symbol
 _atom_site_label
 _atom_site_symmetry_multiplicity
 _atom_site_fract_x
 _atom_site_fract_y
 _atom_site_fract_z
 _atom_site_occupancy
  Ni  Ni0  1  0.00000000  0.97910000  0.31694800  1
  Ni  Ni1  1  0.50000000  0.52369500  0.82809200  1
  Ni  Ni2  1  0.50000000  0.02840100  0.67750000  1
  Cu  Cu3  1  0.00000000  0.35490700  0.55802400  1
  Cu  Cu4  1  0.00000000  0.85043000  0.94166100  1
  Cu  Cu5  1  0.50000000  0.64299600  0.43859700  1
  Cu  Cu6  1  0.50000000  0.14573600  0.06205800  1
  Cu  Cu7  1  0.00000000  0.46800400  0.17437200  1
  C  C8  1  0.00000000  0.72849500  0.62230800  1
  C  C9  1  0.00000000  0.22870200  0.88786000  1
  C  C10  1  0.50000000  0.28406200  0.36605200  1
  C  C11  1  0.50000000  0.76547200  0.12652800  1
