# generated using pymatgen
data_CuNi5C2
_symmetry_space_group_name_H-M   'P 1'
_cell_length_a   8.51837379
_cell_length_b   8.51837379
_cell_length_c   8.93571400
_cell_angle_alpha   90.00000000
_cell_angle_beta   90.00000000
_cell_angle_gamma   149.84910918
_symmetry_Int_Tables_number   1
_chemical_formula_structural   CuNi5C2
_chemical_formula_sum   'Cu2 Ni10 C4'
_cell_volume   325.67741914
_cell_formula_units_Z   2
loop_
 _symmetry_equiv_pos_site_id
 _symmetry_equiv_pos_as_xyz
  1  'x, y, z'
loop_
 _atom_site_type_symbol
 _atom_site_label
 _atom_site_symmetry_multiplicity
 _atom_site_fract_x
 _atom_site_fract_y
 _atom_site_fract_z
 _atom_site_occupancy
  C  C0  1  0.20773100  0.79226900  0.25000000  1
  C  C1  1  0.79226900  0.20773100  0.75000000  1
  C  C2  1  0.00000000  0.00000000  0.50000000  1
  C  C3  1  0.00000000  0.00000000  0.00000000  1
  Ni  Ni4  1  0.81428400  0.18571600  0.39394700  1
  Ni  Ni5  1  0.18571600  0.81428400  0.60605300  1
  Ni  Ni6  1  0.81428400  0.18571600  0.10605300  1
  Ni  Ni7  1  0.18571600  0.81428400  0.89394700  1
  Ni  Ni8  1  0.65698000  0.34302000  0.48343300  1
  Ni  Ni9  1  0.34302000  0.65698000  0.51656700  1
  Ni  Ni10  1  0.65698000  0.34302000  0.01656700  1
  Ni  Ni11  1  0.34302000  0.65698000  0.98343300  1
  Ni  Ni12  1  0.39493400  0.60506600  0.25000000  1
  Ni  Ni13  1  0.60506600  0.39493400  0.75000000  1
  Cu  Cu14  1  0.55636600  0.44363400  0.25000000  1
  Cu  Cu15  1  0.44363400  0.55636600  0.75000000  1
