# generated using pymatgen
data_CuNi2C7
_symmetry_space_group_name_H-M   'P 1'
_cell_length_a   6.44453100
_cell_length_b   6.44453100
_cell_length_c   14.77915400
_cell_angle_alpha   90.00000000
_cell_angle_beta   90.00000000
_cell_angle_gamma   90.00000000
_symmetry_Int_Tables_number   1
_chemical_formula_structural   CuNi2C7
_chemical_formula_sum   'Cu4 Ni8 C28'
_cell_volume   613.80752554
_cell_formula_units_Z   4
loop_
 _symmetry_equiv_pos_site_id
 _symmetry_equiv_pos_as_xyz
  1  'x, y, z'
loop_
 _atom_site_type_symbol
 _atom_site_label
 _atom_site_symmetry_multiplicity
 _atom_site_fract_x
 _atom_site_fract_y
 _atom_site_fract_z
 _atom_site_occupancy
  C  C0  1  0.14902100  0.64902100  0.25000000  1
  C  C1  1  0.85097900  0.35097900  0.75000000  1
  C  C2  1  0.85097900  0.35097900  0.25000000  1
  C  C3  1  0.35097900  0.14902100  0.25000000  1
  C  C4  1  0.14902100  0.64902100  0.75000000  1
  C  C5  1  0.64902100  0.85097900  0.75000000  1
  C  C6  1  0.64902100  0.85097900  0.25000000  1
  C  C7  1  0.35097900  0.14902100  0.75000000  1
  C  C8  1  0.00000000  0.00000000  0.12748900  1
  C  C9  1  0.00000000  0.00000000  0.87251100  1
  C  C10  1  0.50000000  0.50000000  0.37251100  1
  C  C11  1  0.50000000  0.50000000  0.62748900  1
  C  C12  1  0.19850400  0.41290900  0.09764800  1
  C  C13  1  0.80149600  0.58709100  0.90235200  1
  C  C14  1  0.80149600  0.58709100  0.09764800  1
  C  C15  1  0.58709100  0.19850400  0.09764800  1
  C  C16  1  0.30149600  0.91290900  0.40235200  1
  C  C17  1  0.19850400  0.41290900  0.90235200  1
  C  C18  1  0.41290900  0.80149600  0.90235200  1
  C  C19  1  0.69850400  0.08709100  0.59764800  1
  C  C20  1  0.41290900  0.80149600  0.09764800  1
  C  C21  1  0.69850400  0.08709100  0.40235200  1
  C  C22  1  0.58709100  0.19850400  0.90235200  1
  C  C23  1  0.30149600  0.91290900  0.59764800  1
  C  C24  1  0.91290900  0.69850400  0.40235200  1
  C  C25  1  0.08709100  0.30149600  0.59764800  1
  C  C26  1  0.08709100  0.30149600  0.40235200  1
  C  C27  1  0.91290900  0.69850400  0.59764800  1
  Ni  Ni28  1  0.26767800  0.09437300  0.00000000  1
  Ni  Ni29  1  0.73232200  0.90562700  0.00000000  1
  Ni  Ni30  1  0.90562700  0.26767800  0.00000000  1
  Ni  Ni31  1  0.23232200  0.59437300  0.50000000  1
  Ni  Ni32  1  0.09437300  0.73232200  0.00000000  1
  Ni  Ni33  1  0.76767800  0.40562700  0.50000000  1
  Ni  Ni34  1  0.59437300  0.76767800  0.50000000  1
  Ni  Ni35  1  0.40562700  0.23232200  0.50000000  1
  Cu  Cu36  1  0.00000000  0.00000000  0.29806400  1
  Cu  Cu37  1  0.00000000  0.00000000  0.70193600  1
  Cu  Cu38  1  0.50000000  0.50000000  0.20193600  1
  Cu  Cu39  1  0.50000000  0.50000000  0.79806400  1
