# generated using pymatgen
data_Cu2NiC18
_symmetry_space_group_name_H-M   'P 1'
_cell_length_a   6.27031512
_cell_length_b   6.12345805
_cell_length_c   8.12253586
_cell_angle_alpha   87.52327717
_cell_angle_beta   92.56403199
_cell_angle_gamma   94.20539948
_symmetry_Int_Tables_number   1
_chemical_formula_structural   Cu2NiC18
_chemical_formula_sum   'Cu2 Ni1 C18'
_cell_volume   310.47221038
_cell_formula_units_Z   1
loop_
 _symmetry_equiv_pos_site_id
 _symmetry_equiv_pos_as_xyz
  1  'x, y, z'
loop_
 _atom_site_type_symbol
 _atom_site_label
 _atom_site_symmetry_multiplicity
 _atom_site_fract_x
 _atom_site_fract_y
 _atom_site_fract_z
 _atom_site_occupancy
  C  C0  1  0.01415300  0.53214700  0.75589100  1
  C  C1  1  0.43953900  0.96387300  0.73980200  1
  C  C2  1  0.61449400  0.84906600  0.20383700  1
  C  C3  1  0.07215100  0.58891500  0.24757000  1
  Ni  Ni4  1  0.30455900  0.13864900  0.29875900  1
  Cu  Cu5  1  0.53347900  0.42624700  0.98238200  1
  Cu  Cu6  1  0.91015000  0.05506100  0.52021100  1
  C  C7  1  0.00253400  0.00254500  0.99692500  1
  C  C8  1  0.47739500  0.52161900  0.50384900  1
  C  C9  1  0.71930100  0.14873800  0.95092400  1
  C  C10  1  0.75653300  0.70824300  0.50170200  1
  C  C11  1  0.27034100  0.85799100  0.05378700  1
  C  C12  1  0.17669400  0.33517800  0.49806800  1
  C  C13  1  0.81679900  0.68690900  0.00082800  1
  C  C14  1  0.63474100  0.24071700  0.54727400  1
  C  C15  1  0.18336000  0.29224500  0.00711900  1
  C  C16  1  0.32700300  0.80363900  0.44435000  1
  C  C17  1  0.42789400  0.56228000  0.74183200  1
  C  C18  1  0.04876900  0.95598900  0.75887200  1
  C  C19  1  0.49639900  0.46650400  0.25361800  1
  C  C20  1  0.96121400  0.03011100  0.25021200  1
