# generated using pymatgen
data_Cu12NiC20
_symmetry_space_group_name_H-M   'P 1'
_cell_length_a   8.82810881
_cell_length_b   8.82810881
_cell_length_c   8.82810881
_cell_angle_alpha   109.47122063
_cell_angle_beta   109.47122063
_cell_angle_gamma   109.47122063
_symmetry_Int_Tables_number   1
_chemical_formula_structural   Cu12NiC20
_chemical_formula_sum   'Cu12 Ni1 C20'
_cell_volume   529.64044517
_cell_formula_units_Z   1
loop_
 _symmetry_equiv_pos_site_id
 _symmetry_equiv_pos_as_xyz
  1  'x, y, z'
loop_
 _atom_site_type_symbol
 _atom_site_label
 _atom_site_symmetry_multiplicity
 _atom_site_fract_x
 _atom_site_fract_y
 _atom_site_fract_z
 _atom_site_occupancy
  Ni  Ni0  1  0.00000000  0.00000000  0.00000000  1
  Cu  Cu1  1  0.81334800  0.67287700  0.50831500  1
  Cu  Cu2  1  0.18665200  0.69496700  0.85952900  1
  Cu  Cu3  1  0.83543800  0.32712300  0.14047100  1
  Cu  Cu4  1  0.67287700  0.50831500  0.81334800  1
  Cu  Cu5  1  0.16456200  0.30503300  0.49168500  1
  Cu  Cu6  1  0.69496700  0.85952900  0.18665200  1
  Cu  Cu7  1  0.32712300  0.14047100  0.83543800  1
  Cu  Cu8  1  0.30503300  0.49168500  0.16456200  1
  Cu  Cu9  1  0.50831500  0.81334800  0.67287700  1
  Cu  Cu10  1  0.14047100  0.83543800  0.32712300  1
  Cu  Cu11  1  0.49168500  0.16456200  0.30503300  1
  Cu  Cu12  1  0.85952900  0.18665200  0.69496700  1
  C  C13  1  0.20427800  0.20427800  0.20427800  1
  C  C14  1  0.79572200  0.00000000  0.00000000  1
  C  C15  1  0.00000000  0.79572200  0.00000000  1
  C  C16  1  0.00000000  0.00000000  0.79572200  1
  C  C17  1  0.64474200  0.76856200  0.38677000  1
  C  C18  1  0.35525800  0.74202800  0.12382000  1
  C  C19  1  0.61820800  0.23143800  0.87618000  1
  C  C20  1  0.76856200  0.38677000  0.64474200  1
  C  C21  1  0.38179200  0.25797200  0.61323000  1
  C  C22  1  0.74202800  0.12382000  0.35525800  1
  C  C23  1  0.23143800  0.87618000  0.61820800  1
  C  C24  1  0.25797200  0.61323000  0.38179200  1
  C  C25  1  0.38677000  0.64474200  0.76856200  1
  C  C26  1  0.87618000  0.61820800  0.23143800  1
  C  C27  1  0.61323000  0.38179200  0.25797200  1
  C  C28  1  0.12382000  0.35525800  0.74202800  1
  C  C29  1  0.61161900  0.61161900  0.61161900  1
  C  C30  1  0.38838100  0.00000000  0.00000000  1
  C  C31  1  0.00000000  0.38838100  0.00000000  1
  C  C32  1  0.00000000  0.00000000  0.38838100  1
