# generated using pymatgen
data_Cu6Ni7
_symmetry_space_group_name_H-M   'P 1'
_cell_length_a   21.12986047
_cell_length_b   20.72740167
_cell_length_c   21.39413324
_cell_angle_alpha   90.01210464
_cell_angle_beta   89.94359362
_cell_angle_gamma   120.67042351
_symmetry_Int_Tables_number   1
_chemical_formula_structural   Cu6Ni7
_chemical_formula_sum   'Cu6 Ni7'
_cell_volume   8059.21664184
_cell_formula_units_Z   1
loop_
 _symmetry_equiv_pos_site_id
 _symmetry_equiv_pos_as_xyz
  1  'x, y, z'
loop_
 _atom_site_type_symbol
 _atom_site_label
 _atom_site_symmetry_multiplicity
 _atom_site_fract_x
 _atom_site_fract_y
 _atom_site_fract_z
 _atom_site_occupancy
  Ni  Ni0  1  0.99999703  0.33332634  0.89392281  1
  Ni  Ni1  1  0.00000297  0.66667366  0.10607719  1
  Ni  Ni2  1  0.89208452  0.89207585  0.66665704  1
  Ni  Ni3  1  0.10791548  0.10792415  0.33334296  1
  Ni  Ni4  1  0.66669083  0.77456197  0.00000194  1
  Ni  Ni5  1  0.33330917  0.22543803  0.99999806  1
  Ni  Ni6  1  -0.00000000  0.00000000  0.00000000  1
  Cu  Cu7  1  0.99680571  0.99680865  0.66662958  1
  Cu  Cu8  1  0.00319429  0.00319135  0.33337042  1
  Cu  Cu9  1  0.66667538  0.66983637  0.99999725  1
  Cu  Cu10  1  0.33332462  0.33016363  0.00000275  1
  Cu  Cu11  1  0.00003194  0.33336203  0.99497272  1
  Cu  Cu12  1  0.99996806  0.66663797  0.00502728  1
