# generated using pymatgen
data_Cu6Ni2C29
_symmetry_space_group_name_H-M   'P 1'
_cell_length_a   7.87978491
_cell_length_b   7.79066900
_cell_length_c   7.77895149
_cell_angle_alpha   90.00000000
_cell_angle_beta   90.20230541
_cell_angle_gamma   90.00000000
_symmetry_Int_Tables_number   1
_chemical_formula_structural   Cu6Ni2C29
_chemical_formula_sum   'Cu6 Ni2 C29'
_cell_volume   477.53748971
_cell_formula_units_Z   1
loop_
 _symmetry_equiv_pos_site_id
 _symmetry_equiv_pos_as_xyz
  1  'x, y, z'
loop_
 _atom_site_type_symbol
 _atom_site_label
 _atom_site_symmetry_multiplicity
 _atom_site_fract_x
 _atom_site_fract_y
 _atom_site_fract_z
 _atom_site_occupancy
  C  C0  1  0.21829100  0.27512800  0.25538100  1
  C  C1  1  0.26542500  0.27465700  0.69551100  1
  C  C2  1  0.21829100  0.72487200  0.25538100  1
  C  C3  1  0.26542500  0.72534300  0.69551100  1
  C  C4  1  0.74179400  0.26611400  0.25465300  1
  C  C5  1  0.74523700  0.23497600  0.70188200  1
  C  C6  1  0.74179400  0.73388600  0.25465300  1
  C  C7  1  0.74523700  0.76502400  0.70188200  1
  Ni  Ni8  1  0.02245100  0.00000000  0.99689200  1
  Ni  Ni9  1  0.48918900  0.00000000  0.99657900  1
  Cu  Cu10  1  0.00711700  0.00000000  0.50682700  1
  Cu  Cu11  1  0.98755800  0.50000000  0.01478700  1
  Cu  Cu12  1  0.99596800  0.50000000  0.50845100  1
  Cu  Cu13  1  0.50914400  0.00000000  0.46417100  1
  Cu  Cu14  1  0.48922500  0.50000000  0.99093300  1
  Cu  Cu15  1  0.50307100  0.50000000  0.49442200  1
  C  C16  1  0.95956500  0.00000000  0.77451300  1
  C  C17  1  0.99693300  0.50000000  0.26435700  1
  C  C18  1  0.01647200  0.50000000  0.76369900  1
  C  C19  1  0.62024100  0.00000000  0.18910800  1
  C  C20  1  0.55401000  0.00000000  0.76481500  1
  C  C21  1  0.47727700  0.50000000  0.74169700  1
  C  C22  1  0.25083000  0.00000000  0.03728500  1
  C  C23  1  0.25478800  0.00000000  0.47869600  1
  C  C24  1  0.24708400  0.50000000  0.04750700  1
  C  C25  1  0.26103500  0.50000000  0.47699500  1
  C  C26  1  0.76329000  0.00000000  0.48883100  1
  C  C27  1  0.72933000  0.50000000  0.04672200  1
  C  C28  1  0.74095800  0.50000000  0.49582000  1
  C  C29  1  0.96717500  0.20364500  0.09028900  1
  C  C30  1  0.01178800  0.24767700  0.51158500  1
  C  C31  1  0.96717500  0.79635500  0.09028900  1
  C  C32  1  0.01178800  0.75232300  0.51158500  1
  C  C33  1  0.48671700  0.25349700  0.00419400  1
  C  C34  1  0.50080500  0.25341100  0.46495100  1
  C  C35  1  0.48671700  0.74650200  0.00419400  1
  C  C36  1  0.50080500  0.74658900  0.46495100  1
