# generated using pymatgen
data_Cu5Ni13C41
_symmetry_space_group_name_H-M   'P 1'
_cell_length_a   13.04384454
_cell_length_b   13.04384454
_cell_length_c   7.09689242
_cell_angle_alpha   88.31757386
_cell_angle_beta   88.31757386
_cell_angle_gamma   70.71967788
_symmetry_Int_Tables_number   1
_chemical_formula_structural   Cu5Ni13C41
_chemical_formula_sum   'Cu10 Ni26 C82'
_cell_volume   1139.01764536
_cell_formula_units_Z   2
loop_
 _symmetry_equiv_pos_site_id
 _symmetry_equiv_pos_as_xyz
  1  'x, y, z'
loop_
 _atom_site_type_symbol
 _atom_site_label
 _atom_site_symmetry_multiplicity
 _atom_site_fract_x
 _atom_site_fract_y
 _atom_site_fract_z
 _atom_site_occupancy
  C  C0  1  0.00000000  0.50000000  0.50000000  1
  C  C1  1  0.50000000  0.00000000  0.50000000  1
  C  C2  1  0.00000000  0.00000000  0.00000000  1
  C  C3  1  0.50000000  0.50000000  0.00000000  1
  C  C4  1  0.94263600  0.64517200  0.23135500  1
  C  C5  1  0.64517200  0.94263600  0.23135500  1
  C  C6  1  0.05736400  0.35482800  0.76864500  1
  C  C7  1  0.35482800  0.05736400  0.76864500  1
  C  C8  1  0.96130000  0.52426700  0.14728600  1
  C  C9  1  0.52426700  0.96130000  0.14728600  1
  C  C10  1  0.03870000  0.47573300  0.85271400  1
  C  C11  1  0.47573300  0.03870000  0.85271400  1
  C  C12  1  0.84883400  0.58808100  0.25778100  1
  C  C13  1  0.58808100  0.84883400  0.25778100  1
  C  C14  1  0.15116600  0.41191900  0.74221900  1
  C  C15  1  0.41191900  0.15116600  0.74221900  1
  C  C16  1  0.96938500  0.31565100  0.54986300  1
  C  C17  1  0.31565100  0.96938500  0.54986300  1
  C  C18  1  0.03061500  0.68434900  0.45013700  1
  C  C19  1  0.68434900  0.03061500  0.45013700  1
  C  C20  1  0.86037200  0.40012800  0.45190300  1
  C  C21  1  0.40012800  0.86037200  0.45190300  1
  C  C22  1  0.13962800  0.59987200  0.54809700  1
  C  C23  1  0.59987200  0.13962800  0.54809700  1
  C  C24  1  0.97014700  0.34425100  0.32541200  1
  C  C25  1  0.34425100  0.97014700  0.32541200  1
  C  C26  1  0.02985300  0.65574900  0.67458800  1
  C  C27  1  0.65574900  0.02985300  0.67458800  1
  C  C28  1  0.19502700  0.37910800  0.44063400  1
  C  C29  1  0.37910800  0.19502700  0.44063400  1
  C  C30  1  0.80497300  0.62089200  0.55936600  1
  C  C31  1  0.62089200  0.80497300  0.55936600  1
  C  C32  1  0.12039200  0.37188200  0.26041800  1
  C  C33  1  0.37188200  0.12039200  0.26041800  1
  C  C34  1  0.87960800  0.62811800  0.73958200  1
  C  C35  1  0.62811800  0.87960800  0.73958200  1
  C  C36  1  0.15979800  0.47878300  0.27752000  1
  C  C37  1  0.47878300  0.15979800  0.27752000  1
  C  C38  1  0.84020200  0.52121700  0.72248000  1
  C  C39  1  0.52121700  0.84020200  0.72248000  1
  C  C40  1  0.97658900  0.20244000  0.97857800  1
  C  C41  1  0.20244000  0.97658900  0.97857800  1
  C  C42  1  0.02341100  0.79756000  0.02142200  1
  C  C43  1  0.79756000  0.02341100  0.02142200  1
  C  C44  1  0.01314100  0.14854500  0.77263800  1
  C  C45  1  0.14854500  0.01314100  0.77263800  1
  C  C46  1  0.98685900  0.85145500  0.22736200  1
  C  C47  1  0.85145500  0.98685900  0.22736200  1
  C  C48  1  0.88568900  0.17894500  0.84208300  1
  C  C49  1  0.17894500  0.88568900  0.84208300  1
  C  C50  1  0.11431100  0.82105500  0.15791700  1
  C  C51  1  0.82105500  0.11431100  0.15791700  1
  C  C52  1  0.97945400  0.87133200  0.75251900  1
  C  C53  1  0.87133200  0.97945400  0.75251900  1
  C  C54  1  0.02054600  0.12866800  0.24748100  1
  C  C55  1  0.12866800  0.02054600  0.24748100  1
  C  C56  1  0.98416900  0.98416900  0.65076400  1
  C  C57  1  0.01583100  0.01583100  0.34923600  1
  C  C58  1  0.44507100  0.33286000  0.06093200  1
  C  C59  1  0.33286000  0.44507100  0.06093200  1
  C  C60  1  0.55492900  0.66714000  0.93906700  1
  C  C61  1  0.66714000  0.55492900  0.93906700  1
  C  C62  1  0.39369400  0.39369400  0.86230900  1
  C  C63  1  0.60630600  0.60630600  0.13769100  1
  C  C64  1  0.42790000  0.65623800  0.75672800  1
  C  C65  1  0.65623800  0.42790000  0.75672800  1
  C  C66  1  0.57210000  0.34376200  0.24327200  1
  C  C67  1  0.34376200  0.57210000  0.24327200  1
  C  C68  1  0.40342100  0.54569100  0.68778600  1
  C  C69  1  0.54569100  0.40342100  0.68778600  1
  C  C70  1  0.59657900  0.45430900  0.31221400  1
  C  C71  1  0.45430900  0.59657900  0.31221400  1
  C  C72  1  0.32558500  0.62202400  0.85157100  1
  C  C73  1  0.62202400  0.32558500  0.85157100  1
  C  C74  1  0.67441500  0.37797600  0.14842900  1
  C  C75  1  0.37797600  0.67441500  0.14842900  1
  Ni  Ni76  1  0.93144700  0.57182500  0.26139000  1
  Ni  Ni77  1  0.57182500  0.93144700  0.26139000  1
  Ni  Ni78  1  0.06855300  0.42817500  0.73861000  1
  Ni  Ni79  1  0.42817500  0.06855300  0.73861000  1
  Ni  Ni80  1  0.94365900  0.37875900  0.45315900  1
  Ni  Ni81  1  0.37875900  0.94365900  0.45315900  1
  Ni  Ni82  1  0.05634100  0.62124100  0.54684100  1
  Ni  Ni83  1  0.62124100  0.05634100  0.54684100  1
  Ni  Ni84  1  0.13277200  0.42417400  0.35643600  1
  Ni  Ni85  1  0.42417400  0.13277200  0.35643600  1
  Ni  Ni86  1  0.86722800  0.57582600  0.64356400  1
  Ni  Ni87  1  0.57582600  0.86722800  0.64356400  1
  Ni  Ni88  1  0.96407200  0.14758100  0.88942200  1
  Ni  Ni89  1  0.14758100  0.96407200  0.88942200  1
  Ni  Ni90  1  0.03592800  0.85241900  0.11057800  1
  Ni  Ni91  1  0.85241900  0.03592800  0.11057800  1
  Ni  Ni92  1  0.95396200  0.95396200  0.76590500  1
  Ni  Ni93  1  0.04603800  0.04603800  0.23409500  1
  Ni  Ni94  1  0.40811000  0.40811000  0.99973300  1
  Ni  Ni95  1  0.59189000  0.59189000  0.00026700  1
  Ni  Ni96  1  0.40490900  0.59155300  0.80260100  1
  Ni  Ni97  1  0.59155300  0.40490900  0.80260100  1
  Ni  Ni98  1  0.59509100  0.40844700  0.19739900  1
  Ni  Ni99  1  0.40844700  0.59509100  0.19739900  1
  Ni  Ni100  1  0.20796100  0.20796100  0.07146600  1
  Ni  Ni101  1  0.79203900  0.79203900  0.92853400  1
  Cu  Cu102  1  0.16054700  0.16054700  0.59688000  1
  Cu  Cu103  1  0.83945300  0.83945300  0.40312000  1
  Cu  Cu104  1  0.83531300  0.41212000  0.97364400  1
  Cu  Cu105  1  0.41212000  0.83531300  0.97364400  1
  Cu  Cu106  1  0.16468700  0.58788000  0.02635600  1
  Cu  Cu107  1  0.58788000  0.16468700  0.02635600  1
  Cu  Cu108  1  0.82043000  0.17957000  0.50000000  1
  Cu  Cu109  1  0.17957000  0.82043000  0.50000000  1
  Cu  Cu110  1  0.61175700  0.61175700  0.46870300  1
  Cu  Cu111  1  0.38824300  0.38824300  0.53129700  1
  C  C112  1  0.10537300  0.25208200  0.09577700  1
  C  C113  1  0.25208200  0.10537300  0.09577700  1
  C  C114  1  0.89462700  0.74791800  0.90422300  1
  C  C115  1  0.74791800  0.89462700  0.90422300  1
  C  C116  1  0.26563200  0.26563200  0.02627600  1
  C  C117  1  0.73436800  0.73436800  0.97372400  1
