# generated using pymatgen
data_Cu3NiC7
_symmetry_space_group_name_H-M   'P 1'
_cell_length_a   6.91430278
_cell_length_b   6.91430278
_cell_length_c   6.91430316
_cell_angle_alpha   91.24678399
_cell_angle_beta   91.24678399
_cell_angle_gamma   91.24678179
_symmetry_Int_Tables_number   1
_chemical_formula_structural   Cu3NiC7
_chemical_formula_sum   'Cu6 Ni2 C14'
_cell_volume   330.31788128
_cell_formula_units_Z   2
loop_
 _symmetry_equiv_pos_site_id
 _symmetry_equiv_pos_as_xyz
  1  'x, y, z'
loop_
 _atom_site_type_symbol
 _atom_site_label
 _atom_site_symmetry_multiplicity
 _atom_site_fract_x
 _atom_site_fract_y
 _atom_site_fract_z
 _atom_site_occupancy
  Ni  Ni0  1  0.25000000  0.25000000  0.25000000  1
  Ni  Ni1  1  0.75000000  0.75000000  0.75000000  1
  Cu  Cu2  1  0.90064000  0.59936000  0.25000000  1
  Cu  Cu3  1  0.25000000  0.90064000  0.59936000  1
  Cu  Cu4  1  0.59936000  0.25000000  0.90064000  1
  Cu  Cu5  1  0.09936000  0.40064000  0.75000000  1
  Cu  Cu6  1  0.75000000  0.09936000  0.40064000  1
  Cu  Cu7  1  0.40064000  0.75000000  0.09936000  1
  C  C8  1  0.50000000  0.50000000  0.50000000  1
  C  C9  1  0.00000000  0.00000000  0.00000000  1
  C  C10  1  0.42802700  0.22123200  0.55349700  1
  C  C11  1  0.55349700  0.42802700  0.22123200  1
  C  C12  1  0.22123200  0.55349700  0.42802700  1
  C  C13  1  0.07197300  0.94650300  0.27876800  1
  C  C14  1  0.27876800  0.07197300  0.94650300  1
  C  C15  1  0.94650300  0.27876800  0.07197300  1
  C  C16  1  0.57197300  0.77876800  0.44650300  1
  C  C17  1  0.44650300  0.57197300  0.77876800  1
  C  C18  1  0.77876800  0.44650300  0.57197300  1
  C  C19  1  0.92802700  0.05349700  0.72123200  1
  C  C20  1  0.05349700  0.72123200  0.92802700  1
  C  C21  1  0.72123200  0.92802700  0.05349700  1
