# generated using pymatgen
data_Cu2NiC4
_symmetry_space_group_name_H-M   'P 1'
_cell_length_a   6.55270763
_cell_length_b   6.55270763
_cell_length_c   6.55270756
_cell_angle_alpha   60.87229549
_cell_angle_beta   60.87229549
_cell_angle_gamma   60.87228833
_symmetry_Int_Tables_number   1
_chemical_formula_structural   Cu2NiC4
_chemical_formula_sum   'Cu4 Ni2 C8'
_cell_volume   202.86399377
_cell_formula_units_Z   2
loop_
 _symmetry_equiv_pos_site_id
 _symmetry_equiv_pos_as_xyz
  1  'x, y, z'
loop_
 _atom_site_type_symbol
 _atom_site_label
 _atom_site_symmetry_multiplicity
 _atom_site_fract_x
 _atom_site_fract_y
 _atom_site_fract_z
 _atom_site_occupancy
  Ni  Ni0  1  0.99626000  0.99626000  0.99626000  1
  Ni  Ni1  1  0.37549300  0.37549300  0.37549300  1
  Cu  Cu2  1  0.75455200  0.75455200  0.75455200  1
  Cu  Cu3  1  0.87852900  0.37367800  0.37367800  1
  Cu  Cu4  1  0.37367800  0.37367800  0.87852900  1
  Cu  Cu5  1  0.37367800  0.87852900  0.37367800  1
  C  C6  1  0.60692900  0.18712300  0.60692900  1
  C  C7  1  0.60692900  0.60692900  0.18712300  1
  C  C8  1  0.18712300  0.60692900  0.60692900  1
  C  C9  1  0.60700600  0.60700600  0.60700600  1
  C  C10  1  0.13045300  0.13045300  0.13045300  1
  C  C11  1  0.59661700  0.13137400  0.13137400  1
  C  C12  1  0.13137400  0.13137400  0.59661700  1
  C  C13  1  0.13137400  0.59661700  0.13137400  1
