# generated using pymatgen
data_Cu15Ni3C
_symmetry_space_group_name_H-M   'P 1'
_cell_length_a   7.62399400
_cell_length_b   8.67771063
_cell_length_c   12.41129482
_cell_angle_alpha   109.77742546
_cell_angle_beta   92.30879905
_cell_angle_gamma   112.22197309
_symmetry_Int_Tables_number   1
_chemical_formula_structural   Cu15Ni3C
_chemical_formula_sum   'Cu30 Ni6 C2'
_cell_volume   701.82273878
_cell_formula_units_Z   2
loop_
 _symmetry_equiv_pos_site_id
 _symmetry_equiv_pos_as_xyz
  1  'x, y, z'
loop_
 _atom_site_type_symbol
 _atom_site_label
 _atom_site_symmetry_multiplicity
 _atom_site_fract_x
 _atom_site_fract_y
 _atom_site_fract_z
 _atom_site_occupancy
  C  C0  1  0.42926400  0.64667800  0.71735900  1
  C  C1  1  0.57073600  0.35332200  0.28264100  1
  Ni  Ni2  1  0.24246500  0.66605300  0.48974700  1
  Ni  Ni3  1  0.75753500  0.33394700  0.51025300  1
  Ni  Ni4  1  0.41874900  0.07694500  0.18587200  1
  Ni  Ni5  1  0.58125100  0.92305500  0.81412800  1
  Ni  Ni6  1  0.23016700  0.32144500  0.83112500  1
  Ni  Ni7  1  0.76983300  0.67855500  0.16887500  1
  Cu  Cu8  1  0.78423400  0.87636500  0.47698900  1
  Cu  Cu9  1  0.21576600  0.12363500  0.52301100  1
  Cu  Cu10  1  0.54921800  0.94312600  0.70155100  1
  Cu  Cu11  1  0.45078200  0.05687400  0.29844900  1
  Cu  Cu12  1  0.94109700  0.69675500  0.71550400  1
  Cu  Cu13  1  0.05890300  0.30324500  0.28449600  1
  Cu  Cu14  1  0.38109300  0.34881000  0.79069400  1
  Cu  Cu15  1  0.61890700  0.65119000  0.20930600  1
  Cu  Cu16  1  0.20092200  0.72426500  0.55966000  1
  Cu  Cu17  1  0.79907800  0.27573500  0.44034000  1
  Cu  Cu18  1  0.19584000  0.46503900  0.82120000  1
  Cu  Cu19  1  0.80416000  0.53496100  0.17880000  1
  Cu  Cu20  1  0.37824200  0.95879900  0.14471500  1
  Cu  Cu21  1  0.62175800  0.04120100  0.85528500  1
  Cu  Cu22  1  0.78207200  0.37345000  0.96363100  1
  Cu  Cu23  1  0.21792800  0.62655000  0.03636900  1
  Cu  Cu24  1  0.56058500  0.76223800  0.87687000  1
  Cu  Cu25  1  0.43941500  0.23776200  0.12313000  1
  Cu  Cu26  1  0.39575400  0.61592600  0.53184100  1
  Cu  Cu27  1  0.60424600  0.38407400  0.46815900  1
  Cu  Cu28  1  0.14308700  0.65845700  0.39445900  1
  Cu  Cu29  1  0.85691300  0.34154300  0.60554100  1
  Cu  Cu30  1  0.19164000  0.14130100  0.61046900  1
  Cu  Cu31  1  0.80836000  0.85869900  0.38953100  1
  Cu  Cu32  1  0.12874400  0.17926000  0.87314600  1
  Cu  Cu33  1  0.87125600  0.82074000  0.12685400  1
  Cu  Cu34  1  0.80207800  0.68122400  0.75281500  1
  Cu  Cu35  1  0.19792200  0.31877600  0.24718500  1
  Cu  Cu36  1  0.13748900  0.74002900  0.98936700  1
  Cu  Cu37  1  0.86251100  0.25997100  0.01063300  1
