# generated using pymatgen
data_CuNiC2
_symmetry_space_group_name_H-M   'P 1'
_cell_length_a   5.78347800
_cell_length_b   6.87487300
_cell_length_c   4.11526100
_cell_angle_alpha   90.00000000
_cell_angle_beta   90.00000000
_cell_angle_gamma   90.00000000
_symmetry_Int_Tables_number   1
_chemical_formula_structural   CuNiC2
_chemical_formula_sum   'Cu4 Ni4 C8'
_cell_volume   163.62556236
_cell_formula_units_Z   4
loop_
 _symmetry_equiv_pos_site_id
 _symmetry_equiv_pos_as_xyz
  1  'x, y, z'
loop_
 _atom_site_type_symbol
 _atom_site_label
 _atom_site_symmetry_multiplicity
 _atom_site_fract_x
 _atom_site_fract_y
 _atom_site_fract_z
 _atom_site_occupancy
  Ni  Ni0  1  0.61465000  0.37798500  0.93524800  1
  Ni  Ni1  1  0.38535000  0.62201500  0.43524800  1
  Ni  Ni2  1  0.88535000  0.87798500  0.43524800  1
  Ni  Ni3  1  0.11465000  0.12201500  0.93524800  1
  Cu  Cu4  1  0.56356500  0.84406100  0.93525200  1
  Cu  Cu5  1  0.43643500  0.15593900  0.43525200  1
  Cu  Cu6  1  0.93643500  0.34406100  0.43525200  1
  Cu  Cu7  1  0.06356500  0.65593900  0.93525200  1
  C  C8  1  0.60671700  0.39406500  0.43524900  1
  C  C9  1  0.39328300  0.60593500  0.93524900  1
  C  C10  1  0.89328300  0.89406500  0.93524900  1
  C  C11  1  0.10671700  0.10593500  0.43524900  1
  C  C12  1  0.53999400  0.88164500  0.43525100  1
  C  C13  1  0.46000600  0.11835500  0.93525100  1
  C  C14  1  0.96000600  0.38164500  0.93525100  1
  C  C15  1  0.03999400  0.61835500  0.43525100  1
