# generated using pymatgen
data_CuNi3C2
_symmetry_space_group_name_H-M   'P 1'
_cell_length_a   10.11329587
_cell_length_b   10.11329587
_cell_length_c   8.82718500
_cell_angle_alpha   90.00000000
_cell_angle_beta   90.00000000
_cell_angle_gamma   153.19905786
_symmetry_Int_Tables_number   1
_chemical_formula_structural   CuNi3C2
_chemical_formula_sum   'Cu2 Ni6 C4'
_cell_volume   407.08058884
_cell_formula_units_Z   2
loop_
 _symmetry_equiv_pos_site_id
 _symmetry_equiv_pos_as_xyz
  1  'x, y, z'
loop_
 _atom_site_type_symbol
 _atom_site_label
 _atom_site_symmetry_multiplicity
 _atom_site_fract_x
 _atom_site_fract_y
 _atom_site_fract_z
 _atom_site_occupancy
  C  C0  1  0.57235900  0.42764100  0.98072500  1
  C  C1  1  0.42764100  0.57235900  0.48072500  1
  C  C2  1  0.17681800  0.82318200  0.49790100  1
  C  C3  1  0.82318200  0.17681800  0.99790100  1
  Ni  Ni4  1  0.60827800  0.39172200  0.34461900  1
  Ni  Ni5  1  0.39172200  0.60827800  0.84461900  1
  Ni  Ni6  1  0.04012500  0.95987500  0.66293600  1
  Ni  Ni7  1  0.95987500  0.04012500  0.16293600  1
  Ni  Ni8  1  0.72438900  0.27561100  0.71406800  1
  Ni  Ni9  1  0.27561100  0.72438900  0.21406800  1
  Cu  Cu10  1  0.93930900  0.06069100  0.36295100  1
  Cu  Cu11  1  0.06069100  0.93930900  0.86295100  1
