# generated using pymatgen
data_CuNiC8
_symmetry_space_group_name_H-M   'P 1'
_cell_length_a   5.41456100
_cell_length_b   5.55247000
_cell_length_c   7.63019600
_cell_angle_alpha   90.00000000
_cell_angle_beta   90.00000000
_cell_angle_gamma   90.00000000
_symmetry_Int_Tables_number   1
_chemical_formula_structural   CuNiC8
_chemical_formula_sum   'Cu2 Ni2 C16'
_cell_volume   229.39564333
_cell_formula_units_Z   2
loop_
 _symmetry_equiv_pos_site_id
 _symmetry_equiv_pos_as_xyz
  1  'x, y, z'
loop_
 _atom_site_type_symbol
 _atom_site_label
 _atom_site_symmetry_multiplicity
 _atom_site_fract_x
 _atom_site_fract_y
 _atom_site_fract_z
 _atom_site_occupancy
  Ni  Ni0  1  0.50898100  0.29688700  0.50000000  1
  Ni  Ni1  1  0.00898100  0.70311300  0.00000000  1
  Cu  Cu2  1  0.98632100  0.80370900  0.50000000  1
  Cu  Cu3  1  0.48632100  0.19629100  0.00000000  1
  C  C4  1  0.99956100  0.25296900  0.74979700  1
  C  C5  1  0.49956100  0.74703100  0.24979700  1
  C  C6  1  0.99956100  0.25296900  0.25020300  1
  C  C7  1  0.49956100  0.74703100  0.75020300  1
  C  C8  1  0.08266300  0.22559200  0.50000000  1
  C  C9  1  0.41271100  0.72698200  0.50000000  1
  C  C10  1  0.91271100  0.27301800  0.00000000  1
  C  C11  1  0.58266300  0.77440800  0.00000000  1
  C  C12  1  0.21057800  0.96079200  0.79467400  1
  C  C13  1  0.29452200  0.45575100  0.20597100  1
  C  C14  1  0.79452200  0.54424900  0.29402900  1
  C  C15  1  0.71057800  0.03920800  0.70532600  1
  C  C16  1  0.79452200  0.54424900  0.70597100  1
  C  C17  1  0.71057800  0.03920800  0.29467400  1
  C  C18  1  0.21057800  0.96079200  0.20532600  1
  C  C19  1  0.29452200  0.45575100  0.79402900  1
