# generated using pymatgen
data_Cu15(Ni3C2)2
_symmetry_space_group_name_H-M   'P 1'
_cell_length_a   8.14979000
_cell_length_b   14.48859200
_cell_length_c   18.98250000
_cell_angle_alpha   90.00000000
_cell_angle_beta   90.00000000
_cell_angle_gamma   90.00000000
_symmetry_Int_Tables_number   1
_chemical_formula_structural   Cu15(Ni3C2)2
_chemical_formula_sum   'Cu120 Ni48 C32'
_cell_volume   2241.43427953
_cell_formula_units_Z   8
loop_
 _symmetry_equiv_pos_site_id
 _symmetry_equiv_pos_as_xyz
  1  'x, y, z'
loop_
 _atom_site_type_symbol
 _atom_site_label
 _atom_site_symmetry_multiplicity
 _atom_site_fract_x
 _atom_site_fract_y
 _atom_site_fract_z
 _atom_site_occupancy
  C  C0  1  0.49873300  0.32958300  0.40127000  1
  C  C1  1  0.99873300  0.17041700  0.59873000  1
  C  C2  1  0.50126700  0.82958300  0.09873000  1
  C  C3  1  0.00126700  0.67041700  0.90127000  1
  C  C4  1  0.50126700  0.67041700  0.59873000  1
  C  C5  1  0.00126700  0.82958300  0.40127000  1
  C  C6  1  0.49873300  0.17041700  0.90127000  1
  C  C7  1  0.99873300  0.32958300  0.09873000  1
  Ni  Ni8  1  0.54316900  0.06077200  0.42578100  1
  Ni  Ni9  1  0.04316900  0.43922800  0.57421900  1
  Ni  Ni10  1  0.45683100  0.56077200  0.07421900  1
  Ni  Ni11  1  0.95683100  0.93922800  0.92578100  1
  Ni  Ni12  1  0.45683100  0.93922800  0.57421900  1
  Ni  Ni13  1  0.95683100  0.56077200  0.42578100  1
  Ni  Ni14  1  0.54316900  0.43922800  0.92578100  1
  Ni  Ni15  1  0.04316900  0.06077200  0.07421900  1
  Ni  Ni16  1  0.38632700  0.09572600  0.48597800  1
  Ni  Ni17  1  0.88632700  0.40427400  0.51402200  1
  Ni  Ni18  1  0.61367300  0.59572600  0.01402200  1
  Ni  Ni19  1  0.11367300  0.90427400  0.98597800  1
  Ni  Ni20  1  0.61367300  0.90427400  0.51402200  1
  Ni  Ni21  1  0.11367300  0.59572600  0.48597800  1
  Ni  Ni22  1  0.38632700  0.40427400  0.98597800  1
  Ni  Ni23  1  0.88632700  0.09572600  0.01402200  1
  Ni  Ni24  1  0.35962000  0.99439500  0.43400300  1
  Ni  Ni25  1  0.85962000  0.50560500  0.56599700  1
  Ni  Ni26  1  0.64038000  0.49439500  0.06599700  1
  Ni  Ni27  1  0.14038000  0.00560500  0.93400300  1
  Ni  Ni28  1  0.64038000  0.00560500  0.56599700  1
  Ni  Ni29  1  0.14038000  0.49439500  0.43400300  1
  Ni  Ni30  1  0.35962000  0.50560500  0.93400300  1
  Ni  Ni31  1  0.85962000  0.99439500  0.06599700  1
  Ni  Ni32  1  0.55382200  0.93797500  0.42748400  1
  Ni  Ni33  1  0.05382200  0.56202500  0.57251600  1
  Ni  Ni34  1  0.44617800  0.43797500  0.07251600  1
  Ni  Ni35  1  0.94617800  0.06202500  0.92748400  1
  Ni  Ni36  1  0.44617800  0.06202500  0.57251600  1
  Ni  Ni37  1  0.94617800  0.43797500  0.42748400  1
  Ni  Ni38  1  0.55382200  0.56202500  0.92748400  1
  Ni  Ni39  1  0.05382200  0.93797500  0.07251600  1
  Ni  Ni40  1  0.69994500  0.00485300  0.47530900  1
  Ni  Ni41  1  0.19994500  0.49514700  0.52469100  1
  Ni  Ni42  1  0.30005500  0.50485300  0.02469100  1
  Ni  Ni43  1  0.80005500  0.99514700  0.97530900  1
  Ni  Ni44  1  0.30005500  0.99514700  0.52469100  1
  Ni  Ni45  1  0.80005500  0.50485300  0.47530900  1
  Ni  Ni46  1  0.69994500  0.49514700  0.97530900  1
  Ni  Ni47  1  0.19994500  0.00485300  0.02469100  1
  Ni  Ni48  1  0.59620000  0.10194400  0.51124900  1
  Ni  Ni49  1  0.09620000  0.39805600  0.48875100  1
  Ni  Ni50  1  0.40380000  0.60194400  0.98875100  1
  Ni  Ni51  1  0.90380000  0.89805600  0.01124900  1
  Ni  Ni52  1  0.40380000  0.89805600  0.48875100  1
  Ni  Ni53  1  0.90380000  0.60194400  0.51124900  1
  Ni  Ni54  1  0.59620000  0.39805600  0.01124900  1
  Ni  Ni55  1  0.09620000  0.10194400  0.98875100  1
  Cu  Cu56  1  0.37964400  0.35214800  0.60202100  1
  Cu  Cu57  1  0.87964400  0.14785200  0.39797900  1
  Cu  Cu58  1  0.62035600  0.85214800  0.89797900  1
  Cu  Cu59  1  0.12035600  0.64785200  0.10202100  1
  Cu  Cu60  1  0.62035600  0.64785200  0.39797900  1
  Cu  Cu61  1  0.12035600  0.85214800  0.60202100  1
  Cu  Cu62  1  0.37964400  0.14785200  0.10202100  1
  Cu  Cu63  1  0.87964400  0.35214800  0.89797900  1
  Cu  Cu64  1  0.58022600  0.35517100  0.60610200  1
  Cu  Cu65  1  0.08022600  0.14482900  0.39389800  1
  Cu  Cu66  1  0.41977400  0.85517100  0.89389800  1
  Cu  Cu67  1  0.91977400  0.64482900  0.10610200  1
  Cu  Cu68  1  0.41977400  0.64482900  0.39389800  1
  Cu  Cu69  1  0.91977400  0.85517100  0.60610200  1
  Cu  Cu70  1  0.58022600  0.14482900  0.10610200  1
  Cu  Cu71  1  0.08022600  0.35517100  0.89389800  1
  Cu  Cu72  1  0.48537800  0.25566700  0.60627400  1
  Cu  Cu73  1  0.98537800  0.24433300  0.39372600  1
  Cu  Cu74  1  0.51462200  0.75566700  0.89372600  1
  Cu  Cu75  1  0.01462200  0.74433300  0.10627400  1
  Cu  Cu76  1  0.51462200  0.74433300  0.39372600  1
  Cu  Cu77  1  0.01462200  0.75566700  0.60627400  1
  Cu  Cu78  1  0.48537800  0.24433300  0.10627400  1
  Cu  Cu79  1  0.98537800  0.25566700  0.89372600  1
  Cu  Cu80  1  0.55282100  0.53979100  0.29700900  1
  Cu  Cu81  1  0.05282100  0.96020900  0.70299100  1
  Cu  Cu82  1  0.44717900  0.03979100  0.20299100  1
  Cu  Cu83  1  0.94717900  0.46020900  0.79700900  1
  Cu  Cu84  1  0.44717900  0.46020900  0.70299100  1
  Cu  Cu85  1  0.94717900  0.03979100  0.29700900  1
  Cu  Cu86  1  0.55282100  0.96020900  0.79700900  1
  Cu  Cu87  1  0.05282100  0.53979100  0.20299100  1
  Cu  Cu88  1  0.59244400  0.48203600  0.22504500  1
  Cu  Cu89  1  0.09244400  0.01796400  0.77495500  1
  Cu  Cu90  1  0.40755600  0.98203600  0.27495500  1
  Cu  Cu91  1  0.90755600  0.51796400  0.72504500  1
  Cu  Cu92  1  0.40755600  0.51796400  0.77495500  1
  Cu  Cu93  1  0.90755600  0.98203600  0.22504500  1
  Cu  Cu94  1  0.59244400  0.01796400  0.72504500  1
  Cu  Cu95  1  0.09244400  0.48203600  0.27495500  1
  Cu  Cu96  1  0.73006800  0.49015100  0.28769600  1
  Cu  Cu97  1  0.23006800  0.00984900  0.71230400  1
  Cu  Cu98  1  0.26993200  0.99015100  0.21230400  1
  Cu  Cu99  1  0.76993200  0.50984900  0.78769600  1
  Cu  Cu100  1  0.26993200  0.50984900  0.71230400  1
  Cu  Cu101  1  0.76993200  0.99015100  0.28769600  1
  Cu  Cu102  1  0.73006800  0.00984900  0.78769600  1
  Cu  Cu103  1  0.23006800  0.49015100  0.21230400  1
  Cu  Cu104  1  0.34453400  0.23217200  0.23035900  1
  Cu  Cu105  1  0.84453400  0.26782800  0.76964100  1
  Cu  Cu106  1  0.65546600  0.73217200  0.26964100  1
  Cu  Cu107  1  0.15546600  0.76782800  0.73035900  1
  Cu  Cu108  1  0.65546600  0.76782800  0.76964100  1
  Cu  Cu109  1  0.15546600  0.73217200  0.23035900  1
  Cu  Cu110  1  0.34453400  0.26782800  0.73035900  1
  Cu  Cu111  1  0.84453400  0.23217200  0.26964100  1
  Cu  Cu112  1  0.23323000  0.32378400  0.24988100  1
  Cu  Cu113  1  0.73323000  0.17621600  0.75011900  1
  Cu  Cu114  1  0.76677000  0.82378400  0.25011900  1
  Cu  Cu115  1  0.26677000  0.67621600  0.74988100  1
  Cu  Cu116  1  0.76677000  0.67621600  0.75011900  1
  Cu  Cu117  1  0.26677000  0.82378400  0.24988100  1
  Cu  Cu118  1  0.23323000  0.17621600  0.74988100  1
  Cu  Cu119  1  0.73323000  0.32378400  0.25011900  1
  Cu  Cu120  1  0.18494400  0.22371900  0.28400600  1
  Cu  Cu121  1  0.68494400  0.27628100  0.71599400  1
  Cu  Cu122  1  0.81505600  0.72371900  0.21599400  1
  Cu  Cu123  1  0.31505600  0.77628100  0.78400600  1
  Cu  Cu124  1  0.81505600  0.77628100  0.71599400  1
  Cu  Cu125  1  0.31505600  0.72371900  0.28400600  1
  Cu  Cu126  1  0.18494400  0.27628100  0.78400600  1
  Cu  Cu127  1  0.68494400  0.22371900  0.21599400  1
  Cu  Cu128  1  0.57314700  0.10549600  0.37378500  1
  Cu  Cu129  1  0.07314700  0.39450400  0.62621500  1
  Cu  Cu130  1  0.42685300  0.60549600  0.12621500  1
  Cu  Cu131  1  0.92685300  0.89450400  0.87378500  1
  Cu  Cu132  1  0.42685300  0.89450400  0.62621500  1
  Cu  Cu133  1  0.92685300  0.60549600  0.37378500  1
  Cu  Cu134  1  0.57314700  0.39450400  0.87378500  1
  Cu  Cu135  1  0.07314700  0.10549600  0.12621500  1
  Cu  Cu136  1  0.30743800  0.16501500  0.47565600  1
  Cu  Cu137  1  0.80743800  0.33498500  0.52434400  1
  Cu  Cu138  1  0.69256200  0.66501500  0.02434400  1
  Cu  Cu139  1  0.19256200  0.83498500  0.97565600  1
  Cu  Cu140  1  0.69256200  0.83498500  0.52434400  1
  Cu  Cu141  1  0.19256200  0.66501500  0.47565600  1
  Cu  Cu142  1  0.30743800  0.33498500  0.97565600  1
  Cu  Cu143  1  0.80743800  0.16501500  0.02434400  1
  Cu  Cu144  1  0.25794100  0.99238800  0.38776800  1
  Cu  Cu145  1  0.75794100  0.50761200  0.61223200  1
  Cu  Cu146  1  0.74205900  0.49238800  0.11223200  1
  Cu  Cu147  1  0.24205900  0.00761200  0.88776800  1
  Cu  Cu148  1  0.74205900  0.00761200  0.61223200  1
  Cu  Cu149  1  0.24205900  0.49238800  0.38776800  1
  Cu  Cu150  1  0.25794100  0.50761200  0.88776800  1
  Cu  Cu151  1  0.75794100  0.99238800  0.11223200  1
  Cu  Cu152  1  0.58973500  0.89217200  0.37669400  1
  Cu  Cu153  1  0.08973500  0.60782800  0.62330600  1
  Cu  Cu154  1  0.41026500  0.39217200  0.12330600  1
  Cu  Cu155  1  0.91026500  0.10782800  0.87669400  1
  Cu  Cu156  1  0.41026500  0.10782800  0.62330600  1
  Cu  Cu157  1  0.91026500  0.39217200  0.37669400  1
  Cu  Cu158  1  0.58973500  0.60782800  0.87669400  1
  Cu  Cu159  1  0.08973500  0.89217200  0.12330600  1
  Cu  Cu160  1  0.84281800  0.00895300  0.45920700  1
  Cu  Cu161  1  0.34281800  0.49104700  0.54079300  1
  Cu  Cu162  1  0.15718200  0.50895300  0.04079300  1
  Cu  Cu163  1  0.65718200  0.99104700  0.95920700  1
  Cu  Cu164  1  0.15718200  0.99104700  0.54079300  1
  Cu  Cu165  1  0.65718200  0.50895300  0.45920700  1
  Cu  Cu166  1  0.84281800  0.49104700  0.95920700  1
  Cu  Cu167  1  0.34281800  0.00895300  0.04079300  1
  Cu  Cu168  1  0.65990300  0.17641800  0.51861100  1
  Cu  Cu169  1  0.15990300  0.32358200  0.48138900  1
  Cu  Cu170  1  0.34009700  0.67641800  0.98138900  1
  Cu  Cu171  1  0.84009700  0.82358200  0.01861100  1
  Cu  Cu172  1  0.34009700  0.82358200  0.48138900  1
  Cu  Cu173  1  0.84009700  0.67641800  0.51861100  1
  Cu  Cu174  1  0.65990300  0.32358200  0.01861100  1
  Cu  Cu175  1  0.15990300  0.17641800  0.98138900  1
  C  C176  1  0.47918600  0.32198300  0.62523600  1
  C  C177  1  0.97918600  0.17801700  0.37476400  1
  C  C178  1  0.52081400  0.82198300  0.87476400  1
  C  C179  1  0.02081400  0.67801700  0.12523600  1
  C  C180  1  0.52081400  0.67801700  0.37476400  1
  C  C181  1  0.02081400  0.82198300  0.62523600  1
  C  C182  1  0.47918600  0.17801700  0.12523600  1
  C  C183  1  0.97918600  0.32198300  0.87476400  1
  C  C184  1  0.60728700  0.48098600  0.27854800  1
  C  C185  1  0.10728700  0.01901400  0.72145200  1
  C  C186  1  0.39271300  0.98098600  0.22145200  1
  C  C187  1  0.89271300  0.51901400  0.77854800  1
  C  C188  1  0.39271300  0.51901400  0.72145200  1
  C  C189  1  0.89271300  0.98098600  0.27854800  1
  C  C190  1  0.60728700  0.01901400  0.77854800  1
  C  C191  1  0.10728700  0.48098600  0.22145200  1
  C  C192  1  0.28221400  0.26466500  0.27020800  1
  C  C193  1  0.78221400  0.23533500  0.72979200  1
  C  C194  1  0.71778600  0.76466500  0.22979200  1
  C  C195  1  0.21778600  0.73533500  0.77020800  1
  C  C196  1  0.71778600  0.73533500  0.72979200  1
  C  C197  1  0.21778600  0.76466500  0.27020800  1
  C  C198  1  0.28221400  0.23533500  0.77020800  1
  C  C199  1  0.78221400  0.26466500  0.22979200  1
