# generated using pymatgen
data_Cu2NiC14
_symmetry_space_group_name_H-M   'P 1'
_cell_length_a   7.09440693
_cell_length_b   7.09440693
_cell_length_c   11.62932436
_cell_angle_alpha   79.27045623
_cell_angle_beta   79.27045623
_cell_angle_gamma   111.80991218
_symmetry_Int_Tables_number   1
_chemical_formula_structural   Cu2NiC14
_chemical_formula_sum   'Cu4 Ni2 C28'
_cell_volume   512.57034350
_cell_formula_units_Z   2
loop_
 _symmetry_equiv_pos_site_id
 _symmetry_equiv_pos_as_xyz
  1  'x, y, z'
loop_
 _atom_site_type_symbol
 _atom_site_label
 _atom_site_symmetry_multiplicity
 _atom_site_fract_x
 _atom_site_fract_y
 _atom_site_fract_z
 _atom_site_occupancy
  C  C0  1  0.19311900  0.44435900  0.09487600  1
  C  C1  1  0.55564100  0.80688100  0.40512400  1
  C  C2  1  0.80688100  0.55564100  0.90512400  1
  C  C3  1  0.44435900  0.19311900  0.59487600  1
  Ni  Ni4  1  0.62023100  0.37976900  0.25000000  1
  Ni  Ni5  1  0.37976900  0.62023100  0.75000000  1
  Cu  Cu6  1  0.00662600  0.29867900  0.45389900  1
  Cu  Cu7  1  0.70132100  0.99337400  0.04610100  1
  Cu  Cu8  1  0.99337400  0.70132100  0.54610100  1
  Cu  Cu9  1  0.29867900  0.00662600  0.95389900  1
  C  C10  1  0.51487200  0.09956800  0.27874600  1
  C  C11  1  0.90043200  0.48512800  0.22125400  1
  C  C12  1  0.48512800  0.90043200  0.72125400  1
  C  C13  1  0.09956800  0.51487200  0.77874600  1
  C  C14  1  0.89576300  0.82749100  0.43933900  1
  C  C15  1  0.17250900  0.10423700  0.06066100  1
  C  C16  1  0.10423700  0.17250900  0.56066100  1
  C  C17  1  0.82749100  0.89576300  0.93933900  1
  C  C18  1  0.72495500  0.12688200  0.46182800  1
  C  C19  1  0.87311800  0.27504500  0.03817200  1
  C  C20  1  0.27504500  0.87311800  0.53817200  1
  C  C21  1  0.12688200  0.72495500  0.96182800  1
  C  C22  1  0.40090000  0.82651400  0.07455300  1
  C  C23  1  0.17348600  0.59910000  0.42544700  1
  C  C24  1  0.59910000  0.17348600  0.92544700  1
  C  C25  1  0.82651400  0.40090000  0.57455300  1
  C  C26  1  0.55511200  0.47617800  0.11271300  1
  C  C27  1  0.52382200  0.44488800  0.38728700  1
  C  C28  1  0.44488800  0.52382200  0.88728700  1
  C  C29  1  0.47617800  0.55511200  0.61271300  1
  C  C30  1  0.14043900  0.29265100  0.30516800  1
  C  C31  1  0.70734900  0.85956100  0.19483200  1
  C  C32  1  0.85956100  0.70734900  0.69483200  1
  C  C33  1  0.29265100  0.14043900  0.80516800  1
