# generated using pymatgen
data_Cu10Ni4C11
_symmetry_space_group_name_H-M   'P 1'
_cell_length_a   11.31335941
_cell_length_b   11.31335941
_cell_length_c   5.62265100
_cell_angle_alpha   89.97057841
_cell_angle_beta   89.97057841
_cell_angle_gamma   151.21811266
_symmetry_Int_Tables_number   1
_chemical_formula_structural   Cu10Ni4C11
_chemical_formula_sum   'Cu10 Ni4 C11'
_cell_volume   346.49628210
_cell_formula_units_Z   1
loop_
 _symmetry_equiv_pos_site_id
 _symmetry_equiv_pos_as_xyz
  1  'x, y, z'
loop_
 _atom_site_type_symbol
 _atom_site_label
 _atom_site_symmetry_multiplicity
 _atom_site_fract_x
 _atom_site_fract_y
 _atom_site_fract_z
 _atom_site_occupancy
  C  C0  1  0.50000000  0.50000000  0.50000000  1
  C  C1  1  0.00000000  0.00000000  0.50000000  1
  C  C2  1  0.50000000  0.50000000  0.00000000  1
  C  C3  1  0.91213700  0.58563000  0.74880200  1
  C  C4  1  0.41437000  0.08786300  0.25119800  1
  C  C5  1  0.08786300  0.41437000  0.25119800  1
  C  C6  1  0.58563000  0.91213700  0.74880200  1
  C  C7  1  0.15731800  0.33547700  0.75371900  1
  C  C8  1  0.66452300  0.84268200  0.24628100  1
  C  C9  1  0.84268100  0.66452300  0.24628100  1
  C  C10  1  0.33547700  0.15731900  0.75371900  1
  Ni  Ni11  1  0.04664600  0.45706100  0.74860200  1
  Ni  Ni12  1  0.54293900  0.95335400  0.25139800  1
  Ni  Ni13  1  0.95335400  0.54293900  0.25139800  1
  Ni  Ni14  1  0.45706100  0.04664600  0.74860200  1
  Cu  Cu15  1  0.90521100  0.09478900  0.50000000  1
  Cu  Cu16  1  0.40526100  0.59473900  0.00000000  1
  Cu  Cu17  1  0.40437000  0.59563000  0.50000000  1
  Cu  Cu18  1  0.89964600  0.10035400  0.00000000  1
  Cu  Cu19  1  0.09478900  0.90521100  0.50000000  1
  Cu  Cu20  1  0.59473900  0.40526100  0.00000000  1
  Cu  Cu21  1  0.59563000  0.40437000  0.50000000  1
  Cu  Cu22  1  0.10035400  0.89964600  0.00000000  1
  Cu  Cu23  1  0.74133100  0.74133100  0.25862400  1
  Cu  Cu24  1  0.25866900  0.25866900  0.74137600  1
