# generated using pymatgen
data_Cu2NiC9
_symmetry_space_group_name_H-M   'P 1'
_cell_length_a   8.09770100
_cell_length_b   8.09770100
_cell_length_c   5.24027700
_cell_angle_alpha   90.00000000
_cell_angle_beta   90.00000000
_cell_angle_gamma   90.00000000
_symmetry_Int_Tables_number   1
_chemical_formula_structural   Cu2NiC9
_chemical_formula_sum   'Cu4 Ni2 C18'
_cell_volume   343.61943384
_cell_formula_units_Z   2
loop_
 _symmetry_equiv_pos_site_id
 _symmetry_equiv_pos_as_xyz
  1  'x, y, z'
loop_
 _atom_site_type_symbol
 _atom_site_label
 _atom_site_symmetry_multiplicity
 _atom_site_fract_x
 _atom_site_fract_y
 _atom_site_fract_z
 _atom_site_occupancy
  C  C0  1  0.33378000  0.83378000  0.50701900  1
  C  C1  1  0.16622000  0.33378000  0.49298100  1
  C  C2  1  0.66622000  0.16622000  0.50701900  1
  C  C3  1  0.83378000  0.66622000  0.49298100  1
  Ni  Ni4  1  0.50000000  0.50000000  0.00000000  1
  Ni  Ni5  1  0.00000000  0.00000000  0.00000000  1
  Cu  Cu6  1  0.13852800  0.63852800  0.94939900  1
  Cu  Cu7  1  0.36147200  0.13852800  0.05060100  1
  Cu  Cu8  1  0.86147200  0.36147200  0.94939900  1
  Cu  Cu9  1  0.63852800  0.86147200  0.05060100  1
  C  C10  1  0.50000000  0.00000000  0.15839800  1
  C  C11  1  0.00000000  0.50000000  0.84160200  1
  C  C12  1  0.14028700  0.64028700  0.25817700  1
  C  C13  1  0.35971300  0.14028700  0.74182300  1
  C  C14  1  0.85971300  0.35971300  0.25817700  1
  C  C15  1  0.64028700  0.85971300  0.74182300  1
  C  C16  1  0.30887400  0.57982700  0.80209700  1
  C  C17  1  0.19112600  0.07982700  0.19790300  1
  C  C18  1  0.69112600  0.42017300  0.80209700  1
  C  C19  1  0.80887400  0.92017300  0.19790300  1
  C  C20  1  0.57982700  0.69112600  0.19790300  1
  C  C21  1  0.92017300  0.19112600  0.80209700  1
  C  C22  1  0.42017300  0.30887400  0.19790300  1
  C  C23  1  0.07982700  0.80887400  0.80209700  1
