# generated using pymatgen
data_Cu4Ni3C13
_symmetry_space_group_name_H-M   'P 1'
_cell_length_a   6.67687747
_cell_length_b   6.67218359
_cell_length_c   6.67621218
_cell_angle_alpha   109.47713902
_cell_angle_beta   109.41136408
_cell_angle_gamma   109.48576272
_symmetry_Int_Tables_number   1
_chemical_formula_structural   Cu4Ni3C13
_chemical_formula_sum   'Cu4 Ni3 C13'
_cell_volume   229.06590089
_cell_formula_units_Z   1
loop_
 _symmetry_equiv_pos_site_id
 _symmetry_equiv_pos_as_xyz
  1  'x, y, z'
loop_
 _atom_site_type_symbol
 _atom_site_label
 _atom_site_symmetry_multiplicity
 _atom_site_fract_x
 _atom_site_fract_y
 _atom_site_fract_z
 _atom_site_occupancy
  C  C0  1  0.00000400  0.00000100  0.99999600  1
  Ni  Ni1  1  0.49999900  0.00000000  0.50000100  1
  Ni  Ni2  1  0.50000000  0.50000000  0.99999900  1
  Ni  Ni3  1  0.00000000  0.50000100  0.50000100  1
  Cu  Cu4  1  0.50000100  0.00000000  0.00000100  1
  Cu  Cu5  1  0.99999900  0.00000000  0.49999900  1
  Cu  Cu6  1  0.00000000  0.50000000  0.00000100  1
  Cu  Cu7  1  0.49999900  0.49999900  0.49999900  1
  C  C8  1  0.83481900  0.29793300  0.13339900  1
  C  C9  1  0.16518100  0.70207000  0.86660300  1
  C  C10  1  0.83769300  0.70491900  0.53088100  1
  C  C11  1  0.29454700  0.46784300  0.16310200  1
  C  C12  1  0.47093500  0.16368700  0.29558800  1
  C  C13  1  0.13416500  0.83561000  0.29722800  1
  C  C14  1  0.70317100  0.86695700  0.16536900  1
  C  C15  1  0.52906300  0.83631100  0.70441100  1
  C  C16  1  0.16230700  0.29508400  0.46912300  1
  C  C17  1  0.70545300  0.53215400  0.83689500  1
  C  C18  1  0.86583400  0.16438900  0.70277300  1
  C  C19  1  0.29682800  0.13304200  0.83463000  1
