# generated using pymatgen
data_CuNiC4
_symmetry_space_group_name_H-M   'P 1'
_cell_length_a   12.79785100
_cell_length_b   9.28583600
_cell_length_c   9.68397927
_cell_angle_alpha   73.07185644
_cell_angle_beta   90.00000000
_cell_angle_gamma   90.00000000
_symmetry_Int_Tables_number   1
_chemical_formula_structural   CuNiC4
_chemical_formula_sum   'Cu16 Ni16 C64'
_cell_volume   1100.96717855
_cell_formula_units_Z   16
loop_
 _symmetry_equiv_pos_site_id
 _symmetry_equiv_pos_as_xyz
  1  'x, y, z'
loop_
 _atom_site_type_symbol
 _atom_site_label
 _atom_site_symmetry_multiplicity
 _atom_site_fract_x
 _atom_site_fract_y
 _atom_site_fract_z
 _atom_site_occupancy
  C  C0  1  0.24531500  0.75012500  0.24841300  1
  C  C1  1  0.74531500  0.24987500  0.25158700  1
  C  C2  1  0.75468500  0.24987500  0.75158700  1
  C  C3  1  0.25468500  0.75012500  0.74841300  1
  C  C4  1  0.41163900  0.74802100  0.00336300  1
  C  C5  1  0.91163900  0.25197900  0.49663700  1
  C  C6  1  0.58836100  0.25197900  0.99663700  1
  C  C7  1  0.08836100  0.74802100  0.50336300  1
  Ni  Ni8  1  0.29240300  0.52037700  0.56150500  1
  Ni  Ni9  1  0.79240300  0.47962300  0.93849500  1
  Ni  Ni10  1  0.70759700  0.47962300  0.43849500  1
  Ni  Ni11  1  0.20759700  0.52037700  0.06150500  1
  Ni  Ni12  1  0.03904000  0.53957600  0.28078700  1
  Ni  Ni13  1  0.53904000  0.46042400  0.21921300  1
  Ni  Ni14  1  0.96096000  0.46042400  0.71921300  1
  Ni  Ni15  1  0.46096000  0.53957600  0.78078700  1
  Ni  Ni16  1  0.21902300  0.98734600  0.93254100  1
  Ni  Ni17  1  0.71902300  0.01265400  0.56745900  1
  Ni  Ni18  1  0.78097700  0.01265400  0.06745900  1
  Ni  Ni19  1  0.28097700  0.98734600  0.43254100  1
  Ni  Ni20  1  0.44575500  0.97666500  0.21143300  1
  Ni  Ni21  1  0.94575500  0.02333500  0.28856700  1
  Ni  Ni22  1  0.55424500  0.02333500  0.78856700  1
  Ni  Ni23  1  0.05424500  0.97666500  0.71143300  1
  Cu  Cu24  1  0.89328700  0.54734200  0.16452100  1
  Cu  Cu25  1  0.39328700  0.45265800  0.33547900  1
  Cu  Cu26  1  0.10671300  0.45265800  0.83547900  1
  Cu  Cu27  1  0.60671300  0.54734200  0.66452100  1
  Cu  Cu28  1  0.58907800  0.97536900  0.34231900  1
  Cu  Cu29  1  0.08907800  0.02463100  0.15768100  1
  Cu  Cu30  1  0.41092200  0.02463100  0.65768100  1
  Cu  Cu31  1  0.91092200  0.97536900  0.84231900  1
  Cu  Cu32  1  0.24442100  0.29951600  0.69794600  1
  Cu  Cu33  1  0.74442100  0.70048400  0.80205400  1
  Cu  Cu34  1  0.75557900  0.70048400  0.30205400  1
  Cu  Cu35  1  0.25557900  0.29951600  0.19794600  1
  Cu  Cu36  1  0.33681100  0.15025100  0.96781100  1
  Cu  Cu37  1  0.83681100  0.84974900  0.53218900  1
  Cu  Cu38  1  0.66318900  0.84974900  0.03218900  1
  Cu  Cu39  1  0.16318900  0.15025100  0.46781100  1
  C  C40  1  0.38762300  0.84954600  0.17330000  1
  C  C41  1  0.88762300  0.15045400  0.32670000  1
  C  C42  1  0.61237700  0.15045400  0.82670000  1
  C  C43  1  0.11237700  0.84954600  0.67330000  1
  C  C44  1  0.10230500  0.65763500  0.32713100  1
  C  C45  1  0.60230500  0.34236500  0.17286900  1
  C  C46  1  0.89769500  0.34236500  0.67286900  1
  C  C47  1  0.39769500  0.65763500  0.82713100  1
  C  C48  1  0.32029700  0.57432100  0.40312800  1
  C  C49  1  0.82029700  0.42567900  0.09687200  1
  C  C50  1  0.67970300  0.42567900  0.59687200  1
  C  C51  1  0.17970300  0.57432100  0.90312800  1
  C  C52  1  0.17242700  0.92372600  0.08223500  1
  C  C53  1  0.67242700  0.07627400  0.41776500  1
  C  C54  1  0.82757300  0.07627400  0.91776500  1
  C  C55  1  0.32757300  0.92372600  0.58223500  1
  C  C56  1  0.28141900  0.62281900  0.11361500  1
  C  C57  1  0.78141900  0.37718100  0.38638500  1
  C  C58  1  0.71858100  0.37718100  0.88638500  1
  C  C59  1  0.21858100  0.62281900  0.61361500  1
  C  C60  1  0.37104000  0.04029000  0.31579700  1
  C  C61  1  0.87104000  0.95971000  0.18420300  1
  C  C62  1  0.62896000  0.95971000  0.68420300  1
  C  C63  1  0.12896000  0.04029000  0.81579700  1
  C  C64  1  0.93838400  0.61762400  0.20030300  1
  C  C65  1  0.43838400  0.38237600  0.29969700  1
  C  C66  1  0.06161600  0.38237600  0.79969700  1
  C  C67  1  0.56161600  0.61762400  0.70030300  1
  C  C68  1  0.54191000  0.90713000  0.30656900  1
  C  C69  1  0.04191000  0.09287000  0.19343100  1
  C  C70  1  0.45809000  0.09287000  0.69343100  1
  C  C71  1  0.95809000  0.90713000  0.80656900  1
  C  C72  1  0.20964200  0.87946200  0.38392400  1
  C  C73  1  0.70964200  0.12053800  0.11607600  1
  C  C74  1  0.79035800  0.12053800  0.61607600  1
  C  C75  1  0.29035800  0.87946200  0.88392400  1
  C  C76  1  0.53271400  0.88916200  0.91658000  1
  C  C77  1  0.03271400  0.11083800  0.58342000  1
  C  C78  1  0.46728600  0.11083800  0.08342000  1
  C  C79  1  0.96728600  0.88916200  0.41658000  1
  C  C80  1  0.39672400  0.49988100  0.65314300  1
  C  C81  1  0.89672400  0.50011900  0.84685700  1
  C  C82  1  0.60327600  0.50011900  0.34685700  1
  C  C83  1  0.10327600  0.49988100  0.15314300  1
  C  C84  1  0.52064900  0.60576900  0.10562200  1
  C  C85  1  0.02064900  0.39423100  0.39437800  1
  C  C86  1  0.47935100  0.39423100  0.89437800  1
  C  C87  1  0.97935100  0.60576900  0.60562200  1
  C  C88  1  0.24768300  0.35529500  0.59505000  1
  C  C89  1  0.74768300  0.64470500  0.90495000  1
  C  C90  1  0.75231700  0.64470500  0.40495000  1
  C  C91  1  0.25231700  0.35529500  0.09505000  1
  C  C92  1  0.27396600  0.14581800  0.90872600  1
  C  C93  1  0.77396600  0.85418200  0.59127400  1
  C  C94  1  0.72603400  0.85418200  0.09127400  1
  C  C95  1  0.22603400  0.14581800  0.40872600  1
