# generated using pymatgen
data_Cu8NiC7
_symmetry_space_group_name_H-M   'P 1'
_cell_length_a   7.23502600
_cell_length_b   11.69559208
_cell_length_c   14.14458128
_cell_angle_alpha   93.37512670
_cell_angle_beta   90.00000000
_cell_angle_gamma   90.00000000
_symmetry_Int_Tables_number   1
_chemical_formula_structural   Cu8NiC7
_chemical_formula_sum   'Cu32 Ni4 C28'
_cell_volume   1194.80892391
_cell_formula_units_Z   4
loop_
 _symmetry_equiv_pos_site_id
 _symmetry_equiv_pos_as_xyz
  1  'x, y, z'
loop_
 _atom_site_type_symbol
 _atom_site_label
 _atom_site_symmetry_multiplicity
 _atom_site_fract_x
 _atom_site_fract_y
 _atom_site_fract_z
 _atom_site_occupancy
  C  C0  1  0.57161900  0.82773000  0.86090400  1
  C  C1  1  0.42838100  0.17227000  0.13909600  1
  C  C2  1  0.07161900  0.17227000  0.63909600  1
  C  C3  1  0.92838100  0.82773000  0.36090400  1
  C  C4  1  0.84458300  0.54112000  0.64821700  1
  C  C5  1  0.15541700  0.45888000  0.35178300  1
  C  C6  1  0.34458300  0.45888000  0.85178300  1
  C  C7  1  0.65541700  0.54112000  0.14821700  1
  C  C8  1  0.86093600  0.25646000  0.96230900  1
  C  C9  1  0.13906400  0.74354000  0.03769100  1
  C  C10  1  0.36093600  0.74354000  0.53769100  1
  C  C11  1  0.63906400  0.25646000  0.46230900  1
  C  C12  1  0.91020600  0.97575900  0.97884700  1
  C  C13  1  0.08979400  0.02424100  0.02115300  1
  C  C14  1  0.41020600  0.02424100  0.52115300  1
  C  C15  1  0.58979400  0.97575900  0.47884700  1
  C  C16  1  0.96205000  0.84727300  0.64502700  1
  C  C17  1  0.03795000  0.15272700  0.35497300  1
  C  C18  1  0.46205000  0.15272700  0.85497300  1
  C  C19  1  0.53795000  0.84727300  0.14502700  1
  C  C20  1  0.84023300  0.94363000  0.70143500  1
  C  C21  1  0.15976700  0.05637000  0.29856500  1
  C  C22  1  0.34023300  0.05637000  0.79856500  1
  C  C23  1  0.65976700  0.94363000  0.20143500  1
  C  C24  1  0.82322500  0.55174900  0.90205900  1
  C  C25  1  0.17677500  0.44825100  0.09794100  1
  C  C26  1  0.32322500  0.44825100  0.59794100  1
  C  C27  1  0.67677500  0.55174900  0.40205900  1
  Ni  Ni28  1  0.55331100  0.22365500  0.89780100  1
  Ni  Ni29  1  0.44668900  0.77634500  0.10219900  1
  Ni  Ni30  1  0.05331100  0.77634500  0.60219900  1
  Ni  Ni31  1  0.94668900  0.22365500  0.39780100  1
  Cu  Cu32  1  0.45939500  0.75463800  0.65551400  1
  Cu  Cu33  1  0.54060500  0.24536200  0.34448600  1
  Cu  Cu34  1  0.95939500  0.24536200  0.84448600  1
  Cu  Cu35  1  0.04060500  0.75463800  0.15551400  1
  Cu  Cu36  1  0.29358200  0.95250300  0.54846300  1
  Cu  Cu37  1  0.70641800  0.04749700  0.45153700  1
  Cu  Cu38  1  0.79358200  0.04749700  0.95153700  1
  Cu  Cu39  1  0.20641800  0.95250300  0.04846300  1
  Cu  Cu40  1  0.97831200  0.52393800  0.83857500  1
  Cu  Cu41  1  0.02168800  0.47606200  0.16142500  1
  Cu  Cu42  1  0.47831200  0.47606200  0.66142500  1
  Cu  Cu43  1  0.52168800  0.52393800  0.33857500  1
  Cu  Cu44  1  0.74889200  0.44429300  0.94515600  1
  Cu  Cu45  1  0.25110800  0.55570700  0.05484400  1
  Cu  Cu46  1  0.24889200  0.55570700  0.55484400  1
  Cu  Cu47  1  0.75110800  0.44429300  0.44515600  1
  Cu  Cu48  1  0.89319100  0.86777100  0.97421000  1
  Cu  Cu49  1  0.10680900  0.13222900  0.02579000  1
  Cu  Cu50  1  0.39319100  0.13222900  0.52579000  1
  Cu  Cu51  1  0.60680900  0.86777100  0.47421000  1
  Cu  Cu52  1  0.23890300  0.73466600  0.91970600  1
  Cu  Cu53  1  0.76109700  0.26533400  0.08029400  1
  Cu  Cu54  1  0.73890300  0.26533400  0.58029400  1
  Cu  Cu55  1  0.26109700  0.73466600  0.41970600  1
  Cu  Cu56  1  0.66857400  0.60560200  0.85388200  1
  Cu  Cu57  1  0.33142600  0.39439800  0.14611800  1
  Cu  Cu58  1  0.16857400  0.39439800  0.64611800  1
  Cu  Cu59  1  0.83142600  0.60560200  0.35388200  1
  Cu  Cu60  1  0.88404200  0.62847700  0.98657600  1
  Cu  Cu61  1  0.11595800  0.37152300  0.01342400  1
  Cu  Cu62  1  0.38404200  0.37152300  0.51342400  1
  Cu  Cu63  1  0.61595800  0.62847700  0.48657600  1
