# generated using pymatgen
data_Cu4NiC2
_symmetry_space_group_name_H-M   'P 1'
_cell_length_a   7.02432900
_cell_length_b   7.02432900
_cell_length_c   3.61867500
_cell_angle_alpha   90.00000000
_cell_angle_beta   90.00000000
_cell_angle_gamma   90.00000000
_symmetry_Int_Tables_number   1
_chemical_formula_structural   Cu4NiC2
_chemical_formula_sum   'Cu8 Ni2 C4'
_cell_volume   178.54975931
_cell_formula_units_Z   2
loop_
 _symmetry_equiv_pos_site_id
 _symmetry_equiv_pos_as_xyz
  1  'x, y, z'
loop_
 _atom_site_type_symbol
 _atom_site_label
 _atom_site_symmetry_multiplicity
 _atom_site_fract_x
 _atom_site_fract_y
 _atom_site_fract_z
 _atom_site_occupancy
  Ni  Ni0  1  0.50000000  0.50000000  0.00000000  1
  Ni  Ni1  1  0.00000000  0.00000000  0.50000000  1
  Cu  Cu2  1  0.58280300  0.15464700  0.50000000  1
  Cu  Cu3  1  0.41719700  0.84535300  0.50000000  1
  Cu  Cu4  1  0.08280300  0.34535300  0.00000000  1
  Cu  Cu5  1  0.91719700  0.65464700  0.00000000  1
  Cu  Cu6  1  0.15464700  0.58280300  0.50000000  1
  Cu  Cu7  1  0.84535300  0.41719700  0.50000000  1
  Cu  Cu8  1  0.34535300  0.08280300  0.00000000  1
  Cu  Cu9  1  0.65464700  0.91719700  0.00000000  1
  C  C10  1  0.71792400  0.71792400  0.50000000  1
  C  C11  1  0.28207600  0.28207600  0.50000000  1
  C  C12  1  0.21792400  0.78207600  0.00000000  1
  C  C13  1  0.78207600  0.21792400  0.00000000  1
