# generated using pymatgen
data_Cu5NiC3
_symmetry_space_group_name_H-M   'P 1'
_cell_length_a   9.46515065
_cell_length_b   9.46515065
_cell_length_c   9.46515065
_cell_angle_alpha   126.18719355
_cell_angle_beta   126.18719355
_cell_angle_gamma   79.58069295
_symmetry_Int_Tables_number   1
_chemical_formula_structural   Cu5NiC3
_chemical_formula_sum   'Cu10 Ni2 C6'
_cell_volume   533.73809254
_cell_formula_units_Z   2
loop_
 _symmetry_equiv_pos_site_id
 _symmetry_equiv_pos_as_xyz
  1  'x, y, z'
loop_
 _atom_site_type_symbol
 _atom_site_label
 _atom_site_symmetry_multiplicity
 _atom_site_fract_x
 _atom_site_fract_y
 _atom_site_fract_z
 _atom_site_occupancy
  C  C0  1  0.25000000  0.25000000  0.00000000  1
  C  C1  1  0.75000000  0.75000000  0.00000000  1
  C  C2  1  0.83614000  0.66386000  0.50000000  1
  C  C3  1  0.16386000  0.33614000  0.50000000  1
  C  C4  1  0.33614000  0.83614000  0.17228000  1
  C  C5  1  0.66386000  0.16386000  0.82772000  1
  Ni  Ni6  1  0.25000000  0.75000000  0.50000000  1
  Ni  Ni7  1  0.75000000  0.25000000  0.50000000  1
  Cu  Cu8  1  0.50000000  0.50000000  0.00000000  1
  Cu  Cu9  1  0.00000000  0.00000000  0.00000000  1
  Cu  Cu10  1  0.50563500  0.70113900  0.50000000  1
  Cu  Cu11  1  0.20113900  0.00563500  0.50000000  1
  Cu  Cu12  1  0.00563500  0.50563500  0.80449600  1
  Cu  Cu13  1  0.70113900  0.20113900  0.19550400  1
  Cu  Cu14  1  0.49436500  0.29886100  0.50000000  1
  Cu  Cu15  1  0.79886100  0.99436500  0.50000000  1
  Cu  Cu16  1  0.99436500  0.49436500  0.19550400  1
  Cu  Cu17  1  0.29886100  0.79886100  0.80449600  1
