# generated using pymatgen
data_CuNi14C
_symmetry_space_group_name_H-M   'P 1'
_cell_length_a   6.48083808
_cell_length_b   6.48083754
_cell_length_c   10.86105586
_cell_angle_alpha   90.00000000
_cell_angle_beta   90.00000000
_cell_angle_gamma   120.00000276
_symmetry_Int_Tables_number   1
_chemical_formula_structural   CuNi14C
_chemical_formula_sum   'Cu1 Ni14 C1'
_cell_volume   395.06174041
_cell_formula_units_Z   1
loop_
 _symmetry_equiv_pos_site_id
 _symmetry_equiv_pos_as_xyz
  1  'x, y, z'
loop_
 _atom_site_type_symbol
 _atom_site_label
 _atom_site_symmetry_multiplicity
 _atom_site_fract_x
 _atom_site_fract_y
 _atom_site_fract_z
 _atom_site_occupancy
  C  C0  1  0.16666700  0.33333300  0.62500000  1
  Ni  Ni1  1  0.16363584  0.83181742  0.12500000  1
  Ni  Ni2  1  0.17321391  0.83660645  0.62500000  1
  Ni  Ni3  1  0.66818258  0.33636416  0.12500000  1
  Ni  Ni4  1  0.66339355  0.32678609  0.62500000  1
  Ni  Ni5  1  0.66818258  0.83181742  0.12500000  1
  Ni  Ni6  1  0.66339355  0.83660645  0.62500000  1
  Ni  Ni7  1  0.33676230  0.16323770  0.36707306  1
  Ni  Ni8  1  0.33676230  0.16323770  0.88292694  1
  Ni  Ni9  1  0.33676230  0.67352560  0.36707306  1
  Ni  Ni10  1  0.33676230  0.67352560  0.88292694  1
  Ni  Ni11  1  0.82647440  0.16323770  0.36707306  1
  Ni  Ni12  1  0.82647440  0.16323770  0.88292694  1
  Ni  Ni13  1  0.83333300  0.66666700  0.38150887  1
  Ni  Ni14  1  0.83333300  0.66666700  0.86849113  1
  Cu  Cu15  1  0.16666700  0.33333300  0.12500000  1
