# generated using pymatgen
data_CuNiC4
_symmetry_space_group_name_H-M   'P 1'
_cell_length_a   6.16014853
_cell_length_b   6.16014853
_cell_length_c   4.95856538
_cell_angle_alpha   68.92375170
_cell_angle_beta   68.92375170
_cell_angle_gamma   114.81022441
_symmetry_Int_Tables_number   1
_chemical_formula_structural   CuNiC4
_chemical_formula_sum   'Cu2 Ni2 C8'
_cell_volume   127.16890739
_cell_formula_units_Z   2
loop_
 _symmetry_equiv_pos_site_id
 _symmetry_equiv_pos_as_xyz
  1  'x, y, z'
loop_
 _atom_site_type_symbol
 _atom_site_label
 _atom_site_symmetry_multiplicity
 _atom_site_fract_x
 _atom_site_fract_y
 _atom_site_fract_z
 _atom_site_occupancy
  Ni  Ni0  1  0.13173900  0.86826100  0.25000000  1
  Ni  Ni1  1  0.86826100  0.13173900  0.75000000  1
  Cu  Cu2  1  0.59365000  0.40635000  0.25000000  1
  Cu  Cu3  1  0.40635000  0.59365000  0.75000000  1
  C  C4  1  0.26936000  0.20038400  0.76152200  1
  C  C5  1  0.20038400  0.26936000  0.26152200  1
  C  C6  1  0.47853600  0.89765000  0.83598400  1
  C  C7  1  0.89765000  0.47853600  0.33598400  1
  C  C8  1  0.10235000  0.52146400  0.66401600  1
  C  C9  1  0.52146400  0.10235000  0.16401600  1
  C  C10  1  0.79961600  0.73064000  0.73847800  1
  C  C11  1  0.73064000  0.79961600  0.23847800  1
