# generated using pymatgen
data_Cu18Ni3C
_symmetry_space_group_name_H-M   'P 1'
_cell_length_a   10.13842100
_cell_length_b   11.29630600
_cell_length_c   16.84532807
_cell_angle_alpha   81.27617854
_cell_angle_beta   90.00000000
_cell_angle_gamma   90.00000000
_symmetry_Int_Tables_number   1
_chemical_formula_structural   Cu18Ni3C
_chemical_formula_sum   'Cu72 Ni12 C4'
_cell_volume   1906.92038978
_cell_formula_units_Z   4
loop_
 _symmetry_equiv_pos_site_id
 _symmetry_equiv_pos_as_xyz
  1  'x, y, z'
loop_
 _atom_site_type_symbol
 _atom_site_label
 _atom_site_symmetry_multiplicity
 _atom_site_fract_x
 _atom_site_fract_y
 _atom_site_fract_z
 _atom_site_occupancy
  C  C0  1  0.43834800  0.77786300  0.75537600  1
  C  C1  1  0.93834800  0.72213700  0.24462400  1
  C  C2  1  0.56165200  0.22213700  0.24462400  1
  C  C3  1  0.06165200  0.27786300  0.75537600  1
  Ni  Ni4  1  0.15437800  0.82281300  0.93978100  1
  Ni  Ni5  1  0.65437800  0.67718700  0.06021900  1
  Ni  Ni6  1  0.84562200  0.17718700  0.06021900  1
  Ni  Ni7  1  0.34562200  0.32281300  0.93978100  1
  Ni  Ni8  1  0.17639800  0.58115600  0.57349500  1
  Ni  Ni9  1  0.67639800  0.91884400  0.42650500  1
  Ni  Ni10  1  0.82360200  0.41884400  0.42650500  1
  Ni  Ni11  1  0.32360200  0.08115600  0.57349500  1
  Ni  Ni12  1  0.81849600  0.95404700  0.54943500  1
  Ni  Ni13  1  0.31849600  0.54595300  0.45056500  1
  Ni  Ni14  1  0.18150400  0.04595300  0.45056500  1
  Ni  Ni15  1  0.68150400  0.45404700  0.54943500  1
  Cu  Cu16  1  0.21161700  0.88627800  0.98377800  1
  Cu  Cu17  1  0.71161700  0.61372200  0.01622200  1
  Cu  Cu18  1  0.78838300  0.11372200  0.01622200  1
  Cu  Cu19  1  0.28838300  0.38627800  0.98377800  1
  Cu  Cu20  1  0.19846100  0.72069900  0.93413800  1
  Cu  Cu21  1  0.69846100  0.77930100  0.06586200  1
  Cu  Cu22  1  0.80153900  0.27930100  0.06586200  1
  Cu  Cu23  1  0.30153900  0.22069900  0.93413800  1
  Cu  Cu24  1  0.05331500  0.86028700  0.90152100  1
  Cu  Cu25  1  0.55331500  0.63971300  0.09847900  1
  Cu  Cu26  1  0.94668500  0.13971300  0.09847900  1
  Cu  Cu27  1  0.44668500  0.36028700  0.90152100  1
  Cu  Cu28  1  0.24313000  0.50713500  0.61398500  1
  Cu  Cu29  1  0.74313000  0.99286500  0.38601500  1
  Cu  Cu30  1  0.75687000  0.49286500  0.38601500  1
  Cu  Cu31  1  0.25687000  0.00713500  0.61398500  1
  Cu  Cu32  1  0.03032900  0.49663600  0.81332800  1
  Cu  Cu33  1  0.53032900  0.00336400  0.18667200  1
  Cu  Cu34  1  0.96967100  0.50336400  0.18667200  1
  Cu  Cu35  1  0.46967100  0.99663600  0.81332800  1
  Cu  Cu36  1  0.07446200  0.63081100  0.58493100  1
  Cu  Cu37  1  0.57446200  0.86918900  0.41506900  1
  Cu  Cu38  1  0.92553800  0.36918900  0.41506900  1
  Cu  Cu39  1  0.42553800  0.13081100  0.58493100  1
  Cu  Cu40  1  0.79533500  0.05919800  0.53170300  1
  Cu  Cu41  1  0.29533500  0.44080200  0.46829700  1
  Cu  Cu42  1  0.20466500  0.94080200  0.46829700  1
  Cu  Cu43  1  0.70466500  0.55919800  0.53170300  1
  Cu  Cu44  1  0.73135200  0.86744000  0.50969600  1
  Cu  Cu45  1  0.23135200  0.63256000  0.49030400  1
  Cu  Cu46  1  0.26864800  0.13256000  0.49030400  1
  Cu  Cu47  1  0.76864800  0.36744000  0.50969600  1
  Cu  Cu48  1  0.89334800  0.89724800  0.59603100  1
  Cu  Cu49  1  0.39334800  0.60275200  0.40396900  1
  Cu  Cu50  1  0.10665200  0.10275200  0.40396900  1
  Cu  Cu51  1  0.60665200  0.39724800  0.59603100  1
  Cu  Cu52  1  0.36544800  0.89567300  0.79619600  1
  Cu  Cu53  1  0.86544800  0.60432700  0.20380400  1
  Cu  Cu54  1  0.63455200  0.10432700  0.20380400  1
  Cu  Cu55  1  0.13455200  0.39567300  0.79619600  1
  Cu  Cu56  1  0.43173100  0.64378200  0.81961600  1
  Cu  Cu57  1  0.93173100  0.85621800  0.18038400  1
  Cu  Cu58  1  0.56826900  0.35621800  0.18038400  1
  Cu  Cu59  1  0.06826900  0.14378200  0.81961600  1
  Cu  Cu60  1  0.60023900  0.80665200  0.70093200  1
  Cu  Cu61  1  0.10023900  0.69334800  0.29906800  1
  Cu  Cu62  1  0.39976100  0.19334800  0.29906800  1
  Cu  Cu63  1  0.89976100  0.30665200  0.70093200  1
  Cu  Cu64  1  0.62010900  0.72928500  0.65164700  1
  Cu  Cu65  1  0.12010900  0.77071500  0.34835300  1
  Cu  Cu66  1  0.37989100  0.27071500  0.34835300  1
  Cu  Cu67  1  0.87989100  0.22928500  0.65164700  1
  Cu  Cu68  1  0.70995100  0.81911300  0.87154500  1
  Cu  Cu69  1  0.20995100  0.68088700  0.12845500  1
  Cu  Cu70  1  0.29004900  0.18088700  0.12845500  1
  Cu  Cu71  1  0.79004900  0.31911300  0.87154500  1
  Cu  Cu72  1  0.38569200  0.76885600  0.64868100  1
  Cu  Cu73  1  0.88569200  0.73114400  0.35131900  1
  Cu  Cu74  1  0.61430800  0.23114400  0.35131900  1
  Cu  Cu75  1  0.11430800  0.26885600  0.64868100  1
  Cu  Cu76  1  0.05438600  0.53384100  0.87708800  1
  Cu  Cu77  1  0.55438600  0.96615900  0.12291200  1
  Cu  Cu78  1  0.94561400  0.46615900  0.12291200  1
  Cu  Cu79  1  0.44561400  0.03384100  0.87708800  1
  Cu  Cu80  1  0.75199300  0.91765200  0.88209000  1
  Cu  Cu81  1  0.25199300  0.58234800  0.11791000  1
  Cu  Cu82  1  0.24800700  0.08234800  0.11791000  1
  Cu  Cu83  1  0.74800700  0.41765200  0.88209000  1
  Cu  Cu84  1  0.46753700  0.70363700  0.61350600  1
  Cu  Cu85  1  0.96753700  0.79636300  0.38649400  1
  Cu  Cu86  1  0.53246300  0.29636300  0.38649400  1
  Cu  Cu87  1  0.03246300  0.20363700  0.61350600  1
