# generated using pymatgen
data_Cu3NiC16
_symmetry_space_group_name_H-M   'P 1'
_cell_length_a   8.92028143
_cell_length_b   8.92104166
_cell_length_c   8.99176145
_cell_angle_alpha   59.84345266
_cell_angle_beta   60.86226668
_cell_angle_gamma   61.00234985
_symmetry_Int_Tables_number   1
_chemical_formula_structural   Cu3NiC16
_chemical_formula_sum   'Cu6 Ni2 C32'
_cell_volume   512.35457151
_cell_formula_units_Z   2
loop_
 _symmetry_equiv_pos_site_id
 _symmetry_equiv_pos_as_xyz
  1  'x, y, z'
loop_
 _atom_site_type_symbol
 _atom_site_label
 _atom_site_symmetry_multiplicity
 _atom_site_fract_x
 _atom_site_fract_y
 _atom_site_fract_z
 _atom_site_occupancy
  C  C0  1  0.45547700  0.19124700  0.18663300  1
  C  C1  1  0.28252000  0.85548900  0.64008300  1
  C  C2  1  0.69561500  0.15011700  0.32033700  1
  C  C3  1  0.68277700  0.84717200  0.15275000  1
  C  C4  1  0.68639700  0.31187300  0.84461100  1
  C  C5  1  0.05555200  0.64639500  0.65132000  1
  C  C6  1  0.45215800  0.84449600  0.85047300  1
  C  C7  1  0.94772400  0.34851800  0.34701300  1
  Ni  Ni8  1  0.01811400  0.99351200  0.00655300  1
  Ni  Ni9  1  0.49863200  0.48324500  0.49838200  1
  Cu  Cu10  1  0.25516400  0.25277200  0.54568300  1
  Cu  Cu11  1  0.25670600  0.94609600  0.25160900  1
  Cu  Cu12  1  0.25612700  0.54359300  0.94556800  1
  Cu  Cu13  1  0.75755800  0.45635200  0.03965800  1
  Cu  Cu14  1  0.77414300  0.03206900  0.74471300  1
  Cu  Cu15  1  0.74247400  0.74501800  0.46338400  1
  C  C16  1  0.08333900  0.09707700  0.29783500  1
  C  C17  1  0.08874000  0.50400500  0.09694700  1
  C  C18  1  0.09676800  0.30696600  0.49091700  1
  C  C19  1  0.24727600  0.07544500  0.72376800  1
  C  C20  1  0.24210400  0.40507700  0.59762900  1
  C  C21  1  0.44139300  0.21463500  0.40141800  1
  C  C22  1  0.26247800  0.91943900  0.08886600  1
  C  C23  1  0.25409100  0.75468400  0.41775400  1
  C  C24  1  0.25932200  0.58423800  0.74826100  1
  C  C25  1  0.58112200  0.60624700  0.02229500  1
  C  C26  1  0.77477100  0.27646400  0.02915000  1
  C  C27  1  0.60948600  0.99635000  0.77793200  1
  C  C28  1  0.43055300  0.97223000  0.21481200  1
  C  C29  1  0.24531000  0.73887100  0.91790900  1
  C  C30  1  0.43564100  0.39743200  0.96459500  1
  C  C31  1  0.75063000  0.39058000  0.24308100  1
  C  C32  1  0.75526300  0.23929000  0.61319100  1
  C  C33  1  0.77801200  0.02821200  0.92088300  1
  C  C34  1  0.55434400  0.78792200  0.60516900  1
  C  C35  1  0.74521000  0.61048000  0.39498900  1
  C  C36  1  0.76732800  0.91869500  0.28642400  1
  C  C37  1  0.89744600  0.67201200  0.53549200  1
  C  C38  1  0.92658500  0.51028800  0.89784500  1
  C  C39  1  0.95565100  0.89639800  0.67307000  1
