# generated using pymatgen
data_Cu(Ni3C4)2
_symmetry_space_group_name_H-M   'P 1'
_cell_length_a   7.28355977
_cell_length_b   7.28355977
_cell_length_c   7.32011895
_cell_angle_alpha   87.66056123
_cell_angle_beta   87.66056123
_cell_angle_gamma   134.75863630
_symmetry_Int_Tables_number   1
_chemical_formula_structural   Cu(Ni3C4)2
_chemical_formula_sum   'Cu2 Ni12 C16'
_cell_volume   274.19070754
_cell_formula_units_Z   2
loop_
 _symmetry_equiv_pos_site_id
 _symmetry_equiv_pos_as_xyz
  1  'x, y, z'
loop_
 _atom_site_type_symbol
 _atom_site_label
 _atom_site_symmetry_multiplicity
 _atom_site_fract_x
 _atom_site_fract_y
 _atom_site_fract_z
 _atom_site_occupancy
  C  C0  1  0.86528000  0.13608800  0.00649200  1
  C  C1  1  0.13608800  0.86528000  0.50649200  1
  Ni  Ni2  1  0.96225100  0.18433600  0.65019700  1
  Ni  Ni3  1  0.18433600  0.96225100  0.15019700  1
  Ni  Ni4  1  0.03723000  0.43671700  0.72145600  1
  Ni  Ni5  1  0.43671700  0.03723000  0.22145600  1
  Ni  Ni6  1  0.43808900  0.26974500  0.70873600  1
  Ni  Ni7  1  0.26974500  0.43808900  0.20873600  1
  Ni  Ni8  1  0.40990300  0.34918600  0.51176100  1
  Ni  Ni9  1  0.34918600  0.40990300  0.01176100  1
  Ni  Ni10  1  0.39381300  0.73289300  0.98290100  1
  Ni  Ni11  1  0.73289300  0.39381300  0.48290100  1
  Ni  Ni12  1  0.51648400  0.89146900  0.78076400  1
  Ni  Ni13  1  0.89146900  0.51648400  0.28076400  1
  Cu  Cu14  1  0.84650500  0.61758500  0.92583700  1
  Cu  Cu15  1  0.61758500  0.84650500  0.42583700  1
  C  C16  1  0.00401300  0.66861600  0.75302700  1
  C  C17  1  0.66861600  0.00401300  0.25302700  1
  C  C18  1  0.47742100  0.86627100  0.56283800  1
  C  C19  1  0.86627100  0.47742100  0.06283800  1
  C  C20  1  0.57338300  0.45564600  0.88457400  1
  C  C21  1  0.45564600  0.57338300  0.38457400  1
  C  C22  1  0.86506900  0.95745400  0.49291900  1
  C  C23  1  0.95745400  0.86506900  0.99291900  1
  C  C24  1  0.03339900  0.29987500  0.75102400  1
  C  C25  1  0.29987500  0.03339900  0.25102400  1
  C  C26  1  0.40888600  0.22457400  0.57884400  1
  C  C27  1  0.22457400  0.40888600  0.07884400  1
  C  C28  1  0.52204500  0.90977300  0.91663000  1
  C  C29  1  0.90977300  0.52204500  0.41663000  1
