# generated using pymatgen
data_Cu(NiC2)6
_symmetry_space_group_name_H-M   'P 1'
_cell_length_a   16.78291200
_cell_length_b   6.81718700
_cell_length_c   7.35026355
_cell_angle_alpha   74.55224598
_cell_angle_beta   90.00000000
_cell_angle_gamma   90.00000000
_symmetry_Int_Tables_number   1
_chemical_formula_structural   Cu(NiC2)6
_chemical_formula_sum   'Cu4 Ni24 C48'
_cell_volume   810.57943881
_cell_formula_units_Z   4
loop_
 _symmetry_equiv_pos_site_id
 _symmetry_equiv_pos_as_xyz
  1  'x, y, z'
loop_
 _atom_site_type_symbol
 _atom_site_label
 _atom_site_symmetry_multiplicity
 _atom_site_fract_x
 _atom_site_fract_y
 _atom_site_fract_z
 _atom_site_occupancy
  Ni  Ni0  1  0.00352900  0.32417100  0.07264200  1
  Ni  Ni1  1  0.50352900  0.17582900  0.92735800  1
  Ni  Ni2  1  0.99647100  0.67582900  0.92735800  1
  Ni  Ni3  1  0.49647100  0.82417100  0.07264200  1
  Ni  Ni4  1  0.97035100  0.83041200  0.54644400  1
  Ni  Ni5  1  0.47035100  0.66958800  0.45355600  1
  Ni  Ni6  1  0.02964900  0.16958800  0.45355600  1
  Ni  Ni7  1  0.52964900  0.33041200  0.54644400  1
  Ni  Ni8  1  0.70386100  0.62744900  0.71126500  1
  Ni  Ni9  1  0.20386100  0.87255100  0.28873500  1
  Ni  Ni10  1  0.29613900  0.37255100  0.28873500  1
  Ni  Ni11  1  0.79613900  0.12744900  0.71126500  1
  Ni  Ni12  1  0.96376500  0.55642900  0.30666000  1
  Ni  Ni13  1  0.46376500  0.94357100  0.69334000  1
  Ni  Ni14  1  0.03623500  0.44357100  0.69334000  1
  Ni  Ni15  1  0.53623500  0.05642900  0.30666000  1
  Ni  Ni16  1  0.79679900  0.55466100  0.44272600  1
  Ni  Ni17  1  0.29679900  0.94533900  0.55727400  1
  Ni  Ni18  1  0.20320100  0.44533900  0.55727400  1
  Ni  Ni19  1  0.70320100  0.05466100  0.44272600  1
  Ni  Ni20  1  0.54975900  0.58296900  0.85848900  1
  Ni  Ni21  1  0.04975900  0.91703100  0.14151100  1
  Ni  Ni22  1  0.45024100  0.41703100  0.14151100  1
  Ni  Ni23  1  0.95024100  0.08296900  0.85848900  1
  Cu  Cu24  1  0.81070200  0.34700600  0.07948500  1
  Cu  Cu25  1  0.31070200  0.15299400  0.92051500  1
  Cu  Cu26  1  0.18929800  0.65299400  0.92051500  1
  Cu  Cu27  1  0.68929800  0.84700600  0.07948500  1
  C  C28  1  0.88718500  0.18600700  0.44197300  1
  C  C29  1  0.38718500  0.31399300  0.55802700  1
  C  C30  1  0.11281500  0.81399300  0.55802700  1
  C  C31  1  0.61281500  0.68600700  0.44197300  1
  C  C32  1  0.61806300  0.00318300  0.71014900  1
  C  C33  1  0.11806300  0.49681700  0.28985100  1
  C  C34  1  0.38193700  0.99681700  0.28985100  1
  C  C35  1  0.88193700  0.50318300  0.71014900  1
  C  C36  1  0.63443300  0.33886500  0.08131100  1
  C  C37  1  0.13443300  0.16113500  0.91868900  1
  C  C38  1  0.36556700  0.66113500  0.91868900  1
  C  C39  1  0.86556700  0.83886500  0.08131100  1
  C  C40  1  0.92416600  0.07609200  0.60544000  1
  C  C41  1  0.42416600  0.42390800  0.39456000  1
  C  C42  1  0.07583400  0.92390800  0.39456000  1
  C  C43  1  0.57583400  0.57609200  0.60544000  1
  C  C44  1  0.80513100  0.21936900  0.42780400  1
  C  C45  1  0.30513100  0.28063100  0.57219600  1
  C  C46  1  0.19486900  0.78063100  0.57219600  1
  C  C47  1  0.69486900  0.71936900  0.42780400  1
  C  C48  1  0.56715700  0.76903400  0.28022900  1
  C  C49  1  0.06715700  0.73096600  0.71977100  1
  C  C50  1  0.43284300  0.23096600  0.71977100  1
  C  C51  1  0.93284300  0.26903400  0.28022900  1
  C  C52  1  0.58648000  0.09047100  0.53507700  1
  C  C53  1  0.08648000  0.40952900  0.46492300  1
  C  C54  1  0.41352000  0.90952900  0.46492300  1
  C  C55  1  0.91352000  0.59047100  0.53507700  1
  C  C56  1  0.80092100  0.45175400  0.73339000  1
  C  C57  1  0.30092100  0.04824600  0.26661000  1
  C  C58  1  0.19907900  0.54824600  0.26661000  1
  C  C59  1  0.69907900  0.95175400  0.73339000  1
  C  C60  1  0.57115500  0.95865600  0.87364300  1
  C  C61  1  0.07115500  0.54134400  0.12635700  1
  C  C62  1  0.42884500  0.04134400  0.12635700  1
  C  C63  1  0.92884500  0.45865600  0.87364300  1
  C  C64  1  0.55339700  0.32632300  0.08099400  1
  C  C65  1  0.05339700  0.17367700  0.91900600  1
  C  C66  1  0.44660300  0.67367700  0.91900600  1
  C  C67  1  0.94660300  0.82632300  0.08099400  1
  C  C68  1  0.68233300  0.16861300  0.15588600  1
  C  C69  1  0.18233300  0.33138700  0.84411400  1
  C  C70  1  0.31766700  0.83138700  0.84411400  1
  C  C71  1  0.81766700  0.66861300  0.15588600  1
  C  C72  1  0.82660300  0.02336600  0.99915900  1
  C  C73  1  0.32660300  0.47663400  0.00084100  1
  C  C74  1  0.17339700  0.97663400  0.00084100  1
  C  C75  1  0.67339700  0.52336600  0.99915900  1
