# generated using pymatgen
data_Cu2Ni2C
_symmetry_space_group_name_H-M   'P 1'
_cell_length_a   4.01699500
_cell_length_b   4.01699500
_cell_length_c   19.67836800
_cell_angle_alpha   90.00000000
_cell_angle_beta   90.00000000
_cell_angle_gamma   90.00000000
_symmetry_Int_Tables_number   1
_chemical_formula_structural   Cu2Ni2C
_chemical_formula_sum   'Cu8 Ni8 C4'
_cell_volume   317.53504262
_cell_formula_units_Z   4
loop_
 _symmetry_equiv_pos_site_id
 _symmetry_equiv_pos_as_xyz
  1  'x, y, z'
loop_
 _atom_site_type_symbol
 _atom_site_label
 _atom_site_symmetry_multiplicity
 _atom_site_fract_x
 _atom_site_fract_y
 _atom_site_fract_z
 _atom_site_occupancy
  C  C0  1  0.00000000  0.00000000  0.00000000  1
  C  C1  1  0.50000000  0.50000000  0.25101800  1
  C  C2  1  0.00000000  0.00000000  0.50000000  1
  C  C3  1  0.50000000  0.50000000  0.74898200  1
  Ni  Ni4  1  0.00000000  0.50000000  0.12709100  1
  Ni  Ni5  1  0.50000000  0.00000000  0.37478100  1
  Ni  Ni6  1  0.00000000  0.50000000  0.62521900  1
  Ni  Ni7  1  0.50000000  0.00000000  0.87290900  1
  Ni  Ni8  1  0.50000000  0.00000000  0.12709100  1
  Ni  Ni9  1  0.00000000  0.50000000  0.37478100  1
  Ni  Ni10  1  0.50000000  0.00000000  0.62521900  1
  Ni  Ni11  1  0.00000000  0.50000000  0.87290900  1
  Cu  Cu12  1  0.50000000  0.50000000  0.06488200  1
  Cu  Cu13  1  0.00000000  0.00000000  0.31419000  1
  Cu  Cu14  1  0.50000000  0.50000000  0.56378700  1
  Cu  Cu15  1  0.00000000  0.00000000  0.81350200  1
  Cu  Cu16  1  0.00000000  0.00000000  0.18649800  1
  Cu  Cu17  1  0.50000000  0.50000000  0.43621300  1
  Cu  Cu18  1  0.00000000  0.00000000  0.68581000  1
  Cu  Cu19  1  0.50000000  0.50000000  0.93511800  1
