# generated using pymatgen
data_Cu2NiC11
_symmetry_space_group_name_H-M   'P 1'
_cell_length_a   14.84900490
_cell_length_b   14.84900490
_cell_length_c   5.90696181
_cell_angle_alpha   83.89306533
_cell_angle_beta   83.89306533
_cell_angle_gamma   11.16622384
_symmetry_Int_Tables_number   1
_chemical_formula_structural   Cu2NiC11
_chemical_formula_sum   'Cu4 Ni2 C22'
_cell_volume   250.78095233
_cell_formula_units_Z   2
loop_
 _symmetry_equiv_pos_site_id
 _symmetry_equiv_pos_as_xyz
  1  'x, y, z'
loop_
 _atom_site_type_symbol
 _atom_site_label
 _atom_site_symmetry_multiplicity
 _atom_site_fract_x
 _atom_site_fract_y
 _atom_site_fract_z
 _atom_site_occupancy
  C  C0  1  0.57729900  0.57729900  0.21918900  1
  C  C1  1  0.70924400  0.70924400  0.63954500  1
  C  C2  1  0.85559800  0.85559800  0.07534400  1
  C  C3  1  0.14329300  0.14329300  0.93359600  1
  C  C4  1  0.28473700  0.28473700  0.35792500  1
  C  C5  1  0.42718400  0.42718400  0.78426400  1
  C  C6  1  0.00299400  0.00299400  0.49893500  1
  C  C7  1  0.14290100  0.14290100  0.42235500  1
  Ni  Ni8  1  0.00190100  0.00190100  0.99846500  1
  Ni  Ni9  1  0.71067800  0.71067800  0.14835300  1
  Cu  Cu10  1  0.28510200  0.28510200  0.85868100  1
  Cu  Cu11  1  0.42789000  0.42789000  0.28886600  1
  Cu  Cu12  1  0.58020800  0.58020800  0.69609900  1
  Cu  Cu13  1  0.85587300  0.85587300  0.56924700  1
  C  C14  1  0.50140600  0.50140600  0.22230300  1
  C  C15  1  0.64014700  0.64014700  0.68420100  1
  C  C16  1  0.78095900  0.78095900  0.09331400  1
  C  C17  1  0.06650200  0.06650200  0.94880000  1
  C  C18  1  0.21458400  0.21458400  0.36506600  1
  C  C19  1  0.35548500  0.35548500  0.81315600  1
  C  C20  1  0.92707200  0.92707200  0.51547400  1
  C  C21  1  0.64845800  0.64845800  0.17451300  1
  C  C22  1  0.78569100  0.78569100  0.62608600  1
  C  C23  1  0.93388100  0.93388100  0.05698000  1
  C  C24  1  0.21483200  0.21483200  0.91773600  1
  C  C25  1  0.35661100  0.35661100  0.33040500  1
  C  C26  1  0.49898900  0.49898900  0.77987200  1
  C  C27  1  0.07048000  0.07048000  0.48123000  1
