# generated using pymatgen
data_CuNi3C2
_symmetry_space_group_name_H-M   'P 1'
_cell_length_a   14.40797100
_cell_length_b   6.55292600
_cell_length_c   6.56675407
_cell_angle_alpha   83.94683811
_cell_angle_beta   90.00000000
_cell_angle_gamma   90.00000000
_symmetry_Int_Tables_number   1
_chemical_formula_structural   CuNi3C2
_chemical_formula_sum   'Cu8 Ni24 C16'
_cell_volume   616.53913398
_cell_formula_units_Z   8
loop_
 _symmetry_equiv_pos_site_id
 _symmetry_equiv_pos_as_xyz
  1  'x, y, z'
loop_
 _atom_site_type_symbol
 _atom_site_label
 _atom_site_symmetry_multiplicity
 _atom_site_fract_x
 _atom_site_fract_y
 _atom_site_fract_z
 _atom_site_occupancy
  C  C0  1  0.42346900  0.68992700  0.49560600  1
  C  C1  1  0.92346900  0.31007300  0.00439400  1
  C  C2  1  0.57653100  0.31007300  0.50439400  1
  C  C3  1  0.07653100  0.68992700  0.99560600  1
  C  C4  1  0.60891400  0.72925800  0.13513100  1
  C  C5  1  0.10891400  0.27074200  0.36486900  1
  C  C6  1  0.39108600  0.27074200  0.86486900  1
  C  C7  1  0.89108600  0.72925800  0.63513100  1
  C  C8  1  0.65538700  0.77082500  0.63113900  1
  C  C9  1  0.15538700  0.22917500  0.86886100  1
  C  C10  1  0.34461300  0.22917500  0.36886100  1
  C  C11  1  0.84461300  0.77082500  0.13113900  1
  C  C12  1  0.39363400  0.75499000  0.98060400  1
  C  C13  1  0.89363400  0.24501000  0.51939600  1
  C  C14  1  0.60636600  0.24501000  0.01939600  1
  C  C15  1  0.10636600  0.75499000  0.48060400  1
  Ni  Ni16  1  0.46765900  0.74044800  0.14939000  1
  Ni  Ni17  1  0.96765900  0.25955200  0.35061000  1
  Ni  Ni18  1  0.53234100  0.25955200  0.85061000  1
  Ni  Ni19  1  0.03234100  0.74044800  0.64939000  1
  Ni  Ni20  1  0.38295000  0.96535700  0.86159400  1
  Ni  Ni21  1  0.88295000  0.03464300  0.63840600  1
  Ni  Ni22  1  0.61705000  0.03464300  0.13840600  1
  Ni  Ni23  1  0.11705000  0.96535700  0.36159400  1
  Ni  Ni24  1  0.60161300  0.74659300  0.83065700  1
  Ni  Ni25  1  0.10161300  0.25340700  0.66934300  1
  Ni  Ni26  1  0.39838700  0.25340700  0.16934300  1
  Ni  Ni27  1  0.89838700  0.74659300  0.33065700  1
  Ni  Ni28  1  0.39897200  0.58617900  0.83770500  1
  Ni  Ni29  1  0.89897200  0.41382100  0.66229500  1
  Ni  Ni30  1  0.60102800  0.41382100  0.16229500  1
  Ni  Ni31  1  0.10102800  0.58617900  0.33770500  1
  Ni  Ni32  1  0.75472500  0.69813400  0.64378400  1
  Ni  Ni33  1  0.25472500  0.30186600  0.85621600  1
  Ni  Ni34  1  0.24527500  0.30186600  0.35621600  1
  Ni  Ni35  1  0.74527500  0.69813400  0.14378400  1
  Ni  Ni36  1  0.59812600  0.68979300  0.45914500  1
  Ni  Ni37  1  0.09812600  0.31020700  0.04085500  1
  Ni  Ni38  1  0.40187400  0.31020700  0.54085500  1
  Ni  Ni39  1  0.90187400  0.68979300  0.95914500  1
  Cu  Cu40  1  0.33933400  0.98646900  0.43034300  1
  Cu  Cu41  1  0.83933400  0.01353100  0.06965700  1
  Cu  Cu42  1  0.66066600  0.01353100  0.56965700  1
  Cu  Cu43  1  0.16066600  0.98646900  0.93034300  1
  Cu  Cu44  1  0.30015000  0.71303700  0.10760300  1
  Cu  Cu45  1  0.80015000  0.28696300  0.39239700  1
  Cu  Cu46  1  0.69985000  0.28696300  0.89239700  1
  Cu  Cu47  1  0.19985000  0.71303700  0.60760300  1
