# generated using pymatgen
data_CuNiC13
_symmetry_space_group_name_H-M   'P 1'
_cell_length_a   10.05266200
_cell_length_b   7.28162200
_cell_length_c   10.94875322
_cell_angle_alpha   71.96717413
_cell_angle_beta   90.00000000
_cell_angle_gamma   90.00000000
_symmetry_Int_Tables_number   1
_chemical_formula_structural   CuNiC13
_chemical_formula_sum   'Cu4 Ni4 C52'
_cell_volume   762.07774584
_cell_formula_units_Z   4
loop_
 _symmetry_equiv_pos_site_id
 _symmetry_equiv_pos_as_xyz
  1  'x, y, z'
loop_
 _atom_site_type_symbol
 _atom_site_label
 _atom_site_symmetry_multiplicity
 _atom_site_fract_x
 _atom_site_fract_y
 _atom_site_fract_z
 _atom_site_occupancy
  Ni  Ni0  1  0.88275000  0.66208800  0.42827800  1
  Ni  Ni1  1  0.11725000  0.33791200  0.57172200  1
  Ni  Ni2  1  0.38275000  0.33791200  0.07172200  1
  Ni  Ni3  1  0.61725000  0.66208800  0.92827800  1
  Cu  Cu4  1  0.60704400  0.47462800  0.30416100  1
  Cu  Cu5  1  0.39295600  0.52537200  0.69583900  1
  Cu  Cu6  1  0.10704400  0.52537200  0.19583900  1
  Cu  Cu7  1  0.89295600  0.47462800  0.80416100  1
  C  C8  1  0.59966200  0.97888500  0.28716700  1
  C  C9  1  0.40033800  0.02111500  0.71283300  1
  C  C10  1  0.09966200  0.02111500  0.21283300  1
  C  C11  1  0.90033800  0.97888500  0.78716700  1
  C  C12  1  0.37252800  0.86628500  0.05782300  1
  C  C13  1  0.62747200  0.13371500  0.94217700  1
  C  C14  1  0.87252800  0.13371500  0.44217700  1
  C  C15  1  0.12747200  0.86628500  0.55782300  1
  C  C16  1  0.82799600  0.32959900  0.11750700  1
  C  C17  1  0.17200400  0.67040100  0.88249300  1
  C  C18  1  0.32799600  0.67040100  0.38249300  1
  C  C19  1  0.67200400  0.32959900  0.61750700  1
  C  C20  1  0.83062600  0.78055300  0.12013600  1
  C  C21  1  0.16937400  0.21944700  0.87986400  1
  C  C22  1  0.33062600  0.21944700  0.37986400  1
  C  C23  1  0.66937400  0.78055300  0.62013600  1
  C  C24  1  0.72013200  0.90745400  0.47866200  1
  C  C25  1  0.27986800  0.09254600  0.52133800  1
  C  C26  1  0.22013200  0.09254600  0.02133800  1
  C  C27  1  0.77986800  0.90745400  0.97866200  1
  C  C28  1  0.24635700  0.79415600  0.25317100  1
  C  C29  1  0.75364300  0.20584400  0.74682900  1
  C  C30  1  0.74635700  0.20584400  0.24682900  1
  C  C31  1  0.25364300  0.79415600  0.75317100  1
  C  C32  1  0.48581300  0.73037800  0.37548300  1
  C  C33  1  0.51418700  0.26962200  0.62451700  1
  C  C34  1  0.98581300  0.26962200  0.12451700  1
  C  C35  1  0.01418700  0.73037800  0.87548300  1
  C  C36  1  0.73440000  0.78337500  0.24097900  1
  C  C37  1  0.26560000  0.21662500  0.75902100  1
  C  C38  1  0.23440000  0.21662500  0.25902100  1
  C  C39  1  0.76560000  0.78337500  0.74097900  1
  C  C40  1  0.98402400  0.82190300  0.15342400  1
  C  C41  1  0.01597600  0.17809700  0.84657600  1
  C  C42  1  0.48402400  0.17809700  0.34657600  1
  C  C43  1  0.51597600  0.82190300  0.65342400  1
  C  C44  1  0.82874100  0.54937000  0.13034100  1
  C  C45  1  0.17125900  0.45063000  0.86965900  1
  C  C46  1  0.32874100  0.45063000  0.36965900  1
  C  C47  1  0.67125900  0.54937000  0.63034100  1
  C  C48  1  0.24268100  0.66353800  0.01666500  1
  C  C49  1  0.75731900  0.33646200  0.98333500  1
  C  C50  1  0.74268100  0.33646200  0.48333500  1
  C  C51  1  0.25731900  0.66353800  0.51666500  1
  C  C52  1  0.48728900  0.95868200  0.88271000  1
  C  C53  1  0.51271100  0.04131800  0.11729000  1
  C  C54  1  0.98728900  0.04131800  0.61729000  1
  C  C55  1  0.01271100  0.95868200  0.38271000  1
  C  C56  1  0.50363700  0.58952800  0.11670900  1
  C  C57  1  0.49636300  0.41047200  0.88329100  1
  C  C58  1  0.00363700  0.41047200  0.38329100  1
  C  C59  1  0.99636300  0.58952800  0.61670900  1
