# generated using pymatgen
data_Cu5Ni4C17
_symmetry_space_group_name_H-M   'P 1'
_cell_length_a   9.64639100
_cell_length_b   10.22805700
_cell_length_c   12.04823200
_cell_angle_alpha   90.00000000
_cell_angle_beta   90.00000000
_cell_angle_gamma   90.00000000
_symmetry_Int_Tables_number   1
_chemical_formula_structural   Cu5Ni4C17
_chemical_formula_sum   'Cu20 Ni16 C68'
_cell_volume   1188.72479809
_cell_formula_units_Z   4
loop_
 _symmetry_equiv_pos_site_id
 _symmetry_equiv_pos_as_xyz
  1  'x, y, z'
loop_
 _atom_site_type_symbol
 _atom_site_label
 _atom_site_symmetry_multiplicity
 _atom_site_fract_x
 _atom_site_fract_y
 _atom_site_fract_z
 _atom_site_occupancy
  C  C0  1  0.87473600  0.92551600  0.64225400  1
  C  C1  1  0.88291600  0.08687200  0.35802600  1
  C  C2  1  0.11708400  0.91312800  0.85802600  1
  C  C3  1  0.12526400  0.07448400  0.14225400  1
  C  C4  1  0.61708400  0.58687200  0.35802600  1
  C  C5  1  0.62526400  0.42551600  0.64225400  1
  C  C6  1  0.37473600  0.57448400  0.14225400  1
  C  C7  1  0.38291600  0.41312800  0.85802600  1
  C  C8  1  0.99338400  0.54030900  0.74244700  1
  C  C9  1  0.00661600  0.45969100  0.24244700  1
  C  C10  1  0.49338400  0.95969100  0.24244700  1
  C  C11  1  0.50661600  0.04030900  0.74244700  1
  Ni  Ni12  1  0.79415900  0.78299100  0.89387800  1
  Ni  Ni13  1  0.79549800  0.21539700  0.10887500  1
  Ni  Ni14  1  0.20450200  0.78460300  0.60887500  1
  Ni  Ni15  1  0.20584100  0.21700900  0.39387800  1
  Ni  Ni16  1  0.70450200  0.71539700  0.10887500  1
  Ni  Ni17  1  0.70584100  0.28299100  0.89387800  1
  Ni  Ni18  1  0.29415900  0.71700900  0.39387800  1
  Ni  Ni19  1  0.29549800  0.28460300  0.60887500  1
  Ni  Ni20  1  0.47141900  0.78089500  0.93180500  1
  Ni  Ni21  1  0.46969400  0.20550300  0.06949000  1
  Ni  Ni22  1  0.53030600  0.79449700  0.56949000  1
  Ni  Ni23  1  0.52858100  0.21910500  0.43180500  1
  Ni  Ni24  1  0.03030600  0.70550300  0.06949000  1
  Ni  Ni25  1  0.02858100  0.28089500  0.93180500  1
  Ni  Ni26  1  0.97141900  0.71910500  0.43180500  1
  Ni  Ni27  1  0.96969400  0.29449700  0.56949000  1
  Cu  Cu28  1  0.83403200  0.00784200  0.88704600  1
  Cu  Cu29  1  0.83571900  0.99110900  0.11501200  1
  Cu  Cu30  1  0.16428100  0.00889100  0.61501200  1
  Cu  Cu31  1  0.16596800  0.99215800  0.38704600  1
  Cu  Cu32  1  0.66428100  0.49110900  0.11501200  1
  Cu  Cu33  1  0.66596800  0.50784200  0.88704600  1
  Cu  Cu34  1  0.33403200  0.49215800  0.38704600  1
  Cu  Cu35  1  0.33571900  0.50889100  0.61501200  1
  Cu  Cu36  1  0.72776100  0.69107500  0.71829300  1
  Cu  Cu37  1  0.73116100  0.31575200  0.28013200  1
  Cu  Cu38  1  0.26883900  0.68424800  0.78013200  1
  Cu  Cu39  1  0.27223900  0.30892500  0.21829300  1
  Cu  Cu40  1  0.76883900  0.81575200  0.28013200  1
  Cu  Cu41  1  0.77223900  0.19107500  0.71829300  1
  Cu  Cu42  1  0.22776100  0.80892500  0.21829300  1
  Cu  Cu43  1  0.23116100  0.18424800  0.78013200  1
  Cu  Cu44  1  0.36625900  0.97955900  0.99038200  1
  Cu  Cu45  1  0.63374100  0.02044100  0.49038200  1
  Cu  Cu46  1  0.13374100  0.47955900  0.99038200  1
  Cu  Cu47  1  0.86625900  0.52044100  0.49038200  1
  C  C48  1  0.86533300  0.93375300  0.83864800  1
  C  C49  1  0.86841800  0.06472200  0.16331500  1
  C  C50  1  0.13158200  0.93527800  0.66331500  1
  C  C51  1  0.13466700  0.06624700  0.33864800  1
  C  C52  1  0.63158200  0.56472200  0.16331500  1
  C  C53  1  0.63466700  0.43375300  0.83864800  1
  C  C54  1  0.36533300  0.56624700  0.33864800  1
  C  C55  1  0.36841800  0.43527800  0.66331500  1
  C  C56  1  0.39502100  0.64579900  0.88395400  1
  C  C57  1  0.39083300  0.34282900  0.11397700  1
  C  C58  1  0.60916700  0.65717100  0.61397700  1
  C  C59  1  0.60497900  0.35420100  0.38395400  1
  C  C60  1  0.10916700  0.84282900  0.11397700  1
  C  C61  1  0.10497900  0.14579900  0.88395400  1
  C  C62  1  0.89502100  0.85420100  0.38395400  1
  C  C63  1  0.89083300  0.15717100  0.61397700  1
  C  C64  1  0.61051200  0.84291700  0.85308300  1
  C  C65  1  0.61508600  0.15780800  0.15021400  1
  C  C66  1  0.38491400  0.84219200  0.65021400  1
  C  C67  1  0.38948800  0.15708300  0.35308300  1
  C  C68  1  0.88491400  0.65780800  0.15021400  1
  C  C69  1  0.88948800  0.34291700  0.85308300  1
  C  C70  1  0.11051200  0.65708300  0.35308300  1
  C  C71  1  0.11508600  0.34219200  0.65021400  1
  C  C72  1  0.35228100  0.90960300  0.92458000  1
  C  C73  1  0.36534600  0.07117600  0.07860600  1
  C  C74  1  0.63465400  0.92882400  0.57860600  1
  C  C75  1  0.64771900  0.09039700  0.42458000  1
  C  C76  1  0.13465400  0.57117600  0.07860600  1
  C  C77  1  0.14771900  0.40960300  0.92458000  1
  C  C78  1  0.85228100  0.59039700  0.42458000  1
  C  C79  1  0.86534600  0.42882400  0.57860600  1
  C  C80  1  0.97723200  0.72111600  0.92924500  1
  C  C81  1  0.98270400  0.27333600  0.07311400  1
  C  C82  1  0.01729600  0.72666400  0.57311400  1
  C  C83  1  0.02276800  0.27888400  0.42924500  1
  C  C84  1  0.51729600  0.77333600  0.07311400  1
  C  C85  1  0.52276800  0.22111600  0.92924500  1
  C  C86  1  0.47723200  0.77888400  0.42924500  1
  C  C87  1  0.48270400  0.22666400  0.57311400  1
  C  C88  1  0.81583200  0.69976200  0.76271400  1
  C  C89  1  0.82085800  0.30025700  0.23930000  1
  C  C90  1  0.17914200  0.69974300  0.73930000  1
  C  C91  1  0.18416800  0.30023800  0.26271400  1
  C  C92  1  0.67914200  0.80025700  0.23930000  1
  C  C93  1  0.68416800  0.19976200  0.76271400  1
  C  C94  1  0.31583200  0.80023800  0.26271400  1
  C  C95  1  0.32085800  0.19974300  0.73930000  1
  C  C96  1  0.71512200  0.64181700  0.96568200  1
  C  C97  1  0.72127300  0.35774700  0.03592700  1
  C  C98  1  0.27872700  0.64225300  0.53592700  1
  C  C99  1  0.28487800  0.35818300  0.46568200  1
  C  C100  1  0.77872700  0.85774700  0.03592700  1
  C  C101  1  0.78487800  0.14181700  0.96568200  1
  C  C102  1  0.21512200  0.85818300  0.46568200  1
  C  C103  1  0.22127300  0.14225300  0.53592700  1
