# generated using pymatgen
data_Cu3Ni7C3
_symmetry_space_group_name_H-M   'P 1'
_cell_length_a   13.20102764
_cell_length_b   13.20102764
_cell_length_c   4.22178400
_cell_angle_alpha   90.00000000
_cell_angle_beta   90.00000000
_cell_angle_gamma   161.94442421
_symmetry_Int_Tables_number   1
_chemical_formula_structural   Cu3Ni7C3
_chemical_formula_sum   'Cu3 Ni7 C3'
_cell_volume   228.02801967
_cell_formula_units_Z   1
loop_
 _symmetry_equiv_pos_site_id
 _symmetry_equiv_pos_as_xyz
  1  'x, y, z'
loop_
 _atom_site_type_symbol
 _atom_site_label
 _atom_site_symmetry_multiplicity
 _atom_site_fract_x
 _atom_site_fract_y
 _atom_site_fract_z
 _atom_site_occupancy
  C  C0  1  0.00088900  0.99911100  0.00000000  1
  C  C1  1  0.68587000  0.31413000  0.50000000  1
  C  C2  1  0.31788600  0.68211400  0.50000000  1
  Ni  Ni3  1  0.59401900  0.40598100  0.00000000  1
  Ni  Ni4  1  0.40862600  0.59137400  0.00000000  1
  Ni  Ni5  1  0.77646100  0.22353900  0.00000000  1
  Ni  Ni6  1  0.22428700  0.77571300  0.00000000  1
  Ni  Ni7  1  0.90859100  0.09140900  0.50000000  1
  Ni  Ni8  1  0.09472700  0.90527300  0.50000000  1
  Ni  Ni9  1  0.53850800  0.46149200  0.50000000  1
  Cu  Cu10  1  0.86635800  0.13364200  0.00000000  1
  Cu  Cu11  1  0.13263500  0.86736500  0.00000000  1
  Cu  Cu12  1  0.45114500  0.54885500  0.50000000  1
