# generated using pymatgen
data_Cu8Ni2C
_symmetry_space_group_name_H-M   'P 1'
_cell_length_a   5.79789600
_cell_length_b   6.00458900
_cell_length_c   8.40782313
_cell_angle_alpha   85.24601177
_cell_angle_beta   90.00000000
_cell_angle_gamma   90.00000000
_symmetry_Int_Tables_number   1
_chemical_formula_structural   Cu8Ni2C
_chemical_formula_sum   'Cu16 Ni4 C2'
_cell_volume   291.70280872
_cell_formula_units_Z   2
loop_
 _symmetry_equiv_pos_site_id
 _symmetry_equiv_pos_as_xyz
  1  'x, y, z'
loop_
 _atom_site_type_symbol
 _atom_site_label
 _atom_site_symmetry_multiplicity
 _atom_site_fract_x
 _atom_site_fract_y
 _atom_site_fract_z
 _atom_site_occupancy
  C  C0  1  0.50000000  0.00000000  0.00000000  1
  C  C1  1  0.00000000  0.00000000  0.50000000  1
  Ni  Ni2  1  0.85525500  0.76691000  0.78895100  1
  Ni  Ni3  1  0.35525500  0.23309000  0.71104900  1
  Ni  Ni4  1  0.14474500  0.23309000  0.21104900  1
  Ni  Ni5  1  0.64474500  0.76691000  0.28895100  1
  Cu  Cu6  1  0.84702000  0.96090800  0.70601400  1
  Cu  Cu7  1  0.34702000  0.03909200  0.79398600  1
  Cu  Cu8  1  0.15298000  0.03909200  0.29398600  1
  Cu  Cu9  1  0.65298000  0.96090800  0.20601400  1
  Cu  Cu10  1  0.96593100  0.60896900  0.74208700  1
  Cu  Cu11  1  0.46593100  0.39103100  0.75791300  1
  Cu  Cu12  1  0.03406900  0.39103100  0.25791300  1
  Cu  Cu13  1  0.53406900  0.60896900  0.24208700  1
  Cu  Cu14  1  0.74580400  0.74986000  0.91805400  1
  Cu  Cu15  1  0.24580400  0.25014000  0.58194600  1
  Cu  Cu16  1  0.25419600  0.25014000  0.08194600  1
  Cu  Cu17  1  0.75419600  0.74986000  0.41805400  1
  Cu  Cu18  1  0.31264800  0.77267900  0.04430800  1
  Cu  Cu19  1  0.81264800  0.22732100  0.45569200  1
  Cu  Cu20  1  0.68735200  0.22732100  0.95569200  1
  Cu  Cu21  1  0.18735200  0.77267900  0.54430800  1
