# generated using pymatgen
data_Cu2NiC8
_symmetry_space_group_name_H-M   'P 1'
_cell_length_a   9.30001300
_cell_length_b   9.30001300
_cell_length_c   9.30001300
_cell_angle_alpha   90.00000000
_cell_angle_beta   90.00000000
_cell_angle_gamma   90.00000000
_symmetry_Int_Tables_number   1
_chemical_formula_structural   Cu2NiC8
_chemical_formula_sum   'Cu8 Ni4 C32'
_cell_volume   804.36037311
_cell_formula_units_Z   4
loop_
 _symmetry_equiv_pos_site_id
 _symmetry_equiv_pos_as_xyz
  1  'x, y, z'
loop_
 _atom_site_type_symbol
 _atom_site_label
 _atom_site_symmetry_multiplicity
 _atom_site_fract_x
 _atom_site_fract_y
 _atom_site_fract_z
 _atom_site_occupancy
  Ni  Ni0  1  0.74854700  0.24854700  0.25145300  1
  Ni  Ni1  1  0.24854700  0.25145300  0.74854700  1
  Ni  Ni2  1  0.25145300  0.74854700  0.24854700  1
  Ni  Ni3  1  0.75145300  0.75145300  0.75145300  1
  Cu  Cu4  1  0.14826200  0.64826200  0.85173800  1
  Cu  Cu5  1  0.64826200  0.85173800  0.14826200  1
  Cu  Cu6  1  0.85173800  0.14826200  0.64826200  1
  Cu  Cu7  1  0.35173800  0.35173800  0.35173800  1
  Cu  Cu8  1  0.40728200  0.90728200  0.59271800  1
  Cu  Cu9  1  0.90728200  0.59271800  0.40728200  1
  Cu  Cu10  1  0.59271800  0.40728200  0.90728200  1
  Cu  Cu11  1  0.09271800  0.09271800  0.09271800  1
  C  C12  1  0.25871400  0.75871400  0.74128600  1
  C  C13  1  0.75871400  0.74128600  0.25871400  1
  C  C14  1  0.74128600  0.25871400  0.75871400  1
  C  C15  1  0.24128600  0.24128600  0.24128600  1
  C  C16  1  0.51604000  0.01604000  0.48396000  1
  C  C17  1  0.01604000  0.48396000  0.51604000  1
  C  C18  1  0.48396000  0.51604000  0.01604000  1
  C  C19  1  0.98396000  0.98396000  0.98396000  1
  C  C20  1  0.96025000  0.69419200  0.81881700  1
  C  C21  1  0.18118300  0.46025000  0.80580800  1
  C  C22  1  0.19419200  0.68118300  0.03975000  1
  C  C23  1  0.46025000  0.80580800  0.18118300  1
  C  C24  1  0.68118300  0.03975000  0.19419200  1
  C  C25  1  0.69419200  0.81881700  0.96025000  1
  C  C26  1  0.03975000  0.19419200  0.68118300  1
  C  C27  1  0.81881700  0.96025000  0.69419200  1
  C  C28  1  0.80580800  0.18118300  0.46025000  1
  C  C29  1  0.53975000  0.30580800  0.31881700  1
  C  C30  1  0.31881700  0.53975000  0.30580800  1
  C  C31  1  0.30580800  0.31881700  0.53975000  1
  C  C32  1  0.54736700  0.80306600  0.68856600  1
  C  C33  1  0.31143400  0.04736700  0.69693400  1
  C  C34  1  0.30306600  0.81143400  0.45263300  1
  C  C35  1  0.04736700  0.69693400  0.31143400  1
  C  C36  1  0.81143400  0.45263300  0.30306600  1
  C  C37  1  0.80306600  0.68856600  0.54736700  1
  C  C38  1  0.45263300  0.30306600  0.81143400  1
  C  C39  1  0.68856600  0.54736700  0.80306600  1
  C  C40  1  0.69693400  0.31143400  0.04736700  1
  C  C41  1  0.95263300  0.19693400  0.18856600  1
  C  C42  1  0.18856600  0.95263300  0.19693400  1
  C  C43  1  0.19693400  0.18856600  0.95263300  1
