# generated using pymatgen
data_Cu7(NiC7)3
_symmetry_space_group_name_H-M   'P 1'
_cell_length_a   3.75823089
_cell_length_b   6.52061807
_cell_length_c   16.57329733
_cell_angle_alpha   92.70187769
_cell_angle_beta   96.51361353
_cell_angle_gamma   89.99280235
_symmetry_Int_Tables_number   1
_chemical_formula_structural   Cu7(NiC7)3
_chemical_formula_sum   'Cu7 Ni3 C21'
_cell_volume   403.06917109
_cell_formula_units_Z   1
loop_
 _symmetry_equiv_pos_site_id
 _symmetry_equiv_pos_as_xyz
  1  'x, y, z'
loop_
 _atom_site_type_symbol
 _atom_site_label
 _atom_site_symmetry_multiplicity
 _atom_site_fract_x
 _atom_site_fract_y
 _atom_site_fract_z
 _atom_site_occupancy
  C  C0  1  0.65646336  0.55061189  0.31118810  1
  Ni  Ni1  1  0.40244717  0.80236360  0.80425055  1
  Ni  Ni2  1  0.21953498  0.41777053  0.43744236  1
  Ni  Ni3  1  0.49434409  0.49549084  0.98713431  1
  Cu  Cu4  1  0.90174315  0.30367491  0.80271650  1
  Cu  Cu5  1  0.80744708  0.61810198  0.61443541  1
  Cu  Cu6  1  0.70731208  0.94036368  0.41418743  1
  Cu  Cu7  1  0.30708510  0.10808343  0.61434519  1
  Cu  Cu8  1  0.08671339  0.68403581  0.17228070  1
  Cu  Cu9  1  0.58991127  0.18307824  0.17890011  1
  Cu  Cu10  1  0.99461004  0.99485611  0.98857571  1
  C  C11  1  0.92465817  0.97022657  0.84848134  1
  C  C12  1  0.47015025  0.81281497  0.93950058  1
  C  C13  1  0.77938573  0.94334241  0.55823745  1
  C  C14  1  0.33206088  0.78543800  0.66355546  1
  C  C15  1  0.42620040  0.48285773  0.85151740  1
  C  C16  1  0.97274657  0.33012584  0.94475620  1
  C  C17  1  0.87938956  0.63915030  0.75792080  1
  C  C18  1  0.17729290  0.65823668  0.35332219  1
  C  C19  1  0.83090641  0.28714108  0.66136723  1
  C  C20  1  0.62339327  0.82851186  0.24571615  1
  C  C21  1  0.28229452  0.43836548  0.56382599  1
  C  C22  1  0.73346046  0.58956118  0.46580060  1
  C  C23  1  0.37920795  0.12101875  0.75767401  1
  C  C24  1  0.68154419  0.27646434  0.36295165  1
  C  C25  1  0.56280576  0.51121964  0.12474818  1
  C  C26  1  0.11386521  0.36866063  0.22758941  1
  C  C27  1  0.22951604  0.09455077  0.45865027  1
  C  C28  1  0.01671149  0.66198645  0.03259184  1
  C  C29  1  0.06766366  0.00911785  0.13404464  1
  C  C30  1  0.51867188  0.16933147  0.03648325  1
