# generated using pymatgen
data_Cu4NiC5
_symmetry_space_group_name_H-M   'P 1'
_cell_length_a   6.17650339
_cell_length_b   6.17650339
_cell_length_c   6.17650339
_cell_angle_alpha   99.61279054
_cell_angle_beta   99.61279054
_cell_angle_gamma   131.76080080
_symmetry_Int_Tables_number   1
_chemical_formula_structural   Cu4NiC5
_chemical_formula_sum   'Cu4 Ni1 C5'
_cell_volume   160.41781692
_cell_formula_units_Z   1
loop_
 _symmetry_equiv_pos_site_id
 _symmetry_equiv_pos_as_xyz
  1  'x, y, z'
loop_
 _atom_site_type_symbol
 _atom_site_label
 _atom_site_symmetry_multiplicity
 _atom_site_fract_x
 _atom_site_fract_y
 _atom_site_fract_z
 _atom_site_occupancy
  Ni  Ni0  1  0.00000000  0.00000000  0.00000000  1
  Cu  Cu1  1  0.79943500  0.59993300  0.39936900  1
  Cu  Cu2  1  0.40006700  0.79943500  0.19950200  1
  Cu  Cu3  1  0.59993300  0.20056500  0.80049800  1
  Cu  Cu4  1  0.20056500  0.40006700  0.60063100  1
  C  C5  1  0.50000000  0.50000000  0.00000000  1
  C  C6  1  0.29279600  0.09847800  0.39127400  1
  C  C7  1  0.90152200  0.29279600  0.19431800  1
  C  C8  1  0.09847800  0.70720400  0.80568200  1
  C  C9  1  0.70720400  0.90152200  0.60872600  1
