# generated using pymatgen
data_CuNiC4
_symmetry_space_group_name_H-M   'P 1'
_cell_length_a   3.34120353
_cell_length_b   3.34120353
_cell_length_c   38.07235400
_cell_angle_alpha   90.00000000
_cell_angle_beta   90.00000000
_cell_angle_gamma   119.99999068
_symmetry_Int_Tables_number   1
_chemical_formula_structural   CuNiC4
_chemical_formula_sum   'Cu2 Ni2 C8'
_cell_volume   368.08342842
_cell_formula_units_Z   2
loop_
 _symmetry_equiv_pos_site_id
 _symmetry_equiv_pos_as_xyz
  1  'x, y, z'
loop_
 _atom_site_type_symbol
 _atom_site_label
 _atom_site_symmetry_multiplicity
 _atom_site_fract_x
 _atom_site_fract_y
 _atom_site_fract_z
 _atom_site_occupancy
  C  C0  1  0.33333300  0.66666700  0.33162400  1
  C  C1  1  0.33333300  0.66666700  0.23199800  1
  Ni  Ni2  1  0.33333300  0.66666700  0.09389200  1
  Ni  Ni3  1  0.66666700  0.33333300  0.28181900  1
  Cu  Cu4  1  0.33333300  0.66666700  0.46965700  1
  Cu  Cu5  1  0.66666700  0.33333300  0.65752600  1
  C  C6  1  0.33333300  0.66666700  0.70153800  1
  C  C7  1  0.66666700  0.33333300  0.05011000  1
  C  C8  1  0.66666700  0.33333300  0.13769500  1
  C  C9  1  0.33333300  0.66666700  0.61353500  1
  C  C10  1  0.66666700  0.33333300  0.42966100  1
  C  C11  1  0.66666700  0.33333300  0.50969300  1
