# generated using pymatgen
data_Cu(NiC)4
_symmetry_space_group_name_H-M   'P 1'
_cell_length_a   10.63618802
_cell_length_b   11.13803759
_cell_length_c   6.30741000
_cell_angle_alpha   90.00000000
_cell_angle_beta   90.00000000
_cell_angle_gamma   124.68300530
_symmetry_Int_Tables_number   1
_chemical_formula_structural   Cu(NiC)4
_chemical_formula_sum   'Cu2 Ni8 C8'
_cell_volume   614.44473908
_cell_formula_units_Z   2
loop_
 _symmetry_equiv_pos_site_id
 _symmetry_equiv_pos_as_xyz
  1  'x, y, z'
loop_
 _atom_site_type_symbol
 _atom_site_label
 _atom_site_symmetry_multiplicity
 _atom_site_fract_x
 _atom_site_fract_y
 _atom_site_fract_z
 _atom_site_occupancy
  C  C0  1  0.99998900  0.99993600  0.00176000  1
  C  C1  1  0.00001100  0.00006400  0.50176000  1
  Ni  Ni2  1  0.62910100  0.17789700  0.86970500  1
  Ni  Ni3  1  0.63898700  0.40246500  0.69443400  1
  Ni  Ni4  1  0.77814800  0.29487000  0.89720600  1
  Ni  Ni5  1  0.37089900  0.82210300  0.36970500  1
  Ni  Ni6  1  0.36101300  0.59753500  0.19443400  1
  Ni  Ni7  1  0.22185200  0.70513000  0.39720600  1
  Ni  Ni8  1  0.67471500  0.31541600  0.79783000  1
  Ni  Ni9  1  0.32528500  0.68458400  0.29783000  1
  C  C10  1  0.92258400  0.12791200  0.25180100  1
  C  C11  1  0.22574000  0.09262300  0.25159700  1
  C  C12  1  0.85277400  0.78320300  0.25125400  1
  C  C13  1  0.07741600  0.87208800  0.75180100  1
  C  C14  1  0.77426000  0.90737700  0.75159700  1
  C  C15  1  0.14722600  0.21679700  0.75125400  1
  Cu  Cu16  1  0.60590300  0.47162100  0.60021500  1
  Cu  Cu17  1  0.39409700  0.52837900  0.10021500  1
