# generated using pymatgen
data_CuNi3C16
_symmetry_space_group_name_H-M   'P 1'
_cell_length_a   7.75153000
_cell_length_b   7.75680500
_cell_length_c   7.80028400
_cell_angle_alpha   89.99916998
_cell_angle_beta   90.00000000
_cell_angle_gamma   90.00000000
_symmetry_Int_Tables_number   1
_chemical_formula_structural   CuNi3C16
_chemical_formula_sum   'Cu2 Ni6 C32'
_cell_volume   469.00850806
_cell_formula_units_Z   2
loop_
 _symmetry_equiv_pos_site_id
 _symmetry_equiv_pos_as_xyz
  1  'x, y, z'
loop_
 _atom_site_type_symbol
 _atom_site_label
 _atom_site_symmetry_multiplicity
 _atom_site_fract_x
 _atom_site_fract_y
 _atom_site_fract_z
 _atom_site_occupancy
  Ni  Ni0  1  0.25062200  0.74951900  0.25100600  1
  Ni  Ni1  1  0.25052300  0.25049800  0.25096400  1
  Ni  Ni2  1  0.74947600  0.25058800  0.25108900  1
  Ni  Ni3  1  0.25052300  0.74950200  0.74903600  1
  Ni  Ni4  1  0.25062200  0.25048100  0.74899400  1
  Ni  Ni5  1  0.74947600  0.74941200  0.74891100  1
  Cu  Cu6  1  0.74918600  0.74922900  0.25141500  1
  Cu  Cu7  1  0.74918600  0.25077100  0.74858500  1
  C  C8  1  0.50138100  0.50000000  0.00000000  1
  C  C9  1  0.99876900  0.00000000  0.50000000  1
  C  C10  1  0.99843900  0.50000000  0.50000000  1
  C  C11  1  0.50143900  0.00000000  0.50000000  1
  C  C12  1  0.50127100  0.50000000  0.50000000  1
  C  C13  1  0.99853800  0.00000000  0.00000000  1
  C  C14  1  0.99847400  0.50000000  0.00000000  1
  C  C15  1  0.50132600  0.00000000  0.00000000  1
  C  C16  1  0.99643700  0.99776000  0.25273500  1
  C  C17  1  0.99661900  0.50217800  0.25452100  1
  C  C18  1  0.50340100  0.99781700  0.25450700  1
  C  C19  1  0.50372700  0.50276800  0.25075700  1
  C  C20  1  0.99643700  0.00224000  0.74726500  1
  C  C21  1  0.99661900  0.49782200  0.74547900  1
  C  C22  1  0.50340100  0.00218300  0.74549300  1
  C  C23  1  0.50372700  0.49723200  0.74924300  1
  C  C24  1  0.24810300  0.00000000  0.00000000  1
  C  C25  1  0.25281600  0.50000000  0.00000000  1
  C  C26  1  0.75174900  0.00000000  0.00000000  1
  C  C27  1  0.74702100  0.50000000  0.00000000  1
  C  C28  1  0.24969400  0.00000000  0.50000000  1
  C  C29  1  0.25047400  0.50000000  0.50000000  1
  C  C30  1  0.75035800  0.00000000  0.50000000  1
  C  C31  1  0.74963100  0.50000000  0.50000000  1
  C  C32  1  0.99673600  0.75185700  0.00200900  1
  C  C33  1  0.99673600  0.24814300  0.99799100  1
  C  C34  1  0.50339200  0.74712300  0.00210100  1
  C  C35  1  0.50339200  0.25287700  0.99789900  1
  C  C36  1  0.99648400  0.75033600  0.49732100  1
  C  C37  1  0.99648400  0.24966400  0.50267900  1
  C  C38  1  0.50365300  0.74957400  0.49712600  1
  C  C39  1  0.50365300  0.25042600  0.50287400  1
