# generated using pymatgen
data_Cu(Ni2C)2
_symmetry_space_group_name_H-M   'P 1'
_cell_length_a   7.89047335
_cell_length_b   7.89047335
_cell_length_c   7.89047335
_cell_angle_alpha   95.95934978
_cell_angle_beta   95.95934978
_cell_angle_gamma   142.40607325
_symmetry_Int_Tables_number   1
_chemical_formula_structural   Cu(Ni2C)2
_chemical_formula_sum   'Cu2 Ni8 C4'
_cell_volume   283.71317069
_cell_formula_units_Z   2
loop_
 _symmetry_equiv_pos_site_id
 _symmetry_equiv_pos_as_xyz
  1  'x, y, z'
loop_
 _atom_site_type_symbol
 _atom_site_label
 _atom_site_symmetry_multiplicity
 _atom_site_fract_x
 _atom_site_fract_y
 _atom_site_fract_z
 _atom_site_occupancy
  Ni  Ni0  1  0.08005200  0.19235000  0.27240200  1
  Ni  Ni1  1  0.91994800  0.80765000  0.72759800  1
  Ni  Ni2  1  0.80765000  0.08005200  0.88770100  1
  Ni  Ni3  1  0.41994800  0.69235000  0.11229900  1
  Ni  Ni4  1  0.19235000  0.91994800  0.11229900  1
  Ni  Ni5  1  0.58005200  0.30765000  0.88770100  1
  Ni  Ni6  1  0.69235000  0.58005200  0.27240200  1
  Ni  Ni7  1  0.30765000  0.41994800  0.72759800  1
  Cu  Cu8  1  0.25000000  0.25000000  0.00000000  1
  Cu  Cu9  1  0.75000000  0.75000000  0.00000000  1
  C  C10  1  0.13908200  0.63908200  0.77816300  1
  C  C11  1  0.86091800  0.36091800  0.22183700  1
  C  C12  1  0.36091800  0.13908200  0.50000000  1
  C  C13  1  0.63908200  0.86091800  0.50000000  1
