# generated using pymatgen
data_CuNiC2
_symmetry_space_group_name_H-M   'P 1'
_cell_length_a   14.94191968
_cell_length_b   13.86546859
_cell_length_c   13.86546855
_cell_angle_alpha   58.20850489
_cell_angle_beta   57.39680850
_cell_angle_gamma   57.39680684
_symmetry_Int_Tables_number   1
_chemical_formula_structural   CuNiC2
_chemical_formula_sum   'Cu1 Ni1 C2'
_cell_volume   1922.07919474
_cell_formula_units_Z   1
loop_
 _symmetry_equiv_pos_site_id
 _symmetry_equiv_pos_as_xyz
  1  'x, y, z'
loop_
 _atom_site_type_symbol
 _atom_site_label
 _atom_site_symmetry_multiplicity
 _atom_site_fract_x
 _atom_site_fract_y
 _atom_site_fract_z
 _atom_site_occupancy
  Ni  Ni0  1  0.50000000  0.00000000  -0.00000000  1
  Cu  Cu1  1  0.00000000  0.00000000  -0.00000000  1
  C  C2  1  0.75372393  1.00000000  0.00000000  1
  C  C3  1  0.24627607  0.00000000  -0.00000000  1
