# generated using pymatgen
data_Cu4Ni4C
_symmetry_space_group_name_H-M   'P 1'
_cell_length_a   4.97029000
_cell_length_b   5.66587667
_cell_length_c   6.20829283
_cell_angle_alpha   85.59443350
_cell_angle_beta   68.27006076
_cell_angle_gamma   70.75441873
_symmetry_Int_Tables_number   1
_chemical_formula_structural   Cu4Ni4C
_chemical_formula_sum   'Cu4 Ni4 C1'
_cell_volume   153.12812072
_cell_formula_units_Z   1
loop_
 _symmetry_equiv_pos_site_id
 _symmetry_equiv_pos_as_xyz
  1  'x, y, z'
loop_
 _atom_site_type_symbol
 _atom_site_label
 _atom_site_symmetry_multiplicity
 _atom_site_fract_x
 _atom_site_fract_y
 _atom_site_fract_z
 _atom_site_occupancy
  Ni  Ni0  1  0.67022000  0.77561600  0.22638100  1
  Ni  Ni1  1  0.23746300  0.34375300  0.43228800  1
  Ni  Ni2  1  0.35884000  0.59448300  0.88089700  1
  Ni  Ni3  1  0.84426200  0.97282600  0.68936100  1
  Cu  Cu4  1  0.15994200  0.01516900  0.31871400  1
  Cu  Cu5  1  0.62157300  0.41102200  0.12206100  1
  Cu  Cu6  1  0.76643500  0.64220300  0.56357600  1
  Cu  Cu7  1  0.34135500  0.22699900  0.75871200  1
  C  C8  1  0.99981000  0.99972900  0.99951100  1
