# generated using pymatgen
data_CuNiC29
_symmetry_space_group_name_H-M   'P 1'
_cell_length_a   4.23986000
_cell_length_b   8.94921700
_cell_length_c   9.59816700
_cell_angle_alpha   90.00000000
_cell_angle_beta   90.00000000
_cell_angle_gamma   90.00000000
_symmetry_Int_Tables_number   1
_chemical_formula_structural   CuNiC29
_chemical_formula_sum   'Cu1 Ni1 C29'
_cell_volume   364.18735072
_cell_formula_units_Z   1
loop_
 _symmetry_equiv_pos_site_id
 _symmetry_equiv_pos_as_xyz
  1  'x, y, z'
loop_
 _atom_site_type_symbol
 _atom_site_label
 _atom_site_symmetry_multiplicity
 _atom_site_fract_x
 _atom_site_fract_y
 _atom_site_fract_z
 _atom_site_occupancy
  Ni  Ni0  1  0.00000000  0.50000000  0.88390100  1
  Cu  Cu1  1  0.00000000  0.00000000  0.05505200  1
  C  C2  1  0.00000000  0.00000000  0.51353600  1
  C  C3  1  0.00000000  0.50000000  0.47303700  1
  C  C4  1  0.50000000  0.74996800  0.99106600  1
  C  C5  1  0.50000000  0.25003200  0.99106600  1
  C  C6  1  0.50000000  0.74213600  0.49972100  1
  C  C7  1  0.50000000  0.25786400  0.49972100  1
  C  C8  1  0.50000000  0.00000000  0.73839800  1
  C  C9  1  0.50000000  0.50000000  0.70217100  1
  C  C10  1  0.50000000  0.00000000  0.30451300  1
  C  C11  1  0.50000000  0.50000000  0.23206700  1
  C  C12  1  0.00000000  0.78300600  0.74708900  1
  C  C13  1  0.00000000  0.21699400  0.74708900  1
  C  C14  1  0.00000000  0.73271700  0.23329700  1
  C  C15  1  0.00000000  0.26728300  0.23329700  1
  C  C16  1  0.00000000  0.00000000  0.72026700  1
  C  C17  1  0.00000000  0.00000000  0.31254200  1
  C  C18  1  0.00000000  0.50000000  0.27007000  1
  C  C19  1  0.50000000  0.72666000  0.74865200  1
  C  C20  1  0.50000000  0.27334000  0.74865200  1
  C  C21  1  0.50000000  0.75595600  0.26694100  1
  C  C22  1  0.50000000  0.24404400  0.26694100  1
  C  C23  1  0.50000000  0.00000000  0.93725400  1
  C  C24  1  0.50000000  0.50000000  0.02674200  1
  C  C25  1  0.50000000  0.00000000  0.51930100  1
  C  C26  1  0.50000000  0.50000000  0.50054100  1
  C  C27  1  0.00000000  0.73566000  0.01098000  1
  C  C28  1  0.00000000  0.26434000  0.01098000  1
  C  C29  1  0.00000000  0.72720300  0.53255700  1
  C  C30  1  0.00000000  0.27279700  0.53255700  1
