# generated using pymatgen
data_CuNi149
_symmetry_space_group_name_H-M   'P 1'
_cell_length_a   15.91098348
_cell_length_b   15.91108833
_cell_length_c   15.59156761
_cell_angle_alpha   90.00000000
_cell_angle_beta   90.00000000
_cell_angle_gamma   120.00021801
_symmetry_Int_Tables_number   1
_chemical_formula_structural   CuNi149
_chemical_formula_sum   'Cu1 Ni149'
_cell_volume   3418.34877162
_cell_formula_units_Z   1
loop_
 _symmetry_equiv_pos_site_id
 _symmetry_equiv_pos_as_xyz
  1  'x, y, z'
loop_
 _atom_site_type_symbol
 _atom_site_label
 _atom_site_symmetry_multiplicity
 _atom_site_fract_x
 _atom_site_fract_y
 _atom_site_fract_z
 _atom_site_occupancy
  Ni  Ni0  1  0.60159582  0.00018073  -0.00000000  1
  Ni  Ni1  1  0.39858187  0.00018135  -0.00000000  1
  Ni  Ni2  1  0.80465301  0.00030587  0.00000000  1
  Ni  Ni3  1  0.19565260  0.00030454  0.00000000  1
  Ni  Ni4  1  0.19565260  0.19534805  -0.00000000  1
  Ni  Ni5  1  0.99969465  0.19535033  0.00000000  1
  Ni  Ni6  1  0.59986216  0.19972595  -0.00000000  1
  Ni  Ni7  1  0.80025040  0.19975025  -0.00000000  1
  Ni  Ni8  1  0.39950158  0.19975029  0.00000000  1
  Ni  Ni9  1  0.39858187  0.39840152  0.00000000  1
  Ni  Ni10  1  0.99981926  0.39840097  0.00000000  1
  Ni  Ni11  1  0.19951503  0.39903075  -0.00000000  1
  Ni  Ni12  1  0.59986216  0.40013521  0.00000000  1
  Ni  Ni13  1  0.80027383  0.40013692  -0.00000000  1
  Ni  Ni14  1  0.40003446  0.59996594  0.00000000  1
  Ni  Ni15  1  0.19992988  0.59996444  -0.00000000  1
  Ni  Ni16  1  0.80025040  0.60050016  0.00000000  1
  Ni  Ni17  1  0.60159582  0.60141409  0.00000000  1
  Ni  Ni18  1  0.99981926  0.60141929  0.00000000  1
  Ni  Ni19  1  0.40003446  0.80006853  -0.00000000  1
  Ni  Ni20  1  0.60096605  0.80048353  0.00000000  1
  Ni  Ni21  1  0.19951503  0.80048428  0.00000000  1
  Ni  Ni22  1  0.80465301  0.80434614  -0.00000000  1
  Ni  Ni23  1  0.99969465  0.80434432  -0.00000000  1
  Ni  Ni24  1  0.06520780  0.13041655  0.16235110  1
  Ni  Ni25  1  0.06520780  0.93479124  0.16235110  1
  Ni  Ni26  1  0.86958058  0.93479029  0.16235008  1
  Ni  Ni27  1  0.26600455  0.33269141  0.16628581  1
  Ni  Ni28  1  0.06668651  0.33269098  0.16628618  1
  Ni  Ni29  1  0.66730800  0.73399587  0.16628606  1
  Ni  Ni30  1  0.06668651  0.73399652  0.16628618  1
  Ni  Ni31  1  0.26600455  0.93331315  0.16628581  1
  Ni  Ni32  1  0.66730800  0.93331213  0.16628606  1
  Ni  Ni33  1  0.06659261  0.53329631  0.16639894  1
  Ni  Ni34  1  0.46670510  0.53329687  0.16639937  1
  Ni  Ni35  1  0.46670510  0.93340823  0.16639937  1
  Ni  Ni36  1  0.26734275  0.13367138  0.16639767  1
  Ni  Ni37  1  0.86632939  0.13367190  0.16640163  1
  Ni  Ni38  1  0.86632939  0.73265749  0.16640163  1
  Ni  Ni39  1  0.26663041  0.53326077  0.16653902  1
  Ni  Ni40  1  0.46673925  0.73336913  0.16653887  1
  Ni  Ni41  1  0.26663041  0.73336964  0.16653902  1
  Ni  Ni42  1  0.66666932  0.33333416  0.16649978  1
  Ni  Ni43  1  0.46671210  0.13345169  0.16669872  1
  Ni  Ni44  1  0.66674148  0.13345299  0.16670056  1
  Ni  Ni45  1  0.46671210  0.33326041  0.16669872  1
  Ni  Ni46  1  0.86654837  0.33325952  0.16670046  1
  Ni  Ni47  1  0.86654837  0.53328885  0.16670046  1
  Ni  Ni48  1  0.66674148  0.53328750  0.16670056  1
  Ni  Ni49  1  0.19935264  0.19957004  0.33203804  1
  Ni  Ni50  1  0.00021925  0.19956906  0.33203903  1
  Ni  Ni51  1  0.00021925  0.80065019  0.33203903  1
  Ni  Ni52  1  0.80043166  0.80064972  0.33204054  1
  Ni  Ni53  1  0.80043166  0.99978194  0.33204054  1
  Ni  Ni54  1  0.19935264  0.99978260  0.33203804  1
  Ni  Ni55  1  0.99999930  0.99999965  0.33309971  1
  Ni  Ni56  1  0.60023291  0.99989134  0.33304830  1
  Ni  Ni57  1  0.39966082  0.99989149  0.33304909  1
  Ni  Ni58  1  0.00010871  0.39976582  0.33304648  1
  Ni  Ni59  1  0.39966082  0.39976833  0.33304909  1
  Ni  Ni60  1  0.00010871  0.60034289  0.33304648  1
  Ni  Ni61  1  0.60023291  0.60034157  0.33304830  1
  Ni  Ni62  1  0.20003279  0.40006555  0.33335516  1
  Ni  Ni63  1  0.59993214  0.79996657  0.33335600  1
  Ni  Ni64  1  0.20003279  0.79996724  0.33335516  1
  Ni  Ni65  1  0.59987215  0.19974580  0.33329705  1
  Ni  Ni66  1  0.80025664  0.40012832  0.33329715  1
  Ni  Ni67  1  0.59987215  0.40012636  0.33329705  1
  Ni  Ni68  1  0.19995859  0.59997930  0.33332567  1
  Ni  Ni69  1  0.40002369  0.59998069  0.33332690  1
  Ni  Ni70  1  0.40002369  0.80004301  0.33332690  1
  Ni  Ni71  1  0.80010387  0.19989328  0.33345512  1
  Ni  Ni72  1  0.39978924  0.19989512  0.33345632  1
  Ni  Ni73  1  0.80010387  0.60021058  0.33345512  1
  Ni  Ni74  1  0.26635655  0.13317827  0.50000000  1
  Ni  Ni75  1  0.86682039  0.13317902  0.50000000  1
  Ni  Ni76  1  0.06659147  0.13318534  0.50000000  1
  Ni  Ni77  1  0.46674755  0.13356789  0.50000000  1
  Ni  Ni78  1  0.66682119  0.13356747  0.50000000  1
  Ni  Ni79  1  0.06643263  0.33290117  0.50000000  1
  Ni  Ni80  1  0.26647292  0.33290324  0.50000000  1
  Ni  Ni81  1  0.46674755  0.33317866  0.50000000  1
  Ni  Ni82  1  0.86643346  0.33317999  0.50000000  1
  Ni  Ni83  1  0.66666913  0.33333406  0.50000000  1
  Ni  Ni84  1  0.26652589  0.53305619  0.50000000  1
  Ni  Ni85  1  0.46695259  0.53304800  0.50000000  1
  Ni  Ni86  1  0.06609541  0.53304720  0.50000000  1
  Ni  Ni87  1  0.66682119  0.53325372  0.50000000  1
  Ni  Ni88  1  0.86643346  0.53325347  0.50000000  1
  Ni  Ni89  1  0.46694497  0.73347249  0.50000000  1
  Ni  Ni90  1  0.26652589  0.73346870  0.50000000  1
  Ni  Ni91  1  0.66709576  0.73352634  0.50000000  1
  Ni  Ni92  1  0.06643263  0.73353046  0.50000000  1
  Ni  Ni93  1  0.86682039  0.73364237  0.50000000  1
  Ni  Ni94  1  0.06659147  0.93340613  0.50000000  1
  Ni  Ni95  1  0.86681226  0.93340613  0.50000000  1
  Ni  Ni96  1  0.26647292  0.93356968  0.50000000  1
  Ni  Ni97  1  0.66709576  0.93356943  0.50000000  1
  Ni  Ni98  1  0.46695259  0.93390459  0.50000000  1
  Ni  Ni99  1  0.80010387  0.19989328  0.66654488  1
  Ni  Ni100  1  0.39978924  0.19989512  0.66654368  1
  Ni  Ni101  1  0.80010387  0.60021058  0.66654488  1
  Ni  Ni102  1  0.19995859  0.59997930  0.66667433  1
  Ni  Ni103  1  0.40002369  0.59998069  0.66667310  1
  Ni  Ni104  1  0.40002369  0.80004301  0.66667310  1
  Ni  Ni105  1  0.59987215  0.19974580  0.66670295  1
  Ni  Ni106  1  0.80025664  0.40012832  0.66670285  1
  Ni  Ni107  1  0.59987215  0.40012636  0.66670295  1
  Ni  Ni108  1  0.20003279  0.40006555  0.66664484  1
  Ni  Ni109  1  0.59993214  0.79996657  0.66664400  1
  Ni  Ni110  1  0.20003279  0.79996724  0.66664484  1
  Ni  Ni111  1  0.60023291  0.99989134  0.66695170  1
  Ni  Ni112  1  0.39966082  0.99989149  0.66695091  1
  Ni  Ni113  1  0.00010871  0.39976582  0.66695352  1
  Ni  Ni114  1  0.39966082  0.39976833  0.66695091  1
  Ni  Ni115  1  0.00010871  0.60034289  0.66695352  1
  Ni  Ni116  1  0.60023291  0.60034157  0.66695170  1
  Ni  Ni117  1  0.99999930  0.99999965  0.66690029  1
  Ni  Ni118  1  0.19935264  0.19957004  0.66796196  1
  Ni  Ni119  1  0.00021925  0.19956906  0.66796097  1
  Ni  Ni120  1  0.00021925  0.80065019  0.66796097  1
  Ni  Ni121  1  0.80043166  0.80064972  0.66795946  1
  Ni  Ni122  1  0.80043166  0.99978194  0.66795946  1
  Ni  Ni123  1  0.19935264  0.99978260  0.66796196  1
  Ni  Ni124  1  0.46671210  0.13345169  0.83330128  1
  Ni  Ni125  1  0.66674148  0.13345299  0.83329944  1
  Ni  Ni126  1  0.46671210  0.33326041  0.83330128  1
  Ni  Ni127  1  0.86654837  0.33325952  0.83329954  1
  Ni  Ni128  1  0.86654837  0.53328885  0.83329954  1
  Ni  Ni129  1  0.66674148  0.53328750  0.83329944  1
  Ni  Ni130  1  0.66666932  0.33333416  0.83350022  1
  Ni  Ni131  1  0.26663041  0.53326077  0.83346098  1
  Ni  Ni132  1  0.46673925  0.73336913  0.83346113  1
  Ni  Ni133  1  0.26663041  0.73336964  0.83346098  1
  Ni  Ni134  1  0.26734275  0.13367138  0.83360233  1
  Ni  Ni135  1  0.86632939  0.13367190  0.83359837  1
  Ni  Ni136  1  0.86632939  0.73265749  0.83359837  1
  Ni  Ni137  1  0.06659261  0.53329631  0.83360106  1
  Ni  Ni138  1  0.46670510  0.53329687  0.83360063  1
  Ni  Ni139  1  0.46670510  0.93340823  0.83360063  1
  Ni  Ni140  1  0.26600455  0.33269141  0.83371419  1
  Ni  Ni141  1  0.06668651  0.33269098  0.83371382  1
  Ni  Ni142  1  0.66730800  0.73399587  0.83371394  1
  Ni  Ni143  1  0.06668651  0.73399652  0.83371382  1
  Ni  Ni144  1  0.26600455  0.93331315  0.83371419  1
  Ni  Ni145  1  0.66730800  0.93331213  0.83371394  1
  Ni  Ni146  1  0.06520780  0.13041655  0.83764890  1
  Ni  Ni147  1  0.06520780  0.93479124  0.83764890  1
  Ni  Ni148  1  0.86958058  0.93479029  0.83764992  1
  Cu  Cu149  1  0.99999538  0.99999769  0.00000000  1
