# generated using pymatgen
data_CuNi2C7
_symmetry_space_group_name_H-M   'P 1'
_cell_length_a   8.42381569
_cell_length_b   8.42381569
_cell_length_c   8.42381569
_cell_angle_alpha   90.00000000
_cell_angle_beta   90.00000000
_cell_angle_gamma   90.00000000
_symmetry_Int_Tables_number   1
_chemical_formula_structural   CuNi2C7
_chemical_formula_sum   'Cu4 Ni8 C28'
_cell_volume   597.75961188
_cell_formula_units_Z   4
loop_
 _symmetry_equiv_pos_site_id
 _symmetry_equiv_pos_as_xyz
  1  'x, y, z'
loop_
 _atom_site_type_symbol
 _atom_site_label
 _atom_site_symmetry_multiplicity
 _atom_site_fract_x
 _atom_site_fract_y
 _atom_site_fract_z
 _atom_site_occupancy
  Ni  Ni0  1  0.50000000  0.50000000  0.50000000  1
  Ni  Ni1  1  0.00000000  -0.00000000  -0.00000000  1
  Ni  Ni2  1  0.00000000  -0.00000000  0.50000000  1
  Ni  Ni3  1  0.00000000  0.50000000  -0.00000000  1
  Ni  Ni4  1  0.50000000  -0.00000000  -0.00000000  1
  Ni  Ni5  1  0.50000000  0.50000000  -0.00000000  1
  Ni  Ni6  1  0.50000000  -0.00000000  0.50000000  1
  Ni  Ni7  1  0.00000000  0.50000000  0.50000000  1
  Cu  Cu8  1  0.25000000  0.25000000  0.25000000  1
  Cu  Cu9  1  0.25000000  0.75000000  0.75000000  1
  Cu  Cu10  1  0.75000000  0.25000000  0.75000000  1
  Cu  Cu11  1  0.75000000  0.75000000  0.25000000  1
  C  C12  1  0.75000000  0.75000000  0.75000000  1
  C  C13  1  0.75000000  0.25000000  0.25000000  1
  C  C14  1  0.25000000  0.75000000  0.25000000  1
  C  C15  1  0.25000000  0.25000000  0.75000000  1
  C  C16  1  0.23853600  0.25965271  0.52171836  1
  C  C17  1  0.23853600  0.74034729  0.47828164  1
  C  C18  1  0.76146400  0.25965271  0.47828164  1
  C  C19  1  0.76146400  0.74034729  0.52171836  1
  C  C20  1  0.25965271  0.52171836  0.23853600  1
  C  C21  1  0.74034729  0.47828164  0.23853600  1
  C  C22  1  0.25965271  0.47828164  0.76146400  1
  C  C23  1  0.74034729  0.52171836  0.76146400  1
  C  C24  1  0.52171836  0.23853600  0.25965271  1
  C  C25  1  0.47828164  0.23853600  0.74034729  1
  C  C26  1  0.47828164  0.76146400  0.25965271  1
  C  C27  1  0.52171836  0.76146400  0.74034729  1
  C  C28  1  0.26146400  0.24034729  0.97828164  1
  C  C29  1  0.26146400  0.75965271  0.02171836  1
  C  C30  1  0.73853600  0.24034729  0.02171836  1
  C  C31  1  0.73853600  0.75965271  0.97828164  1
  C  C32  1  0.24034729  0.97828164  0.26146400  1
  C  C33  1  0.75965271  0.02171836  0.26146400  1
  C  C34  1  0.24034729  0.02171836  0.73853600  1
  C  C35  1  0.75965271  0.97828164  0.73853600  1
  C  C36  1  0.97828164  0.26146400  0.24034729  1
  C  C37  1  0.02171836  0.26146400  0.75965271  1
  C  C38  1  0.02171836  0.73853600  0.24034729  1
  C  C39  1  0.97828164  0.73853600  0.75965271  1
