# generated using pymatgen
data_CuNiC
_symmetry_space_group_name_H-M   'P 1'
_cell_length_a   4.56228900
_cell_length_b   7.18720000
_cell_length_c   7.32130400
_cell_angle_alpha   90.00000000
_cell_angle_beta   90.00000000
_cell_angle_gamma   90.00000000
_symmetry_Int_Tables_number   1
_chemical_formula_structural   CuNiC
_chemical_formula_sum   'Cu4 Ni4 C4'
_cell_volume   240.06616949
_cell_formula_units_Z   4
loop_
 _symmetry_equiv_pos_site_id
 _symmetry_equiv_pos_as_xyz
  1  'x, y, z'
loop_
 _atom_site_type_symbol
 _atom_site_label
 _atom_site_symmetry_multiplicity
 _atom_site_fract_x
 _atom_site_fract_y
 _atom_site_fract_z
 _atom_site_occupancy
  C  C0  1  0.25000000  0.47835700  0.70215000  1
  C  C1  1  0.25000000  0.97835700  0.79785000  1
  C  C2  1  0.75000000  0.02164300  0.20215000  1
  C  C3  1  0.75000000  0.52164300  0.29785000  1
  Ni  Ni4  1  0.75000000  0.84084500  0.55913600  1
  Ni  Ni5  1  0.25000000  0.15915500  0.44086400  1
  Ni  Ni6  1  0.75000000  0.34084500  0.94086400  1
  Ni  Ni7  1  0.25000000  0.65915500  0.05913600  1
  Cu  Cu8  1  0.75000000  0.70363900  0.89277900  1
  Cu  Cu9  1  0.25000000  0.79636100  0.39277900  1
  Cu  Cu10  1  0.25000000  0.29636100  0.10722100  1
  Cu  Cu11  1  0.75000000  0.20363900  0.60722100  1
