# generated using pymatgen
data_Cu12Ni8C7
_symmetry_space_group_name_H-M   'P 1'
_cell_length_a   14.04805700
_cell_length_b   8.82029500
_cell_length_c   15.34275379
_cell_angle_alpha   81.16908384
_cell_angle_beta   90.00000000
_cell_angle_gamma   90.00000000
_symmetry_Int_Tables_number   1
_chemical_formula_structural   Cu12Ni8C7
_chemical_formula_sum   'Cu48 Ni32 C28'
_cell_volume   1878.55392827
_cell_formula_units_Z   4
loop_
 _symmetry_equiv_pos_site_id
 _symmetry_equiv_pos_as_xyz
  1  'x, y, z'
loop_
 _atom_site_type_symbol
 _atom_site_label
 _atom_site_symmetry_multiplicity
 _atom_site_fract_x
 _atom_site_fract_y
 _atom_site_fract_z
 _atom_site_occupancy
  C  C0  1  0.18698800  0.22552500  0.75789900  1
  C  C1  1  0.68698800  0.77447500  0.74210100  1
  C  C2  1  0.81301200  0.77447500  0.24210100  1
  C  C3  1  0.31301200  0.22552500  0.25789900  1
  C  C4  1  0.35286900  0.03702600  0.60909300  1
  C  C5  1  0.85286900  0.96297400  0.89090700  1
  C  C6  1  0.64713100  0.96297400  0.39090700  1
  C  C7  1  0.14713100  0.03702600  0.10909300  1
  C  C8  1  0.38618000  0.41075700  0.86879000  1
  C  C9  1  0.88618000  0.58924300  0.63121000  1
  C  C10  1  0.61382000  0.58924300  0.13121000  1
  C  C11  1  0.11382000  0.41075700  0.36879000  1
  C  C12  1  0.02516500  0.37494300  0.89402700  1
  C  C13  1  0.52516500  0.62505700  0.60597300  1
  C  C14  1  0.97483500  0.62505700  0.10597300  1
  C  C15  1  0.47483500  0.37494300  0.39402700  1
  C  C16  1  0.03108400  0.09178700  0.60372500  1
  C  C17  1  0.53108400  0.90821300  0.89627500  1
  C  C18  1  0.96891600  0.90821300  0.39627500  1
  C  C19  1  0.46891600  0.09178700  0.10372500  1
  C  C20  1  0.17204400  0.84547800  0.84218900  1
  C  C21  1  0.67204400  0.15452200  0.65781100  1
  C  C22  1  0.82795600  0.15452200  0.15781100  1
  C  C23  1  0.32795600  0.84547800  0.34218900  1
  C  C24  1  0.20088600  0.57519900  0.61208800  1
  C  C25  1  0.70088600  0.42480100  0.88791200  1
  C  C26  1  0.79911400  0.42480100  0.38791200  1
  C  C27  1  0.29911400  0.57519900  0.11208800  1
  Ni  Ni28  1  0.07419900  0.28562000  0.83470700  1
  Ni  Ni29  1  0.57419900  0.71438000  0.66529300  1
  Ni  Ni30  1  0.92580100  0.71438000  0.16529300  1
  Ni  Ni31  1  0.42580100  0.28562000  0.33470700  1
  Ni  Ni32  1  0.06804000  0.51770200  0.90761300  1
  Ni  Ni33  1  0.56804000  0.48229800  0.59238700  1
  Ni  Ni34  1  0.93196000  0.48229800  0.09238700  1
  Ni  Ni35  1  0.43196000  0.51770200  0.40761300  1
  Ni  Ni36  1  0.07664300  0.15611100  0.67567900  1
  Ni  Ni37  1  0.57664300  0.84388900  0.82432100  1
  Ni  Ni38  1  0.92335700  0.84388900  0.32432100  1
  Ni  Ni39  1  0.42335700  0.15611100  0.17567900  1
  Ni  Ni40  1  0.93174100  0.12619100  0.58921000  1
  Ni  Ni41  1  0.43174100  0.87380900  0.91079000  1
  Ni  Ni42  1  0.06825900  0.87380900  0.41079000  1
  Ni  Ni43  1  0.56825900  0.12619100  0.08921000  1
  Ni  Ni44  1  0.18911200  0.01045800  0.83802800  1
  Ni  Ni45  1  0.68911200  0.98954200  0.66197200  1
  Ni  Ni46  1  0.81088800  0.98954200  0.16197200  1
  Ni  Ni47  1  0.31088800  0.01045800  0.33802800  1
  Ni  Ni48  1  0.14276000  0.79348900  0.76176100  1
  Ni  Ni49  1  0.64276000  0.20651100  0.73823900  1
  Ni  Ni50  1  0.85724000  0.20651100  0.23823900  1
  Ni  Ni51  1  0.35724000  0.79348900  0.26176100  1
  Ni  Ni52  1  0.18442500  0.44409100  0.68146700  1
  Ni  Ni53  1  0.68442500  0.55590900  0.81853300  1
  Ni  Ni54  1  0.81557500  0.55590900  0.31853300  1
  Ni  Ni55  1  0.31557500  0.44409100  0.18146700  1
  Ni  Ni56  1  0.29170500  0.58505400  0.56862100  1
  Ni  Ni57  1  0.79170500  0.41494600  0.93137900  1
  Ni  Ni58  1  0.70829500  0.41494600  0.43137900  1
  Ni  Ni59  1  0.20829500  0.58505400  0.06862100  1
  Cu  Cu60  1  0.29497900  0.15770100  0.68320500  1
  Cu  Cu61  1  0.79497900  0.84229900  0.81679500  1
  Cu  Cu62  1  0.70502100  0.84229900  0.31679500  1
  Cu  Cu63  1  0.20502100  0.15770100  0.18320500  1
  Cu  Cu64  1  0.40660900  0.92320400  0.53860300  1
  Cu  Cu65  1  0.90660900  0.07679600  0.96139700  1
  Cu  Cu66  1  0.59339100  0.07679600  0.46139700  1
  Cu  Cu67  1  0.09339100  0.92320400  0.03860300  1
  Cu  Cu68  1  0.35624400  0.20171100  0.52785100  1
  Cu  Cu69  1  0.85624400  0.79828900  0.97214900  1
  Cu  Cu70  1  0.64375600  0.79828900  0.47214900  1
  Cu  Cu71  1  0.14375600  0.20171100  0.02785100  1
  Cu  Cu72  1  0.23796200  0.99241600  0.57400500  1
  Cu  Cu73  1  0.73796200  0.00758400  0.92599500  1
  Cu  Cu74  1  0.76203800  0.00758400  0.42599500  1
  Cu  Cu75  1  0.26203800  0.99241600  0.07400500  1
  Cu  Cu76  1  0.34652600  0.88165400  0.69617900  1
  Cu  Cu77  1  0.84652600  0.11834600  0.80382100  1
  Cu  Cu78  1  0.65347400  0.11834600  0.30382100  1
  Cu  Cu79  1  0.15347400  0.88165400  0.19617900  1
  Cu  Cu80  1  0.46345600  0.08990500  0.64991400  1
  Cu  Cu81  1  0.96345600  0.91009500  0.85008600  1
  Cu  Cu82  1  0.53654400  0.91009500  0.35008600  1
  Cu  Cu83  1  0.03654400  0.08990500  0.14991400  1
  Cu  Cu84  1  0.28464000  0.28999500  0.84549800  1
  Cu  Cu85  1  0.78464000  0.71000500  0.65450200  1
  Cu  Cu86  1  0.71536000  0.71000500  0.15450200  1
  Cu  Cu87  1  0.21536000  0.28999500  0.34549800  1
  Cu  Cu88  1  0.48268300  0.52453700  0.89144200  1
  Cu  Cu89  1  0.98268300  0.47546300  0.60855800  1
  Cu  Cu90  1  0.51731700  0.47546300  0.10855800  1
  Cu  Cu91  1  0.01731700  0.52453700  0.39144200  1
  Cu  Cu92  1  0.40593900  0.45284500  0.75395600  1
  Cu  Cu93  1  0.90593900  0.54715500  0.74604400  1
  Cu  Cu94  1  0.59406100  0.54715500  0.24604400  1
  Cu  Cu95  1  0.09406100  0.45284500  0.25395600  1
  Cu  Cu96  1  0.45918300  0.24642500  0.87512100  1
  Cu  Cu97  1  0.95918300  0.75357500  0.62487900  1
  Cu  Cu98  1  0.54081700  0.75357500  0.12487900  1
  Cu  Cu99  1  0.04081700  0.24642500  0.37512100  1
  Cu  Cu100  1  0.36019500  0.35955900  0.98258200  1
  Cu  Cu101  1  0.86019500  0.64044100  0.51741800  1
  Cu  Cu102  1  0.63980500  0.64044100  0.01741800  1
  Cu  Cu103  1  0.13980500  0.35955900  0.48258200  1
  Cu  Cu104  1  0.30620700  0.56570900  0.86320100  1
  Cu  Cu105  1  0.80620700  0.43429100  0.63679900  1
  Cu  Cu106  1  0.69379300  0.43429100  0.13679900  1
  Cu  Cu107  1  0.19379300  0.56570900  0.36320100  1
