# generated using pymatgen
data_Cu(NiC5)3
_symmetry_space_group_name_H-M   'P 1'
_cell_length_a   9.89948442
_cell_length_b   9.89948442
_cell_length_c   9.89948440
_cell_angle_alpha   34.13943714
_cell_angle_beta   34.13943714
_cell_angle_gamma   34.13944297
_symmetry_Int_Tables_number   1
_chemical_formula_structural   Cu(NiC5)3
_chemical_formula_sum   'Cu1 Ni3 C15'
_cell_volume   272.42610640
_cell_formula_units_Z   1
loop_
 _symmetry_equiv_pos_site_id
 _symmetry_equiv_pos_as_xyz
  1  'x, y, z'
loop_
 _atom_site_type_symbol
 _atom_site_label
 _atom_site_symmetry_multiplicity
 _atom_site_fract_x
 _atom_site_fract_y
 _atom_site_fract_z
 _atom_site_occupancy
  Ni  Ni0  1  0.71036300  0.71036300  0.71036300  1
  Ni  Ni1  1  0.28802000  0.28802000  0.28802000  1
  Ni  Ni2  1  0.13314000  0.13314000  0.13314000  1
  Cu  Cu3  1  0.85393800  0.85393800  0.85393800  1
  C  C4  1  0.57636200  0.57636200  0.57636200  1
  C  C5  1  0.42338500  0.42338500  0.42338500  1
  C  C6  1  0.99931500  0.99931500  0.99931500  1
  C  C7  1  0.20833100  0.71123100  0.20833100  1
  C  C8  1  0.20833100  0.20833100  0.71123100  1
  C  C9  1  0.71123100  0.20833100  0.20833100  1
  C  C10  1  0.79583100  0.28844600  0.79583100  1
  C  C11  1  0.79583100  0.79583100  0.28844600  1
  C  C12  1  0.28844600  0.79583100  0.79583100  1
  C  C13  1  0.37954900  0.87463900  0.37954900  1
  C  C14  1  0.37954900  0.37954900  0.87463900  1
  C  C15  1  0.87463900  0.37954900  0.37954900  1
  C  C16  1  0.62376500  0.12621000  0.62376500  1
  C  C17  1  0.62376500  0.62376500  0.12621000  1
  C  C18  1  0.12621000  0.62376500  0.62376500  1
