# generated using pymatgen
data_Cu3Ni5C32
_symmetry_space_group_name_H-M   'P 1'
_cell_length_a   7.71418600
_cell_length_b   7.71453125
_cell_length_c   7.75572800
_cell_angle_alpha   89.99896568
_cell_angle_beta   89.99976360
_cell_angle_gamma   89.98530941
_symmetry_Int_Tables_number   1
_chemical_formula_structural   Cu3Ni5C32
_chemical_formula_sum   'Cu3 Ni5 C32'
_cell_volume   461.55366542
_cell_formula_units_Z   1
loop_
 _symmetry_equiv_pos_site_id
 _symmetry_equiv_pos_as_xyz
  1  'x, y, z'
loop_
 _atom_site_type_symbol
 _atom_site_label
 _atom_site_symmetry_multiplicity
 _atom_site_fract_x
 _atom_site_fract_y
 _atom_site_fract_z
 _atom_site_occupancy
  C  C0  1  0.74961700  0.25034200  0.25085600  1
  C  C1  1  0.25041700  0.25037600  0.25064500  1
  C  C2  1  0.25049400  0.25035400  0.74931500  1
  C  C3  1  0.74955300  0.74962500  0.74928500  1
  C  C4  1  0.74927400  0.74944800  0.25103700  1
  C  C5  1  0.25073300  0.74944600  0.25132200  1
  C  C6  1  0.74928200  0.25054800  0.74878300  1
  C  C7  1  0.25059900  0.74947300  0.74873200  1
  Ni  Ni8  1  0.50004300  0.50128800  0.99996500  1
  Ni  Ni9  1  0.99994300  0.99884900  0.50006600  1
  Ni  Ni10  1  0.50005900  0.99858300  0.50007000  1
  Ni  Ni11  1  0.99995500  0.50142400  0.50006600  1
  Ni  Ni12  1  0.50006200  0.50118200  0.50008800  1
  Cu  Cu13  1  0.99996000  0.99865800  0.99995500  1
  Cu  Cu14  1  0.50003900  0.99866500  0.99996600  1
  Cu  Cu15  1  0.99996000  0.50128000  0.99997400  1
  C  C16  1  0.99994100  0.99453600  0.25250100  1
  C  C17  1  0.50003800  0.99474700  0.25429400  1
  C  C18  1  0.99994600  0.50520300  0.25431700  1
  C  C19  1  0.49998500  0.50610000  0.25073000  1
  C  C20  1  0.00010700  0.99869100  0.74750700  1
  C  C21  1  0.49993100  0.99876600  0.74568200  1
  C  C22  1  0.00008700  0.50121500  0.74567200  1
  C  C23  1  0.49999500  0.50089700  0.74923800  1
  C  C24  1  0.99811200  0.24834900  0.99807200  1
  C  C25  1  0.50203100  0.25266900  0.99797600  1
  C  C26  1  0.00170600  0.75161100  0.00175400  1
  C  C27  1  0.49814200  0.74716400  0.00186700  1
  C  C28  1  0.99736200  0.24957700  0.50249300  1
  C  C29  1  0.50265800  0.25029400  0.50265000  1
  C  C30  1  0.00256100  0.75046100  0.49765500  1
  C  C31  1  0.49740700  0.74976900  0.49744000  1
  C  C32  1  0.75162100  0.99871800  0.00007500  1
  C  C33  1  0.24837000  0.99510400  0.99996600  1
  C  C34  1  0.74724100  0.50127200  0.00007400  1
  C  C35  1  0.25276000  0.50514600  0.99995900  1
  C  C36  1  0.75042500  0.99929200  0.49994000  1
  C  C37  1  0.24956900  0.99410600  0.50004600  1
  C  C38  1  0.74973300  0.50076200  0.49994900  1
  C  C39  1  0.25028100  0.50600900  0.50001800  1
