# generated using pymatgen
data_Cu3Ni5C2
_symmetry_space_group_name_H-M   'P 1'
_cell_length_a   4.22621600
_cell_length_b   4.22621600
_cell_length_c   10.20863500
_cell_angle_alpha   90.00000000
_cell_angle_beta   90.00000000
_cell_angle_gamma   90.00000000
_symmetry_Int_Tables_number   1
_chemical_formula_structural   Cu3Ni5C2
_chemical_formula_sum   'Cu3 Ni5 C2'
_cell_volume   182.33542601
_cell_formula_units_Z   1
loop_
 _symmetry_equiv_pos_site_id
 _symmetry_equiv_pos_as_xyz
  1  'x, y, z'
loop_
 _atom_site_type_symbol
 _atom_site_label
 _atom_site_symmetry_multiplicity
 _atom_site_fract_x
 _atom_site_fract_y
 _atom_site_fract_z
 _atom_site_occupancy
  C  C0  1  0.50000000  0.00000000  0.74645900  1
  C  C1  1  0.00000000  0.50000000  0.25354100  1
  Ni  Ni2  1  0.00000000  0.50000000  0.86509800  1
  Ni  Ni3  1  0.50000000  0.00000000  0.37831900  1
  Ni  Ni4  1  0.50000000  0.00000000  0.13490200  1
  Ni  Ni5  1  0.00000000  0.50000000  0.62168100  1
  Ni  Ni6  1  0.50000000  0.50000000  0.00000000  1
  Cu  Cu7  1  0.00000000  0.00000000  0.50000000  1
  Cu  Cu8  1  0.00000000  0.00000000  0.00000000  1
  Cu  Cu9  1  0.50000000  0.50000000  0.50000000  1
