# generated using pymatgen
data_Cu6Ni3C
_symmetry_space_group_name_H-M   'P 1'
_cell_length_a   7.66670100
_cell_length_b   7.66670100
_cell_length_c   7.66670100
_cell_angle_alpha   90.00000000
_cell_angle_beta   90.00000000
_cell_angle_gamma   90.00000000
_symmetry_Int_Tables_number   1
_chemical_formula_structural   Cu6Ni3C
_chemical_formula_sum   'Cu24 Ni12 C4'
_cell_volume   450.63568377
_cell_formula_units_Z   4
loop_
 _symmetry_equiv_pos_site_id
 _symmetry_equiv_pos_as_xyz
  1  'x, y, z'
loop_
 _atom_site_type_symbol
 _atom_site_label
 _atom_site_symmetry_multiplicity
 _atom_site_fract_x
 _atom_site_fract_y
 _atom_site_fract_z
 _atom_site_occupancy
  C  C0  1  0.50000000  0.50000000  0.00000000  1
  C  C1  1  0.50000000  0.00000000  0.50000000  1
  C  C2  1  0.00000000  0.50000000  0.50000000  1
  C  C3  1  0.00000000  0.00000000  0.00000000  1
  Ni  Ni4  1  0.50000000  0.00000000  0.00000000  1
  Ni  Ni5  1  0.50000000  0.50000000  0.50000000  1
  Ni  Ni6  1  0.00000000  0.00000000  0.50000000  1
  Ni  Ni7  1  0.00000000  0.50000000  0.00000000  1
  Ni  Ni8  1  0.24699000  0.75301000  0.25301000  1
  Ni  Ni9  1  0.75301000  0.25301000  0.24699000  1
  Ni  Ni10  1  0.25301000  0.24699000  0.75301000  1
  Ni  Ni11  1  0.74699000  0.74699000  0.74699000  1
  Ni  Ni12  1  0.75301000  0.24699000  0.74699000  1
  Ni  Ni13  1  0.24699000  0.74699000  0.75301000  1
  Ni  Ni14  1  0.74699000  0.75301000  0.24699000  1
  Ni  Ni15  1  0.25301000  0.25301000  0.25301000  1
  Cu  Cu16  1  0.24434300  0.50215800  0.00312500  1
  Cu  Cu17  1  0.75565700  0.00215800  0.49687400  1
  Cu  Cu18  1  0.25565700  0.49784200  0.50312600  1
  Cu  Cu19  1  0.74434300  0.99784200  0.99687400  1
  Cu  Cu20  1  0.00312500  0.24434300  0.50215800  1
  Cu  Cu21  1  0.49687400  0.75565700  0.00215800  1
  Cu  Cu22  1  0.50312600  0.25565700  0.49784200  1
  Cu  Cu23  1  0.99687400  0.74434300  0.99784200  1
  Cu  Cu24  1  0.50215800  0.00312500  0.24434300  1
  Cu  Cu25  1  0.00215800  0.49687400  0.75565700  1
  Cu  Cu26  1  0.49784200  0.50312600  0.25565700  1
  Cu  Cu27  1  0.99784200  0.99687400  0.74434300  1
  Cu  Cu28  1  0.75565700  0.49784200  0.99687400  1
  Cu  Cu29  1  0.24434300  0.99784200  0.50312600  1
  Cu  Cu30  1  0.74434300  0.50215800  0.49687400  1
  Cu  Cu31  1  0.25565700  0.00215800  0.00312500  1
  Cu  Cu32  1  0.99687400  0.75565700  0.49784200  1
  Cu  Cu33  1  0.50312600  0.24434300  0.99784200  1
  Cu  Cu34  1  0.49687400  0.74434300  0.50215800  1
  Cu  Cu35  1  0.00312500  0.25565700  0.00215800  1
  Cu  Cu36  1  0.49784200  0.99687400  0.75565700  1
  Cu  Cu37  1  0.99784200  0.50312600  0.24434300  1
  Cu  Cu38  1  0.50215800  0.49687400  0.74434300  1
  Cu  Cu39  1  0.00215800  0.00312500  0.25565700  1
