# generated using pymatgen
data_CuNi13
_symmetry_space_group_name_H-M   'P 1'
_cell_length_a   6.67815933
_cell_length_b   6.67815933
_cell_length_c   5.15244908
_cell_angle_alpha   80.39565318
_cell_angle_beta   80.39565318
_cell_angle_gamma   69.40819508
_symmetry_Int_Tables_number   1
_chemical_formula_structural   CuNi13
_chemical_formula_sum   'Cu1 Ni13'
_cell_volume   210.63032942
_cell_formula_units_Z   1
loop_
 _symmetry_equiv_pos_site_id
 _symmetry_equiv_pos_as_xyz
  1  'x, y, z'
loop_
 _atom_site_type_symbol
 _atom_site_label
 _atom_site_symmetry_multiplicity
 _atom_site_fract_x
 _atom_site_fract_y
 _atom_site_fract_z
 _atom_site_occupancy
  Ni  Ni0  1  0.00000000  0.00000000  0.00000000  1
  Ni  Ni1  1  0.61839100  0.22151700  0.32071100  1
  Ni  Ni2  1  0.77848300  0.38160900  0.67928900  1
  Ni  Ni3  1  0.38160900  0.77848300  0.67928900  1
  Ni  Ni4  1  0.22151700  0.61839100  0.32071100  1
  Ni  Ni5  1  0.36138300  0.99726900  0.19781600  1
  Ni  Ni6  1  0.00273100  0.63861700  0.80218400  1
  Ni  Ni7  1  0.63861700  0.00273100  0.80218400  1
  Ni  Ni8  1  0.99726900  0.36138300  0.19781600  1
  Ni  Ni9  1  0.77605800  0.77605800  0.36941800  1
  Ni  Ni10  1  0.22394200  0.22394200  0.63058200  1
  Ni  Ni11  1  0.61246600  0.61246600  0.07133100  1
  Ni  Ni12  1  0.38753400  0.38753400  0.92866900  1
  Cu  Cu13  1  0.00000000  0.00000000  0.50000000  1
