# generated using pymatgen
data_CuNi4C19
_symmetry_space_group_name_H-M   'P 1'
_cell_length_a   5.85401802
_cell_length_b   8.46409045
_cell_length_c   10.12306591
_cell_angle_alpha   65.24315904
_cell_angle_beta   107.06365926
_cell_angle_gamma   90.31425531
_symmetry_Int_Tables_number   1
_chemical_formula_structural   CuNi4C19
_chemical_formula_sum   'Cu2 Ni8 C38'
_cell_volume   431.43714678
_cell_formula_units_Z   2
loop_
 _symmetry_equiv_pos_site_id
 _symmetry_equiv_pos_as_xyz
  1  'x, y, z'
loop_
 _atom_site_type_symbol
 _atom_site_label
 _atom_site_symmetry_multiplicity
 _atom_site_fract_x
 _atom_site_fract_y
 _atom_site_fract_z
 _atom_site_occupancy
  C  C0  1  0.83288300  0.16701100  0.16596300  1
  C  C1  1  0.33373600  0.66621700  0.16758300  1
  C  C2  1  0.33294500  0.16649100  0.66662900  1
  C  C3  1  0.83383700  0.66691200  0.66664600  1
  C  C4  1  0.33326500  0.16674100  0.16647500  1
  C  C5  1  0.83347400  0.66653200  0.16691400  1
  C  C6  1  0.16686300  0.33839500  0.32724200  1
  C  C7  1  0.66060100  0.83485600  0.32702100  1
  C  C8  1  0.00655700  0.49971000  0.00631100  1
  C  C9  1  0.49934600  0.99358000  0.00620100  1
  C  C10  1  0.99845000  0.00181600  0.49655600  1
  C  C11  1  0.49906700  0.50148400  0.49714000  1
  C  C12  1  0.16783400  0.83172100  0.83645100  1
  C  C13  1  0.66783000  0.33187900  0.83616900  1
  Ni  Ni14  1  0.50069300  0.50216300  0.00167300  1
  Ni  Ni15  1  0.00096200  0.99573700  0.00229900  1
  Ni  Ni16  1  0.16589600  0.83136200  0.33165100  1
  Ni  Ni17  1  0.66575500  0.33742500  0.33102600  1
  Ni  Ni18  1  0.49920100  0.00083100  0.49829400  1
  Ni  Ni19  1  0.99792900  0.50262700  0.49462000  1
  Ni  Ni20  1  0.66890500  0.83066500  0.83877400  1
  Ni  Ni21  1  0.16734800  0.33243200  0.83499700  1
  Cu  Cu22  1  0.83333100  0.16654300  0.66664600  1
  Cu  Cu23  1  0.33335500  0.66679700  0.66668000  1
  C  C24  1  0.36040100  0.42440700  0.16601700  1
  C  C25  1  0.85816500  0.92138300  0.16712900  1
  C  C26  1  0.80849100  0.41197700  0.16618600  1
  C  C27  1  0.30625000  0.90891600  0.16735500  1
  C  C28  1  0.35941900  0.91704900  0.66994400  1
  C  C29  1  0.85735300  0.41909500  0.66295900  1
  C  C30  1  0.30719400  0.41639400  0.66345600  1
  C  C31  1  0.80922700  0.91413100  0.67032400  1
  C  C32  1  0.18128500  0.05464400  0.34407700  1
  C  C33  1  0.68704700  0.56413900  0.34063700  1
  C  C34  1  0.51271900  0.73791100  0.99262800  1
  C  C35  1  0.00309100  0.23158200  0.98940500  1
  C  C36  1  0.15415900  0.59558000  0.34090200  1
  C  C37  1  0.66343100  0.10156900  0.34370700  1
  C  C38  1  0.48537200  0.27909500  0.98910200  1
  C  C39  1  0.97963500  0.76888700  0.99284600  1
  C  C40  1  0.51192400  0.26312900  0.48685500  1
  C  C41  1  0.00072500  0.73799000  0.48709300  1
  C  C42  1  0.67942100  0.05731300  0.84676300  1
  C  C43  1  0.18911100  0.58331500  0.84616800  1
  C  C44  1  0.98732000  0.27588300  0.48659300  1
  C  C45  1  0.47755700  0.75024900  0.48714400  1
  C  C46  1  0.15473600  0.06998200  0.84644600  1
  C  C47  1  0.66590400  0.59544600  0.84629700  1
