# generated using pymatgen
data_Cu9(Ni6C19)2
_symmetry_space_group_name_H-M   'P 1'
_cell_length_a   10.52102978
_cell_length_b   10.52102978
_cell_length_c   6.46155200
_cell_angle_alpha   90.00000000
_cell_angle_beta   90.00000000
_cell_angle_gamma   119.99999862
_symmetry_Int_Tables_number   1
_chemical_formula_structural   Cu9(Ni6C19)2
_chemical_formula_sum   'Cu9 Ni12 C38'
_cell_volume   619.41822766
_cell_formula_units_Z   1
loop_
 _symmetry_equiv_pos_site_id
 _symmetry_equiv_pos_as_xyz
  1  'x, y, z'
loop_
 _atom_site_type_symbol
 _atom_site_label
 _atom_site_symmetry_multiplicity
 _atom_site_fract_x
 _atom_site_fract_y
 _atom_site_fract_z
 _atom_site_occupancy
  C  C0  1  0.33333300  0.66666700  0.82885500  1
  C  C1  1  0.66666700  0.33333300  0.17114500  1
  Ni  Ni2  1  0.00000000  0.50000000  0.00000000  1
  Ni  Ni3  1  0.31917700  0.16095700  0.33676200  1
  Ni  Ni4  1  0.68082300  0.83904300  0.66323800  1
  Ni  Ni5  1  0.00000000  0.00000000  0.00000000  1
  Ni  Ni6  1  0.33333300  0.66666700  0.34105400  1
  Ni  Ni7  1  0.66666700  0.33333300  0.65894600  1
  Ni  Ni8  1  0.50000000  0.50000000  0.00000000  1
  Ni  Ni9  1  0.83904300  0.15822000  0.33676200  1
  Ni  Ni10  1  0.16095700  0.84178000  0.66323800  1
  Ni  Ni11  1  0.15822000  0.31917700  0.66323800  1
  Ni  Ni12  1  0.50000000  0.00000000  0.00000000  1
  Ni  Ni13  1  0.84178000  0.68082300  0.33676200  1
  Cu  Cu14  1  0.33687700  0.16837100  0.83840600  1
  Cu  Cu15  1  0.66312300  0.83162900  0.16159400  1
  Cu  Cu16  1  0.00000000  0.50000000  0.50000000  1
  Cu  Cu17  1  0.16850500  0.33687700  0.16159400  1
  Cu  Cu18  1  0.50000000  0.00000000  0.50000000  1
  Cu  Cu19  1  0.83149500  0.66312300  0.83840600  1
  Cu  Cu20  1  0.50000000  0.50000000  0.50000000  1
  Cu  Cu21  1  0.83162900  0.16850500  0.83840600  1
  Cu  Cu22  1  0.16837100  0.83149500  0.16159400  1
  C  C23  1  0.26980700  0.22522100  0.58867100  1
  C  C24  1  0.58881800  0.88160700  0.91311900  1
  C  C25  1  0.92337000  0.54905300  0.24915200  1
  C  C26  1  0.80704600  0.31669200  0.48244000  1
  C  C27  1  0.14828500  0.98338300  0.83042500  1
  C  C28  1  0.47291000  0.64963900  0.14574700  1
  C  C29  1  0.52709000  0.35036100  0.85425300  1
  C  C30  1  0.85171500  0.01661700  0.16957500  1
  C  C31  1  0.19295400  0.68330800  0.51756000  1
  C  C32  1  0.07663000  0.45094700  0.75084800  1
  C  C33  1  0.41118200  0.11839300  0.08688100  1
  C  C34  1  0.73019300  0.77477900  0.41132900  1
  C  C35  1  0.04458500  0.26980700  0.41132900  1
  C  C36  1  0.37431700  0.92337000  0.75084800  1
  C  C37  1  0.70721100  0.58881800  0.08688100  1
  C  C38  1  0.16490200  0.14828500  0.16957500  1
  C  C39  1  0.49035400  0.80704600  0.51756000  1
  C  C40  1  0.82327100  0.47291000  0.85425300  1
  C  C41  1  0.17672900  0.52709000  0.14574700  1
  C  C42  1  0.50964600  0.19295400  0.48244000  1
  C  C43  1  0.83509800  0.85171500  0.83042500  1
  C  C44  1  0.29278900  0.41118200  0.91311900  1
  C  C45  1  0.62568300  0.07663000  0.24915200  1
  C  C46  1  0.95541500  0.73019300  0.58867100  1
  C  C47  1  0.01661700  0.16490200  0.83042500  1
  C  C48  1  0.35036100  0.82327100  0.14574700  1
  C  C49  1  0.68330800  0.49035400  0.48244000  1
  C  C50  1  0.45094700  0.37431700  0.24915200  1
  C  C51  1  0.77477900  0.04458500  0.58867100  1
  C  C52  1  0.11839300  0.70721100  0.91311900  1
  C  C53  1  0.88160700  0.29278900  0.08688100  1
  C  C54  1  0.22522100  0.95541500  0.41132900  1
  C  C55  1  0.54905300  0.62568300  0.75084800  1
  C  C56  1  0.31669200  0.50964600  0.51756000  1
  C  C57  1  0.64963900  0.17672900  0.85425300  1
  C  C58  1  0.98338300  0.83509800  0.16957500  1
