# generated using pymatgen
data_Cu3Ni4
_symmetry_space_group_name_H-M   'P 1'
_cell_length_a   4.93037900
_cell_length_b   7.18132703
_cell_length_c   7.84765374
_cell_angle_alpha   94.84708795
_cell_angle_beta   96.34523565
_cell_angle_gamma   100.28080484
_symmetry_Int_Tables_number   1
_chemical_formula_structural   Cu3Ni4
_chemical_formula_sum   'Cu6 Ni8'
_cell_volume   270.17579139
_cell_formula_units_Z   2
loop_
 _symmetry_equiv_pos_site_id
 _symmetry_equiv_pos_as_xyz
  1  'x, y, z'
loop_
 _atom_site_type_symbol
 _atom_site_label
 _atom_site_symmetry_multiplicity
 _atom_site_fract_x
 _atom_site_fract_y
 _atom_site_fract_z
 _atom_site_occupancy
  Ni  Ni0  1  0.46219800  0.15791400  0.47506300  1
  Ni  Ni1  1  0.80837000  0.09516000  0.80504100  1
  Ni  Ni2  1  0.66020700  0.77968100  0.08195700  1
  Ni  Ni3  1  0.08000900  0.52318900  0.93841900  1
  Ni  Ni4  1  0.64734800  0.69462300  0.61156200  1
  Ni  Ni5  1  0.04110400  0.41326000  0.56678100  1
  Ni  Ni6  1  0.16642800  0.71311500  0.31471500  1
  Ni  Ni7  1  0.98463600  0.22827600  0.19938700  1
  Cu  Cu8  1  0.46991200  0.24551000  0.03909700  1
  Cu  Cu9  1  0.92089100  0.99926700  0.45971800  1
  Cu  Cu10  1  0.18381300  0.92307100  0.99795400  1
  Cu  Cu11  1  0.52347600  0.39290700  0.78348100  1
  Cu  Cu12  1  0.20898600  0.85181000  0.68755800  1
  Cu  Cu13  1  0.59247400  0.48217700  0.28916900  1
