# generated using pymatgen
data_Cu9Ni5C4
_symmetry_space_group_name_H-M   'P 1'
_cell_length_a   5.55992946
_cell_length_b   5.55992946
_cell_length_c   22.70880500
_cell_angle_alpha   90.00000000
_cell_angle_beta   90.00000000
_cell_angle_gamma   119.99999358
_symmetry_Int_Tables_number   1
_chemical_formula_structural   Cu9Ni5C4
_chemical_formula_sum   'Cu18 Ni10 C8'
_cell_volume   607.94389855
_cell_formula_units_Z   2
loop_
 _symmetry_equiv_pos_site_id
 _symmetry_equiv_pos_as_xyz
  1  'x, y, z'
loop_
 _atom_site_type_symbol
 _atom_site_label
 _atom_site_symmetry_multiplicity
 _atom_site_fract_x
 _atom_site_fract_y
 _atom_site_fract_z
 _atom_site_occupancy
  C  C0  1  0.33333300  0.66666700  0.52762100  1
  C  C1  1  0.66666700  0.33333300  0.47237900  1
  C  C2  1  0.66666700  0.33333300  0.02762100  1
  C  C3  1  0.33333300  0.66666700  0.97237900  1
  C  C4  1  0.33333300  0.66666700  0.67383000  1
  C  C5  1  0.66666700  0.33333300  0.32617000  1
  C  C6  1  0.66666700  0.33333300  0.17383000  1
  C  C7  1  0.33333300  0.66666700  0.82617000  1
  Ni  Ni8  1  0.00000000  0.00000000  0.00000000  1
  Ni  Ni9  1  0.00000000  0.00000000  0.50000000  1
  Ni  Ni10  1  0.33333300  0.66666700  0.16814300  1
  Ni  Ni11  1  0.66666700  0.33333300  0.83185700  1
  Ni  Ni12  1  0.66666700  0.33333300  0.66814300  1
  Ni  Ni13  1  0.33333300  0.66666700  0.33185700  1
  Ni  Ni14  1  0.00000000  0.00000000  0.16727700  1
  Ni  Ni15  1  0.00000000  0.00000000  0.83272300  1
  Ni  Ni16  1  0.00000000  0.00000000  0.66727700  1
  Ni  Ni17  1  0.00000000  0.00000000  0.33272300  1
  Cu  Cu18  1  0.16752200  0.33504400  0.08778100  1
  Cu  Cu19  1  0.83247800  0.66495600  0.91221900  1
  Cu  Cu20  1  0.66495600  0.83247800  0.08778100  1
  Cu  Cu21  1  0.83247800  0.66495600  0.58778100  1
  Cu  Cu22  1  0.33504400  0.16752200  0.91221900  1
  Cu  Cu23  1  0.16752200  0.33504400  0.41221900  1
  Cu  Cu24  1  0.16752200  0.83247800  0.08778100  1
  Cu  Cu25  1  0.33504400  0.16752200  0.58778100  1
  Cu  Cu26  1  0.83247800  0.16752200  0.91221900  1
  Cu  Cu27  1  0.66495600  0.83247800  0.41221900  1
  Cu  Cu28  1  0.83247800  0.16752200  0.58778100  1
  Cu  Cu29  1  0.16752200  0.83247800  0.41221900  1
  Cu  Cu30  1  0.16647300  0.33294500  0.25000000  1
  Cu  Cu31  1  0.83352700  0.66705500  0.75000000  1
  Cu  Cu32  1  0.66705500  0.83352700  0.25000000  1
  Cu  Cu33  1  0.33294500  0.16647300  0.75000000  1
  Cu  Cu34  1  0.16647300  0.83352700  0.25000000  1
  Cu  Cu35  1  0.83352700  0.16647300  0.75000000  1
