# generated using pymatgen
data_Cu2Ni8C11
_symmetry_space_group_name_H-M   'P 1'
_cell_length_a   15.15521436
_cell_length_b   14.38721314
_cell_length_c   6.55300774
_cell_angle_alpha   83.83391511
_cell_angle_beta   70.70541479
_cell_angle_gamma   25.46067010
_symmetry_Int_Tables_number   1
_chemical_formula_structural   Cu2Ni8C11
_chemical_formula_sum   'Cu4 Ni16 C22'
_cell_volume   511.54670216
_cell_formula_units_Z   2
loop_
 _symmetry_equiv_pos_site_id
 _symmetry_equiv_pos_as_xyz
  1  'x, y, z'
loop_
 _atom_site_type_symbol
 _atom_site_label
 _atom_site_symmetry_multiplicity
 _atom_site_fract_x
 _atom_site_fract_y
 _atom_site_fract_z
 _atom_site_occupancy
  C  C0  1  0.26786700  0.23213300  0.26786700  1
  C  C1  1  0.01786700  0.98213300  0.01786700  1
  Ni  Ni2  1  0.49128900  0.58928900  0.88860300  1
  Ni  Ni3  1  0.88860300  0.03081900  0.49128900  1
  Ni  Ni4  1  0.21918100  0.36139700  0.66071100  1
  Ni  Ni5  1  0.66071100  0.75871100  0.21918100  1
  Ni  Ni6  1  0.50568400  0.52375700  0.88348300  1
  Ni  Ni7  1  0.88348300  0.08707600  0.50568400  1
  Ni  Ni8  1  0.16292400  0.36651700  0.72624300  1
  Ni  Ni9  1  0.72624300  0.74431600  0.16292400  1
  Ni  Ni10  1  0.16792300  0.17353800  0.05395300  1
  Ni  Ni11  1  0.05395300  0.60458500  0.16792300  1
  Ni  Ni12  1  0.64541500  0.19604700  0.07646200  1
  Ni  Ni13  1  0.07646200  0.08207700  0.64541500  1
  Ni  Ni14  1  0.41172200  0.99558500  0.84040600  1
  Ni  Ni15  1  0.84040600  0.75228700  0.41172200  1
  Ni  Ni16  1  0.49771300  0.40959400  0.25441500  1
  Ni  Ni17  1  0.25441500  0.83827800  0.49771300  1
  Cu  Cu18  1  0.78883100  0.52999800  0.68870700  1
  Cu  Cu19  1  0.68870700  0.99246400  0.78883100  1
  Cu  Cu20  1  0.25753600  0.56129300  0.72000200  1
  Cu  Cu21  1  0.72000200  0.46116900  0.25753600  1
  C  C22  1  0.78629900  0.61468800  0.61583600  1
  C  C23  1  0.61583600  0.98317600  0.78629900  1
  C  C24  1  0.26682400  0.63416400  0.63531200  1
  C  C25  1  0.63531200  0.46370100  0.26682400  1
  C  C26  1  0.03119100  0.26791400  0.63323200  1
  C  C27  1  0.63323200  0.06766400  0.03119100  1
  C  C28  1  0.18233600  0.61676800  0.98208600  1
  C  C29  1  0.98208600  0.21880900  0.18233600  1
  C  C30  1  0.62566400  0.62302400  0.79537700  1
  C  C31  1  0.79537700  0.95593500  0.62566400  1
  C  C32  1  0.29406500  0.45462300  0.62697600  1
  C  C33  1  0.62697600  0.62433600  0.29406500  1
  C  C34  1  0.17908900  0.70084300  0.07978900  1
  C  C35  1  0.07978900  0.04028000  0.17908900  1
  C  C36  1  0.20972000  0.17021100  0.54915700  1
  C  C37  1  0.54915700  0.07091100  0.20972000  1
  C  C38  1  0.26702000  0.13841500  0.00303600  1
  C  C39  1  0.00303600  0.59152800  0.26702000  1
  C  C40  1  0.65847200  0.24696400  0.11158500  1
  C  C41  1  0.11158500  0.98298000  0.65847200  1
