# generated using pymatgen
data_Cu(NiC6)2
_symmetry_space_group_name_H-M   'P 1'
_cell_length_a   5.43494200
_cell_length_b   5.43494200
_cell_length_c   7.65096126
_cell_angle_alpha   73.39172123
_cell_angle_beta   73.39172123
_cell_angle_gamma   76.24619304
_symmetry_Int_Tables_number   1
_chemical_formula_structural   Cu(NiC6)2
_chemical_formula_sum   'Cu1 Ni2 C12'
_cell_volume   204.51662903
_cell_formula_units_Z   1
loop_
 _symmetry_equiv_pos_site_id
 _symmetry_equiv_pos_as_xyz
  1  'x, y, z'
loop_
 _atom_site_type_symbol
 _atom_site_label
 _atom_site_symmetry_multiplicity
 _atom_site_fract_x
 _atom_site_fract_y
 _atom_site_fract_z
 _atom_site_occupancy
  Ni  Ni0  1  0.50000000  0.00000000  0.50000000  1
  Ni  Ni1  1  0.00000000  0.50000000  0.50000000  1
  C  C2  1  0.56775900  0.56775900  0.22403100  1
  C  C3  1  0.43224100  0.43224100  0.77596900  1
  Cu  Cu4  1  0.00000000  0.00000000  0.00000000  1
  C  C5  1  0.92126300  0.92126300  0.55044200  1
  C  C6  1  0.07873700  0.07873700  0.44955800  1
  C  C7  1  0.28486900  0.28486900  0.99698700  1
  C  C8  1  0.71513100  0.71513100  0.00301300  1
  C  C9  1  0.65621300  0.23105200  0.25913600  1
  C  C10  1  0.34378700  0.76894800  0.74086400  1
  C  C11  1  0.76894800  0.34378700  0.74086400  1
  C  C12  1  0.23105200  0.65621300  0.25913600  1
  C  C13  1  0.67777900  0.67777900  0.37959400  1
  C  C14  1  0.32222100  0.32222100  0.62040600  1
