# generated using pymatgen
data_Cu38Ni3C22
_symmetry_space_group_name_H-M   'P 1'
_cell_length_a   6.53879277
_cell_length_b   10.68058269
_cell_length_c   22.90875286
_cell_angle_alpha   98.81253774
_cell_angle_beta   90.00000000
_cell_angle_gamma   90.00000000
_symmetry_Int_Tables_number   1
_chemical_formula_structural   Cu38Ni3C22
_chemical_formula_sum   'Cu76 Ni6 C44'
_cell_volume   1581.01710037
_cell_formula_units_Z   2
loop_
 _symmetry_equiv_pos_site_id
 _symmetry_equiv_pos_as_xyz
  1  'x, y, z'
loop_
 _atom_site_type_symbol
 _atom_site_label
 _atom_site_symmetry_multiplicity
 _atom_site_fract_x
 _atom_site_fract_y
 _atom_site_fract_z
 _atom_site_occupancy
  C  C0  1  0.12086385  0.57596004  0.15129188  1
  C  C1  1  0.12086385  0.42403996  0.34870812  1
  C  C2  1  0.87913615  0.42403996  0.84870812  1
  C  C3  1  0.87913615  0.57596004  0.65129188  1
  C  C4  1  0.60409799  0.05982161  0.13954638  1
  C  C5  1  0.60409799  0.94017839  0.36045362  1
  C  C6  1  0.39590201  0.94017839  0.86045362  1
  C  C7  1  0.39590201  0.05982161  0.63954638  1
  C  C8  1  0.11282629  0.89320535  0.10221161  1
  C  C9  1  0.11282629  0.10679465  0.39778839  1
  C  C10  1  0.88717371  0.10679465  0.89778839  1
  C  C11  1  0.88717371  0.89320535  0.60221161  1
  C  C12  1  0.60995066  0.40429546  0.16644614  1
  C  C13  1  0.60995066  0.59570454  0.33355386  1
  C  C14  1  0.39004934  0.59570454  0.83355386  1
  C  C15  1  0.39004934  0.40429546  0.66644614  1
  C  C16  1  0.81279670  0.74358163  0.10439887  1
  C  C17  1  0.81279670  0.25641837  0.39560113  1
  C  C18  1  0.18720330  0.25641837  0.89560113  1
  C  C19  1  0.18720330  0.74358163  0.60439887  1
  C  C20  1  0.06280246  0.11209583  0.16283093  1
  C  C21  1  0.06280246  0.88790417  0.33716907  1
  C  C22  1  0.93719754  0.88790417  0.83716907  1
  C  C23  1  0.93719754  0.11209583  0.66283093  1
  C  C24  1  0.94597120  0.33175558  0.20029398  1
  C  C25  1  0.94597120  0.66824442  0.29970602  1
  C  C26  1  0.05402880  0.66824442  0.79970602  1
  C  C27  1  0.05402880  0.33175558  0.70029398  1
  C  C28  1  0.74565126  0.13842696  0.99799611  1
  C  C29  1  0.74565126  0.86157304  0.50200389  1
  C  C30  1  0.25434874  0.86157304  0.00200389  1
  C  C31  1  0.25434874  0.13842696  0.49799611  1
  C  C32  1  0.31152431  0.27990230  0.20118429  1
  C  C33  1  0.31152431  0.72009770  0.29881571  1
  C  C34  1  0.68847569  0.72009770  0.79881571  1
  C  C35  1  0.68847569  0.27990230  0.70118429  1
  C  C36  1  0.45009677  0.79322711  0.08639754  1
  C  C37  1  0.45009677  0.20677289  0.41360246  1
  C  C38  1  0.54990323  0.20677289  0.91360246  1
  C  C39  1  0.54990323  0.79322711  0.58639754  1
  C  C40  1  0.55687386  0.56805378  0.09836337  1
  C  C41  1  0.55687386  0.43194622  0.40163663  1
  C  C42  1  0.44312614  0.43194622  0.90163663  1
  C  C43  1  0.44312614  0.56805378  0.59836337  1
  Ni  Ni44  1  0.19819138  0.38100002  0.04968098  1
  Ni  Ni45  1  0.19819138  0.61899998  0.45031902  1
  Ni  Ni46  1  0.80180862  0.61899998  0.95031902  1
  Ni  Ni47  1  0.80180862  0.38100002  0.54968098  1
  Ni  Ni48  1  0.65497258  0.00000000  0.25000000  1
  Ni  Ni49  1  0.34502742  0.00000000  0.75000000  1
  Cu  Cu50  1  0.99713476  0.99716003  0.13612603  1
  Cu  Cu51  1  0.99713476  0.00283997  0.36387397  1
  Cu  Cu52  1  0.00286524  0.00283997  0.86387397  1
  Cu  Cu53  1  0.00286524  0.99716003  0.63612603  1
  Cu  Cu54  1  0.94082125  0.64788162  0.23608336  1
  Cu  Cu55  1  0.94082125  0.35211838  0.26391664  1
  Cu  Cu56  1  0.05917875  0.35211838  0.76391664  1
  Cu  Cu57  1  0.05917875  0.64788162  0.73608336  1
  Cu  Cu58  1  0.49611825  0.49682284  0.14632424  1
  Cu  Cu59  1  0.49611825  0.50317716  0.35367576  1
  Cu  Cu60  1  0.50388175  0.50317716  0.85367576  1
  Cu  Cu61  1  0.50388175  0.49682284  0.64632424  1
  Cu  Cu62  1  0.90596942  0.19801441  0.17555047  1
  Cu  Cu63  1  0.90596942  0.80198559  0.32444953  1
  Cu  Cu64  1  0.09403058  0.80198559  0.82444953  1
  Cu  Cu65  1  0.09403058  0.19801441  0.67555047  1
  Cu  Cu66  1  0.76877740  0.61649863  0.10403711  1
  Cu  Cu67  1  0.76877740  0.38350137  0.39596289  1
  Cu  Cu68  1  0.23122260  0.38350137  0.89596289  1
  Cu  Cu69  1  0.23122260  0.61649863  0.60403711  1
  Cu  Cu70  1  0.32938459  0.89505968  0.11943639  1
  Cu  Cu71  1  0.32938459  0.10494032  0.38056361  1
  Cu  Cu72  1  0.67061541  0.10494032  0.88056361  1
  Cu  Cu73  1  0.67061541  0.89505968  0.61943639  1
  Cu  Cu74  1  0.15887314  0.36692551  0.18266424  1
  Cu  Cu75  1  0.15887314  0.63307449  0.31733576  1
  Cu  Cu76  1  0.84112686  0.63307449  0.81733576  1
  Cu  Cu77  1  0.84112686  0.36692551  0.68266424  1
  Cu  Cu78  1  0.81754800  0.41681446  0.17190698  1
  Cu  Cu79  1  0.81754800  0.58318554  0.32809302  1
  Cu  Cu80  1  0.18245200  0.58318554  0.82809302  1
  Cu  Cu81  1  0.18245200  0.41681446  0.67190698  1
  Cu  Cu82  1  0.66534837  0.83225443  0.09900191  1
  Cu  Cu83  1  0.66534837  0.16774557  0.40099809  1
  Cu  Cu84  1  0.33465163  0.16774557  0.90099809  1
  Cu  Cu85  1  0.33465163  0.83225443  0.59900191  1
  Cu  Cu86  1  0.26386894  0.14557468  0.17636914  1
  Cu  Cu87  1  0.26386894  0.85442532  0.32363086  1
  Cu  Cu88  1  0.73613106  0.85442532  0.82363086  1
  Cu  Cu89  1  0.73613106  0.14557468  0.67636914  1
  Cu  Cu90  1  0.28875494  0.68752299  0.23500781  1
  Cu  Cu91  1  0.28875494  0.31247701  0.26499219  1
  Cu  Cu92  1  0.71124506  0.31247701  0.76499219  1
  Cu  Cu93  1  0.71124506  0.68752299  0.73500781  1
  Cu  Cu94  1  0.01550516  0.77167590  0.11431663  1
  Cu  Cu95  1  0.01550516  0.22832410  0.38568337  1
  Cu  Cu96  1  0.98449484  0.22832410  0.88568337  1
  Cu  Cu97  1  0.98449484  0.77167590  0.61431663  1
  Cu  Cu98  1  0.72052305  0.10819451  0.05356068  1
  Cu  Cu99  1  0.72052305  0.89180549  0.44643932  1
  Cu  Cu100  1  0.27947695  0.89180549  0.94643932  1
  Cu  Cu101  1  0.27947695  0.10819451  0.55356068  1
  Cu  Cu102  1  0.39265781  0.15763768  0.04780627  1
  Cu  Cu103  1  0.39265781  0.84236232  0.45219373  1
  Cu  Cu104  1  0.60734219  0.84236232  0.95219373  1
  Cu  Cu105  1  0.60734219  0.15763768  0.54780627  1
  Cu  Cu106  1  0.51894972  0.29616897  0.18126711  1
  Cu  Cu107  1  0.51894972  0.70383103  0.31873289  1
  Cu  Cu108  1  0.48105028  0.70383103  0.81873289  1
  Cu  Cu109  1  0.48105028  0.29616897  0.68126711  1
  Cu  Cu110  1  0.40493323  0.66845611  0.10174256  1
  Cu  Cu111  1  0.40493323  0.33154389  0.39825744  1
  Cu  Cu112  1  0.59506677  0.33154389  0.89825744  1
  Cu  Cu113  1  0.59506677  0.66845611  0.60174256  1
  Cu  Cu114  1  0.09458026  0.89860761  0.03830470  1
  Cu  Cu115  1  0.09458026  0.10139239  0.46169530  1
  Cu  Cu116  1  0.90541974  0.10139239  0.96169530  1
  Cu  Cu117  1  0.90541974  0.89860761  0.53830470  1
  Cu  Cu118  1  0.54748765  0.47165847  0.04351280  1
  Cu  Cu119  1  0.54748765  0.52834153  0.45648720  1
  Cu  Cu120  1  0.45251235  0.52834153  0.95648720  1
  Cu  Cu121  1  0.45251235  0.47165847  0.54351280  1
  Cu  Cu122  1  0.58932156  0.21107282  0.97850505  1
  Cu  Cu123  1  0.58932156  0.78892718  0.52149495  1
  Cu  Cu124  1  0.41067844  0.78892718  0.02149495  1
  Cu  Cu125  1  0.41067844  0.21107282  0.47850505  1
