# generated using pymatgen
data_Cu3Ni
_symmetry_space_group_name_H-M   'P 1'
_cell_length_a   6.30452552
_cell_length_b   6.30452552
_cell_length_c   3.87296300
_cell_angle_alpha   90.00000000
_cell_angle_beta   90.00000000
_cell_angle_gamma   127.02328419
_symmetry_Int_Tables_number   1
_chemical_formula_structural   Cu3Ni
_chemical_formula_sum   'Cu6 Ni2'
_cell_volume   122.90335174
_cell_formula_units_Z   2
loop_
 _symmetry_equiv_pos_site_id
 _symmetry_equiv_pos_as_xyz
  1  'x, y, z'
loop_
 _atom_site_type_symbol
 _atom_site_label
 _atom_site_symmetry_multiplicity
 _atom_site_fract_x
 _atom_site_fract_y
 _atom_site_fract_z
 _atom_site_occupancy
  Ni  Ni0  1  0.53775500  0.46224500  0.50000000  1
  Ni  Ni1  1  0.03775500  0.96224500  0.00000000  1
  Cu  Cu2  1  0.05863500  0.94136500  0.50000000  1
  Cu  Cu3  1  0.55863500  0.44136500  0.00000000  1
  Cu  Cu4  1  0.22395800  0.61584800  0.89136000  1
  Cu  Cu5  1  0.38415200  0.77604200  0.10864000  1
  Cu  Cu6  1  0.72395800  0.11584800  0.60864000  1
  Cu  Cu7  1  0.88415200  0.27604200  0.39136000  1
