# generated using pymatgen
data_Cu3Ni2C
_symmetry_space_group_name_H-M   'P 1'
_cell_length_a   6.69771840
_cell_length_b   6.69771840
_cell_length_c   6.69771840
_cell_angle_alpha   130.34399736
_cell_angle_beta   114.42198207
_cell_angle_gamma   86.51260023
_symmetry_Int_Tables_number   1
_chemical_formula_structural   Cu3Ni2C
_chemical_formula_sum   'Cu6 Ni4 C2'
_cell_volume   199.03335537
_cell_formula_units_Z   2
loop_
 _symmetry_equiv_pos_site_id
 _symmetry_equiv_pos_as_xyz
  1  'x, y, z'
loop_
 _atom_site_type_symbol
 _atom_site_label
 _atom_site_symmetry_multiplicity
 _atom_site_fract_x
 _atom_site_fract_y
 _atom_site_fract_z
 _atom_site_occupancy
  C  C0  1  0.75000000  0.03229900  0.28229900  1
  C  C1  1  0.25000000  0.96770100  0.71770100  1
  Ni  Ni2  1  0.58019900  0.38140700  0.80120900  1
  Ni  Ni3  1  0.08019900  0.27899000  0.19879100  1
  Ni  Ni4  1  0.41980100  0.61859300  0.19879100  1
  Ni  Ni5  1  0.91980100  0.72101000  0.80120900  1
  Cu  Cu6  1  0.78189800  0.50000000  0.28189800  1
  Cu  Cu7  1  0.00000000  0.50000000  0.00000000  1
  Cu  Cu8  1  0.71810200  0.00000000  0.71810200  1
  Cu  Cu9  1  0.21810200  0.50000000  0.71810200  1
  Cu  Cu10  1  0.28189800  0.00000000  0.28189800  1
  Cu  Cu11  1  0.50000000  0.50000000  0.50000000  1
