# generated using pymatgen
data_Cu2NiC9
_symmetry_space_group_name_H-M   'P 1'
_cell_length_a   8.10560700
_cell_length_b   8.10550500
_cell_length_c   10.45719200
_cell_angle_alpha   89.99953820
_cell_angle_beta   89.99966050
_cell_angle_gamma   90.00007069
_symmetry_Int_Tables_number   1
_chemical_formula_structural   Cu2NiC9
_chemical_formula_sum   'Cu8 Ni4 C36'
_cell_volume   687.03791245
_cell_formula_units_Z   4
loop_
 _symmetry_equiv_pos_site_id
 _symmetry_equiv_pos_as_xyz
  1  'x, y, z'
loop_
 _atom_site_type_symbol
 _atom_site_label
 _atom_site_symmetry_multiplicity
 _atom_site_fract_x
 _atom_site_fract_y
 _atom_site_fract_z
 _atom_site_occupancy
  C  C0  1  0.16658600  0.66658000  0.25321200  1
  C  C1  1  0.16657800  0.66659100  0.75320500  1
  C  C2  1  0.83340700  0.33339500  0.25320700  1
  C  C3  1  0.83341600  0.33342900  0.75321900  1
  C  C4  1  0.66658700  0.83340800  0.24678800  1
  C  C5  1  0.66658400  0.83341700  0.74678400  1
  C  C6  1  0.33342600  0.16657900  0.24678800  1
  C  C7  1  0.33342000  0.16658100  0.74679300  1
  Ni  Ni8  1  0.99999800  0.00000100  0.49999500  1
  Ni  Ni9  1  0.49999900  0.50000200  0.00000400  1
  Ni  Ni10  1  0.00000200  0.00000300  0.99999600  1
  Ni  Ni11  1  0.49999900  0.49999700  0.50000400  1
  Cu  Cu12  1  0.63828900  0.13828600  0.47243000  1
  Cu  Cu13  1  0.63828200  0.13828800  0.97242900  1
  Cu  Cu14  1  0.36171200  0.86171900  0.47242900  1
  Cu  Cu15  1  0.36171600  0.86171500  0.97243100  1
  Cu  Cu16  1  0.13828700  0.36171400  0.02757100  1
  Cu  Cu17  1  0.13827700  0.36171100  0.52757000  1
  Cu  Cu18  1  0.86171900  0.63828200  0.02756900  1
  Cu  Cu19  1  0.86171200  0.63828800  0.52757000  1
  C  C20  1  0.99999900  0.49999600  0.08204700  1
  C  C21  1  0.99999600  0.50000100  0.58204500  1
  C  C22  1  0.49999900  0.00000500  0.41795500  1
  C  C23  1  0.50000300  0.99999900  0.91795500  1
  C  C24  1  0.63982800  0.13983700  0.12695700  1
  C  C25  1  0.63983800  0.13983200  0.62695600  1
  C  C26  1  0.36016900  0.86016700  0.12695800  1
  C  C27  1  0.36016600  0.86016500  0.62695800  1
  C  C28  1  0.13983200  0.36016400  0.37304300  1
  C  C29  1  0.13983400  0.36016700  0.87304500  1
  C  C30  1  0.86016400  0.63983300  0.37304400  1
  C  C31  1  0.86017000  0.63983200  0.87303900  1
  C  C32  1  0.07986000  0.19106400  0.10059300  1
  C  C33  1  0.07984700  0.19106800  0.60059300  1
  C  C34  1  0.92014700  0.80892900  0.10058700  1
  C  C35  1  0.92015100  0.80893100  0.60058700  1
  C  C36  1  0.19107600  0.92015500  0.39940900  1
  C  C37  1  0.19107200  0.92014600  0.89941100  1
  C  C38  1  0.42014200  0.69107200  0.39941100  1
  C  C39  1  0.42014700  0.69107300  0.89940900  1
  C  C40  1  0.80892800  0.07984500  0.39940800  1
  C  C41  1  0.80892900  0.07986100  0.89941400  1
  C  C42  1  0.57986400  0.30893400  0.39941000  1
  C  C43  1  0.57985000  0.30893000  0.89940700  1
  C  C44  1  0.30892800  0.42014700  0.10059200  1
  C  C45  1  0.30892100  0.42014400  0.60058900  1
  C  C46  1  0.69107600  0.57985400  0.10058800  1
  C  C47  1  0.69106600  0.57986100  0.60059400  1
