# generated using pymatgen
data_Cu3(NiC4)2
_symmetry_space_group_name_H-M   'P 1'
_cell_length_a   5.66913933
_cell_length_b   5.66913933
_cell_length_c   4.83931213
_cell_angle_alpha   77.14122395
_cell_angle_beta   77.14122395
_cell_angle_gamma   59.77888895
_symmetry_Int_Tables_number   1
_chemical_formula_structural   Cu3(NiC4)2
_chemical_formula_sum   'Cu3 Ni2 C8'
_cell_volume   129.88991880
_cell_formula_units_Z   1
loop_
 _symmetry_equiv_pos_site_id
 _symmetry_equiv_pos_as_xyz
  1  'x, y, z'
loop_
 _atom_site_type_symbol
 _atom_site_label
 _atom_site_symmetry_multiplicity
 _atom_site_fract_x
 _atom_site_fract_y
 _atom_site_fract_z
 _atom_site_occupancy
  Ni  Ni0  1  0.70941300  0.70941300  0.37594200  1
  Ni  Ni1  1  0.29058700  0.29058700  0.62405800  1
  Cu  Cu2  1  0.00000000  0.00000000  0.50000000  1
  Cu  Cu3  1  0.74839200  0.25160800  0.00000000  1
  Cu  Cu4  1  0.25160800  0.74839200  0.00000000  1
  C  C5  1  0.39033600  0.39033600  0.92863300  1
  C  C6  1  0.60966400  0.60966400  0.07136700  1
  C  C7  1  0.89872700  0.89872700  0.88594500  1
  C  C8  1  0.10127300  0.10127300  0.11405500  1
  C  C9  1  0.33852400  0.88781500  0.62313300  1
  C  C10  1  0.88781500  0.33852400  0.62313300  1
  C  C11  1  0.11218500  0.66147600  0.37686700  1
  C  C12  1  0.66147600  0.11218500  0.37686700  1
