# generated using pymatgen
data_Cu16Ni2C9
_symmetry_space_group_name_H-M   'P 1'
_cell_length_a   6.19782200
_cell_length_b   6.20083056
_cell_length_c   20.58519338
_cell_angle_alpha   92.13674660
_cell_angle_beta   96.14501452
_cell_angle_gamma   90.02425505
_symmetry_Int_Tables_number   1
_chemical_formula_structural   Cu16Ni2C9
_chemical_formula_sum   'Cu32 Ni4 C18'
_cell_volume   786.02247588
_cell_formula_units_Z   2
loop_
 _symmetry_equiv_pos_site_id
 _symmetry_equiv_pos_as_xyz
  1  'x, y, z'
loop_
 _atom_site_type_symbol
 _atom_site_label
 _atom_site_symmetry_multiplicity
 _atom_site_fract_x
 _atom_site_fract_y
 _atom_site_fract_z
 _atom_site_occupancy
  C  C0  1  0.55814300  0.93100200  0.32765000  1
  C  C1  1  0.44185700  0.06899800  0.67235000  1
  C  C2  1  0.32899700  0.36039100  0.32355700  1
  C  C3  1  0.67100300  0.63960900  0.67644300  1
  C  C4  1  0.43627000  0.63909500  0.17559100  1
  C  C5  1  0.56373000  0.36090500  0.82440900  1
  C  C6  1  0.78504000  0.50072900  0.32318100  1
  C  C7  1  0.21496000  0.49927100  0.67681900  1
  C  C8  1  0.03118400  0.92008100  0.24935500  1
  C  C9  1  0.96881600  0.07991900  0.75064500  1
  C  C10  1  0.57596800  0.18274300  0.17587900  1
  C  C11  1  0.42403200  0.81725700  0.82412100  1
  C  C12  1  0.00424600  0.41098100  0.17092700  1
  C  C13  1  0.99575400  0.58901900  0.82907300  1
  C  C14  1  0.93459900  0.92718900  0.01288400  1
  C  C15  1  0.06540100  0.07281100  0.98711600  1
  C  C16  1  0.07235000  0.93051000  0.48739000  1
  C  C17  1  0.92765000  0.06949000  0.51261000  1
  Ni  Ni18  1  0.82398000  0.80387600  0.03539900  1
  Ni  Ni19  1  0.17602000  0.19612400  0.96460100  1
  Ni  Ni20  1  0.19492600  0.81267000  0.46553600  1
  Ni  Ni21  1  0.80507400  0.18733000  0.53446400  1
  Cu  Cu22  1  0.04653000  0.42757600  0.29243400  1
  Cu  Cu23  1  0.95347000  0.57242400  0.70756600  1
  Cu  Cu24  1  0.62053000  0.24100300  0.30553500  1
  Cu  Cu25  1  0.37947000  0.75899700  0.69446500  1
  Cu  Cu26  1  0.51727600  0.91503500  0.20694000  1
  Cu  Cu27  1  0.48272400  0.08496500  0.79306000  1
  Cu  Cu28  1  0.32470700  0.34411900  0.19307300  1
  Cu  Cu29  1  0.67529300  0.65588100  0.80692700  1
  Cu  Cu30  1  0.13246000  0.71003900  0.19536800  1
  Cu  Cu31  1  0.86754000  0.28996100  0.80463200  1
  Cu  Cu32  1  0.48122500  0.61554900  0.30578400  1
  Cu  Cu33  1  0.51877500  0.38445100  0.69421600  1
  Cu  Cu34  1  0.33465700  0.37164700  0.40117600  1
  Cu  Cu35  1  0.66534300  0.62835300  0.59882400  1
  Cu  Cu36  1  0.97651800  0.39385000  0.09235600  1
  Cu  Cu37  1  0.02348200  0.60615000  0.90764400  1
  Cu  Cu38  1  0.84539100  0.80901000  0.30338700  1
  Cu  Cu39  1  0.15460900  0.19099000  0.69661300  1
  Cu  Cu40  1  0.25400100  0.04772500  0.30310600  1
  Cu  Cu41  1  0.74599900  0.95227500  0.69689400  1
  Cu  Cu42  1  0.69986700  0.48319900  0.19328200  1
  Cu  Cu43  1  0.30013300  0.51680100  0.80671800  1
  Cu  Cu44  1  0.58993800  0.94124600  0.40623200  1
  Cu  Cu45  1  0.41006200  0.05875400  0.59376800  1
  Cu  Cu46  1  0.89364100  0.11894600  0.19569200  1
  Cu  Cu47  1  0.10635900  0.88105400  0.80430800  1
  Cu  Cu48  1  0.54209000  0.14969700  0.09823500  1
  Cu  Cu49  1  0.45791000  0.85030300  0.90176500  1
  Cu  Cu50  1  0.41221800  0.65141300  0.09797600  1
  Cu  Cu51  1  0.58778200  0.34858700  0.90202400  1
  Cu  Cu52  1  0.83336500  0.50398100  0.40089700  1
  Cu  Cu53  1  0.16663500  0.49601900  0.59910300  1
