# generated using pymatgen
data_CuNi2C3
_symmetry_space_group_name_H-M   'P 1'
_cell_length_a   5.39780502
_cell_length_b   5.39780462
_cell_length_c   5.39729252
_cell_angle_alpha   99.69098673
_cell_angle_beta   99.69098725
_cell_angle_gamma   119.92492541
_symmetry_Int_Tables_number   1
_chemical_formula_structural   CuNi2C3
_chemical_formula_sum   'Cu2 Ni4 C6'
_cell_volume   128.35388095
_cell_formula_units_Z   2
loop_
 _symmetry_equiv_pos_site_id
 _symmetry_equiv_pos_as_xyz
  1  'x, y, z'
loop_
 _atom_site_type_symbol
 _atom_site_label
 _atom_site_symmetry_multiplicity
 _atom_site_fract_x
 _atom_site_fract_y
 _atom_site_fract_z
 _atom_site_occupancy
  Ni  Ni0  1  0.83688200  0.16311800  0.50000000  1
  Ni  Ni1  1  0.16311800  0.83688200  0.50000000  1
  Ni  Ni2  1  0.50000000  0.50000000  0.50000000  1
  Ni  Ni3  1  0.00000000  0.00000000  0.00000000  1
  Cu  Cu4  1  0.33185700  0.66814300  0.00000000  1
  Cu  Cu5  1  0.66814300  0.33185700  0.00000000  1
  C  C6  1  0.42475200  0.07838100  0.23488800  1
  C  C7  1  0.92161900  0.57524800  0.76511200  1
  C  C8  1  0.57524800  0.92161900  0.76511200  1
  C  C9  1  0.07838100  0.42475200  0.23488800  1
  C  C10  1  0.73379500  0.73379500  0.24002200  1
  C  C11  1  0.26620500  0.26620500  0.75997800  1
