# generated using pymatgen
data_CuNiC5
_symmetry_space_group_name_H-M   'P 1'
_cell_length_a   5.30389021
_cell_length_b   5.30389021
_cell_length_c   7.56052637
_cell_angle_alpha   68.74858685
_cell_angle_beta   68.74858685
_cell_angle_gamma   71.52659481
_symmetry_Int_Tables_number   1
_chemical_formula_structural   CuNiC5
_chemical_formula_sum   'Cu2 Ni2 C10'
_cell_volume   180.48336382
_cell_formula_units_Z   2
loop_
 _symmetry_equiv_pos_site_id
 _symmetry_equiv_pos_as_xyz
  1  'x, y, z'
loop_
 _atom_site_type_symbol
 _atom_site_label
 _atom_site_symmetry_multiplicity
 _atom_site_fract_x
 _atom_site_fract_y
 _atom_site_fract_z
 _atom_site_occupancy
  Ni  Ni0  1  0.52525500  0.47474500  0.75000000  1
  Ni  Ni1  1  0.47474500  0.52525500  0.25000000  1
  Cu  Cu2  1  0.00000000  0.00000000  0.50000000  1
  Cu  Cu3  1  0.00000000  0.00000000  0.00000000  1
  C  C4  1  0.12385700  0.87614300  0.25000000  1
  C  C5  1  0.87614300  0.12385700  0.75000000  1
  C  C6  1  0.72158100  0.78408600  0.13384700  1
  C  C7  1  0.21591400  0.27841900  0.36615300  1
  C  C8  1  0.68210900  0.28671300  0.44982400  1
  C  C9  1  0.71328700  0.31789100  0.05017600  1
  C  C10  1  0.31789100  0.71328700  0.55017600  1
  C  C11  1  0.28671300  0.68210900  0.94982400  1
  C  C12  1  0.78408600  0.72158100  0.63384700  1
  C  C13  1  0.27841900  0.21591400  0.86615300  1
