# generated using pymatgen
data_Cu4NiC2
_symmetry_space_group_name_H-M   'P 1'
_cell_length_a   6.27369200
_cell_length_b   7.83630500
_cell_length_c   13.41942000
_cell_angle_alpha   90.00000000
_cell_angle_beta   90.00000000
_cell_angle_gamma   90.00000000
_symmetry_Int_Tables_number   1
_chemical_formula_structural   Cu4NiC2
_chemical_formula_sum   'Cu16 Ni4 C8'
_cell_volume   659.73309443
_cell_formula_units_Z   4
loop_
 _symmetry_equiv_pos_site_id
 _symmetry_equiv_pos_as_xyz
  1  'x, y, z'
loop_
 _atom_site_type_symbol
 _atom_site_label
 _atom_site_symmetry_multiplicity
 _atom_site_fract_x
 _atom_site_fract_y
 _atom_site_fract_z
 _atom_site_occupancy
  C  C0  1  0.49587300  0.75000000  0.23351600  1
  C  C1  1  0.99587300  0.25000000  0.26648400  1
  C  C2  1  0.50412700  0.25000000  0.76648400  1
  C  C3  1  0.00412700  0.75000000  0.73351600  1
  C  C4  1  0.50000000  0.50000000  0.50000000  1
  C  C5  1  0.00000000  0.50000000  0.00000000  1
  C  C6  1  0.50000000  0.00000000  0.50000000  1
  C  C7  1  0.00000000  0.00000000  0.00000000  1
  Ni  Ni8  1  0.59360600  0.75000000  0.91137200  1
  Ni  Ni9  1  0.09360600  0.25000000  0.58862800  1
  Ni  Ni10  1  0.40639400  0.25000000  0.08862800  1
  Ni  Ni11  1  0.90639400  0.75000000  0.41137200  1
  Cu  Cu12  1  0.27076300  0.75000000  0.40713200  1
  Cu  Cu13  1  0.77076300  0.25000000  0.09286800  1
  Cu  Cu14  1  0.72923700  0.25000000  0.59286800  1
  Cu  Cu15  1  0.22923700  0.75000000  0.90713200  1
  Cu  Cu16  1  0.75731300  0.75000000  0.56926300  1
  Cu  Cu17  1  0.25731300  0.25000000  0.93073700  1
  Cu  Cu18  1  0.24268700  0.25000000  0.43073700  1
  Cu  Cu19  1  0.74268700  0.75000000  0.06926300  1
  Cu  Cu20  1  0.74878700  0.98036600  0.33228100  1
  Cu  Cu21  1  0.24878700  0.01963400  0.16771900  1
  Cu  Cu22  1  0.25121300  0.48036600  0.66771900  1
  Cu  Cu23  1  0.75121300  0.51963400  0.83228100  1
  Cu  Cu24  1  0.25121300  0.01963400  0.66771900  1
  Cu  Cu25  1  0.75121300  0.98036600  0.83228100  1
  Cu  Cu26  1  0.74878700  0.51963400  0.33228100  1
  Cu  Cu27  1  0.24878700  0.48036600  0.16771900  1
