# generated using pymatgen
data_Cu3NiC10
_symmetry_space_group_name_H-M   'P 1'
_cell_length_a   5.99220359
_cell_length_b   6.02058508
_cell_length_c   10.31677288
_cell_angle_alpha   106.59845781
_cell_angle_beta   90.62171255
_cell_angle_gamma   60.47806976
_symmetry_Int_Tables_number   1
_chemical_formula_structural   Cu3NiC10
_chemical_formula_sum   'Cu6 Ni2 C20'
_cell_volume   306.58576227
_cell_formula_units_Z   2
loop_
 _symmetry_equiv_pos_site_id
 _symmetry_equiv_pos_as_xyz
  1  'x, y, z'
loop_
 _atom_site_type_symbol
 _atom_site_label
 _atom_site_symmetry_multiplicity
 _atom_site_fract_x
 _atom_site_fract_y
 _atom_site_fract_z
 _atom_site_occupancy
  C  C0  1  0.75007500  0.49997400  0.25000100  1
  C  C1  1  0.24994700  0.50007000  0.75003000  1
  C  C2  1  0.99401000  0.50396400  0.49946600  1
  C  C3  1  0.50612600  0.49606300  0.00057200  1
  Ni  Ni4  1  0.49915700  0.01914800  0.50058900  1
  Ni  Ni5  1  0.00076500  0.98127200  0.99941900  1
  Cu  Cu6  1  0.74994400  0.00004700  0.74997700  1
  Cu  Cu7  1  0.74980600  0.00010800  0.24997500  1
  Cu  Cu8  1  0.25014400  0.99982100  0.75000000  1
  Cu  Cu9  1  0.24990000  0.99982800  0.25003800  1
  Cu  Cu10  1  0.00195900  0.99906300  0.49866700  1
  Cu  Cu11  1  0.49803900  0.00091400  0.00133400  1
  C  C12  1  0.09819900  0.78446900  0.63354200  1
  C  C13  1  0.59778800  0.78310100  0.13468800  1
  C  C14  1  0.90206500  0.21680000  0.36537100  1
  C  C15  1  0.40186600  0.21553700  0.86637500  1
  C  C16  1  0.34303600  0.78511100  0.88547600  1
  C  C17  1  0.84412700  0.78476700  0.38566900  1
  C  C18  1  0.65571900  0.21544900  0.11430700  1
  C  C19  1  0.15720000  0.21459900  0.61452400  1
  C  C20  1  0.61743600  0.79906200  0.63291600  1
  C  C21  1  0.11080600  0.78752900  0.12881100  1
  C  C22  1  0.86188200  0.78755500  0.88006400  1
  C  C23  1  0.35979100  0.79899800  0.37511900  1
  C  C24  1  0.14049600  0.20072300  0.12495800  1
  C  C25  1  0.63793800  0.21269400  0.61990300  1
  C  C26  1  0.38876600  0.21278000  0.37128600  1
  C  C27  1  0.88293600  0.20061500  0.86694200  1
