# generated using pymatgen
data_Cu8Ni8C9
_symmetry_space_group_name_H-M   'P 1'
_cell_length_a   4.94023328
_cell_length_b   4.79487262
_cell_length_c   12.52742313
_cell_angle_alpha   90.95007340
_cell_angle_beta   91.74427030
_cell_angle_gamma   88.73166970
_symmetry_Int_Tables_number   1
_chemical_formula_structural   Cu8Ni8C9
_chemical_formula_sum   'Cu8 Ni8 C9'
_cell_volume   296.49921440
_cell_formula_units_Z   1
loop_
 _symmetry_equiv_pos_site_id
 _symmetry_equiv_pos_as_xyz
  1  'x, y, z'
loop_
 _atom_site_type_symbol
 _atom_site_label
 _atom_site_symmetry_multiplicity
 _atom_site_fract_x
 _atom_site_fract_y
 _atom_site_fract_z
 _atom_site_occupancy
  C  C0  1  0.96896400  0.50106200  0.62480900  1
  C  C1  1  0.98012700  0.95317000  0.00325000  1
  C  C2  1  0.06588600  0.02134700  0.24259300  1
  C  C3  1  0.98477000  0.95437900  0.48142800  1
  C  C4  1  0.04971300  0.01972300  0.76105700  1
  C  C5  1  0.46354800  0.54656200  0.62362200  1
  C  C6  1  0.55062000  0.46136800  0.12222400  1
  C  C7  1  0.49915900  0.52433100  0.36631100  1
  C  C8  1  0.46448700  0.51501500  0.87895300  1
  Ni  Ni9  1  0.23474200  0.83326000  0.36415300  1
  Ni  Ni10  1  0.18520200  0.83824000  0.61929100  1
  Ni  Ni11  1  0.18870100  0.80439100  0.88629900  1
  Ni  Ni12  1  0.34467700  0.32411100  0.24290300  1
  Ni  Ni13  1  0.26848300  0.37867800  0.73918500  1
  Ni  Ni14  1  0.69293500  0.65321600  0.99964500  1
  Ni  Ni15  1  0.68526200  0.65713500  0.50741700  1
  Ni  Ni16  1  0.83299000  0.16159800  0.12388400  1
  Cu  Cu17  1  0.25142000  0.77447000  0.12159300  1
  Cu  Cu18  1  0.27459700  0.27000900  0.99940300  1
  Cu  Cu19  1  0.20453100  0.34127500  0.50811100  1
  Cu  Cu20  1  0.76522300  0.70608500  0.24959500  1
  Cu  Cu21  1  0.74236600  0.68194000  0.74056700  1
  Cu  Cu22  1  0.78308000  0.20667700  0.37120200  1
  Cu  Cu23  1  0.73587900  0.19193900  0.62839600  1
  Cu  Cu24  1  0.75485700  0.19391100  0.86702700  1
