# generated using pymatgen
data_CuNiC5
_symmetry_space_group_name_H-M   'P 1'
_cell_length_a   6.48699400
_cell_length_b   8.07846200
_cell_length_c   16.07884600
_cell_angle_alpha   90.00000000
_cell_angle_beta   90.00000000
_cell_angle_gamma   90.00000000
_symmetry_Int_Tables_number   1
_chemical_formula_structural   CuNiC5
_chemical_formula_sum   'Cu8 Ni8 C40'
_cell_volume   842.61087184
_cell_formula_units_Z   8
loop_
 _symmetry_equiv_pos_site_id
 _symmetry_equiv_pos_as_xyz
  1  'x, y, z'
loop_
 _atom_site_type_symbol
 _atom_site_label
 _atom_site_symmetry_multiplicity
 _atom_site_fract_x
 _atom_site_fract_y
 _atom_site_fract_z
 _atom_site_occupancy
  C  C0  1  0.25000000  0.50741900  0.80744200  1
  C  C1  1  0.25000000  0.99258100  0.30744200  1
  C  C2  1  0.75000000  0.00741900  0.69255800  1
  C  C3  1  0.75000000  0.49258100  0.19255800  1
  Ni  Ni4  1  0.25000000  0.87690100  0.88478600  1
  Ni  Ni5  1  0.75000000  0.12309900  0.11521400  1
  Ni  Ni6  1  0.75000000  0.37690100  0.61521400  1
  Ni  Ni7  1  0.25000000  0.62309900  0.38478600  1
  Ni  Ni8  1  0.00000000  0.50000000  0.00000000  1
  Ni  Ni9  1  0.00000000  0.00000000  0.50000000  1
  Ni  Ni10  1  0.50000000  0.00000000  0.50000000  1
  Ni  Ni11  1  0.50000000  0.50000000  0.00000000  1
  Cu  Cu12  1  0.75000000  0.89271700  0.93448000  1
  Cu  Cu13  1  0.25000000  0.10728300  0.06552000  1
  Cu  Cu14  1  0.25000000  0.39271700  0.56552000  1
  Cu  Cu15  1  0.75000000  0.60728300  0.43448000  1
  Cu  Cu16  1  0.25000000  0.89815400  0.70800600  1
  Cu  Cu17  1  0.25000000  0.60184600  0.20800600  1
  Cu  Cu18  1  0.75000000  0.39815400  0.79199400  1
  Cu  Cu19  1  0.75000000  0.10184600  0.29199400  1
  C  C20  1  0.54861100  0.07817400  0.34328400  1
  C  C21  1  0.04861100  0.92182600  0.65671600  1
  C  C22  1  0.45138900  0.57817400  0.15671600  1
  C  C23  1  0.95138900  0.42182600  0.84328400  1
  C  C24  1  0.45138900  0.92182600  0.65671600  1
  C  C25  1  0.95138900  0.07817400  0.34328400  1
  C  C26  1  0.54861100  0.42182600  0.84328400  1
  C  C27  1  0.04861100  0.57817400  0.15671600  1
  C  C28  1  0.75000000  0.77126500  0.48354900  1
  C  C29  1  0.25000000  0.22873500  0.51645100  1
  C  C30  1  0.25000000  0.27126500  0.01645100  1
  C  C31  1  0.75000000  0.72873500  0.98354900  1
  C  C32  1  0.25000000  0.63772700  0.91635200  1
  C  C33  1  0.75000000  0.36227300  0.08364800  1
  C  C34  1  0.75000000  0.13772700  0.58364800  1
  C  C35  1  0.25000000  0.86227300  0.41635200  1
  C  C36  1  0.25000000  0.72821300  0.75411500  1
  C  C37  1  0.75000000  0.27178700  0.24588500  1
  C  C38  1  0.75000000  0.22821300  0.74588500  1
  C  C39  1  0.25000000  0.77178700  0.25411500  1
  C  C40  1  0.93566700  0.59356000  0.37381600  1
  C  C41  1  0.43566700  0.40644000  0.62618400  1
  C  C42  1  0.06433300  0.09356000  0.12618400  1
  C  C43  1  0.56433300  0.90644000  0.87381600  1
  C  C44  1  0.06433300  0.40644000  0.62618400  1
  C  C45  1  0.56433300  0.59356000  0.37381600  1
  C  C46  1  0.93566700  0.90644000  0.87381600  1
  C  C47  1  0.43566700  0.09356000  0.12618400  1
  C  C48  1  0.25000000  0.95723800  0.00535300  1
  C  C49  1  0.75000000  0.52840800  0.71828400  1
  C  C50  1  0.75000000  0.97159200  0.21828400  1
  C  C51  1  0.25000000  0.02840800  0.78171600  1
  C  C52  1  0.25000000  0.54276200  0.50535300  1
  C  C53  1  0.75000000  0.45723800  0.49464700  1
  C  C54  1  0.75000000  0.04276200  0.99464700  1
  C  C55  1  0.25000000  0.47159200  0.28171600  1
