# generated using pymatgen
data_Cu4Ni12C25
_symmetry_space_group_name_H-M   'P 1'
_cell_length_a   8.71830500
_cell_length_b   8.77653058
_cell_length_c   11.86124391
_cell_angle_alpha   104.04384538
_cell_angle_beta   90.00000000
_cell_angle_gamma   90.00000000
_symmetry_Int_Tables_number   1
_chemical_formula_structural   Cu4Ni12C25
_chemical_formula_sum   'Cu8 Ni24 C50'
_cell_volume   880.45322099
_cell_formula_units_Z   2
loop_
 _symmetry_equiv_pos_site_id
 _symmetry_equiv_pos_as_xyz
  1  'x, y, z'
loop_
 _atom_site_type_symbol
 _atom_site_label
 _atom_site_symmetry_multiplicity
 _atom_site_fract_x
 _atom_site_fract_y
 _atom_site_fract_z
 _atom_site_occupancy
  C  C0  1  0.50000000  0.00000000  0.00000000  1
  C  C1  1  0.00000000  0.50000000  0.00000000  1
  Ni  Ni2  1  0.53524900  0.86115200  0.72170200  1
  Ni  Ni3  1  0.03524900  0.63884800  0.27829800  1
  Ni  Ni4  1  0.46475100  0.13884800  0.27829800  1
  Ni  Ni5  1  0.96475100  0.36115200  0.72170200  1
  Ni  Ni6  1  0.40391400  0.79671900  0.53086700  1
  Ni  Ni7  1  0.90391400  0.70328100  0.46913300  1
  Ni  Ni8  1  0.59608600  0.20328100  0.46913300  1
  Ni  Ni9  1  0.09608600  0.29671900  0.53086700  1
  Ni  Ni10  1  0.40382300  0.60691100  0.64571700  1
  Ni  Ni11  1  0.90382300  0.89308900  0.35428300  1
  Ni  Ni12  1  0.59617700  0.39308900  0.35428300  1
  Ni  Ni13  1  0.09617700  0.10691100  0.64571700  1
  Ni  Ni14  1  0.79009400  0.93970200  0.85746600  1
  Ni  Ni15  1  0.29009400  0.56029800  0.14253400  1
  Ni  Ni16  1  0.20990600  0.06029800  0.14253400  1
  Ni  Ni17  1  0.70990600  0.43970200  0.85746600  1
  Ni  Ni18  1  0.75431700  0.23855700  0.97642300  1
  Ni  Ni19  1  0.25431700  0.26144300  0.02357700  1
  Ni  Ni20  1  0.24568300  0.76144300  0.02357700  1
  Ni  Ni21  1  0.74568300  0.73855700  0.97642300  1
  Ni  Ni22  1  0.49127500  0.29262300  0.91579800  1
  Ni  Ni23  1  0.99127500  0.20737700  0.08420200  1
  Ni  Ni24  1  0.50872500  0.70737700  0.08420200  1
  Ni  Ni25  1  0.00872500  0.79262300  0.91579800  1
  Cu  Cu26  1  0.40819000  0.93248800  0.41789400  1
  Cu  Cu27  1  0.90819000  0.56751200  0.58210600  1
  Cu  Cu28  1  0.59181000  0.06751200  0.58210600  1
  Cu  Cu29  1  0.09181000  0.43248800  0.41789400  1
  Cu  Cu30  1  0.41140500  0.44092000  0.73081300  1
  Cu  Cu31  1  0.91140500  0.05908000  0.26918700  1
  Cu  Cu32  1  0.58859500  0.55908000  0.26918700  1
  Cu  Cu33  1  0.08859500  0.94092000  0.73081300  1
  C  C34  1  0.49573100  0.89735800  0.61250300  1
  C  C35  1  0.99573100  0.60264200  0.38749700  1
  C  C36  1  0.50426900  0.10264200  0.38749700  1
  C  C37  1  0.00426900  0.39735800  0.61250300  1
  C  C38  1  0.35322600  0.65423700  0.54950800  1
  C  C39  1  0.85322600  0.84576300  0.45049200  1
  C  C40  1  0.64677400  0.34576300  0.45049200  1
  C  C41  1  0.14677400  0.15423700  0.54950800  1
  C  C42  1  0.50253800  0.70183300  0.72436000  1
  C  C43  1  0.00253800  0.79816700  0.27564000  1
  C  C44  1  0.49746200  0.29816700  0.27564000  1
  C  C45  1  0.99746200  0.20183300  0.72436000  1
  C  C46  1  0.69954600  0.90314000  0.75018900  1
  C  C47  1  0.19954600  0.59686000  0.24981100  1
  C  C48  1  0.30045400  0.09686000  0.24981100  1
  C  C49  1  0.80045400  0.40314000  0.75018900  1
  C  C50  1  0.70903000  0.89322500  0.95489900  1
  C  C51  1  0.20903000  0.60677500  0.04510100  1
  C  C52  1  0.29097000  0.10677500  0.04510100  1
  C  C53  1  0.79097000  0.39322500  0.95489900  1
  C  C54  1  0.58374400  0.22265000  0.98745900  1
  C  C55  1  0.08374400  0.27735000  0.01254100  1
  C  C56  1  0.41625600  0.77735000  0.01254100  1
  C  C57  1  0.91625600  0.72265000  0.98745900  1
  C  C58  1  0.80782200  0.11005000  0.88094200  1
  C  C59  1  0.30782200  0.38995000  0.11905800  1
  C  C60  1  0.19217800  0.88995000  0.11905800  1
  C  C61  1  0.69217800  0.61005000  0.88094200  1
  C  C62  1  0.36640400  0.83166900  0.42887800  1
  C  C63  1  0.86640400  0.66833100  0.57112200  1
  C  C64  1  0.63359600  0.16833100  0.57112200  1
  C  C65  1  0.13359600  0.33166900  0.42887800  1
  C  C66  1  0.35762700  0.46656800  0.66513800  1
  C  C67  1  0.85762700  0.03343200  0.33486200  1
  C  C68  1  0.64237300  0.53343200  0.33486200  1
  C  C69  1  0.14237300  0.96656800  0.66513800  1
  C  C70  1  0.94376000  0.87166500  0.84234400  1
  C  C71  1  0.44376000  0.62833500  0.15765600  1
  C  C72  1  0.05624000  0.12833500  0.15765600  1
  C  C73  1  0.55624000  0.37166500  0.84234400  1
  C  C74  1  0.53071700  0.03095400  0.17477900  1
  C  C75  1  0.03071700  0.46904600  0.82522100  1
  C  C76  1  0.46928300  0.96904600  0.82522100  1
  C  C77  1  0.96928300  0.53095400  0.17477900  1
  C  C78  1  0.83450800  0.21441900  0.07709900  1
  C  C79  1  0.33450800  0.28558100  0.92290100  1
  C  C80  1  0.16549200  0.78558100  0.92290100  1
  C  C81  1  0.66549200  0.71441900  0.07709900  1
