# generated using pymatgen
data_Cu10Ni2C3
_symmetry_space_group_name_H-M   'P 1'
_cell_length_a   6.24164100
_cell_length_b   6.96137500
_cell_length_c   11.38792416
_cell_angle_alpha   68.67030946
_cell_angle_beta   90.00000000
_cell_angle_gamma   90.00000000
_symmetry_Int_Tables_number   1
_chemical_formula_structural   Cu10Ni2C3
_chemical_formula_sum   'Cu20 Ni4 C6'
_cell_volume   460.91684132
_cell_formula_units_Z   2
loop_
 _symmetry_equiv_pos_site_id
 _symmetry_equiv_pos_as_xyz
  1  'x, y, z'
loop_
 _atom_site_type_symbol
 _atom_site_label
 _atom_site_symmetry_multiplicity
 _atom_site_fract_x
 _atom_site_fract_y
 _atom_site_fract_z
 _atom_site_occupancy
  C  C0  1  0.34062000  0.72203000  0.33984300  1
  C  C1  1  0.65938000  0.27797000  0.66015700  1
  C  C2  1  0.84062000  0.27797000  0.16015700  1
  C  C3  1  0.15938000  0.72203000  0.83984300  1
  C  C4  1  0.00000000  0.00000000  0.50000000  1
  C  C5  1  0.50000000  0.00000000  0.00000000  1
  Ni  Ni6  1  0.82767500  0.77246400  0.16550300  1
  Ni  Ni7  1  0.17232500  0.22753600  0.83449700  1
  Ni  Ni8  1  0.32767500  0.22753600  0.33449700  1
  Ni  Ni9  1  0.67232500  0.77246400  0.66550300  1
  Cu  Cu10  1  0.94720600  0.66239100  0.24894200  1
  Cu  Cu11  1  0.05279400  0.33760900  0.75105800  1
  Cu  Cu12  1  0.44720600  0.33760900  0.25105800  1
  Cu  Cu13  1  0.55279400  0.66239100  0.74894200  1
  Cu  Cu14  1  0.76139200  0.87823200  0.44358100  1
  Cu  Cu15  1  0.23860800  0.12176800  0.55641900  1
  Cu  Cu16  1  0.26139200  0.12176800  0.05641900  1
  Cu  Cu17  1  0.73860800  0.87823200  0.94358100  1
  Cu  Cu18  1  0.33208500  0.78515100  0.06567200  1
  Cu  Cu19  1  0.66791500  0.21484900  0.93432800  1
  Cu  Cu20  1  0.83208500  0.21484900  0.43432800  1
  Cu  Cu21  1  0.16791500  0.78515100  0.56567200  1
  Cu  Cu22  1  0.86101500  0.74541100  0.04695100  1
  Cu  Cu23  1  0.13898500  0.25458900  0.95304900  1
  Cu  Cu24  1  0.36101500  0.25458900  0.45304900  1
  Cu  Cu25  1  0.63898500  0.74541100  0.54695100  1
  Cu  Cu26  1  0.68361000  0.90140200  0.16565600  1
  Cu  Cu27  1  0.31639000  0.09859800  0.83434400  1
  Cu  Cu28  1  0.18361000  0.09859800  0.33434400  1
  Cu  Cu29  1  0.81639000  0.90140200  0.66565600  1
