# generated using pymatgen
data_Cu(Ni2C7)3
_symmetry_space_group_name_H-M   'P 1'
_cell_length_a   13.42284636
_cell_length_b   13.55398835
_cell_length_c   16.18952306
_cell_angle_alpha   90.00000000
_cell_angle_beta   90.00000000
_cell_angle_gamma   90.00000000
_symmetry_Int_Tables_number   1
_chemical_formula_structural   Cu(Ni2C7)3
_chemical_formula_sum   'Cu8 Ni48 C168'
_cell_volume   2945.41016943
_cell_formula_units_Z   8
loop_
 _symmetry_equiv_pos_site_id
 _symmetry_equiv_pos_as_xyz
  1  'x, y, z'
loop_
 _atom_site_type_symbol
 _atom_site_label
 _atom_site_symmetry_multiplicity
 _atom_site_fract_x
 _atom_site_fract_y
 _atom_site_fract_z
 _atom_site_occupancy
  C  C0  1  0.35687222  0.00730878  0.93580812  1
  C  C1  1  0.85687222  0.49269122  0.06419188  1
  C  C2  1  0.64312778  0.50730878  0.56419188  1
  C  C3  1  0.14312778  0.99269122  0.43580812  1
  C  C4  1  0.64312778  0.99269122  0.06419188  1
  C  C5  1  0.14312778  0.50730878  0.93580812  1
  C  C6  1  0.35687222  0.49269122  0.43580812  1
  C  C7  1  0.85687222  0.00730878  0.56419188  1
  C  C8  1  0.49424888  0.24680092  0.02539822  1
  C  C9  1  0.99424888  0.25319908  0.97460178  1
  C  C10  1  0.50575112  0.74680092  0.47460178  1
  C  C11  1  0.00575112  0.75319908  0.52539822  1
  C  C12  1  0.50575112  0.75319908  0.97460178  1
  C  C13  1  0.00575112  0.74680092  0.02539822  1
  C  C14  1  0.49424888  0.25319908  0.52539822  1
  C  C15  1  0.99424888  0.24680092  0.47460178  1
  C  C16  1  0.39585896  0.12860879  0.16511317  1
  C  C17  1  0.89585896  0.37139121  0.83488683  1
  C  C18  1  0.60414104  0.62860879  0.33488683  1
  C  C19  1  0.10414104  0.87139121  0.66511317  1
  C  C20  1  0.60414104  0.87139121  0.83488683  1
  C  C21  1  0.10414104  0.62860879  0.16511317  1
  C  C22  1  0.39585896  0.37139121  0.66511317  1
  C  C23  1  0.89585896  0.12860879  0.33488683  1
  C  C24  1  0.57979674  0.28487288  0.89212809  1
  C  C25  1  0.07979674  0.21512712  0.10787191  1
  C  C26  1  0.42020326  0.78487288  0.60787191  1
  C  C27  1  0.92020326  0.71512712  0.39212809  1
  C  C28  1  0.42020326  0.71512712  0.10787191  1
  C  C29  1  0.92020326  0.78487288  0.89212809  1
  C  C30  1  0.57979674  0.21512712  0.39212809  1
  C  C31  1  0.07979674  0.28487288  0.60787191  1
  C  C32  1  0.62303981  0.17067728  0.93016926  1
  C  C33  1  0.12303981  0.32932272  0.06983074  1
  C  C34  1  0.37696019  0.67067728  0.56983074  1
  C  C35  1  0.87696019  0.82932272  0.43016926  1
  C  C36  1  0.37696019  0.82932272  0.06983074  1
  C  C37  1  0.87696019  0.67067728  0.93016926  1
  C  C38  1  0.62303981  0.32932272  0.43016926  1
  C  C39  1  0.12303981  0.17067728  0.56983074  1
  C  C40  1  0.50608659  0.17848738  0.87895829  1
  C  C41  1  0.00608659  0.32151262  0.12104171  1
  C  C42  1  0.49391341  0.67848738  0.62104171  1
  C  C43  1  0.99391341  0.82151262  0.37895829  1
  C  C44  1  0.49391341  0.82151262  0.12104171  1
  C  C45  1  0.99391341  0.67848738  0.87895829  1
  C  C46  1  0.50608659  0.32151262  0.37895829  1
  C  C47  1  0.00608659  0.17848738  0.62104171  1
  C  C48  1  0.61160558  0.38876035  0.04815793  1
  C  C49  1  0.11160558  0.11123965  0.95184207  1
  C  C50  1  0.38839442  0.88876035  0.45184207  1
  C  C51  1  0.88839442  0.61123965  0.54815793  1
  C  C52  1  0.38839442  0.61123965  0.95184207  1
  C  C53  1  0.88839442  0.88876035  0.04815793  1
  C  C54  1  0.61160558  0.11123965  0.54815793  1
  C  C55  1  0.11160558  0.38876035  0.45184207  1
  C  C56  1  0.57047205  0.34106214  0.14472399  1
  C  C57  1  0.07047205  0.15893786  0.85527601  1
  C  C58  1  0.42952795  0.84106214  0.35527601  1
  C  C59  1  0.92952795  0.65893786  0.64472399  1
  C  C60  1  0.42952795  0.65893786  0.85527601  1
  C  C61  1  0.92952795  0.84106214  0.14472399  1
  C  C62  1  0.57047205  0.15893786  0.64472399  1
  C  C63  1  0.07047205  0.34106214  0.35527601  1
  C  C64  1  0.66367663  0.27729730  0.08775766  1
  C  C65  1  0.16367663  0.22270270  0.91224234  1
  C  C66  1  0.33632337  0.77729730  0.41224234  1
  C  C67  1  0.83632337  0.72270270  0.58775766  1
  C  C68  1  0.33632337  0.72270270  0.91224234  1
  C  C69  1  0.83632337  0.77729730  0.08775766  1
  C  C70  1  0.66367663  0.22270270  0.58775766  1
  C  C71  1  0.16367663  0.27729730  0.41224234  1
  C  C72  1  0.42714529  0.40384669  0.96312086  1
  C  C73  1  0.92714529  0.09615331  0.03687914  1
  C  C74  1  0.57285471  0.90384669  0.53687914  1
  C  C75  1  0.07285471  0.59615331  0.46312086  1
  C  C76  1  0.57285471  0.59615331  0.03687914  1
  C  C77  1  0.07285471  0.90384669  0.96312086  1
  C  C78  1  0.42714529  0.09615331  0.46312086  1
  C  C79  1  0.92714529  0.40384669  0.53687914  1
  C  C80  1  0.33588649  0.30813570  0.96050730  1
  C  C81  1  0.83588649  0.19186430  0.03949270  1
  C  C82  1  0.66411351  0.80813570  0.53949270  1
  C  C83  1  0.16411351  0.69186430  0.46050730  1
  C  C84  1  0.66411351  0.69186430  0.03949270  1
  C  C85  1  0.16411351  0.80813570  0.96050730  1
  C  C86  1  0.33588649  0.19186430  0.46050730  1
  C  C87  1  0.83588649  0.30813570  0.53949270  1
  C  C88  1  0.36040787  0.37218168  0.05467550  1
  C  C89  1  0.86040787  0.12781832  0.94532450  1
  C  C90  1  0.63959213  0.87218168  0.44532450  1
  C  C91  1  0.13959213  0.62781832  0.55467550  1
  C  C92  1  0.63959213  0.62781832  0.94532450  1
  C  C93  1  0.13959213  0.87218168  0.05467550  1
  C  C94  1  0.36040787  0.12781832  0.55467550  1
  C  C95  1  0.86040787  0.37218168  0.44532450  1
  C  C96  1  0.24730328  0.03792335  0.21974886  1
  C  C97  1  0.74730328  0.46207665  0.78025114  1
  C  C98  1  0.75269672  0.53792335  0.28025114  1
  C  C99  1  0.25269672  0.96207665  0.71974886  1
  C  C100  1  0.75269672  0.96207665  0.78025114  1
  C  C101  1  0.25269672  0.53792335  0.21974886  1
  C  C102  1  0.24730328  0.46207665  0.71974886  1
  C  C103  1  0.74730328  0.03792335  0.28025114  1
  C  C104  1  0.22214362  0.08040414  0.11864409  1
  C  C105  1  0.72214362  0.41959586  0.88135591  1
  C  C106  1  0.77785638  0.58040414  0.38135591  1
  C  C107  1  0.27785638  0.91959586  0.61864409  1
  C  C108  1  0.77785638  0.91959586  0.88135591  1
  C  C109  1  0.27785638  0.58040414  0.11864409  1
  C  C110  1  0.22214362  0.41959586  0.61864409  1
  C  C111  1  0.72214362  0.08040414  0.38135591  1
  C  C112  1  0.29728420  0.97315792  0.13499137  1
  C  C113  1  0.79728420  0.52684208  0.86500863  1
  C  C114  1  0.70271580  0.47315792  0.36500863  1
  C  C115  1  0.20271580  0.02684208  0.63499137  1
  C  C116  1  0.70271580  0.02684208  0.86500863  1
  C  C117  1  0.20271580  0.47315792  0.13499137  1
  C  C118  1  0.29728420  0.52684208  0.63499137  1
  C  C119  1  0.79728420  0.97315792  0.36500863  1
  C  C120  1  0.43919713  0.05768548  0.30401782  1
  C  C121  1  0.93919713  0.44231452  0.69598218  1
  C  C122  1  0.56080287  0.55768548  0.19598218  1
  C  C123  1  0.06080287  0.94231452  0.80401782  1
  C  C124  1  0.56080287  0.94231452  0.69598218  1
  C  C125  1  0.06080287  0.55768548  0.30401782  1
  C  C126  1  0.43919713  0.44231452  0.80401782  1
  C  C127  1  0.93919713  0.05768548  0.19598218  1
  C  C128  1  0.49300126  0.98573261  0.22500680  1
  C  C129  1  0.99300126  0.51426739  0.77499320  1
  C  C130  1  0.50699874  0.48573261  0.27499320  1
  C  C131  1  0.00699874  0.01426739  0.72500680  1
  C  C132  1  0.50699874  0.01426739  0.77499320  1
  C  C133  1  0.00699874  0.48573261  0.22500680  1
  C  C134  1  0.49300126  0.51426739  0.72500680  1
  C  C135  1  0.99300126  0.98573261  0.27499320  1
  C  C136  1  0.54820390  0.10063761  0.25395362  1
  C  C137  1  0.04820390  0.39936239  0.74604638  1
  C  C138  1  0.45179610  0.60063761  0.24604638  1
  C  C139  1  0.95179610  0.89936239  0.75395362  1
  C  C140  1  0.45179610  0.89936239  0.74604638  1
  C  C141  1  0.95179610  0.60063761  0.25395362  1
  C  C142  1  0.54820390  0.39936239  0.75395362  1
  C  C143  1  0.04820390  0.10063761  0.24604638  1
  C  C144  1  0.32109284  0.22709653  0.28149809  1
  C  C145  1  0.82109284  0.27290347  0.71850191  1
  C  C146  1  0.67890716  0.72709653  0.21850191  1
  C  C147  1  0.17890716  0.77290347  0.78149809  1
  C  C148  1  0.67890716  0.77290347  0.71850191  1
  C  C149  1  0.17890716  0.72709653  0.28149809  1
  C  C150  1  0.32109284  0.27290347  0.78149809  1
  C  C151  1  0.82109284  0.22709653  0.21850191  1
  C  C152  1  0.41233120  0.29785311  0.22820788  1
  C  C153  1  0.91233120  0.20214689  0.77179212  1
  C  C154  1  0.58766880  0.79785311  0.27179212  1
  C  C155  1  0.08766880  0.70214689  0.72820788  1
  C  C156  1  0.58766880  0.70214689  0.77179212  1
  C  C157  1  0.08766880  0.79785311  0.22820788  1
  C  C158  1  0.41233120  0.20214689  0.72820788  1
  C  C159  1  0.91233120  0.29785311  0.27179212  1
  C  C160  1  0.29159820  0.28162383  0.18481513  1
  C  C161  1  0.79159820  0.21837617  0.81518487  1
  C  C162  1  0.70840180  0.78162383  0.31518487  1
  C  C163  1  0.20840180  0.71837617  0.68481513  1
  C  C164  1  0.70840180  0.71837617  0.81518487  1
  C  C165  1  0.20840180  0.78162383  0.18481513  1
  C  C166  1  0.29159820  0.21837617  0.68481513  1
  C  C167  1  0.79159820  0.28162383  0.31518487  1
  Ni  Ni168  1  0.55583736  0.21655039  0.92270279  1
  Ni  Ni169  1  0.05583736  0.28344961  0.07729721  1
  Ni  Ni170  1  0.44416264  0.71655039  0.57729721  1
  Ni  Ni171  1  0.94416264  0.78344961  0.42270279  1
  Ni  Ni172  1  0.44416264  0.78344961  0.07729721  1
  Ni  Ni173  1  0.94416264  0.71655039  0.92270279  1
  Ni  Ni174  1  0.55583736  0.28344961  0.42270279  1
  Ni  Ni175  1  0.05583736  0.21655039  0.57729721  1
  Ni  Ni176  1  0.59436609  0.32040819  0.08220972  1
  Ni  Ni177  1  0.09436609  0.17959181  0.91779028  1
  Ni  Ni178  1  0.40563391  0.82040819  0.41779028  1
  Ni  Ni179  1  0.90563391  0.67959181  0.58220972  1
  Ni  Ni180  1  0.40563391  0.67959181  0.91779028  1
  Ni  Ni181  1  0.90563391  0.82040819  0.08220972  1
  Ni  Ni182  1  0.59436609  0.17959181  0.58220972  1
  Ni  Ni183  1  0.09436609  0.32040819  0.41779028  1
  Ni  Ni184  1  0.39473496  0.34213126  0.99840393  1
  Ni  Ni185  1  0.89473496  0.15786874  0.00159607  1
  Ni  Ni186  1  0.60526504  0.84213126  0.50159607  1
  Ni  Ni187  1  0.10526504  0.65786874  0.49840393  1
  Ni  Ni188  1  0.60526504  0.65786874  0.00159607  1
  Ni  Ni189  1  0.10526504  0.84213126  0.99840393  1
  Ni  Ni190  1  0.39473496  0.15786874  0.49840393  1
  Ni  Ni191  1  0.89473496  0.34213126  0.50159607  1
  Ni  Ni192  1  0.28026329  0.04784447  0.15816140  1
  Ni  Ni193  1  0.78026329  0.45215553  0.84183860  1
  Ni  Ni194  1  0.71973671  0.54784447  0.34183860  1
  Ni  Ni195  1  0.21973671  0.95215553  0.65816140  1
  Ni  Ni196  1  0.71973671  0.95215553  0.84183860  1
  Ni  Ni197  1  0.21973671  0.54784447  0.15816140  1
  Ni  Ni198  1  0.28026329  0.45215553  0.65816140  1
  Ni  Ni199  1  0.78026329  0.04784447  0.34183860  1
  Ni  Ni200  1  0.47685929  0.06228275  0.24386134  1
  Ni  Ni201  1  0.97685929  0.43771725  0.75613866  1
  Ni  Ni202  1  0.52314071  0.56228275  0.25613866  1
  Ni  Ni203  1  0.02314071  0.93771725  0.74386134  1
  Ni  Ni204  1  0.52314071  0.93771725  0.75613866  1
  Ni  Ni205  1  0.02314071  0.56228275  0.24386134  1
  Ni  Ni206  1  0.47685929  0.43771725  0.74386134  1
  Ni  Ni207  1  0.97685929  0.06228275  0.25613866  1
  Ni  Ni208  1  0.35118964  0.24481256  0.21990659  1
  Ni  Ni209  1  0.85118964  0.25518744  0.78009341  1
  Ni  Ni210  1  0.64881036  0.74481256  0.28009341  1
  Ni  Ni211  1  0.14881036  0.75518744  0.71990659  1
  Ni  Ni212  1  0.64881036  0.75518744  0.78009341  1
  Ni  Ni213  1  0.14881036  0.74481256  0.21990659  1
  Ni  Ni214  1  0.35118964  0.25518744  0.71990659  1
  Ni  Ni215  1  0.85118964  0.24481256  0.28009341  1
  Cu  Cu216  1  0.45340464  0.14337954  0.07232167  1
  Cu  Cu217  1  0.95340464  0.35662046  0.92767833  1
  Cu  Cu218  1  0.54659536  0.64337954  0.42767833  1
  Cu  Cu219  1  0.04659536  0.85662046  0.57232167  1
  Cu  Cu220  1  0.54659536  0.85662046  0.92767833  1
  Cu  Cu221  1  0.04659536  0.64337954  0.07232167  1
  Cu  Cu222  1  0.45340464  0.35662046  0.57232167  1
  Cu  Cu223  1  0.95340464  0.14337954  0.42767833  1
