# generated using pymatgen
data_CuNiC10
_symmetry_space_group_name_H-M   'P 1'
_cell_length_a   8.54459583
_cell_length_b   8.54459583
_cell_length_c   13.20134500
_cell_angle_alpha   90.00000000
_cell_angle_beta   90.00000000
_cell_angle_gamma   119.99999865
_symmetry_Int_Tables_number   1
_chemical_formula_structural   CuNiC10
_chemical_formula_sum   'Cu6 Ni6 C60'
_cell_volume   834.70279522
_cell_formula_units_Z   6
loop_
 _symmetry_equiv_pos_site_id
 _symmetry_equiv_pos_as_xyz
  1  'x, y, z'
loop_
 _atom_site_type_symbol
 _atom_site_label
 _atom_site_symmetry_multiplicity
 _atom_site_fract_x
 _atom_site_fract_y
 _atom_site_fract_z
 _atom_site_occupancy
  C  C0  1  0.98429900  0.66238800  0.11472500  1
  C  C1  1  0.67808900  0.01570100  0.11472500  1
  C  C2  1  0.33761200  0.32191100  0.11472500  1
  C  C3  1  0.98429900  0.66238800  0.88527500  1
  C  C4  1  0.67808900  0.01570100  0.88527500  1
  C  C5  1  0.33761200  0.32191100  0.88527500  1
  C  C6  1  0.67252500  0.66881800  0.25483700  1
  C  C7  1  0.99629400  0.32747500  0.25483700  1
  C  C8  1  0.33118200  0.00370600  0.25483700  1
  C  C9  1  0.67252500  0.66881800  0.74516300  1
  C  C10  1  0.99629400  0.32747500  0.74516300  1
  C  C11  1  0.33118200  0.00370600  0.74516300  1
  C  C12  1  0.31271100  0.34026100  0.61775700  1
  C  C13  1  0.02755100  0.68728900  0.61775700  1
  C  C14  1  0.65973900  0.97244900  0.61775700  1
  C  C15  1  0.31271100  0.34026100  0.38224300  1
  C  C16  1  0.02755100  0.68728900  0.38224300  1
  C  C17  1  0.65973900  0.97244900  0.38224300  1
  Ni  Ni18  1  0.66666700  0.33333300  0.19500500  1
  Ni  Ni19  1  0.66666700  0.33333300  0.80499500  1
  Ni  Ni20  1  0.33333300  0.66666700  0.71653800  1
  Ni  Ni21  1  0.33333300  0.66666700  0.28346200  1
  Ni  Ni22  1  0.00000000  0.00000000  0.72486100  1
  Ni  Ni23  1  0.00000000  0.00000000  0.27513900  1
  Cu  Cu24  1  0.65601100  0.68666800  0.00000000  1
  Cu  Cu25  1  0.03065700  0.34398900  0.00000000  1
  Cu  Cu26  1  0.31333200  0.96934300  0.00000000  1
  Cu  Cu27  1  0.68115200  0.64484800  0.50000000  1
  Cu  Cu28  1  0.96369600  0.31884800  0.50000000  1
  Cu  Cu29  1  0.35515200  0.03630400  0.50000000  1
  C  C30  1  0.85639300  0.73146800  0.00000000  1
  C  C31  1  0.87507500  0.14360700  0.00000000  1
  C  C32  1  0.26853200  0.12492500  0.00000000  1
  C  C33  1  0.62056400  0.76563000  0.09815900  1
  C  C34  1  0.14506600  0.37943600  0.09815900  1
  C  C35  1  0.23437000  0.85493400  0.09815900  1
  C  C36  1  0.62056400  0.76563000  0.90184100  1
  C  C37  1  0.14506600  0.37943600  0.90184100  1
  C  C38  1  0.23437000  0.85493400  0.90184100  1
  C  C39  1  0.51961700  0.48015800  0.00000000  1
  C  C40  1  0.96054100  0.48038300  0.00000000  1
  C  C41  1  0.51984200  0.03945900  0.00000000  1
  C  C42  1  0.76606800  0.61860600  0.40165400  1
  C  C43  1  0.85253900  0.23393200  0.40165400  1
  C  C44  1  0.38139400  0.14746100  0.40165400  1
  C  C45  1  0.76606800  0.61860600  0.59834600  1
  C  C46  1  0.85253900  0.23393200  0.59834600  1
  C  C47  1  0.38139400  0.14746100  0.59834600  1
  C  C48  1  0.47755300  0.50384200  0.50000000  1
  C  C49  1  0.02628900  0.52244700  0.50000000  1
  C  C50  1  0.49615800  0.97371100  0.50000000  1
  C  C51  1  0.71123600  0.84070500  0.50000000  1
  C  C52  1  0.12946900  0.28876400  0.50000000  1
  C  C53  1  0.15929500  0.87053100  0.50000000  1
  C  C54  1  0.76856300  0.51997400  0.19614600  1
  C  C55  1  0.75141100  0.23143700  0.19614600  1
  C  C56  1  0.48002600  0.24858900  0.19614600  1
  C  C57  1  0.76856300  0.51997400  0.80385400  1
  C  C58  1  0.75141100  0.23143700  0.80385400  1
  C  C59  1  0.48002600  0.24858900  0.80385400  1
  C  C60  1  0.41055500  0.55650500  0.71551200  1
  C  C61  1  0.14595000  0.58944500  0.71551200  1
  C  C62  1  0.44349500  0.85405000  0.71551200  1
  C  C63  1  0.41055500  0.55650500  0.28448800  1
  C  C64  1  0.14595000  0.58944500  0.28448800  1
  C  C65  1  0.44349500  0.85405000  0.28448800  1
  C  C66  1  0.11898300  0.18493700  0.72749200  1
  C  C67  1  0.06595400  0.88101700  0.72749200  1
  C  C68  1  0.81506300  0.93404600  0.72749200  1
  C  C69  1  0.11898300  0.18493700  0.27250800  1
  C  C70  1  0.06595400  0.88101700  0.27250800  1
  C  C71  1  0.81506300  0.93404600  0.27250800  1
