# generated using pymatgen
data_Cu2NiC
_symmetry_space_group_name_H-M   'P 1'
_cell_length_a   12.79098010
_cell_length_b   12.59100982
_cell_length_c   12.59100974
_cell_angle_alpha   59.78315500
_cell_angle_beta   59.47322072
_cell_angle_gamma   59.47322276
_symmetry_Int_Tables_number   1
_chemical_formula_structural   Cu2NiC
_chemical_formula_sum   'Cu2 Ni1 C1'
_cell_volume   1420.03957730
_cell_formula_units_Z   1
loop_
 _symmetry_equiv_pos_site_id
 _symmetry_equiv_pos_as_xyz
  1  'x, y, z'
loop_
 _atom_site_type_symbol
 _atom_site_label
 _atom_site_symmetry_multiplicity
 _atom_site_fract_x
 _atom_site_fract_y
 _atom_site_fract_z
 _atom_site_occupancy
  C  C0  1  0.50000000  -0.00000000  -0.00000000  1
  Ni  Ni1  1  -0.00000000  -0.00000000  -0.00000000  1
  Cu  Cu2  1  0.76297931  0.00000000  1.00000000  1
  Cu  Cu3  1  0.23702069  1.00000000  0.00000000  1
