# generated using pymatgen
data_CuNiC9
_symmetry_space_group_name_H-M   'P 1'
_cell_length_a   5.47392150
_cell_length_b   5.47404026
_cell_length_c   6.83194508
_cell_angle_alpha   66.38300630
_cell_angle_beta   66.38225073
_cell_angle_gamma   59.99928835
_symmetry_Int_Tables_number   1
_chemical_formula_structural   CuNiC9
_chemical_formula_sum   'Cu1 Ni1 C9'
_cell_volume   157.17716258
_cell_formula_units_Z   1
loop_
 _symmetry_equiv_pos_site_id
 _symmetry_equiv_pos_as_xyz
  1  'x, y, z'
loop_
 _atom_site_type_symbol
 _atom_site_label
 _atom_site_symmetry_multiplicity
 _atom_site_fract_x
 _atom_site_fract_y
 _atom_site_fract_z
 _atom_site_occupancy
  Ni  Ni0  1  0.78024700  0.78030600  0.65914100  1
  Cu  Cu1  1  0.20771300  0.20772700  0.37683400  1
  C  C2  1  0.00208300  0.00206500  0.99378700  1
  C  C3  1  0.41327600  0.41328600  0.76015200  1
  C  C4  1  0.58985100  0.58982500  0.23049900  1
  C  C5  1  0.70702100  0.26596300  0.76105300  1
  C  C6  1  0.26594700  0.26597900  0.76104500  1
  C  C7  1  0.26594700  0.70702800  0.76104500  1
  C  C8  1  0.29607800  0.73589200  0.23213700  1
  C  C9  1  0.73591800  0.73587900  0.23215400  1
  C  C10  1  0.73591800  0.29605000  0.23215400  1
