# generated using pymatgen
data_Cu5Ni2C
_symmetry_space_group_name_H-M   'P 1'
_cell_length_a   5.85073800
_cell_length_b   7.64009200
_cell_length_c   10.68426600
_cell_angle_alpha   90.00000000
_cell_angle_beta   90.00000000
_cell_angle_gamma   90.00000000
_symmetry_Int_Tables_number   1
_chemical_formula_structural   Cu5Ni2C
_chemical_formula_sum   'Cu20 Ni8 C4'
_cell_volume   477.58857691
_cell_formula_units_Z   4
loop_
 _symmetry_equiv_pos_site_id
 _symmetry_equiv_pos_as_xyz
  1  'x, y, z'
loop_
 _atom_site_type_symbol
 _atom_site_label
 _atom_site_symmetry_multiplicity
 _atom_site_fract_x
 _atom_site_fract_y
 _atom_site_fract_z
 _atom_site_occupancy
  C  C0  1  0.00000000  0.00000000  0.00000000  1
  C  C1  1  0.50000000  0.00000000  0.50000000  1
  C  C2  1  0.00000000  0.50000000  0.00000000  1
  C  C3  1  0.50000000  0.50000000  0.50000000  1
  Ni  Ni4  1  0.98008500  0.25000000  0.64540200  1
  Ni  Ni5  1  0.01991500  0.75000000  0.35459800  1
  Ni  Ni6  1  0.51991500  0.75000000  0.14540200  1
  Ni  Ni7  1  0.48008500  0.25000000  0.85459800  1
  Ni  Ni8  1  0.06697700  0.25000000  0.30054900  1
  Ni  Ni9  1  0.93302300  0.75000000  0.69945100  1
  Ni  Ni10  1  0.43302300  0.75000000  0.80054900  1
  Ni  Ni11  1  0.56697700  0.25000000  0.19945100  1
  Cu  Cu12  1  0.38341600  0.53306100  0.33690000  1
  Cu  Cu13  1  0.61658400  0.46693900  0.66310000  1
  Cu  Cu14  1  0.11658400  0.46693900  0.83690000  1
  Cu  Cu15  1  0.61658400  0.03306100  0.66310000  1
  Cu  Cu16  1  0.88341600  0.53306100  0.16310000  1
  Cu  Cu17  1  0.38341600  0.96693900  0.33690000  1
  Cu  Cu18  1  0.88341600  0.96693900  0.16310000  1
  Cu  Cu19  1  0.11658400  0.03306100  0.83690000  1
  Cu  Cu20  1  0.41947600  0.25000000  0.49066800  1
  Cu  Cu21  1  0.58052400  0.75000000  0.50933200  1
  Cu  Cu22  1  0.08052400  0.75000000  0.99066800  1
  Cu  Cu23  1  0.91947600  0.25000000  0.00933200  1
  Cu  Cu24  1  0.28666200  0.04651800  0.06569000  1
  Cu  Cu25  1  0.71333800  0.95348200  0.93431000  1
  Cu  Cu26  1  0.21333800  0.95348200  0.56569000  1
  Cu  Cu27  1  0.71333800  0.54651800  0.93431000  1
  Cu  Cu28  1  0.78666200  0.04651800  0.43431000  1
  Cu  Cu29  1  0.28666200  0.45348200  0.06569000  1
  Cu  Cu30  1  0.78666200  0.45348200  0.43431000  1
  Cu  Cu31  1  0.21333800  0.54651800  0.56569000  1
