# generated using pymatgen
data_CuNiC8
_symmetry_space_group_name_H-M   'P 1'
_cell_length_a   10.03379700
_cell_length_b   5.79631000
_cell_length_c   9.61454336
_cell_angle_alpha   86.38595698
_cell_angle_beta   90.00000000
_cell_angle_gamma   90.00000000
_symmetry_Int_Tables_number   1
_chemical_formula_structural   CuNiC8
_chemical_formula_sum   'Cu4 Ni4 C32'
_cell_volume   558.06018600
_cell_formula_units_Z   4
loop_
 _symmetry_equiv_pos_site_id
 _symmetry_equiv_pos_as_xyz
  1  'x, y, z'
loop_
 _atom_site_type_symbol
 _atom_site_label
 _atom_site_symmetry_multiplicity
 _atom_site_fract_x
 _atom_site_fract_y
 _atom_site_fract_z
 _atom_site_occupancy
  C  C0  1  0.31362400  0.73104600  0.50005900  1
  C  C1  1  0.81362400  0.26895400  0.99994100  1
  C  C2  1  0.68637600  0.26895400  0.49994100  1
  C  C3  1  0.18637600  0.73104600  0.00005900  1
  Ni  Ni4  1  0.60967400  0.80648400  0.81099800  1
  Ni  Ni5  1  0.39032600  0.19351600  0.18900200  1
  Ni  Ni6  1  0.89032600  0.80648400  0.31099800  1
  Ni  Ni7  1  0.10967400  0.19351600  0.68900200  1
  Cu  Cu8  1  0.40022000  0.30334300  0.80777300  1
  Cu  Cu9  1  0.90022000  0.69665700  0.69222700  1
  Cu  Cu10  1  0.09978000  0.30334300  0.30777300  1
  Cu  Cu11  1  0.59978000  0.69665700  0.19222700  1
  C  C12  1  0.44053700  0.87396800  0.12132000  1
  C  C13  1  0.05002000  0.63434000  0.36930700  1
  C  C14  1  0.71641800  0.52214300  0.74460700  1
  C  C15  1  0.28358200  0.47785700  0.25539300  1
  C  C16  1  0.45855500  0.11473600  0.36348800  1
  C  C17  1  0.81172000  0.74126900  0.48906800  1
  C  C18  1  0.77776800  0.97534100  0.74778000  1
  C  C19  1  0.95855500  0.88526400  0.13651200  1
  C  C20  1  0.44998000  0.63434000  0.86930700  1
  C  C21  1  0.21641800  0.47785700  0.75539300  1
  C  C22  1  0.05946300  0.87396800  0.62132000  1
  C  C23  1  0.55946300  0.12603200  0.87868000  1
  C  C24  1  0.27776800  0.02465900  0.75222000  1
  C  C25  1  0.95859800  0.61675100  0.88156900  1
  C  C26  1  0.54144500  0.88526400  0.63651200  1
  C  C27  1  0.04144500  0.11473600  0.86348800  1
  C  C28  1  0.22223200  0.02465900  0.25222000  1
  C  C29  1  0.94053700  0.12603200  0.37868000  1
  C  C30  1  0.45859800  0.38324900  0.61843100  1
  C  C31  1  0.94998000  0.36566000  0.63069300  1
  C  C32  1  0.04140200  0.38324900  0.11843100  1
  C  C33  1  0.72223200  0.97534100  0.24778000  1
  C  C34  1  0.54140200  0.61675100  0.38156900  1
  C  C35  1  0.31172000  0.25873100  0.01093200  1
  C  C36  1  0.18828000  0.25873100  0.51093200  1
  C  C37  1  0.68828000  0.74126900  0.98906800  1
  C  C38  1  0.55002000  0.36566000  0.13069300  1
  C  C39  1  0.78358200  0.52214300  0.24460700  1
