# generated using pymatgen
data_CuNi3C10
_symmetry_space_group_name_H-M   'P 1'
_cell_length_a   6.09130280
_cell_length_b   6.09130280
_cell_length_c   15.50981330
_cell_angle_alpha   89.65441246
_cell_angle_beta   89.65441246
_cell_angle_gamma   60.03464191
_symmetry_Int_Tables_number   1
_chemical_formula_structural   CuNi3C10
_chemical_formula_sum   'Cu2 Ni6 C20'
_cell_volume   498.53831057
_cell_formula_units_Z   2
loop_
 _symmetry_equiv_pos_site_id
 _symmetry_equiv_pos_as_xyz
  1  'x, y, z'
loop_
 _atom_site_type_symbol
 _atom_site_label
 _atom_site_symmetry_multiplicity
 _atom_site_fract_x
 _atom_site_fract_y
 _atom_site_fract_z
 _atom_site_occupancy
  Ni  Ni0  1  0.30276800  0.35568900  0.91582600  1
  Ni  Ni1  1  0.64431100  0.69723200  0.58417400  1
  Ni  Ni2  1  0.93532500  0.06467500  0.75000000  1
  Ni  Ni3  1  0.06467500  0.93532500  0.25000000  1
  Ni  Ni4  1  0.35568900  0.30276800  0.41582600  1
  Ni  Ni5  1  0.69723200  0.64431100  0.08417400  1
  Cu  Cu6  1  0.00000000  0.00000000  0.50000000  1
  Cu  Cu7  1  0.00000000  0.00000000  0.00000000  1
  C  C8  1  0.63760900  0.68575200  0.86005500  1
  C  C9  1  0.31424800  0.36239100  0.63994500  1
  C  C10  1  0.36239100  0.31424800  0.13994500  1
  C  C11  1  0.68575200  0.63760900  0.36005500  1
  C  C12  1  0.39175400  0.77251300  0.42106900  1
  C  C13  1  0.22748700  0.60824600  0.07893100  1
  C  C14  1  0.60824600  0.22748700  0.57893100  1
  C  C15  1  0.77251300  0.39175400  0.92106900  1
  C  C16  1  0.84310200  0.30097100  0.37798200  1
  C  C17  1  0.69902900  0.15689800  0.12201800  1
  C  C18  1  0.15689800  0.69902900  0.62201800  1
  C  C19  1  0.30097100  0.84310200  0.87798200  1
  C  C20  1  0.85977300  0.76793600  0.41190600  1
  C  C21  1  0.23206400  0.14022700  0.08809400  1
  C  C22  1  0.14022700  0.23206400  0.58809400  1
  C  C23  1  0.76793600  0.85977300  0.91190600  1
  C  C24  1  0.73785100  0.60789900  0.75108500  1
  C  C25  1  0.39210100  0.26214900  0.74891500  1
  C  C26  1  0.26214900  0.39210100  0.24891500  1
  C  C27  1  0.60789900  0.73785100  0.25108500  1
