# generated using pymatgen
data_CuNiC11
_symmetry_space_group_name_H-M   'P 1'
_cell_length_a   5.43339978
_cell_length_b   5.63672228
_cell_length_c   11.76159832
_cell_angle_alpha   103.73141682
_cell_angle_beta   103.37081141
_cell_angle_gamma   90.02855502
_symmetry_Int_Tables_number   1
_chemical_formula_structural   CuNiC11
_chemical_formula_sum   'Cu2 Ni2 C22'
_cell_volume   339.85176522
_cell_formula_units_Z   2
loop_
 _symmetry_equiv_pos_site_id
 _symmetry_equiv_pos_as_xyz
  1  'x, y, z'
loop_
 _atom_site_type_symbol
 _atom_site_label
 _atom_site_symmetry_multiplicity
 _atom_site_fract_x
 _atom_site_fract_y
 _atom_site_fract_z
 _atom_site_occupancy
  C  C0  1  0.14999300  0.17265300  0.29912100  1
  C  C1  1  0.85152000  0.82722600  0.70151100  1
  C  C2  1  0.65102800  0.62239000  0.29990600  1
  C  C3  1  0.35031800  0.37607400  0.70134000  1
  Ni  Ni4  1  0.50332300  0.49950300  0.00147600  1
  Ni  Ni5  1  0.00344200  0.00054900  0.00121000  1
  Cu  Cu6  1  0.21846100  0.82190800  0.50109100  1
  Cu  Cu7  1  0.71796300  0.17753900  0.49854800  1
  C  C8  1  0.43838300  0.94328000  0.86907400  1
  C  C9  1  0.07143500  0.57400800  0.13281400  1
  C  C10  1  0.93910200  0.42865100  0.87323800  1
  C  C11  1  0.57128800  0.05621800  0.13472200  1
  C  C12  1  0.87300800  0.22726800  0.10716900  1
  C  C13  1  0.87241300  0.87658000  0.50004400  1
  C  C14  1  0.37342200  0.37808400  0.10777900  1
  C  C15  1  0.85760400  0.37634900  0.65045100  1
  C  C16  1  0.61449500  0.27637300  0.88497500  1
  C  C17  1  0.11343700  0.10959200  0.88506900  1
  C  C18  1  0.37309900  0.12256400  0.50034200  1
  C  C19  1  0.26724200  0.62012600  0.89458400  1
  C  C20  1  0.76833700  0.77256200  0.89454200  1
  C  C21  1  0.35504100  0.78546300  0.65654500  1
  C  C22  1  0.20109300  0.62570700  0.34707000  1
  C  C23  1  0.69727600  0.21199000  0.34266900  1
  C  C24  1  0.72899600  0.72378900  0.11755600  1
  C  C25  1  0.22895100  0.89088400  0.11694500  1
