# generated using pymatgen
data_Cu3(NiC2)2
_symmetry_space_group_name_H-M   'P 1'
_cell_length_a   7.11602600
_cell_length_b   7.40373400
_cell_length_c   14.04139000
_cell_angle_alpha   90.00000000
_cell_angle_beta   90.00000000
_cell_angle_gamma   90.00000000
_symmetry_Int_Tables_number   1
_chemical_formula_structural   Cu3(NiC2)2
_chemical_formula_sum   'Cu12 Ni8 C16'
_cell_volume   739.77292990
_cell_formula_units_Z   4
loop_
 _symmetry_equiv_pos_site_id
 _symmetry_equiv_pos_as_xyz
  1  'x, y, z'
loop_
 _atom_site_type_symbol
 _atom_site_label
 _atom_site_symmetry_multiplicity
 _atom_site_fract_x
 _atom_site_fract_y
 _atom_site_fract_z
 _atom_site_occupancy
  Ni  Ni0  1  0.01198100  0.17411800  0.09731900  1
  Ni  Ni1  1  0.98801900  0.82588200  0.90268100  1
  Ni  Ni2  1  0.48801900  0.67411800  0.90268100  1
  Ni  Ni3  1  0.98801900  0.82588200  0.59731900  1
  Ni  Ni4  1  0.51198100  0.32588200  0.09731900  1
  Ni  Ni5  1  0.01198100  0.17411800  0.40268100  1
  Ni  Ni6  1  0.51198100  0.32588200  0.40268100  1
  Ni  Ni7  1  0.48801900  0.67411800  0.59731900  1
  Cu  Cu8  1  0.16081200  0.50256000  0.75000000  1
  Cu  Cu9  1  0.83918800  0.49744000  0.25000000  1
  Cu  Cu10  1  0.33918800  0.00256000  0.25000000  1
  Cu  Cu11  1  0.66081200  0.99744000  0.75000000  1
  Cu  Cu12  1  0.32994600  0.17649600  0.62487900  1
  Cu  Cu13  1  0.67005400  0.82350400  0.37512100  1
  Cu  Cu14  1  0.17005400  0.67649600  0.37512100  1
  Cu  Cu15  1  0.67005400  0.82350400  0.12487900  1
  Cu  Cu16  1  0.82994600  0.32350400  0.62487900  1
  Cu  Cu17  1  0.32994600  0.17649600  0.87512100  1
  Cu  Cu18  1  0.82994600  0.32350400  0.87512100  1
  Cu  Cu19  1  0.17005400  0.67649600  0.12487900  1
  C  C20  1  0.03334400  0.12013100  0.75000000  1
  C  C21  1  0.96665600  0.87986900  0.25000000  1
  C  C22  1  0.46665600  0.62013100  0.25000000  1
  C  C23  1  0.53334400  0.37986900  0.75000000  1
  C  C24  1  0.28607400  0.87586200  0.75000000  1
  C  C25  1  0.71392600  0.12413800  0.25000000  1
  C  C26  1  0.21392600  0.37586200  0.25000000  1
  C  C27  1  0.78607400  0.62413800  0.75000000  1
  C  C28  1  0.15659600  0.46423400  0.53942400  1
  C  C29  1  0.84340400  0.53576600  0.46057600  1
  C  C30  1  0.34340400  0.96423400  0.46057600  1
  C  C31  1  0.84340400  0.53576600  0.03942400  1
  C  C32  1  0.65659600  0.03576600  0.53942400  1
  C  C33  1  0.15659600  0.46423400  0.96057600  1
  C  C34  1  0.65659600  0.03576600  0.96057600  1
  C  C35  1  0.34340400  0.96423400  0.03942400  1
