# generated using pymatgen
data_Cu6NiC24
_symmetry_space_group_name_H-M   'P 1'
_cell_length_a   5.76395564
_cell_length_b   5.76395544
_cell_length_c   15.16574049
_cell_angle_alpha   91.67462419
_cell_angle_beta   91.67462705
_cell_angle_gamma   119.31687396
_symmetry_Int_Tables_number   1
_chemical_formula_structural   Cu6NiC24
_chemical_formula_sum   'Cu6 Ni1 C24'
_cell_volume   438.58734757
_cell_formula_units_Z   1
loop_
 _symmetry_equiv_pos_site_id
 _symmetry_equiv_pos_as_xyz
  1  'x, y, z'
loop_
 _atom_site_type_symbol
 _atom_site_label
 _atom_site_symmetry_multiplicity
 _atom_site_fract_x
 _atom_site_fract_y
 _atom_site_fract_z
 _atom_site_occupancy
  C  C0  1  0.99889669  0.00110331  0.75000000  1
  C  C1  1  0.01274616  0.98725384  0.25000000  1
  C  C2  1  0.34270351  0.67669108  0.89716180  1
  C  C3  1  0.32330892  0.65729649  0.60283820  1
  C  C4  1  0.70844422  0.37487054  0.05427398  1
  C  C5  1  0.62512946  0.29155578  0.44572602  1
  Ni  Ni6  1  0.68130983  0.31869017  0.25000000  1
  Cu  Cu7  1  0.03246184  0.03475165  0.00064107  1
  Cu  Cu8  1  0.96524835  0.96753816  0.49935893  1
  Cu  Cu9  1  0.36971439  0.69532048  0.15184900  1
  Cu  Cu10  1  0.30467952  0.63028561  0.34815100  1
  Cu  Cu11  1  0.66881831  0.33737894  0.84239378  1
  Cu  Cu12  1  0.66262106  0.33118169  0.65760622  1
  C  C13  1  0.07338204  0.25462066  0.40331584  1
  C  C14  1  0.74537934  0.92661896  0.09668416  1
  C  C15  1  0.85944642  0.68588507  0.59361238  1
  C  C16  1  0.31411493  0.14055458  0.90638762  1
  C  C17  1  0.24698836  0.94697806  0.09470614  1
  C  C18  1  0.05302194  0.75301164  0.40529386  1
  C  C19  1  0.81719825  0.12854255  0.91047132  1
  C  C20  1  0.87145745  0.18280175  0.58952868  1
  C  C21  1  0.57134488  0.76840798  0.45410352  1
  C  C22  1  0.23159202  0.42865512  0.04589648  1
  C  C23  1  0.32773800  0.14924219  0.57215307  1
  C  C24  1  0.85075781  0.67226200  0.92784693  1
  C  C25  1  0.51463645  0.48536355  0.75000000  1
  C  C26  1  0.49093903  0.50906097  0.25000000  1
  C  C27  1  0.51631247  0.03918061  0.74573731  1
  C  C28  1  0.96081939  0.48368753  0.75426269  1
  C  C29  1  0.48991621  0.95404527  0.27050688  1
  C  C30  1  0.04595473  0.51008379  0.22949312  1
