# generated using pymatgen
data_Cu6NiC
_symmetry_space_group_name_H-M   'P 1'
_cell_length_a   5.03532100
_cell_length_b   6.45180500
_cell_length_c   10.95033300
_cell_angle_alpha   90.00000000
_cell_angle_beta   90.00000000
_cell_angle_gamma   90.00000000
_symmetry_Int_Tables_number   1
_chemical_formula_structural   Cu6NiC
_chemical_formula_sum   'Cu12 Ni2 C2'
_cell_volume   355.74247393
_cell_formula_units_Z   2
loop_
 _symmetry_equiv_pos_site_id
 _symmetry_equiv_pos_as_xyz
  1  'x, y, z'
loop_
 _atom_site_type_symbol
 _atom_site_label
 _atom_site_symmetry_multiplicity
 _atom_site_fract_x
 _atom_site_fract_y
 _atom_site_fract_z
 _atom_site_occupancy
  C  C0  1  0.50000000  0.00000000  0.83578900  1
  C  C1  1  0.50000000  0.50000000  0.33578900  1
  Ni  Ni2  1  0.50000000  0.00000000  0.33495700  1
  Ni  Ni3  1  0.50000000  0.50000000  0.83495700  1
  Cu  Cu4  1  0.50000000  0.25537900  0.58159200  1
  Cu  Cu5  1  0.50000000  0.74462100  0.58159200  1
  Cu  Cu6  1  0.00000000  0.24916600  0.41446900  1
  Cu  Cu7  1  0.00000000  0.75083400  0.41446900  1
  Cu  Cu8  1  0.00000000  0.00000000  0.66793700  1
  Cu  Cu9  1  0.00000000  0.00000000  0.16919900  1
  Cu  Cu10  1  0.50000000  0.75537900  0.08159200  1
  Cu  Cu11  1  0.50000000  0.24462100  0.08159200  1
  Cu  Cu12  1  0.00000000  0.74916600  0.91446900  1
  Cu  Cu13  1  0.00000000  0.25083400  0.91446900  1
  Cu  Cu14  1  0.00000000  0.50000000  0.16793700  1
  Cu  Cu15  1  0.00000000  0.50000000  0.66919900  1
