# generated using pymatgen
data_Cu(NiC4)6
_symmetry_space_group_name_H-M   'P 1'
_cell_length_a   13.88259617
_cell_length_b   13.88259617
_cell_length_c   5.78265600
_cell_angle_alpha   90.00000000
_cell_angle_beta   90.00000000
_cell_angle_gamma   120.00000080
_symmetry_Int_Tables_number   1
_chemical_formula_structural   Cu(NiC4)6
_chemical_formula_sum   'Cu2 Ni12 C48'
_cell_volume   965.16011626
_cell_formula_units_Z   2
loop_
 _symmetry_equiv_pos_site_id
 _symmetry_equiv_pos_as_xyz
  1  'x, y, z'
loop_
 _atom_site_type_symbol
 _atom_site_label
 _atom_site_symmetry_multiplicity
 _atom_site_fract_x
 _atom_site_fract_y
 _atom_site_fract_z
 _atom_site_occupancy
  Ni  Ni0  1  0.68684100  0.09813400  0.99834400  1
  Ni  Ni1  1  0.31315900  0.90186600  0.00165600  1
  Ni  Ni2  1  0.41129400  0.31315900  0.99834400  1
  Ni  Ni3  1  0.31315900  0.90186600  0.49834400  1
  Ni  Ni4  1  0.58870600  0.68684100  0.00165600  1
  Ni  Ni5  1  0.68684100  0.09813400  0.50165600  1
  Ni  Ni6  1  0.90186600  0.58870600  0.99834400  1
  Ni  Ni7  1  0.58870600  0.68684100  0.49834400  1
  Ni  Ni8  1  0.09813400  0.41129400  0.00165600  1
  Ni  Ni9  1  0.41129400  0.31315900  0.50165600  1
  Ni  Ni10  1  0.09813400  0.41129400  0.49834400  1
  Ni  Ni11  1  0.90186600  0.58870600  0.50165600  1
  Cu  Cu12  1  0.33333300  0.66666700  0.75000000  1
  Cu  Cu13  1  0.66666700  0.33333300  0.25000000  1
  C  C14  1  0.85155500  0.34363100  0.75000000  1
  C  C15  1  0.14844500  0.65636900  0.25000000  1
  C  C16  1  0.49207600  0.14844500  0.75000000  1
  C  C17  1  0.50792400  0.85155500  0.25000000  1
  C  C18  1  0.65636900  0.50792400  0.75000000  1
  C  C19  1  0.34363100  0.49207600  0.25000000  1
  C  C20  1  0.95517900  0.11921200  0.75000000  1
  C  C21  1  0.04482100  0.88078800  0.25000000  1
  C  C22  1  0.16403300  0.04482100  0.75000000  1
  C  C23  1  0.83596700  0.95517900  0.25000000  1
  C  C24  1  0.88078800  0.83596700  0.75000000  1
  C  C25  1  0.11921200  0.16403300  0.25000000  1
  C  C26  1  0.55793400  0.74778000  0.75000000  1
  C  C27  1  0.44206600  0.25222000  0.25000000  1
  C  C28  1  0.18984600  0.44206600  0.75000000  1
  C  C29  1  0.81015400  0.55793400  0.25000000  1
  C  C30  1  0.25222000  0.81015400  0.75000000  1
  C  C31  1  0.74778000  0.18984600  0.25000000  1
  C  C32  1  0.63144700  0.00712400  0.75000000  1
  C  C33  1  0.36855300  0.99287600  0.25000000  1
  C  C34  1  0.37567700  0.36855300  0.75000000  1
  C  C35  1  0.62432300  0.63144700  0.25000000  1
  C  C36  1  0.99287600  0.62432300  0.75000000  1
  C  C37  1  0.00712400  0.37567700  0.25000000  1
  C  C38  1  0.99396900  0.38385000  0.75000000  1
  C  C39  1  0.00603100  0.61615000  0.25000000  1
  C  C40  1  0.38988100  0.00603100  0.75000000  1
  C  C41  1  0.61011900  0.99396900  0.25000000  1
  C  C42  1  0.61615000  0.61011900  0.75000000  1
  C  C43  1  0.38385000  0.38988100  0.25000000  1
  C  C44  1  0.82283900  0.39525400  0.99039300  1
  C  C45  1  0.17716100  0.60474600  0.00960700  1
  C  C46  1  0.57241500  0.17716100  0.99039300  1
  C  C47  1  0.17716100  0.60474600  0.49039300  1
  C  C48  1  0.42758500  0.82283900  0.00960700  1
  C  C49  1  0.82283900  0.39525400  0.50960700  1
  C  C50  1  0.60474600  0.42758500  0.99039300  1
  C  C51  1  0.42758500  0.82283900  0.49039300  1
  C  C52  1  0.39525400  0.57241500  0.00960700  1
  C  C53  1  0.57241500  0.17716100  0.50960700  1
  C  C54  1  0.39525400  0.57241500  0.49039300  1
  C  C55  1  0.60474600  0.42758500  0.50960700  1
  C  C56  1  0.78370200  0.19538900  0.75000000  1
  C  C57  1  0.21629800  0.80461100  0.25000000  1
  C  C58  1  0.41168700  0.21629800  0.75000000  1
  C  C59  1  0.58831300  0.78370200  0.25000000  1
  C  C60  1  0.80461100  0.58831300  0.75000000  1
  C  C61  1  0.19538900  0.41168700  0.25000000  1
