# generated using pymatgen
data_CuNi2C5
_symmetry_space_group_name_H-M   'P 1'
_cell_length_a   5.81317000
_cell_length_b   7.99677900
_cell_length_c   8.56148300
_cell_angle_alpha   90.00000000
_cell_angle_beta   90.00000000
_cell_angle_gamma   90.00000000
_symmetry_Int_Tables_number   1
_chemical_formula_structural   CuNi2C5
_chemical_formula_sum   'Cu4 Ni8 C20'
_cell_volume   397.99454195
_cell_formula_units_Z   4
loop_
 _symmetry_equiv_pos_site_id
 _symmetry_equiv_pos_as_xyz
  1  'x, y, z'
loop_
 _atom_site_type_symbol
 _atom_site_label
 _atom_site_symmetry_multiplicity
 _atom_site_fract_x
 _atom_site_fract_y
 _atom_site_fract_z
 _atom_site_occupancy
  Ni  Ni0  1  0.74783100  0.50000000  0.50000000  1
  Ni  Ni1  1  0.75216900  0.00000000  0.00000000  1
  Ni  Ni2  1  0.25216900  0.50000000  0.50000000  1
  Ni  Ni3  1  0.24783100  0.00000000  0.00000000  1
  Ni  Ni4  1  0.50000000  0.84815600  0.38347200  1
  Ni  Ni5  1  0.50000000  0.15184400  0.61652800  1
  Ni  Ni6  1  0.00000000  0.34815600  0.11652800  1
  Ni  Ni7  1  0.00000000  0.65184400  0.88347200  1
  Cu  Cu8  1  0.00000000  0.72978000  0.25255700  1
  Cu  Cu9  1  0.00000000  0.27022000  0.74744300  1
  Cu  Cu10  1  0.50000000  0.22978000  0.24744300  1
  Cu  Cu11  1  0.50000000  0.77022000  0.75255700  1
  C  C12  1  0.50000000  0.62220600  0.41967200  1
  C  C13  1  0.50000000  0.37779400  0.58032800  1
  C  C14  1  0.00000000  0.12220600  0.08032800  1
  C  C15  1  0.00000000  0.87779400  0.91967200  1
  C  C16  1  0.00000000  0.63354600  0.41457000  1
  C  C17  1  0.00000000  0.36645400  0.58543000  1
  C  C18  1  0.50000000  0.13354600  0.08543000  1
  C  C19  1  0.50000000  0.86645400  0.91457000  1
  C  C20  1  0.00000000  0.59484700  0.11841700  1
  C  C21  1  0.00000000  0.40515300  0.88158300  1
  C  C22  1  0.50000000  0.09484700  0.38158300  1
  C  C23  1  0.50000000  0.90515300  0.61841700  1
  C  C24  1  0.78038700  0.83673400  0.24291100  1
  C  C25  1  0.78038700  0.16326600  0.75708900  1
  C  C26  1  0.71961300  0.33673400  0.25708900  1
  C  C27  1  0.71961300  0.66326600  0.74291100  1
  C  C28  1  0.21961300  0.16326600  0.75708900  1
  C  C29  1  0.21961300  0.83673400  0.24291100  1
  C  C30  1  0.28038700  0.66326600  0.74291100  1
  C  C31  1  0.28038700  0.33673400  0.25708900  1
