# generated using pymatgen
data_Cu2Ni2C19
_symmetry_space_group_name_H-M   'P 1'
_cell_length_a   7.32434932
_cell_length_b   7.32129066
_cell_length_c   7.19388317
_cell_angle_alpha   62.30612210
_cell_angle_beta   117.66102178
_cell_angle_gamma   123.44425568
_symmetry_Int_Tables_number   1
_chemical_formula_structural   Cu2Ni2C19
_chemical_formula_sum   'Cu2 Ni2 C19'
_cell_volume   273.47474872
_cell_formula_units_Z   1
loop_
 _symmetry_equiv_pos_site_id
 _symmetry_equiv_pos_as_xyz
  1  'x, y, z'
loop_
 _atom_site_type_symbol
 _atom_site_label
 _atom_site_symmetry_multiplicity
 _atom_site_fract_x
 _atom_site_fract_y
 _atom_site_fract_z
 _atom_site_occupancy
  C  C0  1  0.00480800  0.98846100  0.02203600  1
  C  C1  1  0.50699000  0.48660800  0.47420400  1
  C  C2  1  0.01345800  0.98006200  0.47748300  1
  C  C3  1  0.47655600  0.01372300  0.49860700  1
  C  C4  1  0.97931300  0.51653800  0.49845600  1
  Ni  Ni5  1  0.27853600  0.71418600  0.88380100  1
  Ni  Ni6  1  0.72161600  0.27143900  0.11971400  1
  Cu  Cu7  1  0.27461900  0.71664500  0.29861300  1
  Cu  Cu8  1  0.72262000  0.27096700  0.73192900  1
  C  C9  1  0.34450900  0.64706900  0.13114400  1
  C  C10  1  0.63748400  0.35660500  0.87127200  1
  C  C11  1  0.13772400  0.85637400  0.78599500  1
  C  C12  1  0.85768300  0.13456500  0.18931500  1
  C  C13  1  0.13037700  0.49977900  0.79554300  1
  C  C14  1  0.49313400  0.86161200  0.79583600  1
  C  C15  1  0.51602500  0.11635900  0.22217400  1
  C  C16  1  0.87678200  0.47686700  0.22232500  1
  C  C17  1  0.28002500  0.71232200  0.44124800  1
  C  C18  1  0.71916000  0.27396700  0.59056800  1
  C  C19  1  0.80856900  0.97998100  0.58527800  1
  C  C20  1  0.01199600  0.18417100  0.58448200  1
  C  C21  1  0.86893900  0.72070900  0.40794700  1
  C  C22  1  0.27317700  0.12485200  0.40845800  1
