# generated using pymatgen
data_CuNiC34
_symmetry_space_group_name_H-M   'P 1'
_cell_length_a   9.07649628
_cell_length_b   9.07649628
_cell_length_c   9.07649672
_cell_angle_alpha   56.29527250
_cell_angle_beta   56.29527250
_cell_angle_gamma   56.29527410
_symmetry_Int_Tables_number   1
_chemical_formula_structural   CuNiC34
_chemical_formula_sum   'Cu1 Ni1 C34'
_cell_volume   483.41809694
_cell_formula_units_Z   1
loop_
 _symmetry_equiv_pos_site_id
 _symmetry_equiv_pos_as_xyz
  1  'x, y, z'
loop_
 _atom_site_type_symbol
 _atom_site_label
 _atom_site_symmetry_multiplicity
 _atom_site_fract_x
 _atom_site_fract_y
 _atom_site_fract_z
 _atom_site_occupancy
  Ni  Ni0  1  0.00000000  0.00000000  0.00000000  1
  Cu  Cu1  1  0.50000000  0.50000000  0.50000000  1
  C  C2  1  0.35287100  0.35287100  0.35287100  1
  C  C3  1  0.85234700  0.85234700  0.85234700  1
  C  C4  1  0.64712900  0.64712900  0.64712900  1
  C  C5  1  0.14765300  0.14765300  0.14765300  1
  C  C6  1  0.53277100  0.96595600  0.25030000  1
  C  C7  1  0.25030000  0.53277100  0.96595600  1
  C  C8  1  0.96595600  0.25030000  0.53277100  1
  C  C9  1  0.74970000  0.46722900  0.03404400  1
  C  C10  1  0.03404400  0.74970000  0.46722900  1
  C  C11  1  0.46722900  0.03404400  0.74970000  1
  C  C12  1  0.99273800  0.23676200  0.35701100  1
  C  C13  1  0.35701100  0.99273800  0.23676200  1
  C  C14  1  0.23676200  0.35701100  0.99273800  1
  C  C15  1  0.85874000  0.73556400  0.49221100  1
  C  C16  1  0.49221100  0.85874000  0.73556400  1
  C  C17  1  0.73556400  0.49221100  0.85874000  1
  C  C18  1  0.00726200  0.76323800  0.64298900  1
  C  C19  1  0.64298900  0.00726200  0.76323800  1
  C  C20  1  0.76323800  0.64298900  0.00726200  1
  C  C21  1  0.14126000  0.26443600  0.50778900  1
  C  C22  1  0.50778900  0.14126000  0.26443600  1
  C  C23  1  0.26443600  0.50778900  0.14126000  1
  C  C24  1  0.78894300  0.42836700  0.56328900  1
  C  C25  1  0.56328900  0.78894300  0.42836700  1
  C  C26  1  0.42836700  0.56328900  0.78894300  1
  C  C27  1  0.06473600  0.92824700  0.29295100  1
  C  C28  1  0.29295100  0.06473600  0.92824700  1
  C  C29  1  0.92824700  0.29295100  0.06473600  1
  C  C30  1  0.21105700  0.57163300  0.43671100  1
  C  C31  1  0.43671100  0.21105700  0.57163300  1
  C  C32  1  0.57163300  0.43671100  0.21105700  1
  C  C33  1  0.93526400  0.07175300  0.70704900  1
  C  C34  1  0.70704900  0.93526400  0.07175300  1
  C  C35  1  0.07175300  0.70704900  0.93526400  1
