# generated using pymatgen
data_Cu4NiC9
_symmetry_space_group_name_H-M   'P 1'
_cell_length_a   8.40241300
_cell_length_b   8.40241300
_cell_length_c   4.91807600
_cell_angle_alpha   90.00000000
_cell_angle_beta   90.00000000
_cell_angle_gamma   90.00000000
_symmetry_Int_Tables_number   1
_chemical_formula_structural   Cu4NiC9
_chemical_formula_sum   'Cu8 Ni2 C18'
_cell_volume   347.21884213
_cell_formula_units_Z   2
loop_
 _symmetry_equiv_pos_site_id
 _symmetry_equiv_pos_as_xyz
  1  'x, y, z'
loop_
 _atom_site_type_symbol
 _atom_site_label
 _atom_site_symmetry_multiplicity
 _atom_site_fract_x
 _atom_site_fract_y
 _atom_site_fract_z
 _atom_site_occupancy
  Ni  Ni0  1  0.00000000  0.50000000  0.02676800  1
  Ni  Ni1  1  0.50000000  0.00000000  0.97323200  1
  Cu  Cu2  1  0.09071600  0.78534900  0.61332400  1
  Cu  Cu3  1  0.21465100  0.09071600  0.38667600  1
  Cu  Cu4  1  0.71465100  0.59071600  0.61332400  1
  Cu  Cu5  1  0.59071600  0.28534900  0.38667600  1
  Cu  Cu6  1  0.90928400  0.21465100  0.61332400  1
  Cu  Cu7  1  0.28534900  0.40928400  0.61332400  1
  Cu  Cu8  1  0.40928400  0.71465100  0.38667600  1
  Cu  Cu9  1  0.78534900  0.90928400  0.38667600  1
  C  C10  1  0.00000000  0.00000000  0.50000000  1
  C  C11  1  0.50000000  0.50000000  0.50000000  1
  C  C12  1  0.72600000  0.93158100  0.05672200  1
  C  C13  1  0.43158100  0.77400000  0.05672200  1
  C  C14  1  0.56841900  0.22600000  0.05672200  1
  C  C15  1  0.27400000  0.06841900  0.05672200  1
  C  C16  1  0.77400000  0.56841900  0.94327800  1
  C  C17  1  0.06841900  0.72600000  0.94327800  1
  C  C18  1  0.93158100  0.27400000  0.94327800  1
  C  C19  1  0.22600000  0.43158100  0.94327800  1
  C  C20  1  0.10606600  0.28823100  0.46419400  1
  C  C21  1  0.78823100  0.39393400  0.46419400  1
  C  C22  1  0.21176900  0.60606600  0.46419400  1
  C  C23  1  0.89393400  0.71176900  0.46419400  1
  C  C24  1  0.60606600  0.78823100  0.53580600  1
  C  C25  1  0.71176900  0.10606600  0.53580600  1
  C  C26  1  0.28823100  0.89393400  0.53580600  1
  C  C27  1  0.39393400  0.21176900  0.53580600  1
