# generated using pymatgen
data_Cu2Ni2C
_symmetry_space_group_name_H-M   'P 1'
_cell_length_a   5.52560460
_cell_length_b   5.52560460
_cell_length_c   6.15789370
_cell_angle_alpha   105.12531598
_cell_angle_beta   105.12531598
_cell_angle_gamma   114.73498388
_symmetry_Int_Tables_number   1
_chemical_formula_structural   Cu2Ni2C
_chemical_formula_sum   'Cu4 Ni4 C2'
_cell_volume   149.44232020
_cell_formula_units_Z   2
loop_
 _symmetry_equiv_pos_site_id
 _symmetry_equiv_pos_as_xyz
  1  'x, y, z'
loop_
 _atom_site_type_symbol
 _atom_site_label
 _atom_site_symmetry_multiplicity
 _atom_site_fract_x
 _atom_site_fract_y
 _atom_site_fract_z
 _atom_site_occupancy
  C  C0  1  0.00000000  0.00000000  0.00000000  1
  C  C1  1  0.25000000  0.75000000  0.50000000  1
  Ni  Ni2  1  0.67739900  0.32260100  0.00000000  1
  Ni  Ni3  1  0.92739900  0.07260100  0.50000000  1
  Ni  Ni4  1  0.32260100  0.67739900  0.00000000  1
  Ni  Ni5  1  0.57260100  0.42739900  0.50000000  1
  Cu  Cu6  1  0.37017600  0.37017600  0.74035200  1
  Cu  Cu7  1  0.62017600  0.12017600  0.24035200  1
  Cu  Cu8  1  0.87982400  0.37982400  0.75964800  1
  Cu  Cu9  1  0.62982400  0.62982400  0.25964800  1
