# generated using pymatgen
data_CuNiC4
_symmetry_space_group_name_H-M   'P 1'
_cell_length_a   9.98225741
_cell_length_b   9.98225741
_cell_length_c   9.98225741
_cell_angle_alpha   109.47122063
_cell_angle_beta   109.47122063
_cell_angle_gamma   109.47122063
_symmetry_Int_Tables_number   1
_chemical_formula_structural   CuNiC4
_chemical_formula_sum   'Cu12 Ni12 C48'
_cell_volume   765.71014785
_cell_formula_units_Z   12
loop_
 _symmetry_equiv_pos_site_id
 _symmetry_equiv_pos_as_xyz
  1  'x, y, z'
loop_
 _atom_site_type_symbol
 _atom_site_label
 _atom_site_symmetry_multiplicity
 _atom_site_fract_x
 _atom_site_fract_y
 _atom_site_fract_z
 _atom_site_occupancy
  Ni  Ni0  1  0.75000000  0.62500000  0.87500000  1
  Ni  Ni1  1  0.25000000  0.87500000  0.62500000  1
  Ni  Ni2  1  0.62500000  0.25000000  0.87500000  1
  Ni  Ni3  1  0.87500000  0.75000000  0.62500000  1
  Ni  Ni4  1  0.87500000  0.62500000  0.25000000  1
  Ni  Ni5  1  0.62500000  0.87500000  0.75000000  1
  Ni  Ni6  1  0.25000000  0.37500000  0.12500000  1
  Ni  Ni7  1  0.75000000  0.12500000  0.37500000  1
  Ni  Ni8  1  0.37500000  0.75000000  0.12500000  1
  Ni  Ni9  1  0.12500000  0.25000000  0.37500000  1
  Ni  Ni10  1  0.12500000  0.37500000  0.75000000  1
  Ni  Ni11  1  0.37500000  0.12500000  0.25000000  1
  Cu  Cu12  1  0.12500000  0.75000000  0.87500000  1
  Cu  Cu13  1  0.75000000  0.87500000  0.12500000  1
  Cu  Cu14  1  0.25000000  0.62500000  0.37500000  1
  Cu  Cu15  1  0.62500000  0.75000000  0.37500000  1
  Cu  Cu16  1  0.87500000  0.12500000  0.75000000  1
  Cu  Cu17  1  0.37500000  0.25000000  0.62500000  1
  Cu  Cu18  1  0.37500000  0.62500000  0.75000000  1
  Cu  Cu19  1  0.25000000  0.12500000  0.87500000  1
  Cu  Cu20  1  0.62500000  0.37500000  0.25000000  1
  Cu  Cu21  1  0.12500000  0.87500000  0.25000000  1
  Cu  Cu22  1  0.75000000  0.37500000  0.62500000  1
  Cu  Cu23  1  0.87500000  0.25000000  0.12500000  1
  C  C24  1  0.59631300  0.90144200  0.36719900  1
  C  C25  1  0.36719900  0.59631300  0.90144200  1
  C  C26  1  0.27088600  0.30512900  0.90368700  1
  C  C27  1  0.46575700  0.59855800  0.19487100  1
  C  C28  1  0.30512900  0.90144200  0.03424300  1
  C  C29  1  0.13280100  0.03424300  0.22911400  1
  C  C30  1  0.36719900  0.27088600  0.46575700  1
  C  C31  1  0.90144200  0.36719900  0.59631300  1
  C  C32  1  0.19487100  0.22911400  0.59631300  1
  C  C33  1  0.46575700  0.36719900  0.27088600  1
  C  C34  1  0.90144200  0.03424300  0.30512900  1
  C  C35  1  0.59855800  0.90368700  0.13280100  1
  C  C36  1  0.90368700  0.13280100  0.59855800  1
  C  C37  1  0.27088600  0.46575700  0.36719900  1
  C  C38  1  0.59631300  0.19487100  0.22911400  1
  C  C39  1  0.22911400  0.59631300  0.19487100  1
  C  C40  1  0.03424300  0.30512900  0.90144200  1
  C  C41  1  0.90368700  0.27088600  0.30512900  1
  C  C42  1  0.03424300  0.22911400  0.13280100  1
  C  C43  1  0.80512900  0.77088600  0.40368700  1
  C  C44  1  0.19487100  0.46575700  0.59855800  1
  C  C45  1  0.59855800  0.19487100  0.46575700  1
  C  C46  1  0.22911400  0.13280100  0.03424300  1
  C  C47  1  0.13280100  0.59855800  0.90368700  1
  C  C48  1  0.40368700  0.09855800  0.63280100  1
  C  C49  1  0.63280100  0.40368700  0.09855800  1
  C  C50  1  0.72911400  0.69487100  0.09631300  1
  C  C51  1  0.53424300  0.40144200  0.80512900  1
  C  C52  1  0.69487100  0.09855800  0.96575700  1
  C  C53  1  0.86719900  0.96575700  0.77088600  1
  C  C54  1  0.63280100  0.72911400  0.53424300  1
  C  C55  1  0.09855800  0.63280100  0.40368700  1
  C  C56  1  0.86719900  0.40144200  0.09631300  1
  C  C57  1  0.77088600  0.86719900  0.96575700  1
  C  C58  1  0.40144200  0.80512900  0.53424300  1
  C  C59  1  0.69487100  0.09631300  0.72911400  1
  C  C60  1  0.80512900  0.53424300  0.40144200  1
  C  C61  1  0.96575700  0.77088600  0.86719900  1
  C  C62  1  0.09631300  0.72911400  0.69487100  1
  C  C63  1  0.96575700  0.69487100  0.09855800  1
  C  C64  1  0.77088600  0.40368700  0.80512900  1
  C  C65  1  0.40368700  0.80512900  0.77088600  1
  C  C66  1  0.72911400  0.53424300  0.63280100  1
  C  C67  1  0.09631300  0.86719900  0.40144200  1
  C  C68  1  0.40144200  0.09631300  0.86719900  1
  C  C69  1  0.09855800  0.96575700  0.69487100  1
  C  C70  1  0.53424300  0.63280100  0.72911400  1
  C  C71  1  0.30512900  0.90368700  0.27088600  1
