# generated using pymatgen
data_Cu7Ni3C40
_symmetry_space_group_name_H-M   'P 1'
_cell_length_a   5.53769001
_cell_length_b   5.53768985
_cell_length_c   55.42434074
_cell_angle_alpha   60.77276193
_cell_angle_beta   60.77276286
_cell_angle_gamma   60.75305112
_symmetry_Int_Tables_number   1
_chemical_formula_structural   Cu7Ni3C40
_chemical_formula_sum   'Cu14 Ni6 C80'
_cell_volume   1222.60346676
_cell_formula_units_Z   2
loop_
 _symmetry_equiv_pos_site_id
 _symmetry_equiv_pos_as_xyz
  1  'x, y, z'
loop_
 _atom_site_type_symbol
 _atom_site_label
 _atom_site_symmetry_multiplicity
 _atom_site_fract_x
 _atom_site_fract_y
 _atom_site_fract_z
 _atom_site_occupancy
  Ni  Ni0  1  0.24588866  0.24770087  0.02637601  1
  Ni  Ni1  1  0.24834792  0.24954850  0.12556139  1
  Ni  Ni2  1  0.24719114  0.24829135  0.22565330  1
  Ni  Ni3  1  0.25170865  0.25280886  0.32434670  1
  Ni  Ni4  1  0.25045150  0.25165208  0.42443861  1
  Ni  Ni5  1  0.25229913  0.25411134  0.52362399  1
  Cu  Cu6  1  0.74594636  0.74765278  0.07617534  1
  Cu  Cu7  1  0.74848683  0.74959431  0.17575581  1
  Cu  Cu8  1  0.74874158  0.75125842  0.27500000  1
  Cu  Cu9  1  0.75040569  0.75151317  0.37424419  1
  Cu  Cu10  1  0.25774601  0.25335174  0.62308727  1
  Cu  Cu11  1  0.75234722  0.75405364  0.47382466  1
  Cu  Cu12  1  0.25093165  0.25094995  0.72464353  1
  Cu  Cu13  1  0.75655805  0.75612865  0.57239521  1
  Cu  Cu14  1  0.24905005  0.24906835  0.82535647  1
  Cu  Cu15  1  0.75197807  0.75208787  0.67414549  1
  Cu  Cu16  1  0.24664826  0.24225399  0.92691273  1
  Cu  Cu17  1  0.74960450  0.75039550  0.77500000  1
  Cu  Cu18  1  0.74791213  0.74802193  0.87585451  1
  Cu  Cu19  1  0.74387135  0.74344195  0.97760479  1
  C  C20  1  -0.00073734  0.99428753  0.00094506  1
  C  C21  1  0.99918581  -0.00055882  0.10022241  1
  C  C22  1  0.99751677  0.00148708  0.20002388  1
  C  C23  1  0.49858338  0.49875527  0.05060444  1
  C  C24  1  0.49767961  0.50072237  0.15028389  1
  C  C25  1  0.99927763  0.00232039  0.39971611  1
  C  C26  1  0.00124473  0.00141662  0.49939556  1
  C  C27  1  0.49851292  0.50248323  0.34997612  1
  C  C28  1  0.00035030  0.00406382  0.59930139  1
  C  C29  1  0.50055882  0.50081419  0.44977759  1
  C  C30  1  -0.00002995  0.00173355  0.69973922  1
  C  C31  1  0.50571247  0.50073734  0.54905494  1
  C  C32  1  0.99936960  -0.00005549  0.80005704  1
  C  C33  1  0.50245962  0.50008458  0.64959774  1
  C  C34  1  0.50005549  0.50063040  0.74994296  1
  C  C35  1  0.99991542  0.99754038  0.90040226  1
  C  C36  1  0.49826645  0.50002995  0.85026078  1
  C  C37  1  0.49593618  0.49964970  0.95069861  1
  C  C38  1  0.00126167  0.00008607  0.29975064  1
  C  C39  1  0.49991393  0.49873833  0.25024936  1
  C  C40  1  0.18780804  0.75174765  0.03097048  1
  C  C41  1  0.31019359  0.19046529  0.07461829  1
  C  C42  1  0.25186067  0.70463477  0.07945607  1
  C  C43  1  0.74774025  0.31166939  0.01897840  1
  C  C44  1  0.19424931  0.74655473  0.13120514  1
  C  C45  1  0.70121270  0.80009710  0.02402508  1
  C  C46  1  0.31091291  0.18634569  0.17506599  1
  C  C47  1  0.79582569  0.25173006  0.07043321  1
  C  C48  1  0.24699130  0.70170935  0.18013031  1
  C  C49  1  0.74793360  0.30947123  0.11937522  1
  C  C50  1  0.18738041  0.75578819  0.23015617  1
  C  C51  1  0.70245458  0.79277295  0.12477423  1
  C  C52  1  0.31432049  0.18567951  0.27500000  1
  C  C53  1  0.79859080  0.24938791  0.17023136  1
  C  C54  1  0.24735023  0.70550710  0.27930772  1
  C  C55  1  0.75631606  0.30506575  0.21849976  1
  C  C56  1  0.19493425  0.74368394  0.33150024  1
  C  C57  1  0.70932835  0.80101254  0.22396847  1
  C  C58  1  0.31365431  0.18908709  0.37493401  1
  C  C59  1  0.79449290  0.25264977  0.27069228  1
  C  C60  1  0.25061209  0.70140920  0.37976864  1
  C  C61  1  0.74421181  0.31261959  0.31984383  1
  C  C62  1  0.19052877  0.75206640  0.43062478  1
  C  C63  1  0.69898746  0.79067165  0.32603153  1
  C  C64  1  0.30953471  0.18980641  0.47538171  1
  C  C65  1  0.79829065  0.25300870  0.36986969  1
  C  C66  1  0.24826994  0.70417431  0.47956679  1
  C  C67  1  0.75344527  0.30575069  0.41879486  1
  C  C68  1  0.18833061  0.75225975  0.53102160  1
  C  C69  1  0.70722705  0.79754542  0.42522577  1
  C  C70  1  0.31309575  0.18826094  0.57615529  1
  C  C71  1  0.79536523  0.24813933  0.47054393  1
  C  C72  1  0.25088542  0.68699511  0.58104523  1
  C  C73  1  0.74825235  0.31219196  0.51902952  1
  C  C74  1  0.18504723  0.74784205  0.63176149  1
  C  C75  1  0.69990290  0.79878730  0.52597492  1
  C  C76  1  0.31904425  0.18303660  0.67521045  1
  C  C77  1  0.79433283  0.25027210  0.57036575  1
  C  C78  1  0.24918855  0.68202114  0.68195716  1
  C  C79  1  0.75179975  0.31546765  0.61836685  1
  C  C80  1  0.18271890  0.74846265  0.73206815  1
  C  C81  1  0.68532749  0.81369304  0.62590238  1
  C  C82  1  0.31906378  0.18093622  0.77500000  1
  C  C83  1  0.81627926  0.25246115  0.66787628  1
  C  C84  1  0.24794193  0.68216073  0.78220029  1
  C  C85  1  0.75158205  0.31699875  0.71790154  1
  C  C86  1  0.18300125  0.74841795  0.83209846  1
  C  C87  1  0.68189700  0.81818985  0.72516886  1
  C  C88  1  0.31696340  0.18095575  0.87478955  1
  C  C89  1  0.81783927  0.25205807  0.76779971  1
  C  C90  1  0.24753885  0.68372074  0.88212372  1
  C  C91  1  0.75153735  0.31728110  0.81793185  1
  C  C92  1  0.18453235  0.74820025  0.93163315  1
  C  C93  1  0.68181015  0.81810300  0.82483114  1
  C  C94  1  0.31173906  0.18690425  0.97384471  1
  C  C95  1  0.81797886  0.25081145  0.86804284  1
  C  C96  1  0.24972790  0.70566717  0.97963425  1
  C  C97  1  0.75215795  0.31495277  0.91823851  1
  C  C98  1  0.68630696  0.81467251  0.92409762  1
  C  C99  1  0.81300489  0.24911458  0.96895477  1
