# generated using pymatgen
data_Cu4Ni4C3
_symmetry_space_group_name_H-M   'P 1'
_cell_length_a   4.08937400
_cell_length_b   6.49022400
_cell_length_c   7.77399020
_cell_angle_alpha   114.67256249
_cell_angle_beta   105.24912085
_cell_angle_gamma   90.00000000
_symmetry_Int_Tables_number   1
_chemical_formula_structural   Cu4Ni4C3
_chemical_formula_sum   'Cu4 Ni4 C3'
_cell_volume   179.46753739
_cell_formula_units_Z   1
loop_
 _symmetry_equiv_pos_site_id
 _symmetry_equiv_pos_as_xyz
  1  'x, y, z'
loop_
 _atom_site_type_symbol
 _atom_site_label
 _atom_site_symmetry_multiplicity
 _atom_site_fract_x
 _atom_site_fract_y
 _atom_site_fract_z
 _atom_site_occupancy
  C  C0  1  0.87127900  0.37127900  0.74255800  1
  C  C1  1  0.12872100  0.62872100  0.25744200  1
  C  C2  1  0.00000000  0.00000000  0.00000000  1
  Ni  Ni3  1  0.33083800  0.63926100  0.66167600  1
  Ni  Ni4  1  0.66916200  0.36073900  0.33832400  1
  Ni  Ni5  1  0.33083800  0.02241400  0.66167500  1
  Ni  Ni6  1  0.66916200  0.97758600  0.33832500  1
  Cu  Cu7  1  0.21608300  0.21608300  0.43216600  1
  Cu  Cu8  1  0.78391700  0.78391700  0.56783400  1
  Cu  Cu9  1  0.50000000  0.68565600  0.00000000  1
  Cu  Cu10  1  0.50000000  0.31434400  0.00000000  1
