# generated using pymatgen
data_Cu6Ni2C7
_symmetry_space_group_name_H-M   'P 1'
_cell_length_a   7.37739922
_cell_length_b   7.37739922
_cell_length_c   6.81941546
_cell_angle_alpha   78.78293606
_cell_angle_beta   78.78293606
_cell_angle_gamma   120.02510143
_symmetry_Int_Tables_number   1
_chemical_formula_structural   Cu6Ni2C7
_chemical_formula_sum   'Cu12 Ni4 C14'
_cell_volume   296.00988713
_cell_formula_units_Z   2
loop_
 _symmetry_equiv_pos_site_id
 _symmetry_equiv_pos_as_xyz
  1  'x, y, z'
loop_
 _atom_site_type_symbol
 _atom_site_label
 _atom_site_symmetry_multiplicity
 _atom_site_fract_x
 _atom_site_fract_y
 _atom_site_fract_z
 _atom_site_occupancy
  C  C0  1  0.04723400  0.95276600  0.75000000  1
  C  C1  1  0.95276500  0.04723400  0.25000000  1
  C  C2  1  0.38388300  0.85013000  0.87383600  1
  C  C3  1  0.85013000  0.38388300  0.37383600  1
  C  C4  1  0.61611700  0.14987000  0.12616400  1
  C  C5  1  0.14987000  0.61611700  0.62616400  1
  C  C6  1  0.59620900  0.24102400  0.56364000  1
  C  C7  1  0.24102400  0.59620900  0.06364000  1
  C  C8  1  0.40379100  0.75897600  0.43636000  1
  C  C9  1  0.75897600  0.40379100  0.93636000  1
  C  C10  1  0.52272300  0.72953600  0.94362800  1
  C  C11  1  0.72953600  0.52272300  0.44362800  1
  C  C12  1  0.47727700  0.27046400  0.05637200  1
  C  C13  1  0.27046400  0.47727700  0.55637200  1
  Ni  Ni14  1  0.61159000  0.25581100  0.00945000  1
  Ni  Ni15  1  0.25581100  0.61159000  0.50945000  1
  Ni  Ni16  1  0.38841000  0.74418900  0.99055000  1
  Ni  Ni17  1  0.74418900  0.38841000  0.49055000  1
  Cu  Cu18  1  0.99621500  0.62871600  0.79957000  1
  Cu  Cu19  1  0.62871600  0.99621500  0.29957000  1
  Cu  Cu20  1  0.00378500  0.37128400  0.20043000  1
  Cu  Cu21  1  0.37128400  0.00378500  0.70043000  1
  Cu  Cu22  1  0.93352800  0.11358800  0.93838900  1
  Cu  Cu23  1  0.11358800  0.93352800  0.43838900  1
  Cu  Cu24  1  0.06647200  0.88641200  0.06161100  1
  Cu  Cu25  1  0.88641200  0.06647200  0.56161100  1
  Cu  Cu26  1  0.70873100  0.71608300  0.89574100  1
  Cu  Cu27  1  0.71608300  0.70873100  0.39574100  1
  Cu  Cu28  1  0.29126900  0.28391700  0.10425900  1
  Cu  Cu29  1  0.28391700  0.29126900  0.60425900  1
