# generated using pymatgen
data_CuNi14C
_symmetry_space_group_name_H-M   'P 1'
_cell_length_a   6.20753432
_cell_length_b   6.20753384
_cell_length_c   10.22336851
_cell_angle_alpha   90.00000000
_cell_angle_beta   90.00000000
_cell_angle_gamma   120.00000257
_symmetry_Int_Tables_number   1
_chemical_formula_structural   CuNi14C
_chemical_formula_sum   'Cu1 Ni14 C1'
_cell_volume   341.16373556
_cell_formula_units_Z   1
loop_
 _symmetry_equiv_pos_site_id
 _symmetry_equiv_pos_as_xyz
  1  'x, y, z'
loop_
 _atom_site_type_symbol
 _atom_site_label
 _atom_site_symmetry_multiplicity
 _atom_site_fract_x
 _atom_site_fract_y
 _atom_site_fract_z
 _atom_site_occupancy
  Ni  Ni0  1  0.16438505  0.83219203  0.12500000  1
  Ni  Ni1  1  0.16645520  0.83322710  0.62500000  1
  Ni  Ni2  1  0.66780797  0.33561495  0.12500000  1
  Ni  Ni3  1  0.66677290  0.33354480  0.62500000  1
  Ni  Ni4  1  0.66780797  0.83219203  0.12500000  1
  Ni  Ni5  1  0.66677290  0.83322710  0.62500000  1
  Ni  Ni6  1  0.32949935  0.17050065  0.37177916  1
  Ni  Ni7  1  0.32949935  0.17050065  0.87822084  1
  Ni  Ni8  1  0.32949935  0.65899970  0.37177916  1
  Ni  Ni9  1  0.32949935  0.65899970  0.87822084  1
  Ni  Ni10  1  0.84100030  0.17050065  0.37177916  1
  Ni  Ni11  1  0.84100030  0.17050065  0.87822084  1
  Ni  Ni12  1  0.83333300  0.66666700  0.37465615  1
  Ni  Ni13  1  0.83333300  0.66666700  0.87534385  1
  C  C14  1  0.16666700  0.33333300  0.62500000  1
  Cu  Cu15  1  0.16666700  0.33333300  0.12500000  1
