# generated using pymatgen
data_CuNiC9
_symmetry_space_group_name_H-M   'P 1'
_cell_length_a   6.41081140
_cell_length_b   6.50621658
_cell_length_c   6.47933009
_cell_angle_alpha   91.39769501
_cell_angle_beta   91.96841722
_cell_angle_gamma   91.88403900
_symmetry_Int_Tables_number   1
_chemical_formula_structural   CuNiC9
_chemical_formula_sum   'Cu2 Ni2 C18'
_cell_volume   269.86007465
_cell_formula_units_Z   2
loop_
 _symmetry_equiv_pos_site_id
 _symmetry_equiv_pos_as_xyz
  1  'x, y, z'
loop_
 _atom_site_type_symbol
 _atom_site_label
 _atom_site_symmetry_multiplicity
 _atom_site_fract_x
 _atom_site_fract_y
 _atom_site_fract_z
 _atom_site_occupancy
  C  C0  1  0.61556800  0.88720200  0.24767900  1
  C  C1  1  0.88329600  0.25106300  0.61473500  1
  C  C2  1  0.25112300  0.61264900  0.88640900  1
  C  C3  1  0.11670100  0.74891500  0.38526200  1
  C  C4  1  0.74886200  0.38734900  0.11357400  1
  C  C5  1  0.38438900  0.11278900  0.75230000  1
  Ni  Ni6  1  0.24668400  0.24586700  0.25840800  1
  Ni  Ni7  1  0.75335100  0.75413100  0.74156200  1
  Cu  Cu8  1  0.50012900  0.50003400  0.50009300  1
  Cu  Cu9  1  0.99991700  0.99997400  0.99997100  1
  C  C10  1  0.53655200  0.20160100  0.40656000  1
  C  C11  1  0.20217700  0.41296800  0.54810200  1
  C  C12  1  0.41237300  0.54612300  0.20459800  1
  C  C13  1  0.03727400  0.90768900  0.70082800  1
  C  C14  1  0.90921000  0.70424900  0.04143500  1
  C  C15  1  0.70351500  0.05175900  0.91457500  1
  C  C16  1  0.46353900  0.79836800  0.59344800  1
  C  C17  1  0.79790500  0.58704300  0.45194400  1
  C  C18  1  0.58765900  0.45388100  0.79536800  1
  C  C19  1  0.96265800  0.09231300  0.29923900  1
  C  C20  1  0.09068100  0.29579400  0.95851300  1
  C  C21  1  0.29643500  0.94823900  0.08539600  1
