# generated using pymatgen
data_Cu3NiC11
_symmetry_space_group_name_H-M   'P 1'
_cell_length_a   5.88457294
_cell_length_b   5.88729767
_cell_length_c   10.40018422
_cell_angle_alpha   73.15404110
_cell_angle_beta   106.73799639
_cell_angle_gamma   121.31021955
_symmetry_Int_Tables_number   1
_chemical_formula_structural   Cu3NiC11
_chemical_formula_sum   'Cu6 Ni2 C22'
_cell_volume   290.43486409
_cell_formula_units_Z   2
loop_
 _symmetry_equiv_pos_site_id
 _symmetry_equiv_pos_as_xyz
  1  'x, y, z'
loop_
 _atom_site_type_symbol
 _atom_site_label
 _atom_site_symmetry_multiplicity
 _atom_site_fract_x
 _atom_site_fract_y
 _atom_site_fract_z
 _atom_site_occupancy
  C  C0  1  0.25365800  0.24777500  0.25104300  1
  C  C1  1  0.74636900  0.75235800  0.74894500  1
  C  C2  1  0.75253500  0.74470200  0.25054300  1
  C  C3  1  0.24744200  0.25535800  0.74945300  1
  C  C4  1  0.25083800  0.75198100  0.25385900  1
  C  C5  1  0.74917000  0.24807700  0.74612100  1
  Ni  Ni6  1  0.49981500  0.49990500  0.50004800  1
  Ni  Ni7  1  0.00012400  0.99989200  0.00013100  1
  Cu  Cu8  1  0.50008700  0.49994900  0.00001000  1
  Cu  Cu9  1  0.99992900  0.99999400  0.49998000  1
  Cu  Cu10  1  0.50005000  0.99995800  0.99997700  1
  Cu  Cu11  1  0.99991900  0.50004300  0.49996400  1
  Cu  Cu12  1  0.00005100  0.49996700  0.99997700  1
  Cu  Cu13  1  0.50001500  0.00010700  0.49995100  1
  C  C14  1  0.37938200  0.62061400  0.11174500  1
  C  C15  1  0.87204100  0.12987900  0.62036100  1
  C  C16  1  0.12796300  0.87022700  0.37958700  1
  C  C17  1  0.62073000  0.37931300  0.88821600  1
  C  C18  1  0.37240900  0.14775200  0.10605300  1
  C  C19  1  0.87217000  0.64212500  0.60824100  1
  C  C20  1  0.85228100  0.62766900  0.10603400  1
  C  C21  1  0.35475600  0.13081900  0.60906700  1
  C  C22  1  0.86776700  0.13211800  0.10469400  1
  C  C23  1  0.37147100  0.63197300  0.60647900  1
  C  C24  1  0.62840000  0.36819400  0.39353300  1
  C  C25  1  0.13232500  0.86784600  0.89538300  1
  C  C26  1  0.64511900  0.86920600  0.39091500  1
  C  C27  1  0.14776600  0.37205900  0.89403600  1
  C  C28  1  0.12759600  0.35794500  0.39165100  1
  C  C29  1  0.62782400  0.85219600  0.89400300  1
