# generated using pymatgen
data_Cu8NiC27
_symmetry_space_group_name_H-M   'P 1'
_cell_length_a   10.92957408
_cell_length_b   11.17798503
_cell_length_c   16.86291753
_cell_angle_alpha   109.14572898
_cell_angle_beta   109.37134065
_cell_angle_gamma   90.39511227
_symmetry_Int_Tables_number   1
_chemical_formula_structural   Cu8NiC27
_chemical_formula_sum   'Cu32 Ni4 C108'
_cell_volume   1820.49077613
_cell_formula_units_Z   4
loop_
 _symmetry_equiv_pos_site_id
 _symmetry_equiv_pos_as_xyz
  1  'x, y, z'
loop_
 _atom_site_type_symbol
 _atom_site_label
 _atom_site_symmetry_multiplicity
 _atom_site_fract_x
 _atom_site_fract_y
 _atom_site_fract_z
 _atom_site_occupancy
  C  C0  1  0.30619749  0.06272231  0.60561657  1
  C  C1  1  0.30838539  0.56270045  0.60711907  1
  C  C2  1  0.80602726  0.06211620  0.60630077  1
  C  C3  1  0.80386493  0.56446164  0.10708316  1
  C  C4  1  0.80706017  0.56375805  0.60826582  1
  C  C5  1  0.19386577  0.43311727  0.38863685  1
  C  C6  1  0.20502874  0.43815584  0.89701768  1
  C  C7  1  0.19402163  0.93602005  0.38779604  1
  C  C8  1  0.20564919  0.93846864  0.89675434  1
  C  C9  1  0.69288866  0.43502256  0.38976820  1
  C  C10  1  0.70046343  0.43423615  0.89478193  1
  C  C11  1  0.69147989  0.93542398  0.38999699  1
  C  C12  1  0.70117209  0.93737965  0.89512032  1
  C  C13  1  0.05173892  0.29171577  0.11018851  1
  C  C14  1  0.05331519  0.29185919  0.60611440  1
  C  C15  1  0.05390660  0.79291372  0.60867558  1
  C  C16  1  0.55273886  0.29391064  0.10815754  1
  C  C17  1  0.55457953  0.29209899  0.60609278  1
  C  C18  1  0.55501775  0.79258779  0.10862708  1
  C  C19  1  0.55544060  0.79117509  0.60738099  1
  C  C20  1  0.44640999  0.20442904  0.38663403  1
  C  C21  1  0.45183027  0.20833972  0.89293237  1
  C  C22  1  0.44574075  0.70665098  0.38707588  1
  C  C23  1  0.45055979  0.70380065  0.89025888  1
  C  C24  1  0.94854926  0.20542999  0.38829528  1
  C  C25  1  0.95029722  0.20495636  0.89467120  1
  C  C26  1  0.94935853  0.70853092  0.39121438  1
  C  C27  1  0.95541460  0.70332771  0.89612262  1
  Ni  Ni28  1  0.28430770  0.07266205  0.11434738  1
  Ni  Ni29  1  0.28539565  0.57329319  0.11072707  1
  Ni  Ni30  1  0.78089233  0.07779618  0.11388485  1
  Ni  Ni31  1  0.03284229  0.79346569  0.11466191  1
  Cu  Cu32  1  0.01336584  0.99537683  0.00405191  1
  Cu  Cu33  1  0.00446110  0.99718496  0.49744164  1
  Cu  Cu34  1  0.01122567  0.50264988  0.00366486  1
  Cu  Cu35  1  0.00600361  0.49861771  0.49810843  1
  Cu  Cu36  1  0.50931999  0.00090793  0.00271036  1
  Cu  Cu37  1  0.50308340  0.99662245  0.49674099  1
  Cu  Cu38  1  0.50758405  0.50330712  0.00270948  1
  Cu  Cu39  1  0.50558989  0.49808048  0.49715240  1
  Cu  Cu40  1  0.26214006  0.25028118  0.00596331  1
  Cu  Cu41  1  0.25443893  0.24884017  0.49848460  1
  Cu  Cu42  1  0.26374749  0.75137149  0.00590340  1
  Cu  Cu43  1  0.25705647  0.74820390  0.50003950  1
  Cu  Cu44  1  0.75981475  0.24505791  0.00247649  1
  Cu  Cu45  1  0.75369795  0.24889157  0.49847277  1
  Cu  Cu46  1  0.76423238  0.75392293  0.00385950  1
  Cu  Cu47  1  0.75459566  0.74743282  0.49847541  1
  Cu  Cu48  1  0.09667539  0.08975000  0.24191495  1
  Cu  Cu49  1  0.10682155  0.10019261  0.75228562  1
  Cu  Cu50  1  0.10737453  0.60379596  0.24847202  1
  Cu  Cu51  1  0.11158973  0.59373584  0.75238403  1
  Cu  Cu52  1  0.59575056  0.09450515  0.24448805  1
  Cu  Cu53  1  0.60916494  0.09684435  0.75016881  1
  Cu  Cu54  1  0.59561585  0.59506141  0.24453388  1
  Cu  Cu55  1  0.61492724  0.59207105  0.75210793  1
  Cu  Cu56  1  0.35393898  0.40653828  0.24354212  1
  Cu  Cu57  1  0.35640088  0.40157560  0.75012000  1
  Cu  Cu58  1  0.34463028  0.90025600  0.23811785  1
  Cu  Cu59  1  0.36006757  0.90933358  0.75123407  1
  Cu  Cu60  1  0.85851942  0.40703661  0.24801287  1
  Cu  Cu61  1  0.85982796  0.39973142  0.75195920  1
  Cu  Cu62  1  0.85670530  0.91358414  0.24587542  1
  Cu  Cu63  1  0.86270999  0.90712645  0.75309562  1
  C  C64  1  0.12355747  0.11934974  0.48734547  1
  C  C65  1  0.12784026  0.11343473  0.98775184  1
  C  C66  1  0.12299812  0.61674142  0.48125430  1
  C  C67  1  0.13362243  0.61503937  0.98762657  1
  C  C68  1  0.62191196  0.11795204  0.48599651  1
  C  C69  1  0.62535360  0.11490750  0.98326571  1
  C  C70  1  0.62243430  0.61702004  0.48293431  1
  C  C71  1  0.62727321  0.62122085  0.98535056  1
  C  C72  1  0.15101135  0.39302213  0.03199210  1
  C  C73  1  0.13801747  0.37922679  0.51505499  1
  C  C74  1  0.15732220  0.88727407  0.03626335  1
  C  C75  1  0.13822731  0.87785171  0.51494443  1
  C  C76  1  0.63316334  0.37933990  0.01258533  1
  C  C77  1  0.63805758  0.37969203  0.51550074  1
  C  C78  1  0.65407194  0.89495041  0.02546757  1
  C  C79  1  0.63710653  0.87829184  0.51356557  1
  C  C80  1  0.37066924  0.11629772  0.48474075  1
  C  C81  1  0.37985323  0.12117150  0.98125919  1
  C  C82  1  0.37146552  0.61366256  0.48064716  1
  C  C83  1  0.37845757  0.62066169  0.97896310  1
  C  C84  1  0.86988588  0.11670659  0.48319064  1
  C  C85  1  0.88093157  0.10718347  0.98573403  1
  C  C86  1  0.87006518  0.61417501  0.47934508  1
  C  C87  1  0.87834182  0.61256536  0.98532949  1
  C  C88  1  0.38823000  0.39770443  0.02241445  1
  C  C89  1  0.38386300  0.37910482  0.50891139  1
  C  C90  1  0.39545028  0.89791874  0.02705201  1
  C  C91  1  0.38579806  0.88136227  0.51322117  1
  C  C92  1  0.89024131  0.38201507  0.01938996  1
  C  C93  1  0.88424177  0.38048061  0.51001210  1
  C  C94  1  0.90984424  0.88093367  0.03000325  1
  C  C95  1  0.88257809  0.87938254  0.50808165  1
  C  C96  1  0.10301088  0.10393851  0.13554142  1
  C  C97  1  0.07466422  0.09343519  0.63288335  1
  C  C98  1  0.08741376  0.61768909  0.13468918  1
  C  C99  1  0.07862889  0.59679551  0.62929120  1
  C  C100  1  0.60032179  0.10332086  0.13501328  1
  C  C101  1  0.57770073  0.09346452  0.63188518  1
  C  C102  1  0.59607450  0.59825260  0.13348959  1
  C  C103  1  0.57939650  0.59529945  0.62907181  1
  C  C104  1  0.45138131  0.40056664  0.36610901  1
  C  C105  1  0.44346356  0.40429556  0.86852699  1
  C  C106  1  0.44206408  0.90494576  0.36541377  1
  C  C107  1  0.44897329  0.89876616  0.87303724  1
  C  C108  1  0.95217421  0.39862343  0.36812686  1
  C  C109  1  0.95104938  0.40222912  0.87076710  1
  C  C110  1  0.95333294  0.90437648  0.36681872  1
  C  C111  1  0.95794458  0.89593502  0.87506473  1
  C  C112  1  0.34199452  0.26118991  0.13147088  1
  C  C113  1  0.33148228  0.28760933  0.63305873  1
  C  C114  1  0.35047525  0.75764829  0.13095601  1
  C  C115  1  0.33413143  0.77980808  0.63058214  1
  C  C116  1  0.83136069  0.26654586  0.13072510  1
  C  C117  1  0.83139839  0.28678776  0.63352730  1
  C  C118  1  0.84640589  0.77639783  0.13294080  1
  C  C119  1  0.83572697  0.78151017  0.63022050  1
  C  C120  1  0.18378396  0.20424947  0.36323066  1
  C  C121  1  0.19214862  0.21780643  0.87162387  1
  C  C122  1  0.19603120  0.71610396  0.36632016  1
  C  C123  1  0.19851426  0.72426480  0.87490527  1
  C  C124  1  0.67886678  0.20992832  0.36340445  1
  C  C125  1  0.70163099  0.21125006  0.86832077  1
  C  C126  1  0.67850673  0.71182670  0.36274992  1
  C  C127  1  0.70711872  0.72343061  0.87380883  1
  C  C128  1  0.40772297  0.07617484  0.23597342  1
  C  C129  1  0.42592547  0.08292122  0.75019632  1
  C  C130  1  0.40751296  0.57951860  0.23488924  1
  C  C131  1  0.42430493  0.56403096  0.75005958  1
  C  C132  1  0.90921886  0.08407483  0.23529139  1
  C  C133  1  0.92289245  0.08267686  0.75132440  1
  C  C134  1  0.92789971  0.57912975  0.24862634  1
  C  C135  1  0.92246933  0.56355108  0.75146849  1
  C  C136  1  0.16943216  0.43680810  0.24823478  1
  C  C137  1  0.17457107  0.41857407  0.75061724  1
  C  C138  1  0.15229372  0.92025522  0.23703893  1
  C  C139  1  0.17255066  0.93791681  0.75202174  1
  C  C140  1  0.67101470  0.43899154  0.24870483  1
  C  C141  1  0.67568305  0.41672772  0.75144265  1
  C  C142  1  0.67081240  0.93910377  0.24945970  1
  C  C143  1  0.67312058  0.93419831  0.75099337  1
