# generated using pymatgen
data_CuNiC6
_symmetry_space_group_name_H-M   'P 1'
_cell_length_a   4.97497634
_cell_length_b   8.75253624
_cell_length_c   12.35880084
_cell_angle_alpha   109.11053277
_cell_angle_beta   100.27994009
_cell_angle_gamma   90.67705154
_symmetry_Int_Tables_number   1
_chemical_formula_structural   CuNiC6
_chemical_formula_sum   'Cu6 Ni6 C36'
_cell_volume   498.89696737
_cell_formula_units_Z   6
loop_
 _symmetry_equiv_pos_site_id
 _symmetry_equiv_pos_as_xyz
  1  'x, y, z'
loop_
 _atom_site_type_symbol
 _atom_site_label
 _atom_site_symmetry_multiplicity
 _atom_site_fract_x
 _atom_site_fract_y
 _atom_site_fract_z
 _atom_site_occupancy
  C  C0  1  0.19480500  0.51313600  0.58662700  1
  C  C1  1  0.69386900  0.01369700  0.58644300  1
  C  C2  1  0.67732500  0.80094700  0.92618000  1
  C  C3  1  0.17684700  0.30108900  0.92639200  1
  C  C4  1  0.00570400  0.55878100  0.24305600  1
  C  C5  1  0.50501300  0.05832900  0.24301500  1
  C  C6  1  0.24603400  0.70546900  0.07334500  1
  C  C7  1  0.74566900  0.20620900  0.07318800  1
  C  C8  1  0.27204100  0.93562500  0.74624800  1
  C  C9  1  0.77150500  0.43584300  0.74659800  1
  C  C10  1  0.10805500  0.98253300  0.42229900  1
  C  C11  1  0.60934800  0.48314800  0.42250800  1
  Ni  Ni12  1  0.24719400  0.24189900  0.66799300  1
  Ni  Ni13  1  0.74815000  0.74182100  0.66801000  1
  Ni  Ni14  1  0.56695100  0.76092500  0.33323700  1
  Ni  Ni15  1  0.06626200  0.26098900  0.33286800  1
  Ni  Ni16  1  0.67383700  0.50281100  0.00006600  1
  Ni  Ni17  1  0.17445500  0.00282300  0.99993600  1
  Cu  Cu18  1  0.37744500  0.35109700  0.18502100  1
  Cu  Cu19  1  0.71217700  0.22454300  0.48419500  1
  Cu  Cu20  1  0.70201600  0.14982300  0.82316300  1
  Cu  Cu21  1  0.87612200  0.85111300  0.18375800  1
  Cu  Cu22  1  0.21262500  0.72398100  0.48416200  1
  Cu  Cu23  1  0.20219800  0.64995600  0.82289900  1
  C  C24  1  0.46186100  0.62261800  0.95515500  1
  C  C25  1  0.96182800  0.12250400  0.95523500  1
  C  C26  1  0.41451900  0.57954200  0.30824000  1
  C  C27  1  0.91462400  0.07932700  0.30755500  1
  C  C28  1  0.04694700  0.74114600  0.62552900  1
  C  C29  1  0.54564900  0.24220700  0.62532900  1
  C  C30  1  0.51452900  0.62147600  0.56056300  1
  C  C31  1  0.01367700  0.12154700  0.56048900  1
  C  C32  1  0.99569600  0.32533200  0.22036800  1
  C  C33  1  0.49707100  0.82492800  0.22053600  1
  C  C34  1  0.31246500  0.88852700  0.89200300  1
  C  C35  1  0.81215700  0.38831400  0.89224300  1
  C  C36  1  0.64945500  0.92742300  0.70601200  1
  C  C37  1  0.14687500  0.42708700  0.70625100  1
  C  C38  1  0.90515000  0.75702200  0.36167500  1
  C  C39  1  0.40483100  0.25772900  0.36086200  1
  C  C40  1  0.00279700  0.88616700  0.04990300  1
  C  C41  1  0.50124400  0.38714500  0.05043200  1
  C  C42  1  0.91944000  0.61499500  0.10594200  1
  C  C43  1  0.41992000  0.11493200  0.10594100  1
  C  C44  1  0.45209000  0.88407500  0.44530300  1
  C  C45  1  0.95223400  0.38384900  0.44525600  1
  C  C46  1  0.29464100  0.17269500  0.77891000  1
  C  C47  1  0.79461600  0.67280100  0.77898600  1
