# generated using pymatgen
data_Cu3Ni4C13
_symmetry_space_group_name_H-M   'P 1'
_cell_length_a   5.39722800
_cell_length_b   5.39851724
_cell_length_c   10.55571463
_cell_angle_alpha   94.80900445
_cell_angle_beta   95.77785814
_cell_angle_gamma   119.84867114
_symmetry_Int_Tables_number   1
_chemical_formula_structural   Cu3Ni4C13
_chemical_formula_sum   'Cu3 Ni4 C13'
_cell_volume   262.19014155
_cell_formula_units_Z   1
loop_
 _symmetry_equiv_pos_site_id
 _symmetry_equiv_pos_as_xyz
  1  'x, y, z'
loop_
 _atom_site_type_symbol
 _atom_site_label
 _atom_site_symmetry_multiplicity
 _atom_site_fract_x
 _atom_site_fract_y
 _atom_site_fract_z
 _atom_site_occupancy
  C  C0  1  0.49323700  0.49103300  0.97772300  1
  Ni  Ni1  1  0.99540100  0.99590800  0.50149400  1
  Ni  Ni2  1  0.65635600  0.34791400  0.49883600  1
  Ni  Ni3  1  0.34912400  0.65617500  0.50429300  1
  Ni  Ni4  1  0.09345000  0.75916500  0.77576400  1
  Cu  Cu5  1  0.75635900  0.09805200  0.78088200  1
  Cu  Cu6  1  0.90711500  0.24392600  0.22804800  1
  Cu  Cu7  1  0.24765300  0.90810300  0.22862300  1
  C  C8  1  0.02195200  0.05032900  0.83078800  1
  C  C9  1  0.05596200  0.05561900  0.17819600  1
  C  C10  1  0.84899600  0.42674300  0.84012700  1
  C  C11  1  0.47549700  0.87842400  0.84165600  1
  C  C12  1  0.05838900  0.55659900  0.17121800  1
  C  C13  1  0.55491100  0.05890000  0.16844700  1
  C  C14  1  0.36615300  0.36008600  0.59010100  1
  C  C15  1  0.62561400  0.63398400  0.40327300  1
  C  C16  1  0.04056000  0.67388100  0.59268500  1
  C  C17  1  0.68305300  0.04177900  0.61748300  1
  C  C18  1  0.95122500  0.30511500  0.38475400  1
  C  C19  1  0.31899200  0.95826700  0.38560700  1
