# generated using pymatgen
data_CuNi2C5
_symmetry_space_group_name_H-M   'P 1'
_cell_length_a   15.45439700
_cell_length_b   5.91079600
_cell_length_c   8.33446534
_cell_angle_alpha   87.89253415
_cell_angle_beta   90.00000000
_cell_angle_gamma   90.00000000
_symmetry_Int_Tables_number   1
_chemical_formula_structural   CuNi2C5
_chemical_formula_sum   'Cu8 Ni16 C40'
_cell_volume   760.82001418
_cell_formula_units_Z   8
loop_
 _symmetry_equiv_pos_site_id
 _symmetry_equiv_pos_as_xyz
  1  'x, y, z'
loop_
 _atom_site_type_symbol
 _atom_site_label
 _atom_site_symmetry_multiplicity
 _atom_site_fract_x
 _atom_site_fract_y
 _atom_site_fract_z
 _atom_site_occupancy
  C  C0  1  0.39666800  0.22662000  0.42467800  1
  C  C1  1  0.89666800  0.77338000  0.07532200  1
  C  C2  1  0.60333200  0.77338000  0.57532200  1
  C  C3  1  0.10333200  0.22662000  0.92467800  1
  Ni  Ni4  1  0.29188200  0.53467400  0.89993800  1
  Ni  Ni5  1  0.79188200  0.46532600  0.60006200  1
  Ni  Ni6  1  0.70811800  0.46532600  0.10006200  1
  Ni  Ni7  1  0.20811800  0.53467400  0.39993800  1
  Ni  Ni8  1  0.49186400  0.74649000  0.97780500  1
  Ni  Ni9  1  0.99186400  0.25351000  0.52219500  1
  Ni  Ni10  1  0.50813600  0.25351000  0.02219500  1
  Ni  Ni11  1  0.00813600  0.74649000  0.47780500  1
  Ni  Ni12  1  0.20729100  0.17252200  0.31243200  1
  Ni  Ni13  1  0.70729100  0.82747800  0.18756800  1
  Ni  Ni14  1  0.79270900  0.82747800  0.68756800  1
  Ni  Ni15  1  0.29270900  0.17252200  0.81243200  1
  Ni  Ni16  1  0.20525900  0.15883600  0.49958900  1
  Ni  Ni17  1  0.70525900  0.84116400  0.00041100  1
  Ni  Ni18  1  0.79474100  0.84116400  0.50041100  1
  Ni  Ni19  1  0.29474100  0.15883600  0.99958900  1
  Cu  Cu20  1  0.36954000  0.72600000  0.70521900  1
  Cu  Cu21  1  0.86954000  0.27400000  0.79478100  1
  Cu  Cu22  1  0.63046000  0.27400000  0.29478100  1
  Cu  Cu23  1  0.13046000  0.72600000  0.20521900  1
  Cu  Cu24  1  0.42493300  0.76313800  0.22735500  1
  Cu  Cu25  1  0.92493300  0.23686200  0.27264500  1
  Cu  Cu26  1  0.57506700  0.23686200  0.77264500  1
  Cu  Cu27  1  0.07506700  0.76313800  0.72735500  1
  C  C28  1  0.47355700  0.72906700  0.75854600  1
  C  C29  1  0.97355700  0.27093300  0.74145400  1
  C  C30  1  0.52644300  0.27093300  0.24145400  1
  C  C31  1  0.02644300  0.72906700  0.25854600  1
  C  C32  1  0.34246600  0.50771600  0.59869000  1
  C  C33  1  0.84246600  0.49228400  0.90131000  1
  C  C34  1  0.65753400  0.49228400  0.40131000  1
  C  C35  1  0.15753400  0.50771600  0.09869000  1
  C  C36  1  0.33699900  0.97712600  0.63357300  1
  C  C37  1  0.83699900  0.02287400  0.86642700  1
  C  C38  1  0.66300100  0.02287400  0.36642700  1
  C  C39  1  0.16300100  0.97712600  0.13357300  1
  C  C40  1  0.31195100  0.69742100  0.88600600  1
  C  C41  1  0.81195100  0.30257900  0.61399400  1
  C  C42  1  0.68804900  0.30257900  0.11399400  1
  C  C43  1  0.18804900  0.69742100  0.38600600  1
  C  C44  1  0.36683600  0.99525800  0.19110200  1
  C  C45  1  0.86683600  0.00474200  0.30889800  1
  C  C46  1  0.63316400  0.00474200  0.80889800  1
  C  C47  1  0.13316400  0.99525800  0.69110200  1
  C  C48  1  0.36955100  0.52545000  0.22185600  1
  C  C49  1  0.86955100  0.47455000  0.27814400  1
  C  C50  1  0.63044900  0.47455000  0.77814400  1
  C  C51  1  0.13044900  0.52545000  0.72185600  1
  C  C52  1  0.47439800  0.79472400  0.40250300  1
  C  C53  1  0.97439800  0.20527600  0.09749700  1
  C  C54  1  0.52560200  0.20527600  0.59749700  1
  C  C55  1  0.02560200  0.79472400  0.90250300  1
  C  C56  1  0.51258300  0.75739100  0.09149000  1
  C  C57  1  0.01258300  0.24260900  0.40851000  1
  C  C58  1  0.48741700  0.24260900  0.90851000  1
  C  C59  1  0.98741700  0.75739100  0.59149000  1
  C  C60  1  0.23170000  0.24280100  0.40828200  1
  C  C61  1  0.73170000  0.75719900  0.09171800  1
  C  C62  1  0.76830000  0.75719900  0.59171800  1
  C  C63  1  0.26830000  0.24280100  0.90828200  1
