# generated using pymatgen
data_Cu3Ni5C
_symmetry_space_group_name_H-M   'P 1'
_cell_length_a   3.67616100
_cell_length_b   14.73043036
_cell_length_c   14.73043036
_cell_angle_alpha   120.00000160
_cell_angle_beta   90.00000000
_cell_angle_gamma   90.00000000
_symmetry_Int_Tables_number   1
_chemical_formula_structural   Cu3Ni5C
_chemical_formula_sum   'Cu18 Ni30 C6'
_cell_volume   690.80586853
_cell_formula_units_Z   6
loop_
 _symmetry_equiv_pos_site_id
 _symmetry_equiv_pos_as_xyz
  1  'x, y, z'
loop_
 _atom_site_type_symbol
 _atom_site_label
 _atom_site_symmetry_multiplicity
 _atom_site_fract_x
 _atom_site_fract_y
 _atom_site_fract_z
 _atom_site_occupancy
  C  C0  1  0.75000000  0.70715200  0.10126700  1
  C  C1  1  0.25000000  0.29284800  0.89873300  1
  C  C2  1  0.75000000  0.39411500  0.29284800  1
  C  C3  1  0.25000000  0.60588500  0.70715200  1
  C  C4  1  0.75000000  0.89873300  0.60588500  1
  C  C5  1  0.25000000  0.10126700  0.39411500  1
  Ni  Ni6  1  0.75000000  0.58579600  0.85295600  1
  Ni  Ni7  1  0.25000000  0.41420400  0.14704400  1
  Ni  Ni8  1  0.75000000  0.26716000  0.41420400  1
  Ni  Ni9  1  0.25000000  0.73284000  0.58579600  1
  Ni  Ni10  1  0.75000000  0.14704400  0.73284000  1
  Ni  Ni11  1  0.25000000  0.85295600  0.26716000  1
  Ni  Ni12  1  0.75000000  0.45994600  0.53438800  1
  Ni  Ni13  1  0.25000000  0.54005400  0.46561200  1
  Ni  Ni14  1  0.75000000  0.07444200  0.54005400  1
  Ni  Ni15  1  0.25000000  0.92555800  0.45994600  1
  Ni  Ni16  1  0.75000000  0.46561200  0.92555800  1
  Ni  Ni17  1  0.25000000  0.53438800  0.07444200  1
  Ni  Ni18  1  0.75000000  0.89692200  0.03067000  1
  Ni  Ni19  1  0.25000000  0.10307800  0.96933000  1
  Ni  Ni20  1  0.75000000  0.13374800  0.10307800  1
  Ni  Ni21  1  0.25000000  0.86625200  0.89692200  1
  Ni  Ni22  1  0.75000000  0.96933000  0.86625200  1
  Ni  Ni23  1  0.25000000  0.03067000  0.13374800  1
  Ni  Ni24  1  0.75000000  0.77445300  0.34787700  1
  Ni  Ni25  1  0.25000000  0.22554700  0.65212300  1
  Ni  Ni26  1  0.75000000  0.57342500  0.22554700  1
  Ni  Ni27  1  0.25000000  0.42657500  0.77445300  1
  Ni  Ni28  1  0.75000000  0.65212300  0.42657500  1
  Ni  Ni29  1  0.25000000  0.34787700  0.57342500  1
  Ni  Ni30  1  0.75000000  0.95380500  0.22155800  1
  Ni  Ni31  1  0.25000000  0.04619500  0.77844200  1
  Ni  Ni32  1  0.75000000  0.26775300  0.04619500  1
  Ni  Ni33  1  0.25000000  0.73224700  0.95380500  1
  Ni  Ni34  1  0.75000000  0.77844200  0.73224700  1
  Ni  Ni35  1  0.25000000  0.22155800  0.26775300  1
  Cu  Cu36  1  0.75000000  0.44283600  0.68223900  1
  Cu  Cu37  1  0.25000000  0.55716400  0.31776100  1
  Cu  Cu38  1  0.75000000  0.23940300  0.55716400  1
  Cu  Cu39  1  0.25000000  0.76059700  0.44283600  1
  Cu  Cu40  1  0.75000000  0.31776100  0.76059700  1
  Cu  Cu41  1  0.25000000  0.68223900  0.23940300  1
  Cu  Cu42  1  0.75000000  0.75096500  0.87184800  1
  Cu  Cu43  1  0.25000000  0.24903500  0.12815200  1
  Cu  Cu44  1  0.75000000  0.12088300  0.24903500  1
  Cu  Cu45  1  0.25000000  0.87911700  0.75096500  1
  Cu  Cu46  1  0.75000000  0.12815200  0.87911700  1
  Cu  Cu47  1  0.25000000  0.87184800  0.12088300  1
  Cu  Cu48  1  0.75000000  0.93784200  0.37072400  1
  Cu  Cu49  1  0.25000000  0.06215800  0.62927600  1
  Cu  Cu50  1  0.75000000  0.43288200  0.06215800  1
  Cu  Cu51  1  0.25000000  0.56711800  0.93784200  1
  Cu  Cu52  1  0.75000000  0.62927600  0.56711800  1
  Cu  Cu53  1  0.25000000  0.37072400  0.43288200  1
