# generated using pymatgen
data_Cu2NiC8
_symmetry_space_group_name_H-M   'P 1'
_cell_length_a   9.05233600
_cell_length_b   9.26281100
_cell_length_c   10.73738800
_cell_angle_alpha   90.00000000
_cell_angle_beta   90.00000000
_cell_angle_gamma   90.00000000
_symmetry_Int_Tables_number   1
_chemical_formula_structural   Cu2NiC8
_chemical_formula_sum   'Cu16 Ni8 C64'
_cell_volume   900.33081570
_cell_formula_units_Z   8
loop_
 _symmetry_equiv_pos_site_id
 _symmetry_equiv_pos_as_xyz
  1  'x, y, z'
loop_
 _atom_site_type_symbol
 _atom_site_label
 _atom_site_symmetry_multiplicity
 _atom_site_fract_x
 _atom_site_fract_y
 _atom_site_fract_z
 _atom_site_occupancy
  C  C0  1  0.13907000  0.50000000  0.25000000  1
  C  C1  1  0.36093000  0.00000000  0.75000000  1
  C  C2  1  0.86093000  0.50000000  0.75000000  1
  C  C3  1  0.63907000  0.00000000  0.25000000  1
  C  C4  1  0.12773800  0.00000000  0.25000000  1
  C  C5  1  0.37226200  0.50000000  0.75000000  1
  C  C6  1  0.87226200  0.00000000  0.75000000  1
  C  C7  1  0.62773800  0.50000000  0.25000000  1
  C  C8  1  0.52632100  0.75772000  0.42171300  1
  C  C9  1  0.97367900  0.74228000  0.92171300  1
  C  C10  1  0.97367900  0.25772000  0.57828700  1
  C  C11  1  0.52632100  0.24228000  0.07828700  1
  C  C12  1  0.47367900  0.24228000  0.57828700  1
  C  C13  1  0.02632100  0.25772000  0.07828700  1
  C  C14  1  0.02632100  0.74228000  0.42171300  1
  C  C15  1  0.47367900  0.75772000  0.92171300  1
  Ni  Ni16  1  0.22772700  0.76326100  0.07395300  1
  Ni  Ni17  1  0.27227300  0.73673900  0.57395300  1
  Ni  Ni18  1  0.27227300  0.26326100  0.92604700  1
  Ni  Ni19  1  0.22772700  0.23673900  0.42604700  1
  Ni  Ni20  1  0.77227300  0.23673900  0.92604700  1
  Ni  Ni21  1  0.72772700  0.26326100  0.42604700  1
  Ni  Ni22  1  0.72772700  0.73673900  0.07395300  1
  Ni  Ni23  1  0.77227300  0.76326100  0.57395300  1
  Cu  Cu24  1  0.41508600  0.95772700  0.38719600  1
  Cu  Cu25  1  0.08491400  0.54227300  0.88719600  1
  Cu  Cu26  1  0.08491400  0.45772700  0.61280400  1
  Cu  Cu27  1  0.41508600  0.04227300  0.11280400  1
  Cu  Cu28  1  0.58491400  0.04227300  0.61280400  1
  Cu  Cu29  1  0.91508600  0.45772700  0.11280400  1
  Cu  Cu30  1  0.91508600  0.54227300  0.38719600  1
  Cu  Cu31  1  0.58491400  0.95772700  0.88719600  1
  Cu  Cu32  1  0.40787700  0.66358800  0.27456300  1
  Cu  Cu33  1  0.09212300  0.83641200  0.77456300  1
  Cu  Cu34  1  0.09212300  0.16358800  0.72543700  1
  Cu  Cu35  1  0.40787700  0.33641200  0.22543700  1
  Cu  Cu36  1  0.59212300  0.33641200  0.72543700  1
  Cu  Cu37  1  0.90787700  0.16358800  0.22543700  1
  Cu  Cu38  1  0.90787700  0.83641200  0.27456300  1
  Cu  Cu39  1  0.59212300  0.66358800  0.77456300  1
  C  C40  1  0.26323800  0.64707500  0.17169200  1
  C  C41  1  0.23676200  0.85292500  0.67169200  1
  C  C42  1  0.23676200  0.14707500  0.82830800  1
  C  C43  1  0.26323800  0.35292500  0.32830800  1
  C  C44  1  0.73676200  0.35292500  0.82830800  1
  C  C45  1  0.76323800  0.14707500  0.32830800  1
  C  C46  1  0.76323800  0.85292500  0.17169200  1
  C  C47  1  0.73676200  0.64707500  0.67169200  1
  C  C48  1  0.50523300  0.90212600  0.36653600  1
  C  C49  1  0.99476700  0.59787400  0.86653600  1
  C  C50  1  0.99476700  0.40212600  0.63346400  1
  C  C51  1  0.50523300  0.09787400  0.13346400  1
  C  C52  1  0.49476700  0.09787400  0.63346400  1
  C  C53  1  0.00523300  0.40212600  0.13346400  1
  C  C54  1  0.00523300  0.59787400  0.36653600  1
  C  C55  1  0.49476700  0.90212600  0.86653600  1
  C  C56  1  0.26029700  0.91488100  0.12465700  1
  C  C57  1  0.23970300  0.58511900  0.62465700  1
  C  C58  1  0.23970300  0.41488100  0.87534300  1
  C  C59  1  0.26029700  0.08511900  0.37534300  1
  C  C60  1  0.73970300  0.08511900  0.87534300  1
  C  C61  1  0.76029700  0.41488100  0.37534300  1
  C  C62  1  0.76029700  0.58511900  0.12465700  1
  C  C63  1  0.73970300  0.91488100  0.62465700  1
  C  C64  1  0.49323800  0.64356700  0.33023400  1
  C  C65  1  0.00676200  0.85643300  0.83023400  1
  C  C66  1  0.00676200  0.14356700  0.66976600  1
  C  C67  1  0.49323800  0.35643300  0.16976600  1
  C  C68  1  0.50676200  0.35643300  0.66976600  1
  C  C69  1  0.99323800  0.14356700  0.16976600  1
  C  C70  1  0.99323800  0.85643300  0.33023400  1
  C  C71  1  0.50676200  0.64356700  0.83023400  1
  C  C72  1  0.18416200  0.76291600  0.45120200  1
  C  C73  1  0.31583800  0.73708400  0.95120200  1
  C  C74  1  0.31583800  0.26291600  0.54879800  1
  C  C75  1  0.18416200  0.23708400  0.04879800  1
  C  C76  1  0.81583800  0.23708400  0.54879800  1
  C  C77  1  0.68416200  0.26291600  0.04879800  1
  C  C78  1  0.68416200  0.73708400  0.45120200  1
  C  C79  1  0.81583800  0.76291600  0.95120200  1
  C  C80  1  0.06133300  0.75017900  0.03820200  1
  C  C81  1  0.43866700  0.74982100  0.53820200  1
  C  C82  1  0.43866700  0.25017900  0.96179800  1
  C  C83  1  0.06133300  0.24982100  0.46179800  1
  C  C84  1  0.93866700  0.24982100  0.96179800  1
  C  C85  1  0.56133300  0.25017900  0.46179800  1
  C  C86  1  0.56133300  0.74982100  0.03820200  1
  C  C87  1  0.93866700  0.75017900  0.53820200  1
