# generated using pymatgen
data_Cu2NiC20
_symmetry_space_group_name_H-M   'P 1'
_cell_length_a   9.07140336
_cell_length_b   9.07140336
_cell_length_c   6.80297818
_cell_angle_alpha   79.86717379
_cell_angle_beta   79.86717379
_cell_angle_gamma   45.07714305
_symmetry_Int_Tables_number   1
_chemical_formula_structural   Cu2NiC20
_chemical_formula_sum   'Cu2 Ni1 C20'
_cell_volume   389.12747378
_cell_formula_units_Z   1
loop_
 _symmetry_equiv_pos_site_id
 _symmetry_equiv_pos_as_xyz
  1  'x, y, z'
loop_
 _atom_site_type_symbol
 _atom_site_label
 _atom_site_symmetry_multiplicity
 _atom_site_fract_x
 _atom_site_fract_y
 _atom_site_fract_z
 _atom_site_occupancy
  Ni  Ni0  1  0.00000000  0.00000000  0.50000000  1
  C  C1  1  0.25286400  0.25286400  0.85709900  1
  C  C2  1  0.74713600  0.74713600  0.14290100  1
  Cu  Cu3  1  0.79311400  0.79311400  0.65286400  1
  Cu  Cu4  1  0.20688600  0.20688600  0.34713600  1
  C  C5  1  0.36243900  0.36243900  0.84352900  1
  C  C6  1  0.63756100  0.63756100  0.15647100  1
  C  C7  1  0.14215800  0.14215800  0.90989600  1
  C  C8  1  0.85784200  0.85784200  0.09010400  1
  C  C9  1  0.74679700  0.74679700  0.46131100  1
  C  C10  1  0.25320300  0.25320300  0.53868900  1
  C  C11  1  0.88916100  0.88916100  0.57692000  1
  C  C12  1  0.11083900  0.11083900  0.42308000  1
  C  C13  1  0.93868400  0.58382400  0.81130200  1
  C  C14  1  0.58382400  0.93868400  0.81130200  1
  C  C15  1  0.06131600  0.41617600  0.18869800  1
  C  C16  1  0.41617600  0.06131600  0.18869800  1
  C  C17  1  0.32779700  0.64419800  0.31265100  1
  C  C18  1  0.64419800  0.32779700  0.31265100  1
  C  C19  1  0.67220300  0.35580200  0.68734900  1
  C  C20  1  0.35580200  0.67220300  0.68734900  1
  C  C21  1  0.54660400  0.54660400  0.73101600  1
  C  C22  1  0.45339600  0.45339600  0.26898400  1
