# generated using pymatgen
data_Cu8Ni2C
_symmetry_space_group_name_H-M   'P 1'
_cell_length_a   9.44472160
_cell_length_b   8.26928819
_cell_length_c   6.96373593
_cell_angle_alpha   76.09751513
_cell_angle_beta   58.20055603
_cell_angle_gamma   45.70192884
_symmetry_Int_Tables_number   1
_chemical_formula_structural   Cu8Ni2C
_chemical_formula_sum   'Cu16 Ni4 C2'
_cell_volume   323.45401780
_cell_formula_units_Z   2
loop_
 _symmetry_equiv_pos_site_id
 _symmetry_equiv_pos_as_xyz
  1  'x, y, z'
loop_
 _atom_site_type_symbol
 _atom_site_label
 _atom_site_symmetry_multiplicity
 _atom_site_fract_x
 _atom_site_fract_y
 _atom_site_fract_z
 _atom_site_occupancy
  C  C0  1  0.25000000  0.25000000  0.25000000  1
  C  C1  1  0.00000000  0.00000000  0.00000000  1
  Ni  Ni2  1  0.94581600  0.55418400  0.94581600  1
  Ni  Ni3  1  0.55418400  0.94581600  0.55418400  1
  Ni  Ni4  1  0.30418400  0.69581600  0.30418400  1
  Ni  Ni5  1  0.69581600  0.30418400  0.69581600  1
  Cu  Cu6  1  0.97621800  0.36704100  0.06658000  1
  Cu  Cu7  1  0.36704100  0.97621800  0.59016100  1
  Cu  Cu8  1  0.06658000  0.59016100  0.97621800  1
  Cu  Cu9  1  0.59016100  0.06658000  0.36704100  1
  Cu  Cu10  1  0.27378200  0.88295900  0.18342000  1
  Cu  Cu11  1  0.88295900  0.27378200  0.65983900  1
  Cu  Cu12  1  0.18342000  0.65983900  0.27378200  1
  Cu  Cu13  1  0.65983900  0.18342000  0.88295900  1
  Cu  Cu14  1  0.04849000  0.48521600  0.70388100  1
  Cu  Cu15  1  0.48521600  0.04849000  0.76241300  1
  Cu  Cu16  1  0.70388100  0.76241200  0.04849000  1
  Cu  Cu17  1  0.76241300  0.70388100  0.48521600  1
  Cu  Cu18  1  0.20151000  0.76478400  0.54611900  1
  Cu  Cu19  1  0.76478400  0.20151000  0.48758700  1
  Cu  Cu20  1  0.54611900  0.48758800  0.20151000  1
  Cu  Cu21  1  0.48758800  0.54611900  0.76478400  1
