# generated using pymatgen
data_Cu2Ni2C15
_symmetry_space_group_name_H-M   'P 1'
_cell_length_a   4.98508002
_cell_length_b   5.74283200
_cell_length_c   7.78789026
_cell_angle_alpha   111.63563035
_cell_angle_beta   102.93212092
_cell_angle_gamma   90.00000000
_symmetry_Int_Tables_number   1
_chemical_formula_structural   Cu2Ni2C15
_chemical_formula_sum   'Cu2 Ni2 C15'
_cell_volume   201.15145841
_cell_formula_units_Z   1
loop_
 _symmetry_equiv_pos_site_id
 _symmetry_equiv_pos_as_xyz
  1  'x, y, z'
loop_
 _atom_site_type_symbol
 _atom_site_label
 _atom_site_symmetry_multiplicity
 _atom_site_fract_x
 _atom_site_fract_y
 _atom_site_fract_z
 _atom_site_occupancy
  C  C0  1  0.28432200  0.23510900  0.47021800  1
  C  C1  1  0.71567800  0.76489100  0.52978200  1
  C  C2  1  0.00000000  0.00000000  0.00000000  1
  C  C3  1  0.50000000  0.73177800  0.00000000  1
  C  C4  1  0.50000000  0.26822200  0.00000000  1
  Ni  Ni5  1  0.90380100  0.37622500  0.75245000  1
  Ni  Ni6  1  0.09619900  0.62377500  0.24755000  1
  Cu  Cu7  1  0.75238200  0.14015900  0.28031800  1
  Cu  Cu8  1  0.24761800  0.85984100  0.71968200  1
  C  C9  1  0.77112400  0.59291000  0.18582100  1
  C  C10  1  0.22887600  0.40709000  0.81417900  1
  C  C11  1  0.21734300  0.81212300  0.17368300  1
  C  C12  1  0.21734300  0.36156100  0.17368300  1
  C  C13  1  0.78265700  0.18787700  0.82631700  1
  C  C14  1  0.78265700  0.63843900  0.82631700  1
  C  C15  1  0.71099400  0.07053100  0.14106100  1
  C  C16  1  0.28900600  0.92946900  0.85893900  1
  C  C17  1  0.80938600  0.26683600  0.53367300  1
  C  C18  1  0.19061400  0.73316400  0.46632700  1
