# generated using pymatgen
data_Cu2Ni11C7
_symmetry_space_group_name_H-M   'P 1'
_cell_length_a   7.60599636
_cell_length_b   8.49898330
_cell_length_c   8.78517494
_cell_angle_alpha   96.33048217
_cell_angle_beta   114.97452892
_cell_angle_gamma   101.30737439
_symmetry_Int_Tables_number   1
_chemical_formula_structural   Cu2Ni11C7
_chemical_formula_sum   'Cu4 Ni22 C14'
_cell_volume   492.75965601
_cell_formula_units_Z   2
loop_
 _symmetry_equiv_pos_site_id
 _symmetry_equiv_pos_as_xyz
  1  'x, y, z'
loop_
 _atom_site_type_symbol
 _atom_site_label
 _atom_site_symmetry_multiplicity
 _atom_site_fract_x
 _atom_site_fract_y
 _atom_site_fract_z
 _atom_site_occupancy
  C  C0  1  0.12094100  0.15902700  0.67341800  1
  C  C1  1  0.87905900  0.84097300  0.32658200  1
  Ni  Ni2  1  0.94101600  0.17341000  0.33029700  1
  Ni  Ni3  1  0.05898400  0.82659000  0.66970300  1
  Ni  Ni4  1  0.91753300  0.15444600  0.88504500  1
  Ni  Ni5  1  0.08246700  0.84555400  0.11495500  1
  Ni  Ni6  1  0.85462500  0.96961000  0.78108500  1
  Ni  Ni7  1  0.14537500  0.03039000  0.21891500  1
  Ni  Ni8  1  0.53310700  0.16286000  0.89315900  1
  Ni  Ni9  1  0.46689300  0.83714000  0.10684100  1
  Ni  Ni10  1  0.41355200  0.98078000  0.77973800  1
  Ni  Ni11  1  0.58644800  0.01922000  0.22026200  1
  Ni  Ni12  1  0.39557700  0.45165600  0.66649400  1
  Ni  Ni13  1  0.60442300  0.54834400  0.33350600  1
  Ni  Ni14  1  0.36042400  0.30912400  0.51569100  1
  Ni  Ni15  1  0.63957600  0.69087600  0.48430900  1
  Ni  Ni16  1  0.80298600  0.31773200  0.52701100  1
  Ni  Ni17  1  0.19701400  0.68226800  0.47298900  1
  Ni  Ni18  1  0.96600100  0.44098300  0.70620800  1
  Ni  Ni19  1  0.03399900  0.55901700  0.29379200  1
  Ni  Ni20  1  0.33738400  0.31555700  0.02956100  1
  Ni  Ni21  1  0.66261600  0.68444300  0.97043900  1
  Ni  Ni22  1  0.25755400  0.45657000  0.93721700  1
  Ni  Ni23  1  0.74244600  0.54343000  0.06278300  1
  Cu  Cu24  1  0.14416300  0.68927600  0.91893400  1
  Cu  Cu25  1  0.85583700  0.31072400  0.08106600  1
  Cu  Cu26  1  0.53354600  0.74673000  0.69412100  1
  Cu  Cu27  1  0.46645400  0.25327000  0.30587900  1
  C  C28  1  0.96494600  0.09707900  0.40855400  1
  C  C29  1  0.03505400  0.90292100  0.59144600  1
  C  C30  1  0.94901400  0.07856800  0.81195400  1
  C  C31  1  0.05098600  0.92143200  0.18804600  1
  C  C32  1  0.39705100  0.08780800  0.81719600  1
  C  C33  1  0.60294900  0.91219200  0.18280400  1
  C  C34  1  0.32884600  0.33468700  0.61239900  1
  C  C35  1  0.67115400  0.66531300  0.38760100  1
  C  C36  1  0.93810200  0.33863500  0.62498400  1
  C  C37  1  0.06189800  0.66136500  0.37501600  1
  C  C38  1  0.28739200  0.34977800  0.91825700  1
  C  C39  1  0.71260800  0.65022200  0.08174300  1
