# generated using pymatgen
data_Cu3NiC18
_symmetry_space_group_name_H-M   'P 1'
_cell_length_a   10.44510100
_cell_length_b   10.44510100
_cell_length_c   10.44510100
_cell_angle_alpha   90.00000000
_cell_angle_beta   90.00000000
_cell_angle_gamma   90.00000000
_symmetry_Int_Tables_number   1
_chemical_formula_structural   Cu3NiC18
_chemical_formula_sum   'Cu12 Ni4 C72'
_cell_volume   1139.56192815
_cell_formula_units_Z   4
loop_
 _symmetry_equiv_pos_site_id
 _symmetry_equiv_pos_as_xyz
  1  'x, y, z'
loop_
 _atom_site_type_symbol
 _atom_site_label
 _atom_site_symmetry_multiplicity
 _atom_site_fract_x
 _atom_site_fract_y
 _atom_site_fract_z
 _atom_site_occupancy
  C  C0  1  0.12500000  0.88632200  0.13632200  1
  C  C1  1  0.37500000  0.11367800  0.63632200  1
  C  C2  1  0.87500000  0.38632200  0.36367800  1
  C  C3  1  0.13632200  0.12500000  0.88632200  1
  C  C4  1  0.63632200  0.37500000  0.11367800  1
  C  C5  1  0.62500000  0.61367800  0.86367800  1
  C  C6  1  0.86367800  0.62500000  0.61367800  1
  C  C7  1  0.36367800  0.87500000  0.38632200  1
  C  C8  1  0.88632200  0.13632200  0.12500000  1
  C  C9  1  0.38632200  0.36367800  0.87500000  1
  C  C10  1  0.61367800  0.86367800  0.62500000  1
  C  C11  1  0.11367800  0.63632200  0.37500000  1
  C  C12  1  0.87500000  0.87500000  0.87500000  1
  C  C13  1  0.62500000  0.12500000  0.37500000  1
  C  C14  1  0.12500000  0.37500000  0.62500000  1
  C  C15  1  0.37500000  0.62500000  0.12500000  1
  Ni  Ni16  1  0.37500000  0.37500000  0.37500000  1
  Ni  Ni17  1  0.12500000  0.62500000  0.87500000  1
  Ni  Ni18  1  0.62500000  0.87500000  0.12500000  1
  Ni  Ni19  1  0.87500000  0.12500000  0.62500000  1
  Cu  Cu20  1  0.12500000  0.14628400  0.39628400  1
  Cu  Cu21  1  0.37500000  0.85371600  0.89628400  1
  Cu  Cu22  1  0.87500000  0.64628400  0.10371600  1
  Cu  Cu23  1  0.39628400  0.12500000  0.14628400  1
  Cu  Cu24  1  0.89628400  0.37500000  0.85371600  1
  Cu  Cu25  1  0.62500000  0.35371600  0.60371600  1
  Cu  Cu26  1  0.60371600  0.62500000  0.35371600  1
  Cu  Cu27  1  0.10371600  0.87500000  0.64628400  1
  Cu  Cu28  1  0.14628400  0.39628400  0.12500000  1
  Cu  Cu29  1  0.64628400  0.10371600  0.87500000  1
  Cu  Cu30  1  0.35371600  0.60371600  0.62500000  1
  Cu  Cu31  1  0.85371600  0.89628400  0.37500000  1
  C  C32  1  0.00516000  0.30328700  0.49203900  1
  C  C33  1  0.49484000  0.69671300  0.99203900  1
  C  C34  1  0.99484000  0.80328700  0.00796100  1
  C  C35  1  0.49203900  0.00516000  0.30328700  1
  C  C36  1  0.05328700  0.25516000  0.75796100  1
  C  C37  1  0.50516000  0.19671300  0.50796100  1
  C  C38  1  0.99203900  0.49484000  0.69671300  1
  C  C39  1  0.44671300  0.74484000  0.25796100  1
  C  C40  1  0.00796100  0.99484000  0.80328700  1
  C  C41  1  0.55328700  0.24484000  0.24203900  1
  C  C42  1  0.50796100  0.50516000  0.19671300  1
  C  C43  1  0.94671300  0.75516000  0.74203900  1
  C  C44  1  0.30328700  0.49203900  0.00516000  1
  C  C45  1  0.75516000  0.74203900  0.94671300  1
  C  C46  1  0.80328700  0.00796100  0.99484000  1
  C  C47  1  0.74484000  0.25796100  0.44671300  1
  C  C48  1  0.19671300  0.50796100  0.50516000  1
  C  C49  1  0.25516000  0.75796100  0.05328700  1
  C  C50  1  0.69671300  0.99203900  0.49484000  1
  C  C51  1  0.24484000  0.24203900  0.55328700  1
  C  C52  1  0.75796100  0.05328700  0.25516000  1
  C  C53  1  0.25796100  0.44671300  0.74484000  1
  C  C54  1  0.74203900  0.94671300  0.75516000  1
  C  C55  1  0.24203900  0.55328700  0.24484000  1
  C  C56  1  0.27013300  0.27013300  0.27013300  1
  C  C57  1  0.22986700  0.72986700  0.77013300  1
  C  C58  1  0.72986700  0.77013300  0.22986700  1
  C  C59  1  0.02013300  0.52013300  0.97986700  1
  C  C60  1  0.77013300  0.22986700  0.72986700  1
  C  C61  1  0.47986700  0.47986700  0.47986700  1
  C  C62  1  0.52013300  0.97986700  0.02013300  1
  C  C63  1  0.97986700  0.02013300  0.52013300  1
  C  C64  1  0.99757700  0.00034900  0.19471400  1
  C  C65  1  0.50242300  0.99965100  0.69471400  1
  C  C66  1  0.00242300  0.50034900  0.30528600  1
  C  C67  1  0.19471400  0.99757700  0.00034900  1
  C  C68  1  0.75034900  0.24757700  0.05528600  1
  C  C69  1  0.49757700  0.49965100  0.80528600  1
  C  C70  1  0.69471400  0.50242300  0.99965100  1
  C  C71  1  0.74965100  0.75242300  0.55528600  1
  C  C72  1  0.30528600  0.00242300  0.50034900  1
  C  C73  1  0.25034900  0.25242300  0.94471400  1
  C  C74  1  0.80528600  0.49757700  0.49965100  1
  C  C75  1  0.24965100  0.74757700  0.44471400  1
  C  C76  1  0.00034900  0.19471400  0.99757700  1
  C  C77  1  0.74757700  0.44471400  0.24965100  1
  C  C78  1  0.50034900  0.30528600  0.00242300  1
  C  C79  1  0.75242300  0.55528600  0.74965100  1
  C  C80  1  0.49965100  0.80528600  0.49757700  1
  C  C81  1  0.24757700  0.05528600  0.75034900  1
  C  C82  1  0.99965100  0.69471400  0.50242300  1
  C  C83  1  0.25242300  0.94471400  0.25034900  1
  C  C84  1  0.05528600  0.75034900  0.24757700  1
  C  C85  1  0.55528600  0.74965100  0.75242300  1
  C  C86  1  0.44471400  0.24965100  0.74757700  1
  C  C87  1  0.94471400  0.25034900  0.25242300  1
