# generated using pymatgen
data_Cu6Ni10C19
_symmetry_space_group_name_H-M   'P 1'
_cell_length_a   7.96411700
_cell_length_b   13.22672500
_cell_length_c   8.09781939
_cell_angle_alpha   90.00000000
_cell_angle_beta   118.93344481
_cell_angle_gamma   90.00000000
_symmetry_Int_Tables_number   1
_chemical_formula_structural   Cu6Ni10C19
_chemical_formula_sum   'Cu12 Ni20 C38'
_cell_volume   746.54597018
_cell_formula_units_Z   2
loop_
 _symmetry_equiv_pos_site_id
 _symmetry_equiv_pos_as_xyz
  1  'x, y, z'
loop_
 _atom_site_type_symbol
 _atom_site_label
 _atom_site_symmetry_multiplicity
 _atom_site_fract_x
 _atom_site_fract_y
 _atom_site_fract_z
 _atom_site_occupancy
  C  C0  1  0.00000000  0.00000000  0.50000000  1
  C  C1  1  0.00000000  0.50000000  0.00000000  1
  C  C2  1  0.28144700  0.86805800  0.65323300  1
  C  C3  1  0.28144700  0.63194200  0.15323300  1
  C  C4  1  0.71855300  0.13194200  0.34676700  1
  C  C5  1  0.71855300  0.36805800  0.84676700  1
  C  C6  1  0.25955000  0.05621000  0.09690300  1
  C  C7  1  0.25955000  0.44379000  0.59690300  1
  C  C8  1  0.74045000  0.94379000  0.90309700  1
  C  C9  1  0.74045000  0.55621000  0.40309700  1
  C  C10  1  0.10258300  0.81643100  0.46484000  1
  C  C11  1  0.10258300  0.68356900  0.96484000  1
  C  C12  1  0.89741700  0.18356900  0.53516000  1
  C  C13  1  0.89741700  0.31643100  0.03516000  1
  C  C14  1  0.36093500  0.84593700  0.40012900  1
  C  C15  1  0.36093500  0.65406300  0.90012900  1
  C  C16  1  0.63906500  0.15406300  0.59987100  1
  C  C17  1  0.63906500  0.34593700  0.09987100  1
  C  C18  1  0.39956400  0.21216700  0.64667000  1
  C  C19  1  0.39956400  0.28783300  0.14667000  1
  C  C20  1  0.60043600  0.78783300  0.35333000  1
  C  C21  1  0.60043600  0.71216700  0.85333000  1
  C  C22  1  0.41829000  0.95301400  0.20162600  1
  C  C23  1  0.41829000  0.54698600  0.70162600  1
  C  C24  1  0.58171000  0.04698600  0.79837400  1
  C  C25  1  0.58171000  0.45301400  0.29837400  1
  C  C26  1  0.41974900  0.28984200  0.50896300  1
  C  C27  1  0.41974900  0.21015800  0.00896300  1
  C  C28  1  0.58025100  0.71015800  0.49103700  1
  C  C29  1  0.58025100  0.78984200  0.99103700  1
  C  C30  1  0.22161900  0.98233500  0.29336500  1
  C  C31  1  0.22161900  0.51766500  0.79336500  1
  C  C32  1  0.77838100  0.01766500  0.70663500  1
  C  C33  1  0.77838100  0.48233500  0.20663500  1
  Ni  Ni34  1  0.18060900  0.88204600  0.51602000  1
  Ni  Ni35  1  0.18060900  0.61795400  0.01602000  1
  Ni  Ni36  1  0.81939100  0.11795400  0.48398000  1
  Ni  Ni37  1  0.81939100  0.38204600  0.98398000  1
  Ni  Ni38  1  0.27532500  0.90257000  0.41080300  1
  Ni  Ni39  1  0.27532500  0.59743000  0.91080300  1
  Ni  Ni40  1  0.72467500  0.09743000  0.58919700  1
  Ni  Ni41  1  0.72467500  0.40257000  0.08919700  1
  Ni  Ni42  1  0.30330700  0.99550400  0.18542000  1
  Ni  Ni43  1  0.30330700  0.50449600  0.68542000  1
  Ni  Ni44  1  0.69669300  0.00449600  0.81458000  1
  Ni  Ni45  1  0.69669300  0.49550400  0.31458000  1
  Ni  Ni46  1  0.08615500  0.04330600  0.30038100  1
  Ni  Ni47  1  0.08615500  0.45669400  0.80038100  1
  Ni  Ni48  1  0.91384500  0.95669400  0.69961900  1
  Ni  Ni49  1  0.91384500  0.54330600  0.19961900  1
  Ni  Ni50  1  0.02448800  0.12724200  0.19176200  1
  Ni  Ni51  1  0.02448800  0.37275800  0.69176200  1
  Ni  Ni52  1  0.97551200  0.87275800  0.80823800  1
  Ni  Ni53  1  0.97551200  0.62724200  0.30823800  1
  C  C54  1  0.71365300  0.90490900  0.24266100  1
  C  C55  1  0.71365300  0.59509100  0.74266100  1
  C  C56  1  0.28634700  0.09509100  0.75733900  1
  C  C57  1  0.28634700  0.40490900  0.25733900  1
  Cu  Cu58  1  0.90733000  0.18067700  0.21358000  1
  Cu  Cu59  1  0.90733000  0.31932300  0.71358000  1
  Cu  Cu60  1  0.09267000  0.81932300  0.78642000  1
  Cu  Cu61  1  0.09267000  0.68067700  0.28642000  1
  Cu  Cu62  1  0.07920200  0.15034000  0.07455000  1
  Cu  Cu63  1  0.07920200  0.34966000  0.57455000  1
  Cu  Cu64  1  0.92079800  0.84966000  0.92545000  1
  Cu  Cu65  1  0.92079800  0.65034000  0.42545000  1
  Cu  Cu66  1  0.49415500  0.24798500  0.62150400  1
  Cu  Cu67  1  0.49415500  0.25201500  0.12150400  1
  Cu  Cu68  1  0.50584500  0.75201500  0.37849600  1
  Cu  Cu69  1  0.50584500  0.74798500  0.87849600  1
