# generated using pymatgen
data_CuNi4C5
_symmetry_space_group_name_H-M   'P 1'
_cell_length_a   3.01768734
_cell_length_b   3.02391068
_cell_length_c   24.89874875
_cell_angle_alpha   86.49781525
_cell_angle_beta   86.59882052
_cell_angle_gamma   59.97692049
_symmetry_Int_Tables_number   1
_chemical_formula_structural   CuNi4C5
_chemical_formula_sum   'Cu2 Ni8 C10'
_cell_volume   196.24465056
_cell_formula_units_Z   2
loop_
 _symmetry_equiv_pos_site_id
 _symmetry_equiv_pos_as_xyz
  1  'x, y, z'
loop_
 _atom_site_type_symbol
 _atom_site_label
 _atom_site_symmetry_multiplicity
 _atom_site_fract_x
 _atom_site_fract_y
 _atom_site_fract_z
 _atom_site_occupancy
  Ni  Ni0  1  0.29944400  0.29929500  0.10162100  1
  Ni  Ni1  1  0.79954800  0.79958100  0.60165300  1
  Ni  Ni2  1  0.20045200  0.20041600  0.39835000  1
  Ni  Ni3  1  0.70056400  0.70069300  0.89837900  1
  Ni  Ni4  1  0.59990100  0.59987700  0.20048800  1
  Ni  Ni5  1  0.09991300  0.09992700  0.70050400  1
  Ni  Ni6  1  0.90009300  0.90006600  0.29949400  1
  Ni  Ni7  1  0.40011000  0.40011500  0.79950800  1
  Cu  Cu8  1  0.49997800  0.50002500  0.50000100  1
  Cu  Cu9  1  0.99997800  0.00002400  0.00000000  1
  C  C10  1  0.25000300  0.24997100  0.24995700  1
  C  C11  1  0.75000700  0.75001800  0.75004500  1
  C  C12  1  0.85171300  0.84363500  0.44661700  1
  C  C13  1  0.35527500  0.35534200  0.94668600  1
  C  C14  1  0.64472300  0.64465300  0.05331400  1
  C  C15  1  0.14827500  0.15638000  0.55338400  1
  C  C16  1  0.55032000  0.54997100  0.34892000  1
  C  C17  1  0.05044100  0.05046800  0.84902700  1
  C  C18  1  0.94957000  0.94952300  0.15098100  1
  C  C19  1  0.44969200  0.45002000  0.65107100  1
