# generated using pymatgen
data_CuNi4C
_symmetry_space_group_name_H-M   'P 1'
_cell_length_a   7.45833136
_cell_length_b   7.45833136
_cell_length_c   7.45833136
_cell_angle_alpha   126.58247414
_cell_angle_beta   126.58247414
_cell_angle_gamma   78.93289459
_symmetry_Int_Tables_number   1
_chemical_formula_structural   CuNi4C
_chemical_formula_sum   'Cu2 Ni8 C2'
_cell_volume   258.80593939
_cell_formula_units_Z   2
loop_
 _symmetry_equiv_pos_site_id
 _symmetry_equiv_pos_as_xyz
  1  'x, y, z'
loop_
 _atom_site_type_symbol
 _atom_site_label
 _atom_site_symmetry_multiplicity
 _atom_site_fract_x
 _atom_site_fract_y
 _atom_site_fract_z
 _atom_site_occupancy
  C  C0  1  0.50000000  0.50000000  0.00000000  1
  C  C1  1  0.00000000  0.00000000  0.00000000  1
  Ni  Ni2  1  0.20389100  0.02384500  0.50000000  1
  Ni  Ni3  1  0.02384500  0.52384500  0.81995400  1
  Ni  Ni4  1  0.70389100  0.20389100  0.18004600  1
  Ni  Ni5  1  0.29610900  0.79610900  0.81995400  1
  Ni  Ni6  1  0.97615500  0.47615500  0.18004600  1
  Ni  Ni7  1  0.79610900  0.97615500  0.50000000  1
  Ni  Ni8  1  0.47615500  0.29610900  0.50000000  1
  Ni  Ni9  1  0.52384500  0.70389100  0.50000000  1
  Cu  Cu10  1  0.75000000  0.75000000  0.00000000  1
  Cu  Cu11  1  0.25000000  0.25000000  0.00000000  1
