# generated using pymatgen
data_Cu11NiC60
_symmetry_space_group_name_H-M   'P 1'
_cell_length_a   13.20807337
_cell_length_b   13.20807337
_cell_length_c   9.71117313
_cell_angle_alpha   88.23827156
_cell_angle_beta   88.23827156
_cell_angle_gamma   157.86216195
_symmetry_Int_Tables_number   1
_chemical_formula_structural   Cu11NiC60
_chemical_formula_sum   'Cu11 Ni1 C60'
_cell_volume   630.17696774
_cell_formula_units_Z   1
loop_
 _symmetry_equiv_pos_site_id
 _symmetry_equiv_pos_as_xyz
  1  'x, y, z'
loop_
 _atom_site_type_symbol
 _atom_site_label
 _atom_site_symmetry_multiplicity
 _atom_site_fract_x
 _atom_site_fract_y
 _atom_site_fract_z
 _atom_site_occupancy
  C  C0  1  0.72145200  0.78180000  0.75107500  1
  C  C1  1  0.66567100  0.83260100  0.24943100  1
  C  C2  1  0.21820000  0.27854800  0.24892500  1
  C  C3  1  0.41686700  0.58313300  0.00000000  1
  C  C4  1  0.60702200  0.88049600  0.75104100  1
  C  C5  1  0.16739900  0.33432900  0.75056900  1
  C  C6  1  0.91616600  0.08383400  0.50000000  1
  C  C7  1  0.11950400  0.39297800  0.24895900  1
  C  C8  1  0.55051600  0.94480200  0.25086300  1
  C  C9  1  0.05519800  0.44948400  0.74913700  1
  C  C10  1  0.49893800  0.99928200  0.74983700  1
  C  C11  1  0.24911000  0.75089000  0.50000000  1
  C  C12  1  0.00071800  0.50106200  0.25016300  1
  C  C13  1  0.74950900  0.25049100  0.00000000  1
  C  C14  1  0.94935500  0.55566300  0.74871600  1
  C  C15  1  0.44433700  0.05064500  0.25128400  1
  C  C16  1  0.88755800  0.61426200  0.25166200  1
  C  C17  1  0.08353500  0.91646500  0.00000000  1
  C  C18  1  0.38573800  0.11244200  0.74833800  1
  C  C19  1  0.83345400  0.66628500  0.74950100  1
  C  C20  1  0.58376300  0.41623700  0.50000000  1
  C  C21  1  0.78162400  0.71991500  0.24869700  1
  C  C22  1  0.33371500  0.16654600  0.25049900  1
  C  C23  1  0.28008500  0.21837600  0.75130300  1
  Ni  Ni24  1  0.86183000  0.13817000  0.00000000  1
  Cu  Cu25  1  0.47388400  0.52611600  0.50000000  1
  Cu  Cu26  1  0.97478300  0.02521700  0.00000000  1
  Cu  Cu27  1  0.35944400  0.64055600  0.50000000  1
  Cu  Cu28  1  0.30495200  0.69504800  0.00000000  1
  Cu  Cu29  1  0.80728000  0.19272000  0.50000000  1
  Cu  Cu30  1  0.19223700  0.80776300  0.00000000  1
  Cu  Cu31  1  0.13908300  0.86091700  0.50000000  1
  Cu  Cu32  1  0.69426100  0.30573900  0.50000000  1
  Cu  Cu33  1  0.64017000  0.35983000  0.00000000  1
  Cu  Cu34  1  0.02592000  0.97408000  0.50000000  1
  Cu  Cu35  1  0.52663400  0.47336600  0.00000000  1
  C  C36  1  0.84166700  0.88753700  0.38622700  1
  C  C37  1  0.61290800  0.65840900  0.11317200  1
  C  C38  1  0.11246300  0.15833300  0.61377300  1
  C  C39  1  0.81264600  0.97691000  0.88430400  1
  C  C40  1  0.34159100  0.38709200  0.88682800  1
  C  C41  1  0.52276300  0.68901500  0.61265800  1
  C  C42  1  0.31098500  0.47723700  0.38734200  1
  C  C43  1  0.49945200  0.78468000  0.11449000  1
  C  C44  1  0.02309000  0.18735400  0.11569600  1
  C  C45  1  0.44542600  0.82461900  0.61340100  1
  C  C46  1  0.99050700  0.27773000  0.61377100  1
  C  C47  1  0.21532000  0.50054800  0.88551000  1
  C  C48  1  0.17538100  0.55457400  0.38659900  1
  C  C49  1  0.72227000  0.00949300  0.38622900  1
  C  C50  1  0.95737600  0.34090000  0.11272700  1
  C  C51  1  0.35740400  0.85868400  0.11392900  1
  C  C52  1  0.14131600  0.64259600  0.88607100  1
  C  C53  1  0.65910000  0.04262400  0.88727300  1
  C  C54  1  0.33087600  0.94942900  0.61380600  1
  C  C55  1  0.85478900  0.35476900  0.61366500  1
  C  C56  1  0.64523100  0.14521100  0.38633500  1
  C  C57  1  0.05057100  0.66912400  0.38619400  1
  C  C58  1  0.27931500  0.99275400  0.11350000  1
  C  C59  1  0.82476600  0.44651400  0.11353000  1
  C  C60  1  0.78783000  0.50210100  0.61136900  1
  C  C61  1  0.00724600  0.72068500  0.88650000  1
  C  C62  1  0.55348600  0.17523400  0.88647000  1
  C  C63  1  0.97623400  0.81043800  0.38582200  1
  C  C64  1  0.49789900  0.21217000  0.38863100  1
  C  C65  1  0.68893000  0.52248800  0.11379500  1
  C  C66  1  0.47751200  0.31107000  0.88620500  1
  C  C67  1  0.65855800  0.61214200  0.61329900  1
  C  C68  1  0.18956200  0.02376600  0.61417800  1
  C  C69  1  0.88830200  0.84053900  0.88638300  1
  C  C70  1  0.38785800  0.34144200  0.38670100  1
  C  C71  1  0.15946100  0.11169800  0.11361700  1
