# generated using pymatgen
data_Cu3Ni9C
_symmetry_space_group_name_H-M   'P 1'
_cell_length_a   11.67356800
_cell_length_b   14.45827700
_cell_length_c   7.39156600
_cell_angle_alpha   90.00000000
_cell_angle_beta   90.00000000
_cell_angle_gamma   90.00000000
_symmetry_Int_Tables_number   1
_chemical_formula_structural   Cu3Ni9C
_chemical_formula_sum   'Cu24 Ni72 C8'
_cell_volume   1247.54614213
_cell_formula_units_Z   8
loop_
 _symmetry_equiv_pos_site_id
 _symmetry_equiv_pos_as_xyz
  1  'x, y, z'
loop_
 _atom_site_type_symbol
 _atom_site_label
 _atom_site_symmetry_multiplicity
 _atom_site_fract_x
 _atom_site_fract_y
 _atom_site_fract_z
 _atom_site_occupancy
  Ni  Ni0  1  0.81271800  0.90802000  0.58458900  1
  Ni  Ni1  1  0.68728200  0.59198000  0.08458900  1
  Ni  Ni2  1  0.31271800  0.59198000  0.41541100  1
  Ni  Ni3  1  0.18728200  0.90802000  0.91541100  1
  Ni  Ni4  1  0.18728200  0.09198000  0.41541100  1
  Ni  Ni5  1  0.31271800  0.40802000  0.91541100  1
  Ni  Ni6  1  0.68728200  0.40802000  0.58458900  1
  Ni  Ni7  1  0.81271800  0.09198000  0.08458900  1
  Ni  Ni8  1  0.92801300  0.83586700  0.60420500  1
  Ni  Ni9  1  0.57198700  0.66413300  0.10420500  1
  Ni  Ni10  1  0.42801300  0.66413300  0.39579500  1
  Ni  Ni11  1  0.07198700  0.83586700  0.89579500  1
  Ni  Ni12  1  0.07198700  0.16413300  0.39579500  1
  Ni  Ni13  1  0.42801300  0.33586700  0.89579500  1
  Ni  Ni14  1  0.57198700  0.33586700  0.60420500  1
  Ni  Ni15  1  0.92801300  0.16413300  0.10420500  1
  Ni  Ni16  1  0.87285300  0.86034600  0.40395200  1
  Ni  Ni17  1  0.62714700  0.63965400  0.90395200  1
  Ni  Ni18  1  0.37285300  0.63965400  0.59604800  1
  Ni  Ni19  1  0.12714700  0.86034600  0.09604800  1
  Ni  Ni20  1  0.12714700  0.13965400  0.59604800  1
  Ni  Ni21  1  0.37285300  0.36034600  0.09604800  1
  Ni  Ni22  1  0.62714700  0.36034600  0.40395200  1
  Ni  Ni23  1  0.87285300  0.13965400  0.90395200  1
  Ni  Ni24  1  0.16925400  0.87342800  0.37005100  1
  Ni  Ni25  1  0.33074600  0.62657200  0.87005100  1
  Ni  Ni26  1  0.66925400  0.62657200  0.62994900  1
  Ni  Ni27  1  0.83074600  0.87342800  0.12994900  1
  Ni  Ni28  1  0.83074600  0.12657200  0.62994900  1
  Ni  Ni29  1  0.66925400  0.37342800  0.12994900  1
  Ni  Ni30  1  0.33074600  0.37342800  0.37005100  1
  Ni  Ni31  1  0.16925400  0.12657200  0.87005100  1
  Ni  Ni32  1  0.27791000  0.80033000  0.35081200  1
  Ni  Ni33  1  0.22209000  0.69967000  0.85081200  1
  Ni  Ni34  1  0.77791000  0.69967000  0.64918800  1
  Ni  Ni35  1  0.72209000  0.80033000  0.14918800  1
  Ni  Ni36  1  0.72209000  0.19967000  0.64918800  1
  Ni  Ni37  1  0.77791000  0.30033000  0.14918800  1
  Ni  Ni38  1  0.22209000  0.30033000  0.35081200  1
  Ni  Ni39  1  0.27791000  0.19967000  0.85081200  1
  Ni  Ni40  1  0.16190800  0.77237000  0.46946100  1
  Ni  Ni41  1  0.33809200  0.72763000  0.96946100  1
  Ni  Ni42  1  0.66190800  0.72763000  0.53053900  1
  Ni  Ni43  1  0.83809200  0.77237000  0.03053900  1
  Ni  Ni44  1  0.83809200  0.22763000  0.53053900  1
  Ni  Ni45  1  0.66190800  0.27237000  0.03053900  1
  Ni  Ni46  1  0.33809200  0.27237000  0.46946100  1
  Ni  Ni47  1  0.16190800  0.22763000  0.96946100  1
  Ni  Ni48  1  0.63103800  0.00013100  0.67523700  1
  Ni  Ni49  1  0.86896200  0.49986900  0.17523700  1
  Ni  Ni50  1  0.13103800  0.49986900  0.32476300  1
  Ni  Ni51  1  0.36896200  0.00013100  0.82476300  1
  Ni  Ni52  1  0.36896200  0.99986900  0.32476300  1
  Ni  Ni53  1  0.13103800  0.50013100  0.82476300  1
  Ni  Ni54  1  0.86896200  0.50013100  0.67523700  1
  Ni  Ni55  1  0.63103800  0.99986900  0.17523700  1
  Ni  Ni56  1  0.60037800  0.90479600  0.56425900  1
  Ni  Ni57  1  0.89962200  0.59520400  0.06425900  1
  Ni  Ni58  1  0.10037800  0.59520400  0.43574100  1
  Ni  Ni59  1  0.39962200  0.90479600  0.93574100  1
  Ni  Ni60  1  0.39962200  0.09520400  0.43574100  1
  Ni  Ni61  1  0.10037800  0.40479600  0.93574100  1
  Ni  Ni62  1  0.89962200  0.40479600  0.56425900  1
  Ni  Ni63  1  0.60037800  0.09520400  0.06425900  1
  Ni  Ni64  1  0.64677700  0.89908500  0.77532400  1
  Ni  Ni65  1  0.85322300  0.60091500  0.27532400  1
  Ni  Ni66  1  0.14677700  0.60091500  0.22467600  1
  Ni  Ni67  1  0.35322300  0.89908500  0.72467600  1
  Ni  Ni68  1  0.35322300  0.10091500  0.22467600  1
  Ni  Ni69  1  0.14677700  0.39908500  0.72467600  1
  Ni  Ni70  1  0.85322300  0.39908500  0.77532400  1
  Ni  Ni71  1  0.64677700  0.10091500  0.27532400  1
  C  C72  1  0.00000000  0.00000000  0.50000000  1
  C  C73  1  0.50000000  0.50000000  0.00000000  1
  C  C74  1  0.50000000  0.50000000  0.50000000  1
  C  C75  1  0.00000000  0.00000000  0.00000000  1
  Cu  Cu76  1  0.89149400  0.88862600  0.52717600  1
  Cu  Cu77  1  0.60850600  0.61137400  0.02717600  1
  Cu  Cu78  1  0.39149400  0.61137400  0.47282400  1
  Cu  Cu79  1  0.10850600  0.88862600  0.97282400  1
  Cu  Cu80  1  0.10850600  0.11137400  0.47282400  1
  Cu  Cu81  1  0.39149400  0.38862600  0.97282400  1
  Cu  Cu82  1  0.60850600  0.38862600  0.52717600  1
  Cu  Cu83  1  0.89149400  0.11137400  0.02717600  1
  Cu  Cu84  1  0.21683600  0.82498400  0.43739800  1
  Cu  Cu85  1  0.28316400  0.67501600  0.93739800  1
  Cu  Cu86  1  0.71683600  0.67501600  0.56260200  1
  Cu  Cu87  1  0.78316400  0.82498400  0.06260200  1
  Cu  Cu88  1  0.78316400  0.17501600  0.56260200  1
  Cu  Cu89  1  0.71683600  0.32498400  0.06260200  1
  Cu  Cu90  1  0.28316400  0.32498400  0.43739800  1
  Cu  Cu91  1  0.21683600  0.17501600  0.93739800  1
  Cu  Cu92  1  0.65654700  0.93321500  0.65490700  1
  Cu  Cu93  1  0.84345300  0.56678500  0.15490700  1
  Cu  Cu94  1  0.15654700  0.56678500  0.34509300  1
  Cu  Cu95  1  0.34345300  0.93321500  0.84509300  1
  Cu  Cu96  1  0.34345300  0.06678500  0.34509300  1
  Cu  Cu97  1  0.15654700  0.43321500  0.84509300  1
  Cu  Cu98  1  0.84345300  0.43321500  0.65490700  1
  Cu  Cu99  1  0.65654700  0.06678500  0.15490700  1
  C  C100  1  0.00000000  0.71366600  0.75000000  1
  C  C101  1  0.50000000  0.78633400  0.25000000  1
  C  C102  1  0.00000000  0.28633400  0.25000000  1
  C  C103  1  0.50000000  0.21366600  0.75000000  1
