# generated using pymatgen
data_Cu2NiC7
_symmetry_space_group_name_H-M   'P 1'
_cell_length_a   5.28523600
_cell_length_b   9.06275600
_cell_length_c   18.44878000
_cell_angle_alpha   90.00000000
_cell_angle_beta   90.00000000
_cell_angle_gamma   90.00000000
_symmetry_Int_Tables_number   1
_chemical_formula_structural   Cu2NiC7
_chemical_formula_sum   'Cu16 Ni8 C56'
_cell_volume   883.67450225
_cell_formula_units_Z   8
loop_
 _symmetry_equiv_pos_site_id
 _symmetry_equiv_pos_as_xyz
  1  'x, y, z'
loop_
 _atom_site_type_symbol
 _atom_site_label
 _atom_site_symmetry_multiplicity
 _atom_site_fract_x
 _atom_site_fract_y
 _atom_site_fract_z
 _atom_site_occupancy
  C  C0  1  0.61768100  0.15217900  0.37548100  1
  C  C1  1  0.38231900  0.84782100  0.62451900  1
  C  C2  1  0.61768100  0.65217900  0.12451900  1
  C  C3  1  0.11768100  0.84782100  0.12451900  1
  C  C4  1  0.88231900  0.15217900  0.87548100  1
  C  C5  1  0.38231900  0.34782100  0.87548100  1
  C  C6  1  0.11768100  0.34782100  0.37548100  1
  C  C7  1  0.88231900  0.65217900  0.62451900  1
  Ni  Ni8  1  0.37652000  0.99203800  0.87618900  1
  Ni  Ni9  1  0.62348000  0.00796200  0.12381100  1
  Ni  Ni10  1  0.87652000  0.00796200  0.62381100  1
  Ni  Ni11  1  0.12348000  0.99203800  0.37618900  1
  Ni  Ni12  1  0.37652000  0.49203800  0.62381100  1
  Ni  Ni13  1  0.62348000  0.50796200  0.37618900  1
  Ni  Ni14  1  0.87652000  0.50796200  0.87618900  1
  Ni  Ni15  1  0.12348000  0.49203800  0.12381100  1
  Cu  Cu16  1  0.56442700  0.65977200  0.77242200  1
  Cu  Cu17  1  0.71514000  0.83639800  0.47440100  1
  Cu  Cu18  1  0.78486000  0.83639800  0.97440100  1
  Cu  Cu19  1  0.93557300  0.15977200  0.22757800  1
  Cu  Cu20  1  0.06442700  0.34022800  0.72757800  1
  Cu  Cu21  1  0.43557300  0.84022800  0.27242200  1
  Cu  Cu22  1  0.21514000  0.66360200  0.47440100  1
  Cu  Cu23  1  0.71514000  0.33639800  0.02559900  1
  Cu  Cu24  1  0.78486000  0.33639800  0.52559900  1
  Cu  Cu25  1  0.93557300  0.65977200  0.27242200  1
  Cu  Cu26  1  0.43557300  0.34022800  0.22757800  1
  Cu  Cu27  1  0.56442700  0.15977200  0.72757800  1
  Cu  Cu28  1  0.28486000  0.16360200  0.52559900  1
  Cu  Cu29  1  0.06442700  0.84022800  0.77242200  1
  Cu  Cu30  1  0.28486000  0.66360200  0.97440100  1
  Cu  Cu31  1  0.21514000  0.16360200  0.02559900  1
  C  C32  1  0.93321000  0.50072900  0.31197600  1
  C  C33  1  0.30175500  0.01484400  0.06728300  1
  C  C34  1  0.06679000  0.49927100  0.68802400  1
  C  C35  1  0.71302500  0.33840100  0.93655200  1
  C  C36  1  0.21302500  0.16159900  0.93655200  1
  C  C37  1  0.91940000  0.20521100  0.05105100  1
  C  C38  1  0.94544300  0.66244300  0.18396200  1
  C  C39  1  0.05455700  0.83755700  0.68396200  1
  C  C40  1  0.71302500  0.83840100  0.56344800  1
  C  C41  1  0.94544300  0.16244300  0.31603800  1
  C  C42  1  0.43321000  0.49927100  0.18802400  1
  C  C43  1  0.78697500  0.33840100  0.43655200  1
  C  C44  1  0.69824500  0.98515600  0.93271700  1
  C  C45  1  0.44544300  0.83755700  0.18396200  1
  C  C46  1  0.56679000  0.00072900  0.68802400  1
  C  C47  1  0.30175500  0.51484400  0.43271700  1
  C  C48  1  0.43321000  0.99927100  0.31197600  1
  C  C49  1  0.16422900  0.76868900  0.30274400  1
  C  C50  1  0.33577100  0.76868900  0.80274400  1
  C  C51  1  0.58060000  0.70521100  0.94894900  1
  C  C52  1  0.78697500  0.83840100  0.06344800  1
  C  C53  1  0.55455700  0.66244300  0.68396200  1
  C  C54  1  0.80175500  0.48515600  0.06728300  1
  C  C55  1  0.16422900  0.26868900  0.19725600  1
  C  C56  1  0.28697500  0.16159900  0.43655200  1
  C  C57  1  0.55455700  0.16244300  0.81603800  1
  C  C58  1  0.69824500  0.48515600  0.56728300  1
  C  C59  1  0.21302500  0.66159900  0.56344800  1
  C  C60  1  0.19824500  0.51484400  0.93271700  1
  C  C61  1  0.66422900  0.73131100  0.30274400  1
  C  C62  1  0.06679000  0.99927100  0.81197600  1
  C  C63  1  0.83577100  0.73131100  0.80274400  1
  C  C64  1  0.83577100  0.23131100  0.69725600  1
  C  C65  1  0.80175500  0.98515600  0.43271700  1
  C  C66  1  0.28697500  0.66159900  0.06344800  1
  C  C67  1  0.19824500  0.01484400  0.56728300  1
  C  C68  1  0.33577100  0.26868900  0.69725600  1
  C  C69  1  0.08060000  0.79478900  0.94894900  1
  C  C70  1  0.41940000  0.79478900  0.44894900  1
  C  C71  1  0.66422900  0.23131100  0.19725600  1
  C  C72  1  0.41940000  0.29478900  0.05105100  1
  C  C73  1  0.58060000  0.20521100  0.55105100  1
  C  C74  1  0.08060000  0.29478900  0.55105100  1
  C  C75  1  0.44544300  0.33755700  0.31603800  1
  C  C76  1  0.56679000  0.50072900  0.81197600  1
  C  C77  1  0.91940000  0.70521100  0.44894900  1
  C  C78  1  0.05455700  0.33755700  0.81603800  1
  C  C79  1  0.93321000  0.00072900  0.18802400  1
