# generated using pymatgen
data_Cu6NiC33
_symmetry_space_group_name_H-M   'P 1'
_cell_length_a   8.61008200
_cell_length_b   8.68537991
_cell_length_c   8.68867589
_cell_angle_alpha   63.57363812
_cell_angle_beta   63.94437223
_cell_angle_gamma   63.93945417
_symmetry_Int_Tables_number   1
_chemical_formula_structural   Cu6NiC33
_chemical_formula_sum   'Cu6 Ni1 C33'
_cell_volume   498.13628287
_cell_formula_units_Z   1
loop_
 _symmetry_equiv_pos_site_id
 _symmetry_equiv_pos_as_xyz
  1  'x, y, z'
loop_
 _atom_site_type_symbol
 _atom_site_label
 _atom_site_symmetry_multiplicity
 _atom_site_fract_x
 _atom_site_fract_y
 _atom_site_fract_z
 _atom_site_occupancy
  C  C0  1  0.74684200  0.14490900  0.35375100  1
  C  C1  1  0.28914600  0.84616500  0.64557200  1
  C  C2  1  0.64233300  0.28530500  0.84934300  1
  C  C3  1  0.84797100  0.64131800  0.29347900  1
  C  C4  1  0.01561100  0.00277200  0.99851900  1
  C  C5  1  0.34578000  0.35030000  0.34627700  1
  C  C6  1  0.48657400  0.50418400  0.49875400  1
  C  C7  1  0.15126200  0.15328500  0.15064700  1
  C  C8  1  0.65569200  0.65510100  0.66001600  1
  Ni  Ni9  1  0.84684400  0.84127200  0.84715300  1
  Cu  Cu10  1  0.06706300  0.74659600  0.43223300  1
  Cu  Cu11  1  0.43233700  0.06664000  0.74734300  1
  Cu  Cu12  1  0.74678300  0.43135700  0.06704200  1
  Cu  Cu13  1  0.24798300  0.55258600  0.94262500  1
  Cu  Cu14  1  0.56350300  0.94546700  0.24985200  1
  Cu  Cu15  1  0.93148900  0.24435600  0.55076500  1
  C  C16  1  0.47228500  0.90646300  0.68787900  1
  C  C17  1  0.68459400  0.47200700  0.90902500  1
  C  C18  1  0.90806500  0.68041400  0.47681500  1
  C  C19  1  0.06400100  0.90712900  0.25519900  1
  C  C20  1  0.04616400  0.80761500  0.58849000  1
  C  C21  1  0.25205000  0.59801800  0.41498100  1
  C  C22  1  0.24817300  0.08370200  0.89598200  1
  C  C23  1  0.43531500  0.24416800  0.58672200  1
  C  C24  1  0.17318300  0.40837600  0.97845500  1
  C  C25  1  0.59999700  0.41304300  0.25530600  1
  C  C26  1  0.09835100  0.75354100  0.91357900  1
  C  C27  1  0.40517000  0.00215400  0.18460200  1
  C  C28  1  0.58756000  0.03957100  0.81601600  1
  C  C29  1  0.89341500  0.24323800  0.08538300  1
  C  C30  1  0.39857300  0.57638900  0.75242700  1
  C  C31  1  0.81077900  0.58530200  0.04552700  1
  C  C32  1  0.57583100  0.75551400  0.40054700  1
  C  C33  1  0.75962700  0.90833700  0.09643500  1
  C  C34  1  0.74684800  0.40012100  0.58091600  1
  C  C35  1  0.93967000  0.17622900  0.41242400  1
  C  C36  1  0.91416500  0.09472100  0.75038100  1
  C  C37  1  0.09769100  0.29719300  0.50022200  1
  C  C38  1  0.31145700  0.52253500  0.09391600  1
  C  C39  1  0.55982600  0.08960400  0.30840000  1
