# generated using pymatgen
data_CuNiC11
_symmetry_space_group_name_H-M   'P 1'
_cell_length_a   11.32943496
_cell_length_b   11.32943496
_cell_length_c   11.32943413
_cell_angle_alpha   105.14619844
_cell_angle_beta   105.14619844
_cell_angle_gamma   105.14619849
_symmetry_Int_Tables_number   1
_chemical_formula_structural   CuNiC11
_chemical_formula_sum   'Cu6 Ni6 C66'
_cell_volume   1267.34247567
_cell_formula_units_Z   6
loop_
 _symmetry_equiv_pos_site_id
 _symmetry_equiv_pos_as_xyz
  1  'x, y, z'
loop_
 _atom_site_type_symbol
 _atom_site_label
 _atom_site_symmetry_multiplicity
 _atom_site_fract_x
 _atom_site_fract_y
 _atom_site_fract_z
 _atom_site_occupancy
  Ni  Ni0  1  0.54160500  0.12731900  0.35605200  1
  Ni  Ni1  1  0.35605200  0.54160500  0.12731900  1
  Ni  Ni2  1  0.12731900  0.35605200  0.54160500  1
  Ni  Ni3  1  0.85605200  0.62731900  0.04160500  1
  Ni  Ni4  1  0.04160500  0.85605200  0.62731900  1
  Ni  Ni5  1  0.62731900  0.04160500  0.85605200  1
  Cu  Cu6  1  0.28418600  0.12140900  0.20995200  1
  Cu  Cu7  1  0.20995200  0.28418600  0.12140900  1
  Cu  Cu8  1  0.12140900  0.20995200  0.28418600  1
  Cu  Cu9  1  0.70995200  0.62140900  0.78418600  1
  Cu  Cu10  1  0.78418600  0.70995200  0.62140900  1
  Cu  Cu11  1  0.62140900  0.78418600  0.70995200  1
  C  C12  1  0.19511800  0.07215700  0.34173100  1
  C  C13  1  0.34173100  0.19511800  0.07215700  1
  C  C14  1  0.07215700  0.34173100  0.19511800  1
  C  C15  1  0.84173100  0.57215700  0.69511800  1
  C  C16  1  0.69511800  0.84173100  0.57215700  1
  C  C17  1  0.57215700  0.69511800  0.84173100  1
  C  C18  1  0.39812000  0.00645800  0.13239200  1
  C  C19  1  0.13239200  0.39812000  0.00645800  1
  C  C20  1  0.00645800  0.13239200  0.39812000  1
  C  C21  1  0.63239200  0.50645800  0.89812000  1
  C  C22  1  0.89812000  0.63239200  0.50645800  1
  C  C23  1  0.50645800  0.89812000  0.63239200  1
  C  C24  1  0.33336800  0.95113900  0.24270000  1
  C  C25  1  0.24270000  0.33336800  0.95113900  1
  C  C26  1  0.95113900  0.24270000  0.33336800  1
  C  C27  1  0.74270000  0.45113900  0.83336800  1
  C  C28  1  0.83336800  0.74270000  0.45113900  1
  C  C29  1  0.45113900  0.83336800  0.74270000  1
  C  C30  1  0.73888700  0.32146700  0.42914900  1
  C  C31  1  0.42914900  0.73888700  0.32146700  1
  C  C32  1  0.32146700  0.42914900  0.73888700  1
  C  C33  1  0.92914900  0.82146700  0.23888700  1
  C  C34  1  0.23888700  0.92914900  0.82146700  1
  C  C35  1  0.82146700  0.23888700  0.92914900  1
  C  C36  1  0.59703400  0.34770900  0.34378700  1
  C  C37  1  0.34378700  0.59703400  0.34770900  1
  C  C38  1  0.34770900  0.34378700  0.59703400  1
  C  C39  1  0.84378700  0.84770900  0.09703400  1
  C  C40  1  0.09703400  0.84378700  0.84770900  1
  C  C41  1  0.84770900  0.09703400  0.84378700  1
  C  C42  1  0.66961000  0.25280400  0.25500000  1
  C  C43  1  0.25500000  0.66961000  0.25280400  1
  C  C44  1  0.25280400  0.25500000  0.66961000  1
  C  C45  1  0.75500000  0.75280400  0.16961000  1
  C  C46  1  0.16961000  0.75500000  0.75280400  1
  C  C47  1  0.75280400  0.16961000  0.75500000  1
  C  C48  1  0.37816100  0.03941600  0.22333000  1
  C  C49  1  0.22333000  0.37816100  0.03941600  1
  C  C50  1  0.03941600  0.22333000  0.37816100  1
  C  C51  1  0.72333000  0.53941600  0.87816100  1
  C  C52  1  0.87816100  0.72333000  0.53941600  1
  C  C53  1  0.53941600  0.87816100  0.72333000  1
  C  C54  1  0.64697500  0.27667200  0.34498600  1
  C  C55  1  0.34498600  0.64697500  0.27667200  1
  C  C56  1  0.27667200  0.34498600  0.64697500  1
  C  C57  1  0.84498600  0.77667200  0.14697500  1
  C  C58  1  0.14697500  0.84498600  0.77667200  1
  C  C59  1  0.77667200  0.14697500  0.84498600  1
  C  C60  1  0.19812400  0.12679800  0.28326200  1
  C  C61  1  0.28326200  0.19812400  0.12679800  1
  C  C62  1  0.12679800  0.28326200  0.19812400  1
  C  C63  1  0.78326200  0.62679800  0.69812400  1
  C  C64  1  0.69812400  0.78326200  0.62679800  1
  C  C65  1  0.62679800  0.69812400  0.78326200  1
  C  C66  1  0.64724500  0.00219100  0.36539500  1
  C  C67  1  0.36539500  0.64724500  0.00219100  1
  C  C68  1  0.00219100  0.36539500  0.64724500  1
  C  C69  1  0.86539500  0.50219100  0.14724500  1
  C  C70  1  0.14724500  0.86539500  0.50219100  1
  C  C71  1  0.50219100  0.14724500  0.86539500  1
  C  C72  1  0.51514300  0.17570000  0.53511200  1
  C  C73  1  0.53511200  0.51514300  0.17570000  1
  C  C74  1  0.17570000  0.53511200  0.51514300  1
  C  C75  1  0.03511200  0.67570000  0.01514300  1
  C  C76  1  0.01514300  0.03511200  0.67570000  1
  C  C77  1  0.67570000  0.01514300  0.03511200  1
