# generated using pymatgen
data_Cu24Ni2C11
_symmetry_space_group_name_H-M   'P 1'
_cell_length_a   7.33932100
_cell_length_b   8.09160166
_cell_length_c   9.86776518
_cell_angle_alpha   68.99663309
_cell_angle_beta   69.24428606
_cell_angle_gamma   78.63692699
_symmetry_Int_Tables_number   1
_chemical_formula_structural   Cu24Ni2C11
_chemical_formula_sum   'Cu24 Ni2 C11'
_cell_volume   509.92717790
_cell_formula_units_Z   1
loop_
 _symmetry_equiv_pos_site_id
 _symmetry_equiv_pos_as_xyz
  1  'x, y, z'
loop_
 _atom_site_type_symbol
 _atom_site_label
 _atom_site_symmetry_multiplicity
 _atom_site_fract_x
 _atom_site_fract_y
 _atom_site_fract_z
 _atom_site_occupancy
  C  C0  1  0.00000000  0.50000000  0.00000000  1
  C  C1  1  0.62800600  0.05120700  0.59670900  1
  C  C2  1  0.37199400  0.94879300  0.40329100  1
  C  C3  1  0.62514300  0.38166000  0.29302800  1
  C  C4  1  0.37485700  0.61834000  0.70697200  1
  C  C5  1  0.26940800  0.34281600  0.23536900  1
  C  C6  1  0.73059200  0.65718400  0.76463100  1
  C  C7  1  0.05327100  0.20446000  0.56118000  1
  C  C8  1  0.94672900  0.79554000  0.43882000  1
  C  C9  1  0.26077900  0.26721100  0.75788000  1
  C  C10  1  0.73922100  0.73278900  0.24212000  1
  Ni  Ni11  1  0.72116500  0.14779400  0.95171300  1
  Ni  Ni12  1  0.27883500  0.85220600  0.04828700  1
  Cu  Cu13  1  0.45138200  0.44180300  0.21713000  1
  Cu  Cu14  1  0.54861800  0.55819700  0.78287000  1
  Cu  Cu15  1  0.11392100  0.35430600  0.39414100  1
  Cu  Cu16  1  0.88607900  0.64569400  0.60585900  1
  Cu  Cu17  1  0.12758100  0.28897100  0.65450600  1
  Cu  Cu18  1  0.87241900  0.71102900  0.34549400  1
  Cu  Cu19  1  0.37374500  0.44706500  0.66269600  1
  Cu  Cu20  1  0.62625500  0.55293500  0.33730400  1
  Cu  Cu21  1  0.81778800  0.34250500  0.18349700  1
  Cu  Cu22  1  0.18221200  0.65749500  0.81650300  1
  Cu  Cu23  1  0.54371900  0.23360500  0.43987200  1
  Cu  Cu24  1  0.45628100  0.76639500  0.56012800  1
  Cu  Cu25  1  0.19656700  0.45635300  0.10545900  1
  Cu  Cu26  1  0.80343300  0.54364700  0.89454100  1
  Cu  Cu27  1  0.32762300  0.14978100  0.24298700  1
  Cu  Cu28  1  0.67237700  0.85021900  0.75701300  1
  Cu  Cu29  1  0.16946000  0.02736400  0.55503400  1
  Cu  Cu30  1  0.83054000  0.97263600  0.44496600  1
  Cu  Cu31  1  0.83752200  0.20621900  0.62064200  1
  Cu  Cu32  1  0.16247800  0.79378100  0.37935800  1
  Cu  Cu33  1  0.13953000  0.26804500  0.91568600  1
  Cu  Cu34  1  0.86047000  0.73195500  0.08431400  1
  Cu  Cu35  1  0.41098000  0.10830600  0.75375700  1
  Cu  Cu36  1  0.58902000  0.89169400  0.24624300  1
