# generated using pymatgen
data_Cu3(NiC4)2
_symmetry_space_group_name_H-M   'P 1'
_cell_length_a   8.49848842
_cell_length_b   10.27457600
_cell_length_c   12.75646377
_cell_angle_alpha   90.00000000
_cell_angle_beta   85.35874428
_cell_angle_gamma   90.00000000
_symmetry_Int_Tables_number   1
_chemical_formula_structural   Cu3(NiC4)2
_chemical_formula_sum   'Cu6 Ni4 C16'
_cell_volume   1110.22102844
_cell_formula_units_Z   2
loop_
 _symmetry_equiv_pos_site_id
 _symmetry_equiv_pos_as_xyz
  1  'x, y, z'
loop_
 _atom_site_type_symbol
 _atom_site_label
 _atom_site_symmetry_multiplicity
 _atom_site_fract_x
 _atom_site_fract_y
 _atom_site_fract_z
 _atom_site_occupancy
  C  C0  1  0.79170000  0.75000000  0.89867200  1
  C  C1  1  0.20830000  0.25000000  0.10132800  1
  Ni  Ni2  1  0.55191400  0.75000000  0.64836800  1
  Ni  Ni3  1  0.44808600  0.25000000  0.35163200  1
  Ni  Ni4  1  0.11738600  0.75000000  0.88239100  1
  Ni  Ni5  1  0.88261400  0.25000000  0.11760900  1
  Cu  Cu6  1  0.55163800  0.75000000  0.98258900  1
  Cu  Cu7  1  0.44836200  0.25000000  0.01741100  1
  Cu  Cu8  1  0.77420100  0.53559300  0.86652800  1
  Cu  Cu9  1  0.22579900  0.03559300  0.13347200  1
  Cu  Cu10  1  0.22579900  0.46440700  0.13347200  1
  Cu  Cu11  1  0.77420100  0.96440700  0.86652800  1
  C  C12  1  0.99330400  0.75000000  0.79809100  1
  C  C13  1  0.00669600  0.25000000  0.20190900  1
  C  C14  1  0.97542200  0.75000000  0.97954300  1
  C  C15  1  0.02457800  0.25000000  0.02045700  1
  C  C16  1  0.66487900  0.75000000  0.55860800  1
  C  C17  1  0.33512100  0.25000000  0.44139200  1
  C  C18  1  0.49602100  0.62895200  0.69412600  1
  C  C19  1  0.50397900  0.12895200  0.30587400  1
  C  C20  1  0.50397900  0.37104800  0.30587400  1
  C  C21  1  0.49602100  0.87104800  0.69412600  1
  C  C22  1  0.20215700  0.62945200  0.88468900  1
  C  C23  1  0.79784300  0.12945200  0.11531100  1
  C  C24  1  0.79784300  0.37054800  0.11531100  1
  C  C25  1  0.20215700  0.87054800  0.88468900  1
