# generated using pymatgen
data_CuNi16C17
_symmetry_space_group_name_H-M   'P 1'
_cell_length_a   6.96361300
_cell_length_b   6.96361300
_cell_length_c   9.84424400
_cell_angle_alpha   90.00000000
_cell_angle_beta   90.00000000
_cell_angle_gamma   90.00000000
_symmetry_Int_Tables_number   1
_chemical_formula_structural   CuNi16C17
_chemical_formula_sum   'Cu1 Ni16 C17'
_cell_volume   477.36615482
_cell_formula_units_Z   1
loop_
 _symmetry_equiv_pos_site_id
 _symmetry_equiv_pos_as_xyz
  1  'x, y, z'
loop_
 _atom_site_type_symbol
 _atom_site_label
 _atom_site_symmetry_multiplicity
 _atom_site_fract_x
 _atom_site_fract_y
 _atom_site_fract_z
 _atom_site_occupancy
  C  C0  1  0.00000000  0.00000000  0.50000000  1
  Ni  Ni1  1  0.25307700  0.00000000  0.87260100  1
  Ni  Ni2  1  0.75168100  0.50000000  0.37475900  1
  Ni  Ni3  1  0.50000000  0.24831900  0.62524100  1
  Ni  Ni4  1  0.00000000  0.74692300  0.12739900  1
  Ni  Ni5  1  0.50000000  0.75168100  0.62524100  1
  Ni  Ni6  1  0.00000000  0.25307700  0.12739900  1
  Ni  Ni7  1  0.74692300  0.00000000  0.87260100  1
  Ni  Ni8  1  0.24831900  0.50000000  0.37475900  1
  Ni  Ni9  1  0.74692300  0.00000000  0.12739900  1
  Ni  Ni10  1  0.24831900  0.50000000  0.62524100  1
  Ni  Ni11  1  0.50000000  0.75168100  0.37475900  1
  Ni  Ni12  1  0.00000000  0.25307700  0.87260100  1
  Ni  Ni13  1  0.50000000  0.24831900  0.37475900  1
  Ni  Ni14  1  0.00000000  0.74692300  0.87260100  1
  Ni  Ni15  1  0.25307700  0.00000000  0.12739900  1
  Ni  Ni16  1  0.75168100  0.50000000  0.62524100  1
  Cu  Cu17  1  0.50000000  0.50000000  0.00000000  1
  C  C18  1  0.00000000  0.00000000  0.73614500  1
  C  C19  1  0.50000000  0.50000000  0.24262700  1
  C  C20  1  0.76311000  0.76311000  0.50000000  1
  C  C21  1  0.25733900  0.25733900  0.00000000  1
  C  C22  1  0.76311000  0.23689000  0.50000000  1
  C  C23  1  0.25733900  0.74266100  0.00000000  1
  C  C24  1  0.00000000  0.00000000  0.26385500  1
  C  C25  1  0.50000000  0.50000000  0.75737300  1
  C  C26  1  0.23689000  0.23689000  0.50000000  1
  C  C27  1  0.74266100  0.74266100  0.00000000  1
  C  C28  1  0.23689000  0.76311000  0.50000000  1
  C  C29  1  0.74266100  0.25733900  0.00000000  1
  C  C30  1  0.50000000  0.00000000  0.74768700  1
  C  C31  1  0.00000000  0.50000000  0.25231300  1
  C  C32  1  0.50000000  0.00000000  0.25231300  1
  C  C33  1  0.00000000  0.50000000  0.74768700  1
