# generated using pymatgen
data_Cu2(NiC3)3
_symmetry_space_group_name_H-M   'P 1'
_cell_length_a   5.98342157
_cell_length_b   8.39780002
_cell_length_c   6.00374599
_cell_angle_alpha   89.99997477
_cell_angle_beta   89.99995941
_cell_angle_gamma   89.83276058
_symmetry_Int_Tables_number   1
_chemical_formula_structural   Cu2(NiC3)3
_chemical_formula_sum   'Cu4 Ni6 C18'
_cell_volume   301.67240840
_cell_formula_units_Z   2
loop_
 _symmetry_equiv_pos_site_id
 _symmetry_equiv_pos_as_xyz
  1  'x, y, z'
loop_
 _atom_site_type_symbol
 _atom_site_label
 _atom_site_symmetry_multiplicity
 _atom_site_fract_x
 _atom_site_fract_y
 _atom_site_fract_z
 _atom_site_occupancy
  C  C0  1  0.24999800  0.37499900  0.99954800  1
  C  C1  1  0.74999800  0.87499900  0.49962100  1
  Ni  Ni2  1  0.25000100  0.87498600  0.50052400  1
  Ni  Ni3  1  0.49934700  0.12450400  0.74951600  1
  Ni  Ni4  1  0.00070300  0.62545200  0.74959900  1
  Ni  Ni5  1  0.75000200  0.37500000  0.00017100  1
  Ni  Ni6  1  0.99927500  0.62449900  0.24962200  1
  Ni  Ni7  1  0.50067000  0.12554300  0.24956800  1
  Cu  Cu8  1  0.50942300  0.49428400  0.50076500  1
  Cu  Cu9  1  0.00946900  0.99426400  0.00076100  1
  Cu  Cu10  1  0.99057300  0.25571700  0.50076400  1
  Cu  Cu11  1  0.49053600  0.75573200  0.00076200  1
  C  C12  1  0.77172100  0.62523200  0.99948000  1
  C  C13  1  0.27177000  0.12525100  0.49948000  1
  C  C14  1  0.22823500  0.62476400  0.49947700  1
  C  C15  1  0.72828000  0.12476300  0.99948400  1
  C  C16  1  0.98916200  0.39759700  0.23532400  1
  C  C17  1  0.48917200  0.89762400  0.73533500  1
  C  C18  1  0.01155900  0.85162200  0.26526900  1
  C  C19  1  0.51155900  0.35162300  0.76527200  1
  C  C20  1  0.78202800  0.62563200  0.49960700  1
  C  C21  1  0.28205100  0.12564200  0.99962500  1
  C  C22  1  0.01083200  0.85238300  0.73533300  1
  C  C23  1  0.51084200  0.35240600  0.23532600  1
  C  C24  1  0.98843800  0.39837700  0.76527200  1
  C  C25  1  0.48843600  0.89838300  0.26526800  1
  C  C26  1  0.21794700  0.62435900  0.99962000  1
  C  C27  1  0.71797200  0.12436400  0.49960700  1
