# generated using pymatgen
data_Cu(NiC2)4
_symmetry_space_group_name_H-M   'P 1'
_cell_length_a   6.64089571
_cell_length_b   6.64089571
_cell_length_c   8.16622375
_cell_angle_alpha   53.60926564
_cell_angle_beta   53.60926564
_cell_angle_gamma   61.91037586
_symmetry_Int_Tables_number   1
_chemical_formula_structural   Cu(NiC2)4
_chemical_formula_sum   'Cu1 Ni4 C8'
_cell_volume   229.41602491
_cell_formula_units_Z   1
loop_
 _symmetry_equiv_pos_site_id
 _symmetry_equiv_pos_as_xyz
  1  'x, y, z'
loop_
 _atom_site_type_symbol
 _atom_site_label
 _atom_site_symmetry_multiplicity
 _atom_site_fract_x
 _atom_site_fract_y
 _atom_site_fract_z
 _atom_site_occupancy
  Ni  Ni0  1  0.25539200  0.74460800  0.50000000  1
  Ni  Ni1  1  0.74460800  0.25539200  0.50000000  1
  Ni  Ni2  1  0.26006200  0.26006200  0.99412100  1
  Ni  Ni3  1  0.73993800  0.73993800  0.00587900  1
  Cu  Cu4  1  0.00000000  0.00000000  0.00000000  1
  C  C5  1  0.96357100  0.96357100  0.32653300  1
  C  C6  1  0.03642900  0.03642900  0.67346700  1
  C  C7  1  0.45419200  0.45419200  0.33443200  1
  C  C8  1  0.54580800  0.54580800  0.66556800  1
  C  C9  1  0.03940000  0.55012800  0.16617500  1
  C  C10  1  0.55012800  0.03940000  0.16617500  1
  C  C11  1  0.96060000  0.44987200  0.83382500  1
  C  C12  1  0.44987200  0.96060000  0.83382500  1
