# generated using pymatgen
data_Cu17(Ni9C14)2
_symmetry_space_group_name_H-M   'P 1'
_cell_length_a   9.40170500
_cell_length_b   11.76112207
_cell_length_c   12.71514474
_cell_angle_alpha   101.72873607
_cell_angle_beta   101.96664790
_cell_angle_gamma   103.70990670
_symmetry_Int_Tables_number   1
_chemical_formula_structural   Cu17(Ni9C14)2
_chemical_formula_sum   'Cu34 Ni36 C56'
_cell_volume   1288.23903249
_cell_formula_units_Z   2
loop_
 _symmetry_equiv_pos_site_id
 _symmetry_equiv_pos_as_xyz
  1  'x, y, z'
loop_
 _atom_site_type_symbol
 _atom_site_label
 _atom_site_symmetry_multiplicity
 _atom_site_fract_x
 _atom_site_fract_y
 _atom_site_fract_z
 _atom_site_occupancy
  C  C0  1  0.44188600  0.21610700  0.18949500  1
  C  C1  1  0.55811400  0.78389300  0.81050500  1
  C  C2  1  0.55455200  0.44344100  0.33038800  1
  C  C3  1  0.44544800  0.55655900  0.66961200  1
  C  C4  1  0.39249000  0.43593700  0.24159500  1
  C  C5  1  0.60751000  0.56406300  0.75840500  1
  C  C6  1  0.58594900  0.55669900  0.18628800  1
  C  C7  1  0.41405100  0.44330100  0.81371200  1
  C  C8  1  0.72380500  0.40138800  0.97887800  1
  C  C9  1  0.27619500  0.59861200  0.02112200  1
  C  C10  1  0.84806300  0.60793300  0.12326300  1
  C  C11  1  0.15193700  0.39206700  0.87673700  1
  C  C12  1  0.75530500  0.60768700  0.99682900  1
  C  C13  1  0.24469500  0.39231300  0.00317100  1
  C  C14  1  0.62349000  0.19945400  0.38562200  1
  C  C15  1  0.37651000  0.80054600  0.61437800  1
  C  C16  1  0.73474800  0.26305600  0.31701900  1
  C  C17  1  0.26525200  0.73694400  0.68298100  1
  C  C18  1  0.75505200  0.06334600  0.30062200  1
  C  C19  1  0.24494800  0.93665400  0.69937800  1
  C  C20  1  0.49469500  0.84355200  0.05298700  1
  C  C21  1  0.50530500  0.15644800  0.94701300  1
  C  C22  1  0.79243100  0.92810700  0.17354800  1
  C  C23  1  0.20756900  0.07189300  0.82645200  1
  C  C24  1  0.69211800  0.78701900  0.11599700  1
  C  C25  1  0.30788200  0.21298100  0.88400300  1
  C  C26  1  0.27969000  0.22888300  0.35052000  1
  C  C27  1  0.72031000  0.77111700  0.64948000  1
  C  C28  1  0.28042100  0.08648600  0.29970600  1
  C  C29  1  0.71957900  0.91351400  0.70029400  1
  C  C30  1  0.03038600  0.10590600  0.22897100  1
  C  C31  1  0.96961400  0.89409400  0.77102900  1
  C  C32  1  0.96902400  0.16234700  0.96250800  1
  C  C33  1  0.03097600  0.83765300  0.03749200  1
  C  C34  1  0.81136600  0.18731500  0.08799700  1
  C  C35  1  0.18863400  0.81268500  0.91200300  1
  C  C36  1  0.76515700  0.04294700  0.01777700  1
  C  C37  1  0.23484300  0.95705300  0.98222300  1
  C  C38  1  0.11541600  0.24426600  0.60508900  1
  C  C39  1  0.88458400  0.75573400  0.39491100  1
  C  C40  1  0.25434700  0.19508200  0.59273100  1
  C  C41  1  0.74565300  0.80491800  0.40726900  1
  C  C42  1  0.01294600  0.09574300  0.43103100  1
  C  C43  1  0.98705400  0.90425700  0.56896900  1
  C  C44  1  0.91202700  0.96205100  0.37482800  1
  C  C45  1  0.08797300  0.03794900  0.62517200  1
  C  C46  1  0.61035000  0.39630000  0.09928800  1
  C  C47  1  0.38965000  0.60370000  0.90071200  1
  C  C48  1  0.55011200  0.00687000  0.17000800  1
  C  C49  1  0.44988800  0.99313000  0.82999200  1
  C  C50  1  0.11773800  0.16141100  0.10382300  1
  C  C51  1  0.88226200  0.83858900  0.89617700  1
  C  C52  1  0.11683000  0.51847300  0.37265000  1
  C  C53  1  0.88317000  0.48152700  0.62735000  1
  C  C54  1  0.31358300  0.79482400  0.28735800  1
  C  C55  1  0.68641700  0.20517600  0.71264200  1
  Ni  Ni56  1  0.57549800  0.46759000  0.18273400  1
  Ni  Ni57  1  0.42450200  0.53241000  0.81726600  1
  Ni  Ni58  1  0.68817100  0.45290300  0.03730800  1
  Ni  Ni59  1  0.31182900  0.54709700  0.96269200  1
  Ni  Ni60  1  0.65756400  0.08222900  0.26304900  1
  Ni  Ni61  1  0.34243600  0.91777100  0.73695100  1
  Ni  Ni62  1  0.56987700  0.90063700  0.12544500  1
  Ni  Ni63  1  0.43012300  0.09936300  0.87455500  1
  Ni  Ni64  1  0.12599800  0.14210700  0.20638700  1
  Ni  Ni65  1  0.87400200  0.85789300  0.79361300  1
  Ni  Ni66  1  0.97764800  0.13809700  0.03590900  1
  Ni  Ni67  1  0.02235200  0.86190300  0.96409100  1
  Ni  Ni68  1  0.49188400  0.41248200  0.24805400  1
  Ni  Ni69  1  0.50811600  0.58751800  0.75194600  1
  Ni  Ni70  1  0.74309200  0.58080900  0.06692300  1
  Ni  Ni71  1  0.25690800  0.41919100  0.93307700  1
  Ni  Ni72  1  0.63755200  0.19527800  0.30720100  1
  Ni  Ni73  1  0.36244800  0.80472200  0.69279900  1
  Ni  Ni74  1  0.69641900  0.86394100  0.17308500  1
  Ni  Ni75  1  0.30358100  0.13605900  0.82691500  1
  Ni  Ni76  1  0.26962600  0.16469700  0.27925200  1
  Ni  Ni77  1  0.73037400  0.83530300  0.72074800  1
  Ni  Ni78  1  0.84921700  0.11191400  0.07704400  1
  Ni  Ni79  1  0.15078300  0.88808600  0.92295600  1
  Ni  Ni80  1  0.06098100  0.44008300  0.25983200  1
  Ni  Ni81  1  0.93901900  0.55991700  0.74016800  1
  Ni  Ni82  1  0.23862100  0.50092000  0.44403700  1
  Ni  Ni83  1  0.76137900  0.49908000  0.55596300  1
  Ni  Ni84  1  0.03492000  0.59822100  0.40499400  1
  Ni  Ni85  1  0.96508000  0.40177900  0.59500600  1
  Ni  Ni86  1  0.42515800  0.73616400  0.29574300  1
  Ni  Ni87  1  0.57484200  0.26383600  0.70425700  1
  Ni  Ni88  1  0.32436600  0.88823400  0.38734400  1
  Ni  Ni89  1  0.67563400  0.11176600  0.61265600  1
  Ni  Ni90  1  0.19570000  0.77804300  0.19542900  1
  Ni  Ni91  1  0.80430000  0.22195700  0.80457100  1
  Cu  Cu92  1  0.57482000  0.28139100  0.08155800  1
  Cu  Cu93  1  0.42518000  0.71860900  0.91844200  1
  Cu  Cu94  1  0.43410200  0.03641200  0.12496200  1
  Cu  Cu95  1  0.56589800  0.96358800  0.87503800  1
  Cu  Cu96  1  0.23551900  0.19897600  0.07173800  1
  Cu  Cu97  1  0.76448100  0.80102400  0.92826200  1
  Cu  Cu98  1  0.92531600  0.37823200  0.22895300  1
  Cu  Cu99  1  0.07468400  0.62176800  0.77104700  1
  Cu  Cu100  1  0.15081900  0.43864200  0.20073300  1
  Cu  Cu101  1  0.84918100  0.56135800  0.79926700  1
  Cu  Cu102  1  0.28981400  0.41577900  0.40748400  1
  Cu  Cu103  1  0.71018600  0.58422100  0.59251600  1
  Cu  Cu104  1  0.29354000  0.56993500  0.54117800  1
  Cu  Cu105  1  0.70646000  0.43006500  0.45882200  1
  Cu  Cu106  1  0.04855100  0.64364200  0.50536500  1
  Cu  Cu107  1  0.95144900  0.35635800  0.49463500  1
  Cu  Cu108  1  0.94955000  0.62274300  0.32690000  1
  Cu  Cu109  1  0.05045000  0.37725700  0.67310000  1
  Cu  Cu110  1  0.42638000  0.65617600  0.21466200  1
  Cu  Cu111  1  0.57362000  0.34382400  0.78533800  1
  Cu  Cu112  1  0.52340300  0.76942100  0.38947200  1
  Cu  Cu113  1  0.47659700  0.23057900  0.61052800  1
  Cu  Cu114  1  0.27195400  0.85346300  0.46052500  1
  Cu  Cu115  1  0.72804600  0.14653700  0.53947500  1
  Cu  Cu116  1  0.38561400  0.99531600  0.39166000  1
  Cu  Cu117  1  0.61438600  0.00468400  0.60834000  1
  Cu  Cu118  1  0.11125000  0.84695800  0.20739400  1
  Cu  Cu119  1  0.88875000  0.15304200  0.79260600  1
  Cu  Cu120  1  0.17209600  0.69922900  0.10563500  1
  Cu  Cu121  1  0.82790400  0.30077100  0.89436500  1
  Cu  Cu122  1  0.14271100  0.17187800  0.57169000  1
  Cu  Cu123  1  0.85728900  0.82812200  0.42831000  1
  Cu  Cu124  1  0.94476900  0.04203400  0.35900300  1
  Cu  Cu125  1  0.05523100  0.95796600  0.64099700  1
