# generated using pymatgen
data_CuNiC12
_symmetry_space_group_name_H-M   'P 1'
_cell_length_a   6.49134000
_cell_length_b   7.51922200
_cell_length_c   14.28101000
_cell_angle_alpha   90.00000000
_cell_angle_beta   90.00000000
_cell_angle_gamma   90.00000000
_symmetry_Int_Tables_number   1
_chemical_formula_structural   CuNiC12
_chemical_formula_sum   'Cu4 Ni4 C48'
_cell_volume   697.05362088
_cell_formula_units_Z   4
loop_
 _symmetry_equiv_pos_site_id
 _symmetry_equiv_pos_as_xyz
  1  'x, y, z'
loop_
 _atom_site_type_symbol
 _atom_site_label
 _atom_site_symmetry_multiplicity
 _atom_site_fract_x
 _atom_site_fract_y
 _atom_site_fract_z
 _atom_site_occupancy
  C  C0  1  0.75000000  0.88218100  0.78088900  1
  C  C1  1  0.75000000  0.61781900  0.28088900  1
  C  C2  1  0.25000000  0.11781900  0.21911100  1
  C  C3  1  0.25000000  0.38218100  0.71911100  1
  Ni  Ni4  1  0.75000000  0.34446800  0.88331100  1
  Ni  Ni5  1  0.25000000  0.65553200  0.11668900  1
  Ni  Ni6  1  0.25000000  0.84446800  0.61668900  1
  Ni  Ni7  1  0.75000000  0.15553200  0.38331100  1
  Cu  Cu8  1  0.50000000  0.00000000  0.00000000  1
  Cu  Cu9  1  0.50000000  0.50000000  0.50000000  1
  Cu  Cu10  1  0.00000000  0.50000000  0.50000000  1
  Cu  Cu11  1  0.00000000  0.00000000  0.00000000  1
  C  C12  1  0.25000000  0.35021500  0.93759400  1
  C  C13  1  0.75000000  0.64978500  0.06240600  1
  C  C14  1  0.75000000  0.85021500  0.56240600  1
  C  C15  1  0.25000000  0.14978500  0.43759400  1
  C  C16  1  0.75000000  0.39143100  0.69167100  1
  C  C17  1  0.25000000  0.60856900  0.30832900  1
  C  C18  1  0.25000000  0.89143100  0.80832900  1
  C  C19  1  0.75000000  0.10856900  0.19167100  1
  C  C20  1  0.05188600  0.60682900  0.36776200  1
  C  C21  1  0.55188600  0.39317100  0.63223800  1
  C  C22  1  0.94811400  0.10682900  0.13223800  1
  C  C23  1  0.44811400  0.89317100  0.86776200  1
  C  C24  1  0.94811400  0.39317100  0.63223800  1
  C  C25  1  0.44811400  0.60682900  0.36776200  1
  C  C26  1  0.05188600  0.89317100  0.86776200  1
  C  C27  1  0.55188600  0.10682900  0.13223800  1
  C  C28  1  0.25000000  0.33299100  0.48479000  1
  C  C29  1  0.75000000  0.66700900  0.51521000  1
  C  C30  1  0.75000000  0.83299100  0.01521000  1
  C  C31  1  0.25000000  0.16700900  0.98479000  1
  C  C32  1  0.75000000  0.14109900  0.94184700  1
  C  C33  1  0.25000000  0.85890100  0.05815300  1
  C  C34  1  0.25000000  0.64109900  0.55815300  1
  C  C35  1  0.75000000  0.35890100  0.44184700  1
  C  C36  1  0.75000000  0.21965800  0.75590700  1
  C  C37  1  0.25000000  0.78034200  0.24409300  1
  C  C38  1  0.25000000  0.71965800  0.74409300  1
  C  C39  1  0.75000000  0.28034200  0.25590700  1
  C  C40  1  0.43825900  0.12987700  0.37094600  1
  C  C41  1  0.93825900  0.87012300  0.62905400  1
  C  C42  1  0.56174100  0.62987700  0.12905400  1
  C  C43  1  0.06174100  0.37012300  0.87094600  1
  C  C44  1  0.56174100  0.87012300  0.62905400  1
  C  C45  1  0.06174100  0.12987700  0.37094600  1
  C  C46  1  0.43825900  0.37012300  0.87094600  1
  C  C47  1  0.93825900  0.62987700  0.12905400  1
  C  C48  1  0.75000000  0.95790000  0.26727800  1
  C  C49  1  0.25000000  0.04210000  0.73272200  1
  C  C50  1  0.25000000  0.45790000  0.23272200  1
  C  C51  1  0.75000000  0.54210000  0.76727800  1
  C  C52  1  0.75000000  0.99404500  0.48657800  1
  C  C53  1  0.25000000  0.00595500  0.51342200  1
  C  C54  1  0.25000000  0.49404500  0.01342200  1
  C  C55  1  0.75000000  0.50595500  0.98657800  1
