# generated using pymatgen
data_CuNiC8
_symmetry_space_group_name_H-M   'P 1'
_cell_length_a   5.59127393
_cell_length_b   5.59127393
_cell_length_c   5.59127462
_cell_angle_alpha   60.94953618
_cell_angle_beta   60.94953618
_cell_angle_gamma   60.94953220
_symmetry_Int_Tables_number   1
_chemical_formula_structural   CuNiC8
_chemical_formula_sum   'Cu1 Ni1 C8'
_cell_volume   126.24415602
_cell_formula_units_Z   1
loop_
 _symmetry_equiv_pos_site_id
 _symmetry_equiv_pos_as_xyz
  1  'x, y, z'
loop_
 _atom_site_type_symbol
 _atom_site_label
 _atom_site_symmetry_multiplicity
 _atom_site_fract_x
 _atom_site_fract_y
 _atom_site_fract_z
 _atom_site_occupancy
  C  C0  1  0.75014000  0.75014000  0.75014000  1
  C  C1  1  0.24986000  0.24986000  0.24986000  1
  Ni  Ni2  1  0.00000000  0.00000000  0.00000000  1
  Cu  Cu3  1  0.50000000  0.50000000  0.50000000  1
  C  C4  1  0.76307300  0.32114900  0.16069800  1
  C  C5  1  0.16069800  0.76307300  0.32114900  1
  C  C6  1  0.32114900  0.16069800  0.76307300  1
  C  C7  1  0.23692700  0.67885100  0.83930200  1
  C  C8  1  0.67885100  0.83930200  0.23692700  1
  C  C9  1  0.83930200  0.23692700  0.67885100  1
