# generated using pymatgen
data_CuNiC5
_symmetry_space_group_name_H-M   'P 1'
_cell_length_a   6.73387023
_cell_length_b   6.73387023
_cell_length_c   6.73387023
_cell_angle_alpha   147.12009091
_cell_angle_beta   147.12009091
_cell_angle_gamma   47.18600087
_symmetry_Int_Tables_number   1
_chemical_formula_structural   CuNiC5
_chemical_formula_sum   'Cu1 Ni1 C5'
_cell_volume   89.64982835
_cell_formula_units_Z   1
loop_
 _symmetry_equiv_pos_site_id
 _symmetry_equiv_pos_as_xyz
  1  'x, y, z'
loop_
 _atom_site_type_symbol
 _atom_site_label
 _atom_site_symmetry_multiplicity
 _atom_site_fract_x
 _atom_site_fract_y
 _atom_site_fract_z
 _atom_site_occupancy
  Ni  Ni0  1  0.64380700  0.64380700  0.00000000  1
  Cu  Cu1  1  0.35852400  0.35852400  0.00000000  1
  C  C2  1  0.00267200  0.00267200  0.00000000  1
  C  C3  1  0.84072300  0.84072300  0.00000000  1
  C  C4  1  0.16740800  0.16740800  0.00000000  1
  C  C5  1  0.49343300  0.99343300  0.50000000  1
  C  C6  1  0.99343300  0.49343300  0.50000000  1
