# generated using pymatgen
data_Cu2Ni14C9
_symmetry_space_group_name_H-M   'P 1'
_cell_length_a   4.85545124
_cell_length_b   4.85364159
_cell_length_c   11.83918345
_cell_angle_alpha   90.13582666
_cell_angle_beta   89.14073028
_cell_angle_gamma   90.05128947
_symmetry_Int_Tables_number   1
_chemical_formula_structural   Cu2Ni14C9
_chemical_formula_sum   'Cu2 Ni14 C9'
_cell_volume   278.97727577
_cell_formula_units_Z   1
loop_
 _symmetry_equiv_pos_site_id
 _symmetry_equiv_pos_as_xyz
  1  'x, y, z'
loop_
 _atom_site_type_symbol
 _atom_site_label
 _atom_site_symmetry_multiplicity
 _atom_site_fract_x
 _atom_site_fract_y
 _atom_site_fract_z
 _atom_site_occupancy
  C  C0  1  0.50227800  0.00605200  0.69026300  1
  C  C1  1  0.00867600  0.98923300  0.01031300  1
  C  C2  1  0.00102100  0.99248600  0.25096600  1
  C  C3  1  0.02588100  0.03031300  0.49482500  1
  C  C4  1  0.00024000  0.98321700  0.75379100  1
  C  C5  1  0.49995600  0.49337700  0.12409800  1
  C  C6  1  0.49026900  0.49915300  0.62059900  1
  C  C7  1  0.47051400  0.52278200  0.88044800  1
  C  C8  1  0.49526400  0.48726100  0.36458700  1
  Ni  Ni9  1  0.18609400  0.80236300  0.13278100  1
  Ni  Ni10  1  0.20416000  0.81316700  0.62163300  1
  Ni  Ni11  1  0.18844700  0.82345800  0.87944600  1
  Ni  Ni12  1  0.18941200  0.81129200  0.36990500  1
  Ni  Ni13  1  0.30574400  0.31222800  0.00535100  1
  Ni  Ni14  1  0.31520900  0.30279000  0.24220900  1
  Ni  Ni15  1  0.32752400  0.31122000  0.49479200  1
  Ni  Ni16  1  0.30131800  0.30953500  0.75213800  1
  Ni  Ni17  1  0.68461100  0.68394300  0.00474600  1
  Ni  Ni18  1  0.68470500  0.67553000  0.24555300  1
  Ni  Ni19  1  0.68836000  0.69721100  0.75157800  1
  Ni  Ni20  1  0.81558100  0.17411800  0.12975500  1
  Ni  Ni21  1  0.81856900  0.19012100  0.36988400  1
  Ni  Ni22  1  0.80967300  0.19440100  0.62490400  1
  Cu  Cu23  1  0.69751800  0.70553200  0.49743900  1
  Cu  Cu24  1  0.78897300  0.18922300  0.87688400  1
