# generated using pymatgen
data_Cu2(NiC5)3
_symmetry_space_group_name_H-M   'P 1'
_cell_length_a   11.02099426
_cell_length_b   11.02099426
_cell_length_c   11.02099426
_cell_angle_alpha   109.47122063
_cell_angle_beta   109.47122063
_cell_angle_gamma   109.47122063
_symmetry_Int_Tables_number   1
_chemical_formula_structural   Cu2(NiC5)3
_chemical_formula_sum   'Cu8 Ni12 C60'
_cell_volume   1030.48206446
_cell_formula_units_Z   4
loop_
 _symmetry_equiv_pos_site_id
 _symmetry_equiv_pos_as_xyz
  1  'x, y, z'
loop_
 _atom_site_type_symbol
 _atom_site_label
 _atom_site_symmetry_multiplicity
 _atom_site_fract_x
 _atom_site_fract_y
 _atom_site_fract_z
 _atom_site_occupancy
  Ni  Ni0  1  0.25000000  0.62500000  0.37500000  1
  Ni  Ni1  1  0.75000000  0.37500000  0.62500000  1
  Ni  Ni2  1  0.75000000  0.87500000  0.12500000  1
  Ni  Ni3  1  0.37500000  0.25000000  0.62500000  1
  Ni  Ni4  1  0.62500000  0.75000000  0.37500000  1
  Ni  Ni5  1  0.25000000  0.12500000  0.87500000  1
  Ni  Ni6  1  0.12500000  0.75000000  0.87500000  1
  Ni  Ni7  1  0.87500000  0.25000000  0.12500000  1
  Ni  Ni8  1  0.62500000  0.37500000  0.25000000  1
  Ni  Ni9  1  0.37500000  0.62500000  0.75000000  1
  Ni  Ni10  1  0.87500000  0.12500000  0.75000000  1
  Ni  Ni11  1  0.12500000  0.87500000  0.25000000  1
  C  C12  1  0.25000000  0.37500000  0.12500000  1
  C  C13  1  0.75000000  0.62500000  0.87500000  1
  C  C14  1  0.75000000  0.12500000  0.37500000  1
  C  C15  1  0.12500000  0.25000000  0.37500000  1
  C  C16  1  0.37500000  0.75000000  0.12500000  1
  C  C17  1  0.25000000  0.87500000  0.62500000  1
  C  C18  1  0.87500000  0.75000000  0.62500000  1
  C  C19  1  0.62500000  0.25000000  0.87500000  1
  C  C20  1  0.37500000  0.12500000  0.25000000  1
  C  C21  1  0.62500000  0.87500000  0.75000000  1
  C  C22  1  0.12500000  0.37500000  0.75000000  1
  C  C23  1  0.87500000  0.62500000  0.25000000  1
  Cu  Cu24  1  0.00000000  0.00000000  0.00000000  1
  Cu  Cu25  1  0.50000000  0.00000000  0.50000000  1
  Cu  Cu26  1  0.00000000  0.50000000  0.50000000  1
  Cu  Cu27  1  0.50000000  0.00000000  0.00000000  1
  Cu  Cu28  1  0.50000000  0.50000000  0.00000000  1
  Cu  Cu29  1  0.50000000  0.50000000  0.50000000  1
  Cu  Cu30  1  0.00000000  0.00000000  0.50000000  1
  Cu  Cu31  1  0.00000000  0.50000000  0.00000000  1
  C  C32  1  0.47670600  0.38105500  0.30695700  1
  C  C33  1  0.52329400  0.61894500  0.69304300  1
  C  C34  1  0.57409800  0.16975000  0.19304300  1
  C  C35  1  0.92590200  0.11894500  0.59565100  1
  C  C36  1  0.30695700  0.47670600  0.38105500  1
  C  C37  1  0.33025000  0.92590200  0.30695700  1
  C  C38  1  0.42590200  0.83025000  0.80695700  1
  C  C39  1  0.07409800  0.88105500  0.40434900  1
  C  C40  1  0.69304300  0.52329400  0.61894500  1
  C  C41  1  0.66975000  0.07409800  0.69304300  1
  C  C42  1  0.02329400  0.33025000  0.90434900  1
  C  C43  1  0.19304300  0.57409800  0.16975000  1
  C  C44  1  0.11894500  0.02329400  0.19304300  1
  C  C45  1  0.97670600  0.66975000  0.09565100  1
  C  C46  1  0.80695700  0.42590200  0.83025000  1
  C  C47  1  0.88105500  0.97670600  0.80695700  1
  C  C48  1  0.59565100  0.92590200  0.11894500  1
  C  C49  1  0.16975000  0.47670600  0.59565100  1
  C  C50  1  0.40434900  0.07409800  0.88105500  1
  C  C51  1  0.83025000  0.52329400  0.40434900  1
  C  C52  1  0.90434900  0.02329400  0.33025000  1
  C  C53  1  0.38105500  0.57409800  0.90434900  1
  C  C54  1  0.09565100  0.97670600  0.66975000  1
  C  C55  1  0.61894500  0.42590200  0.09565100  1
  C  C56  1  0.38105500  0.30695700  0.47670600  1
  C  C57  1  0.57409800  0.90434900  0.38105500  1
  C  C58  1  0.61894500  0.69304300  0.52329400  1
  C  C59  1  0.42590200  0.09565100  0.61894500  1
  C  C60  1  0.11894500  0.59565100  0.92590200  1
  C  C61  1  0.02329400  0.19304300  0.11894500  1
  C  C62  1  0.88105500  0.40434900  0.07409800  1
  C  C63  1  0.97670600  0.80695700  0.88105500  1
  C  C64  1  0.33025000  0.90434900  0.02329400  1
  C  C65  1  0.92590200  0.30695700  0.33025000  1
  C  C66  1  0.66975000  0.09565100  0.97670600  1
  C  C67  1  0.07409800  0.69304300  0.66975000  1
  C  C68  1  0.16975000  0.19304300  0.57409800  1
  C  C69  1  0.47670600  0.59565100  0.16975000  1
  C  C70  1  0.83025000  0.80695700  0.42590200  1
  C  C71  1  0.52329400  0.40434900  0.83025000  1
  C  C72  1  0.30695700  0.33025000  0.92590200  1
  C  C73  1  0.69304300  0.66975000  0.07409800  1
  C  C74  1  0.19304300  0.11894500  0.02329400  1
  C  C75  1  0.80695700  0.88105500  0.97670600  1
  C  C76  1  0.90434900  0.38105500  0.57409800  1
  C  C77  1  0.09565100  0.61894500  0.42590200  1
  C  C78  1  0.59565100  0.16975000  0.47670600  1
  C  C79  1  0.40434900  0.83025000  0.52329400  1
