# generated using pymatgen
data_CuNi4C13
_symmetry_space_group_name_H-M   'P 1'
_cell_length_a   7.71545500
_cell_length_b   12.11338800
_cell_length_c   14.97056600
_cell_angle_alpha   90.00000000
_cell_angle_beta   90.00000000
_cell_angle_gamma   90.00000000
_symmetry_Int_Tables_number   1
_chemical_formula_structural   CuNi4C13
_chemical_formula_sum   'Cu8 Ni32 C104'
_cell_volume   1399.15358970
_cell_formula_units_Z   8
loop_
 _symmetry_equiv_pos_site_id
 _symmetry_equiv_pos_as_xyz
  1  'x, y, z'
loop_
 _atom_site_type_symbol
 _atom_site_label
 _atom_site_symmetry_multiplicity
 _atom_site_fract_x
 _atom_site_fract_y
 _atom_site_fract_z
 _atom_site_occupancy
  C  C0  1  0.05186900  0.27890200  0.37084700  1
  C  C1  1  0.55186900  0.22109800  0.62915300  1
  C  C2  1  0.94813100  0.77890200  0.12915300  1
  C  C3  1  0.44813100  0.72109800  0.87084700  1
  C  C4  1  0.94813100  0.72109800  0.62915300  1
  C  C5  1  0.44813100  0.77890200  0.37084700  1
  C  C6  1  0.05186900  0.22109800  0.87084700  1
  C  C7  1  0.55186900  0.27890200  0.12915300  1
  C  C8  1  0.91133700  0.10051200  0.41775400  1
  C  C9  1  0.41133700  0.39948800  0.58224600  1
  C  C10  1  0.08866300  0.60051200  0.08224600  1
  C  C11  1  0.58866300  0.89948800  0.91775400  1
  C  C12  1  0.08866300  0.89948800  0.58224600  1
  C  C13  1  0.58866300  0.60051200  0.41775400  1
  C  C14  1  0.91133700  0.39948800  0.91775400  1
  C  C15  1  0.41133700  0.10051200  0.08224600  1
  C  C16  1  0.98946000  0.47863800  0.34668500  1
  C  C17  1  0.48946000  0.02136200  0.65331500  1
  C  C18  1  0.01054000  0.97863800  0.15331500  1
  C  C19  1  0.51054000  0.52136200  0.84668500  1
  C  C20  1  0.01054000  0.52136200  0.65331500  1
  C  C21  1  0.51054000  0.97863800  0.34668500  1
  C  C22  1  0.98946000  0.02136200  0.84668500  1
  C  C23  1  0.48946000  0.47863800  0.15331500  1
  C  C24  1  0.20163000  0.42902800  0.45533900  1
  C  C25  1  0.70163000  0.07097200  0.54466100  1
  C  C26  1  0.79837000  0.92902800  0.04466100  1
  C  C27  1  0.29837000  0.57097200  0.95533900  1
  C  C28  1  0.79837000  0.57097200  0.54466100  1
  C  C29  1  0.29837000  0.92902800  0.45533900  1
  C  C30  1  0.20163000  0.07097200  0.95533900  1
  C  C31  1  0.70163000  0.42902800  0.04466100  1
  C  C32  1  0.07421500  0.10585100  0.28319500  1
  C  C33  1  0.57421500  0.39414900  0.71680500  1
  C  C34  1  0.92578500  0.60585100  0.21680500  1
  C  C35  1  0.42578500  0.89414900  0.78319500  1
  C  C36  1  0.92578500  0.89414900  0.71680500  1
  C  C37  1  0.42578500  0.60585100  0.28319500  1
  C  C38  1  0.07421500  0.39414900  0.78319500  1
  C  C39  1  0.57421500  0.10585100  0.21680500  1
  Ni  Ni40  1  0.63508700  0.35202300  0.33995300  1
  Ni  Ni41  1  0.13508700  0.14797700  0.66004700  1
  Ni  Ni42  1  0.36491300  0.85202300  0.16004700  1
  Ni  Ni43  1  0.86491300  0.64797700  0.83995300  1
  Ni  Ni44  1  0.36491300  0.64797700  0.66004700  1
  Ni  Ni45  1  0.86491300  0.85202300  0.33995300  1
  Ni  Ni46  1  0.63508700  0.14797700  0.83995300  1
  Ni  Ni47  1  0.13508700  0.35202300  0.16004700  1
  Ni  Ni48  1  0.51393600  0.23836400  0.33968800  1
  Ni  Ni49  1  0.01393600  0.26163600  0.66031200  1
  Ni  Ni50  1  0.48606400  0.73836400  0.16031200  1
  Ni  Ni51  1  0.98606400  0.76163600  0.83968800  1
  Ni  Ni52  1  0.48606400  0.76163600  0.66031200  1
  Ni  Ni53  1  0.98606400  0.73836400  0.33968800  1
  Ni  Ni54  1  0.51393600  0.26163600  0.83968800  1
  Ni  Ni55  1  0.01393600  0.23836400  0.16031200  1
  Ni  Ni56  1  0.48120800  0.33198700  0.41929700  1
  Ni  Ni57  1  0.98120800  0.16801300  0.58070300  1
  Ni  Ni58  1  0.51879200  0.83198700  0.08070300  1
  Ni  Ni59  1  0.01879200  0.66801300  0.91929700  1
  Ni  Ni60  1  0.51879200  0.66801300  0.58070300  1
  Ni  Ni61  1  0.01879200  0.83198700  0.41929700  1
  Ni  Ni62  1  0.48120800  0.16801300  0.91929700  1
  Ni  Ni63  1  0.98120800  0.33198700  0.08070300  1
  Ni  Ni64  1  0.66578000  0.25739500  0.41950400  1
  Ni  Ni65  1  0.16578000  0.24260500  0.58049600  1
  Ni  Ni66  1  0.33422000  0.75739500  0.08049600  1
  Ni  Ni67  1  0.83422000  0.74260500  0.91950400  1
  Ni  Ni68  1  0.33422000  0.74260500  0.58049600  1
  Ni  Ni69  1  0.83422000  0.75739500  0.41950400  1
  Ni  Ni70  1  0.66578000  0.24260500  0.91950400  1
  Ni  Ni71  1  0.16578000  0.25739500  0.08049600  1
  Cu  Cu72  1  0.57331500  0.29551100  0.38016000  1
  Cu  Cu73  1  0.07331500  0.20448900  0.61984000  1
  Cu  Cu74  1  0.42668500  0.79551100  0.11984000  1
  Cu  Cu75  1  0.92668500  0.70448900  0.88016000  1
  Cu  Cu76  1  0.42668500  0.70448900  0.61984000  1
  Cu  Cu77  1  0.92668500  0.79551100  0.38016000  1
  Cu  Cu78  1  0.57331500  0.20448900  0.88016000  1
  Cu  Cu79  1  0.07331500  0.29551100  0.11984000  1
  C  C80  1  0.81416600  0.03778800  0.47718200  1
  C  C81  1  0.31416600  0.46221200  0.52281800  1
  C  C82  1  0.18583400  0.53778800  0.02281800  1
  C  C83  1  0.68583400  0.96221200  0.97718200  1
  C  C84  1  0.18583400  0.96221200  0.52281800  1
  C  C85  1  0.68583400  0.53778800  0.47718200  1
  C  C86  1  0.81416600  0.46221200  0.97718200  1
  C  C87  1  0.31416600  0.03778800  0.02281800  1
  C  C88  1  0.92820100  0.21209100  0.42543700  1
  C  C89  1  0.42820100  0.28790900  0.57456300  1
  C  C90  1  0.07179900  0.71209100  0.07456300  1
  C  C91  1  0.57179900  0.78790900  0.92543700  1
  C  C92  1  0.07179900  0.78790900  0.57456300  1
  C  C93  1  0.57179900  0.71209100  0.42543700  1
  C  C94  1  0.92820100  0.28790900  0.92543700  1
  C  C95  1  0.42820100  0.21209100  0.07456300  1
  C  C96  1  0.12880600  0.21059200  0.29966800  1
  C  C97  1  0.62880600  0.28940800  0.70033200  1
  C  C98  1  0.87119400  0.71059200  0.20033200  1
  C  C99  1  0.37119400  0.78940800  0.79966800  1
  C  C100  1  0.87119400  0.78940800  0.70033200  1
  C  C101  1  0.37119400  0.71059200  0.29966800  1
  C  C102  1  0.12880600  0.28940800  0.79966800  1
  C  C103  1  0.62880600  0.21059200  0.20033200  1
  C  C104  1  0.95575600  0.37137900  0.32797700  1
  C  C105  1  0.45575600  0.12862100  0.67202300  1
  C  C106  1  0.04424400  0.87137900  0.17202300  1
  C  C107  1  0.54424400  0.62862100  0.82797700  1
  C  C108  1  0.04424400  0.62862100  0.67202300  1
  C  C109  1  0.54424400  0.87137900  0.32797700  1
  C  C110  1  0.95575600  0.12862100  0.82797700  1
  C  C111  1  0.45575600  0.37137900  0.17202300  1
  C  C112  1  0.18866000  0.32115300  0.43079300  1
  C  C113  1  0.68866000  0.17884700  0.56920700  1
  C  C114  1  0.81134000  0.82115300  0.06920700  1
  C  C115  1  0.31134000  0.67884700  0.93079300  1
  C  C116  1  0.81134000  0.67884700  0.56920700  1
  C  C117  1  0.31134000  0.82115300  0.43079300  1
  C  C118  1  0.18866000  0.17884700  0.93079300  1
  C  C119  1  0.68866000  0.32115300  0.06920700  1
  C  C120  1  0.59337500  0.06478100  0.30197200  1
  C  C121  1  0.09337500  0.43521900  0.69802800  1
  C  C122  1  0.40662500  0.56478100  0.19802800  1
  C  C123  1  0.90662500  0.93521900  0.80197200  1
  C  C124  1  0.40662500  0.93521900  0.69802800  1
  C  C125  1  0.90662500  0.56478100  0.30197200  1
  C  C126  1  0.59337500  0.43521900  0.80197200  1
  C  C127  1  0.09337500  0.06478100  0.19802800  1
  C  C128  1  0.98863100  0.04280600  0.34773000  1
  C  C129  1  0.48863100  0.45719400  0.65227000  1
  C  C130  1  0.01136900  0.54280600  0.15227000  1
  C  C131  1  0.51136900  0.95719400  0.84773000  1
  C  C132  1  0.01136900  0.95719400  0.65227000  1
  C  C133  1  0.51136900  0.54280600  0.34773000  1
  C  C134  1  0.98863100  0.45719400  0.84773000  1
  C  C135  1  0.48863100  0.04280600  0.15227000  1
  C  C136  1  0.39353700  0.01102500  0.41270500  1
  C  C137  1  0.89353700  0.48897500  0.58729500  1
  C  C138  1  0.60646300  0.51102500  0.08729500  1
  C  C139  1  0.10646300  0.98897500  0.91270500  1
  C  C140  1  0.60646300  0.98897500  0.58729500  1
  C  C141  1  0.10646300  0.51102500  0.41270500  1
  C  C142  1  0.39353700  0.48897500  0.91270500  1
  C  C143  1  0.89353700  0.01102500  0.08729500  1
