# generated using pymatgen
data_CuNi2C15
_symmetry_space_group_name_H-M   'P 1'
_cell_length_a   9.86869807
_cell_length_b   9.86869807
_cell_length_c   9.86869807
_cell_angle_alpha   148.91466421
_cell_angle_beta   148.91466421
_cell_angle_gamma   44.53693123
_symmetry_Int_Tables_number   1
_chemical_formula_structural   CuNi2C15
_chemical_formula_sum   'Cu1 Ni2 C15'
_cell_volume   255.44911831
_cell_formula_units_Z   1
loop_
 _symmetry_equiv_pos_site_id
 _symmetry_equiv_pos_as_xyz
  1  'x, y, z'
loop_
 _atom_site_type_symbol
 _atom_site_label
 _atom_site_symmetry_multiplicity
 _atom_site_fract_x
 _atom_site_fract_y
 _atom_site_fract_z
 _atom_site_occupancy
  C  C0  1  0.35202700  0.85202700  0.50000000  1
  C  C1  1  0.85202700  0.35202700  0.50000000  1
  C  C2  1  0.14797300  0.64797300  0.50000000  1
  C  C3  1  0.64797300  0.14797300  0.50000000  1
  C  C4  1  0.50000000  0.50000000  0.00000000  1
  Ni  Ni5  1  0.75285500  0.75285500  0.00000000  1
  Ni  Ni6  1  0.24714500  0.24714500  0.00000000  1
  Cu  Cu7  1  0.00000000  0.00000000  0.00000000  1
  C  C8  1  0.00000000  0.00000000  0.50000000  1
  C  C9  1  0.50000000  0.50000000  0.50000000  1
  C  C10  1  0.00000000  0.50000000  0.00000000  1
  C  C11  1  0.50000000  0.00000000  0.00000000  1
  C  C12  1  0.87959300  0.87959300  0.00000000  1
  C  C13  1  0.38594800  0.38594800  0.00000000  1
  C  C14  1  0.61405200  0.61405200  0.00000000  1
  C  C15  1  0.12040700  0.12040700  0.00000000  1
  C  C16  1  0.00000000  0.50000000  0.50000000  1
  C  C17  1  0.50000000  0.00000000  0.50000000  1
