# generated using pymatgen
data_Cu7(NiC)2
_symmetry_space_group_name_H-M   'P 1'
_cell_length_a   4.93159200
_cell_length_b   8.36992300
_cell_length_c   13.35716600
_cell_angle_alpha   90.00000000
_cell_angle_beta   90.00000000
_cell_angle_gamma   90.00000000
_symmetry_Int_Tables_number   1
_chemical_formula_structural   Cu7(NiC)2
_chemical_formula_sum   'Cu28 Ni8 C8'
_cell_volume   551.34434616
_cell_formula_units_Z   4
loop_
 _symmetry_equiv_pos_site_id
 _symmetry_equiv_pos_as_xyz
  1  'x, y, z'
loop_
 _atom_site_type_symbol
 _atom_site_label
 _atom_site_symmetry_multiplicity
 _atom_site_fract_x
 _atom_site_fract_y
 _atom_site_fract_z
 _atom_site_occupancy
  C  C0  1  0.60097500  0.56854500  0.39615200  1
  C  C1  1  0.89902500  0.93145500  0.89615200  1
  C  C2  1  0.39902500  0.06854500  0.60384800  1
  C  C3  1  0.10097500  0.43145500  0.10384800  1
  C  C4  1  0.39902500  0.43145500  0.60384800  1
  C  C5  1  0.10097500  0.06854500  0.10384800  1
  C  C6  1  0.60097500  0.93145500  0.39615200  1
  C  C7  1  0.89902500  0.56854500  0.89615200  1
  Ni  Ni8  1  0.77798400  0.25000000  0.28377400  1
  Ni  Ni9  1  0.72201600  0.25000000  0.78377400  1
  Ni  Ni10  1  0.22201600  0.75000000  0.71622600  1
  Ni  Ni11  1  0.27798400  0.75000000  0.21622600  1
  Ni  Ni12  1  0.88546000  0.25000000  0.49604900  1
  Ni  Ni13  1  0.61454000  0.25000000  0.99604900  1
  Ni  Ni14  1  0.11454000  0.75000000  0.50395100  1
  Ni  Ni15  1  0.38546000  0.75000000  0.00395100  1
  Cu  Cu16  1  0.62445100  0.39664600  0.29387600  1
  Cu  Cu17  1  0.87554900  0.10335400  0.79387600  1
  Cu  Cu18  1  0.37554900  0.89664600  0.70612400  1
  Cu  Cu19  1  0.12445100  0.60335400  0.20612400  1
  Cu  Cu20  1  0.37554900  0.60335400  0.70612400  1
  Cu  Cu21  1  0.12445100  0.89664600  0.20612400  1
  Cu  Cu22  1  0.62445100  0.10335400  0.29387600  1
  Cu  Cu23  1  0.87554900  0.39664600  0.79387600  1
  Cu  Cu24  1  0.97027500  0.25000000  0.20078700  1
  Cu  Cu25  1  0.52972500  0.25000000  0.70078700  1
  Cu  Cu26  1  0.02972500  0.75000000  0.79921300  1
  Cu  Cu27  1  0.47027500  0.75000000  0.29921300  1
  Cu  Cu28  1  0.99956300  0.25000000  0.38185900  1
  Cu  Cu29  1  0.50043700  0.25000000  0.88185900  1
  Cu  Cu30  1  0.00043700  0.75000000  0.61814100  1
  Cu  Cu31  1  0.49956300  0.75000000  0.11814100  1
  Cu  Cu32  1  0.72579500  0.39627400  0.50775800  1
  Cu  Cu33  1  0.77420500  0.10372600  0.00775800  1
  Cu  Cu34  1  0.27420500  0.89627400  0.49224200  1
  Cu  Cu35  1  0.22579500  0.60372600  0.99224200  1
  Cu  Cu36  1  0.27420500  0.60372600  0.49224200  1
  Cu  Cu37  1  0.22579500  0.89627400  0.99224200  1
  Cu  Cu38  1  0.72579500  0.10372600  0.50775800  1
  Cu  Cu39  1  0.77420500  0.39627400  0.00775800  1
  Cu  Cu40  1  0.13638600  0.25000000  0.55416000  1
  Cu  Cu41  1  0.36361400  0.25000000  0.05416000  1
  Cu  Cu42  1  0.86361400  0.75000000  0.44584000  1
  Cu  Cu43  1  0.63638600  0.75000000  0.94584000  1
