# generated using pymatgen
data_CuNi4C15
_symmetry_space_group_name_H-M   'P 1'
_cell_length_a   4.04455700
_cell_length_b   4.04455700
_cell_length_c   17.49382800
_cell_angle_alpha   90.00000000
_cell_angle_beta   90.00000000
_cell_angle_gamma   90.00000000
_symmetry_Int_Tables_number   1
_chemical_formula_structural   CuNi4C15
_chemical_formula_sum   'Cu1 Ni4 C15'
_cell_volume   286.17175891
_cell_formula_units_Z   1
loop_
 _symmetry_equiv_pos_site_id
 _symmetry_equiv_pos_as_xyz
  1  'x, y, z'
loop_
 _atom_site_type_symbol
 _atom_site_label
 _atom_site_symmetry_multiplicity
 _atom_site_fract_x
 _atom_site_fract_y
 _atom_site_fract_z
 _atom_site_occupancy
  C  C0  1  0.50000000  0.50000000  0.09829700  1
  C  C1  1  0.50000000  0.50000000  0.29918100  1
  C  C2  1  0.50000000  0.50000000  0.50000000  1
  C  C3  1  0.50000000  0.50000000  0.70081900  1
  C  C4  1  0.50000000  0.50000000  0.90170300  1
  Ni  Ni5  1  0.00000000  0.00000000  0.19929700  1
  Ni  Ni6  1  0.00000000  0.00000000  0.39993400  1
  Ni  Ni7  1  0.00000000  0.00000000  0.60006600  1
  Ni  Ni8  1  0.00000000  0.00000000  0.80070300  1
  Cu  Cu9  1  0.00000000  0.00000000  0.00000000  1
  C  C10  1  0.00000000  0.50000000  0.00000000  1
  C  C11  1  0.00000000  0.50000000  0.20068900  1
  C  C12  1  0.00000000  0.50000000  0.40025200  1
  C  C13  1  0.00000000  0.50000000  0.59974800  1
  C  C14  1  0.00000000  0.50000000  0.79931100  1
  C  C15  1  0.50000000  0.00000000  0.00000000  1
  C  C16  1  0.50000000  0.00000000  0.20068900  1
  C  C17  1  0.50000000  0.00000000  0.40025200  1
  C  C18  1  0.50000000  0.00000000  0.59974800  1
  C  C19  1  0.50000000  0.00000000  0.79931100  1
