# generated using pymatgen
data_Cu5NiC12
_symmetry_space_group_name_H-M   'P 1'
_cell_length_a   3.02080100
_cell_length_b   9.25440300
_cell_length_c   12.36320000
_cell_angle_alpha   90.00000000
_cell_angle_beta   90.00000000
_cell_angle_gamma   90.00000000
_symmetry_Int_Tables_number   1
_chemical_formula_structural   Cu5NiC12
_chemical_formula_sum   'Cu10 Ni2 C24'
_cell_volume   345.62203185
_cell_formula_units_Z   2
loop_
 _symmetry_equiv_pos_site_id
 _symmetry_equiv_pos_as_xyz
  1  'x, y, z'
loop_
 _atom_site_type_symbol
 _atom_site_label
 _atom_site_symmetry_multiplicity
 _atom_site_fract_x
 _atom_site_fract_y
 _atom_site_fract_z
 _atom_site_occupancy
  Ni  Ni0  1  0.00000000  0.25636200  0.61472200  1
  Ni  Ni1  1  0.00000000  0.24363800  0.11472200  1
  Cu  Cu2  1  0.50000000  0.50487500  0.49664200  1
  Cu  Cu3  1  0.50000000  0.99512500  0.99664200  1
  Cu  Cu4  1  0.50000000  0.51045000  0.21973500  1
  Cu  Cu5  1  0.50000000  0.50168900  0.78334500  1
  Cu  Cu6  1  0.50000000  0.99831100  0.28334500  1
  Cu  Cu7  1  0.50000000  0.98955000  0.71973500  1
  Cu  Cu8  1  0.00000000  0.99163900  0.49837300  1
  Cu  Cu9  1  0.00000000  0.50836100  0.99837300  1
  Cu  Cu10  1  0.00000000  0.74133700  0.38521000  1
  Cu  Cu11  1  0.00000000  0.75866300  0.88521000  1
  C  C12  1  0.00000000  0.78043000  0.13915400  1
  C  C13  1  0.00000000  0.22598600  0.86103300  1
  C  C14  1  0.00000000  0.27401400  0.36103300  1
  C  C15  1  0.00000000  0.71957000  0.63915400  1
  C  C16  1  0.00000000  0.62908300  0.14023900  1
  C  C17  1  0.00000000  0.37487200  0.85922200  1
  C  C18  1  0.00000000  0.12512800  0.35922200  1
  C  C19  1  0.00000000  0.87091700  0.64023900  1
  C  C20  1  0.00000000  0.64494300  0.54205000  1
  C  C21  1  0.00000000  0.34904900  0.45899900  1
  C  C22  1  0.00000000  0.15095100  0.95899900  1
  C  C23  1  0.00000000  0.85505700  0.04205000  1
  C  C24  1  0.00000000  0.85569300  0.23583200  1
  C  C25  1  0.00000000  0.15009300  0.76336400  1
  C  C26  1  0.00000000  0.34990700  0.26336400  1
  C  C27  1  0.00000000  0.64430700  0.73583200  1
  C  C28  1  0.50000000  0.88756800  0.42219800  1
  C  C29  1  0.50000000  0.11759800  0.57980000  1
  C  C30  1  0.50000000  0.38240200  0.07979900  1
  C  C31  1  0.50000000  0.61243200  0.92219800  1
  C  C32  1  0.50000000  0.61025500  0.35682700  1
  C  C33  1  0.50000000  0.38304500  0.64325600  1
  C  C34  1  0.50000000  0.11695500  0.14325600  1
  C  C35  1  0.50000000  0.88974500  0.85682700  1
