# generated using pymatgen
data_Cu5NiC2
_symmetry_space_group_name_H-M   'P 1'
_cell_length_a   5.73034600
_cell_length_b   7.26066642
_cell_length_c   9.73718942
_cell_angle_alpha   67.41353251
_cell_angle_beta   72.88739959
_cell_angle_gamma   66.75799127
_symmetry_Int_Tables_number   1
_chemical_formula_structural   Cu5NiC2
_chemical_formula_sum   'Cu20 Ni4 C8'
_cell_volume   338.80194787
_cell_formula_units_Z   4
loop_
 _symmetry_equiv_pos_site_id
 _symmetry_equiv_pos_as_xyz
  1  'x, y, z'
loop_
 _atom_site_type_symbol
 _atom_site_label
 _atom_site_symmetry_multiplicity
 _atom_site_fract_x
 _atom_site_fract_y
 _atom_site_fract_z
 _atom_site_occupancy
  C  C0  1  0.66218100  0.51031700  0.16189700  1
  C  C1  1  0.33781900  0.48968300  0.83810300  1
  C  C2  1  0.33439500  0.98968300  0.33810300  1
  C  C3  1  0.66560500  0.01031700  0.66189700  1
  C  C4  1  0.92849700  0.42710800  0.65660200  1
  C  C5  1  0.07150300  0.57289200  0.34339800  1
  C  C6  1  0.01220800  0.07289200  0.84339800  1
  C  C7  1  0.98779200  0.92710800  0.15660200  1
  Ni  Ni8  1  0.35708400  0.78849100  0.06284600  1
  Ni  Ni9  1  0.64291600  0.21150900  0.93715400  1
  Ni  Ni10  1  0.20842100  0.71150900  0.43715400  1
  Ni  Ni11  1  0.79157900  0.28849100  0.56284600  1
  Cu  Cu12  1  0.58802200  0.63498900  0.06935000  1
  Cu  Cu13  1  0.41197800  0.36501100  0.93065000  1
  Cu  Cu14  1  0.29236000  0.86501100  0.43065000  1
  Cu  Cu15  1  0.70764000  0.13498900  0.56935000  1
  Cu  Cu16  1  0.65294500  0.09166500  0.08082600  1
  Cu  Cu17  1  0.34705500  0.90833500  0.91917400  1
  Cu  Cu18  1  0.82543600  0.40833500  0.41917400  1
  Cu  Cu19  1  0.17456400  0.59166500  0.58082600  1
  Cu  Cu20  1  0.16899100  0.82849800  0.18129800  1
  Cu  Cu21  1  0.83100900  0.17150200  0.81870200  1
  Cu  Cu22  1  0.17878800  0.67150200  0.31870200  1
  Cu  Cu23  1  0.82121200  0.32849800  0.68129800  1
  Cu  Cu24  1  0.68534600  0.16169900  0.42710400  1
  Cu  Cu25  1  0.31465400  0.83830100  0.57289600  1
  Cu  Cu26  1  0.27414900  0.33830100  0.07289600  1
  Cu  Cu27  1  0.72585100  0.66169900  0.92710400  1
  Cu  Cu28  1  0.42028000  0.17563100  0.15950000  1
  Cu  Cu29  1  0.57972000  0.82436900  0.84050000  1
  Cu  Cu30  1  0.75541100  0.32436900  0.34050000  1
  Cu  Cu31  1  0.24458900  0.67563100  0.65950000  1
