# generated using pymatgen
data_Cu2NiC2
_symmetry_space_group_name_H-M   'P 1'
_cell_length_a   5.43652020
_cell_length_b   6.07764741
_cell_length_c   5.52537900
_cell_angle_alpha   90.00000000
_cell_angle_beta   90.00000000
_cell_angle_gamma   116.56773146
_symmetry_Int_Tables_number   1
_chemical_formula_structural   Cu2NiC2
_chemical_formula_sum   'Cu4 Ni2 C4'
_cell_volume   163.28767863
_cell_formula_units_Z   2
loop_
 _symmetry_equiv_pos_site_id
 _symmetry_equiv_pos_as_xyz
  1  'x, y, z'
loop_
 _atom_site_type_symbol
 _atom_site_label
 _atom_site_symmetry_multiplicity
 _atom_site_fract_x
 _atom_site_fract_y
 _atom_site_fract_z
 _atom_site_occupancy
  C  C0  1  0.39575500  0.79151000  0.74267100  1
  C  C1  1  0.60424500  0.20849000  0.25732900  1
  C  C2  1  0.10424500  0.20849000  0.74267100  1
  C  C3  1  0.89575500  0.79151000  0.25732900  1
  Ni  Ni4  1  0.25000000  0.50000000  0.34815800  1
  Ni  Ni5  1  0.75000000  0.50000000  0.65184200  1
  Cu  Cu6  1  0.36443500  0.72887200  0.24761400  1
  Cu  Cu7  1  0.63556500  0.27112800  0.75238600  1
  Cu  Cu8  1  0.13556500  0.27112800  0.24761400  1
  Cu  Cu9  1  0.86443500  0.72887200  0.75238600  1
