# generated using pymatgen
data_Cu4NiC19
_symmetry_space_group_name_H-M   'P 1'
_cell_length_a   7.95811903
_cell_length_b   10.06502992
_cell_length_c   7.95722534
_cell_angle_alpha   91.25171308
_cell_angle_beta   78.70824215
_cell_angle_gamma   88.75000295
_symmetry_Int_Tables_number   1
_chemical_formula_structural   Cu4NiC19
_chemical_formula_sum   'Cu8 Ni2 C38'
_cell_volume   624.65542504
_cell_formula_units_Z   2
loop_
 _symmetry_equiv_pos_site_id
 _symmetry_equiv_pos_as_xyz
  1  'x, y, z'
loop_
 _atom_site_type_symbol
 _atom_site_label
 _atom_site_symmetry_multiplicity
 _atom_site_fract_x
 _atom_site_fract_y
 _atom_site_fract_z
 _atom_site_occupancy
  C  C0  1  0.41675500  0.70898500  0.33275100  1
  C  C1  1  0.91758100  0.70913600  0.83329000  1
  C  C2  1  0.92789600  0.78853000  0.32209800  1
  C  C3  1  0.59591500  0.21950700  0.15065600  1
  C  C4  1  0.09926300  0.21955900  0.65407500  1
  C  C5  1  0.41765500  0.78478800  0.83233100  1
  Ni  Ni6  1  0.59657400  0.28817300  0.65346000  1
  Ni  Ni7  1  0.10572100  0.28330800  0.14427900  1
  Cu  Cu8  1  0.17964800  0.60081300  0.07035100  1
  Cu  Cu9  1  0.67955000  0.60839600  0.57044200  1
  Cu  Cu10  1  0.31232200  0.08473600  0.93768100  1
  Cu  Cu11  1  0.83076500  0.10146200  0.41924700  1
  Cu  Cu12  1  0.66713000  0.89021000  0.08156900  1
  Cu  Cu13  1  0.16843000  0.89016300  0.58284100  1
  Cu  Cu14  1  0.83801800  0.41350900  0.93143500  1
  Cu  Cu15  1  0.31857300  0.41352800  0.41200400  1
  C  C16  1  0.21570700  0.44557400  0.03431000  1
  C  C17  1  0.71669700  0.45825600  0.53324700  1
  C  C18  1  0.46719300  0.38548000  0.26560000  1
  C  C19  1  0.98441700  0.38534400  0.78276300  1
  C  C20  1  0.51586400  0.86619500  0.23276800  1
  C  C21  1  0.01717500  0.86618400  0.73415300  1
  C  C22  1  0.28524100  0.93627000  0.96475500  1
  C  C23  1  0.82072000  0.95032900  0.42928400  1
  C  C24  1  0.69040600  0.03812700  0.05966000  1
  C  C25  1  0.19036400  0.03805400  0.55957500  1
  C  C26  1  0.45854000  0.10994900  0.79147200  1
  C  C27  1  0.98233100  0.13172100  0.26769400  1
  C  C28  1  0.52581300  0.62411200  0.72416800  1
  C  C29  1  0.02741700  0.62104400  0.22254400  1
  C  C30  1  0.80072700  0.56390400  0.95744200  1
  C  C31  1  0.29253700  0.56396400  0.44924500  1
  C  C32  1  0.14628000  0.66398800  0.90363600  1
  C  C33  1  0.64304100  0.67701400  0.40707700  1
  C  C34  1  0.34629800  0.66403400  0.10364900  1
  C  C35  1  0.84284600  0.67705200  0.60683800  1
  C  C36  1  0.13769700  0.16512800  0.92079900  1
  C  C37  1  0.65858000  0.16916100  0.39609300  1
  C  C38  1  0.32918600  0.16512800  0.11233000  1
  C  C39  1  0.85393700  0.16915100  0.59144100  1
  C  C40  1  0.63696900  0.82165800  0.91140000  1
  C  C41  1  0.14221500  0.81885400  0.41104700  1
  C  C42  1  0.83896400  0.81883100  0.10773000  1
  C  C43  1  0.33863400  0.82161500  0.61303500  1
  C  C44  1  0.67252200  0.33745400  0.92029600  1
  C  C45  1  0.14156600  0.35206400  0.37146900  1
  C  C46  1  0.87854100  0.35206600  0.10848900  1
  C  C47  1  0.32977500  0.33749700  0.57748000  1
