# generated using pymatgen
data_Cu4Ni4C23
_symmetry_space_group_name_H-M   'P 1'
_cell_length_a   5.52541500
_cell_length_b   5.23150100
_cell_length_c   35.06229317
_cell_angle_alpha   90.00000000
_cell_angle_beta   94.51926241
_cell_angle_gamma   90.00000000
_symmetry_Int_Tables_number   1
_chemical_formula_structural   Cu4Ni4C23
_chemical_formula_sum   'Cu8 Ni8 C46'
_cell_volume   1010.36702401
_cell_formula_units_Z   2
loop_
 _symmetry_equiv_pos_site_id
 _symmetry_equiv_pos_as_xyz
  1  'x, y, z'
loop_
 _atom_site_type_symbol
 _atom_site_label
 _atom_site_symmetry_multiplicity
 _atom_site_fract_x
 _atom_site_fract_y
 _atom_site_fract_z
 _atom_site_occupancy
  C  C0  1  0.18702500  0.00000000  0.87198400  1
  C  C1  1  0.81297500  0.00000000  0.12801600  1
  C  C2  1  0.68495900  0.50000000  0.87198400  1
  C  C3  1  0.31504100  0.50000000  0.12801600  1
  C  C4  1  0.08408400  0.00000000  0.67672900  1
  C  C5  1  0.91591600  0.00000000  0.32327100  1
  C  C6  1  0.59264500  0.50000000  0.67672900  1
  C  C7  1  0.40735500  0.50000000  0.32327100  1
  C  C8  1  0.13791500  0.00000000  0.77485900  1
  C  C9  1  0.86208500  0.00000000  0.22514100  1
  C  C10  1  0.63694500  0.50000000  0.77485900  1
  C  C11  1  0.36305500  0.50000000  0.22514100  1
  Ni  Ni12  1  0.61535100  0.00000000  0.73064900  1
  Ni  Ni13  1  0.38464900  0.00000000  0.26935100  1
  Ni  Ni14  1  0.11529800  0.50000000  0.73064900  1
  Ni  Ni15  1  0.88470200  0.50000000  0.26935100  1
  Ni  Ni16  1  0.66000000  0.00000000  0.81943200  1
  Ni  Ni17  1  0.34000000  0.00000000  0.18056800  1
  Ni  Ni18  1  0.15943300  0.50000000  0.81943200  1
  Ni  Ni19  1  0.84056700  0.50000000  0.18056800  1
  Cu  Cu20  1  0.75020400  0.00000000  0.95482900  1
  Cu  Cu21  1  0.24979600  0.00000000  0.04517100  1
  Cu  Cu22  1  0.20462500  0.50000000  0.95482900  1
  Cu  Cu23  1  0.79537500  0.50000000  0.04517100  1
  Cu  Cu24  1  0.51578900  0.00000000  0.59577100  1
  Cu  Cu25  1  0.48421100  0.00000000  0.40422900  1
  Cu  Cu26  1  0.07998200  0.50000000  0.59577100  1
  Cu  Cu27  1  0.92001800  0.50000000  0.40422900  1
  C  C28  1  0.00000000  0.00000000  0.50000000  1
  C  C29  1  0.50000000  0.50000000  0.50000000  1
  C  C30  1  0.91105900  0.25000000  0.82211700  1
  C  C31  1  0.08894100  0.75000000  0.17788300  1
  C  C32  1  0.08894100  0.25000000  0.17788300  1
  C  C33  1  0.91105900  0.75000000  0.82211700  1
  C  C34  1  0.60314400  0.00000000  0.65480000  1
  C  C35  1  0.39685600  0.00000000  0.34520000  1
  C  C36  1  0.05165700  0.50000000  0.65480000  1
  C  C37  1  0.94834300  0.50000000  0.34520000  1
  C  C38  1  0.13656800  0.00000000  0.95351900  1
  C  C39  1  0.86343200  0.00000000  0.04648100  1
  C  C40  1  0.81695100  0.50000000  0.95351900  1
  C  C41  1  0.18304900  0.50000000  0.04648100  1
  C  C42  1  0.58914600  0.25000000  0.17829300  1
  C  C43  1  0.41085400  0.75000000  0.82170700  1
  C  C44  1  0.41085400  0.25000000  0.82170700  1
  C  C45  1  0.58914600  0.75000000  0.17829300  1
  C  C46  1  0.86552000  0.25000000  0.73103900  1
  C  C47  1  0.13448000  0.75000000  0.26896100  1
  C  C48  1  0.13448000  0.25000000  0.26896100  1
  C  C49  1  0.86552000  0.75000000  0.73103900  1
  C  C50  1  0.14003700  0.00000000  0.60333100  1
  C  C51  1  0.85996300  0.00000000  0.39666900  1
  C  C52  1  0.46329300  0.50000000  0.60333100  1
  C  C53  1  0.53670700  0.50000000  0.39666900  1
  C  C54  1  0.63486100  0.25000000  0.26972100  1
  C  C55  1  0.36513900  0.75000000  0.73027900  1
  C  C56  1  0.36513900  0.25000000  0.73027900  1
  C  C57  1  0.63486100  0.75000000  0.26972100  1
  C  C58  1  0.68804600  0.00000000  0.89626300  1
  C  C59  1  0.31195400  0.00000000  0.10373700  1
  C  C60  1  0.20821700  0.50000000  0.89626300  1
  C  C61  1  0.79178300  0.50000000  0.10373700  1
