# generated using pymatgen
data_CuNi4C15
_symmetry_space_group_name_H-M   'P 1'
_cell_length_a   11.01864625
_cell_length_b   11.01864625
_cell_length_c   11.01864625
_cell_angle_alpha   138.92431599
_cell_angle_beta   121.15439275
_cell_angle_gamma   74.26501080
_symmetry_Int_Tables_number   1
_chemical_formula_structural   CuNi4C15
_chemical_formula_sum   'Cu1 Ni4 C15'
_cell_volume   735.24034291
_cell_formula_units_Z   1
loop_
 _symmetry_equiv_pos_site_id
 _symmetry_equiv_pos_as_xyz
  1  'x, y, z'
loop_
 _atom_site_type_symbol
 _atom_site_label
 _atom_site_symmetry_multiplicity
 _atom_site_fract_x
 _atom_site_fract_y
 _atom_site_fract_z
 _atom_site_occupancy
  C  C0  1  0.07527800  0.83637400  0.23890400  1
  C  C1  1  0.92472200  0.16362600  0.76109600  1
  C  C2  1  0.40252900  0.16362600  0.23890400  1
  C  C3  1  0.59747100  0.83637400  0.76109600  1
  C  C4  1  0.00000000  0.50000000  0.50000000  1
  C  C5  1  0.60698000  0.60698000  0.00000000  1
  C  C6  1  0.39302000  0.39302000  0.00000000  1
  Ni  Ni7  1  0.40433000  0.26667500  0.67100500  1
  Ni  Ni8  1  0.59567000  0.26667500  0.86234500  1
  Ni  Ni9  1  0.40433000  0.73332500  0.13765500  1
  Ni  Ni10  1  0.59567000  0.73332500  0.32899500  1
  Cu  Cu11  1  0.00000000  0.00000000  0.00000000  1
  C  C12  1  0.71711100  0.95780900  0.24069900  1
  C  C13  1  0.28288900  0.52358800  0.24069900  1
  C  C14  1  0.28288900  0.04219100  0.75930100  1
  C  C15  1  0.71711100  0.47641200  0.75930100  1
  C  C16  1  0.88852100  0.63679400  0.25172700  1
  C  C17  1  0.11147900  0.36320600  0.74827300  1
  C  C18  1  0.61493400  0.36320600  0.25172700  1
  C  C19  1  0.38506600  0.63679400  0.74827300  1
