# generated using pymatgen
data_Cu3NiC2
_symmetry_space_group_name_H-M   'P 1'
_cell_length_a   7.06876793
_cell_length_b   7.06876793
_cell_length_c   26.82925441
_cell_angle_alpha   87.55456123
_cell_angle_beta   87.55456123
_cell_angle_gamma   120.00724340
_symmetry_Int_Tables_number   1
_chemical_formula_structural   Cu3NiC2
_chemical_formula_sum   'Cu24 Ni8 C16'
_cell_volume   1156.66482417
_cell_formula_units_Z   8
loop_
 _symmetry_equiv_pos_site_id
 _symmetry_equiv_pos_as_xyz
  1  'x, y, z'
loop_
 _atom_site_type_symbol
 _atom_site_label
 _atom_site_symmetry_multiplicity
 _atom_site_fract_x
 _atom_site_fract_y
 _atom_site_fract_z
 _atom_site_occupancy
  C  C0  1  0.68261400  0.85492600  0.98546400  1
  C  C1  1  0.85492600  0.68261400  0.48546400  1
  C  C2  1  0.02518900  0.51708700  0.98534500  1
  C  C3  1  0.51708700  0.02518900  0.48534500  1
  C  C4  1  0.37361500  0.88343400  0.86046900  1
  C  C5  1  0.88343400  0.37361500  0.36046900  1
  C  C6  1  0.06244000  0.22539800  0.85995200  1
  C  C7  1  0.22539800  0.06244000  0.35995200  1
  C  C8  1  0.10014500  0.91864100  0.73545900  1
  C  C9  1  0.91864100  0.10014500  0.23545900  1
  C  C10  1  0.41965700  0.58355100  0.73532400  1
  C  C11  1  0.58355100  0.41965700  0.23532400  1
  C  C12  1  0.12660800  0.63512600  0.60976900  1
  C  C13  1  0.63512600  0.12660800  0.10976900  1
  C  C14  1  0.47248500  0.29267600  0.61037300  1
  C  C15  1  0.29267600  0.47248500  0.11037300  1
  Ni  Ni16  1  0.33043400  0.16635600  0.98076900  1
  Ni  Ni17  1  0.16635600  0.33043400  0.48076900  1
  Ni  Ni18  1  0.71701700  0.56959300  0.85632500  1
  Ni  Ni19  1  0.56959300  0.71701700  0.35632500  1
  Ni  Ni20  1  0.75857200  0.27390400  0.73075800  1
  Ni  Ni21  1  0.27390400  0.75857200  0.23075800  1
  Ni  Ni22  1  0.78527400  0.95181800  0.60626800  1
  Ni  Ni23  1  0.95181800  0.78527400  0.10626800  1
  Cu  Cu24  1  0.16442500  0.32911200  0.58135200  1
  Cu  Cu25  1  0.32911200  0.16442500  0.08135200  1
  Cu  Cu26  1  0.71062900  0.54370800  0.95684100  1
  Cu  Cu27  1  0.54370800  0.71062900  0.45684100  1
  Cu  Cu28  1  0.76943300  0.91262000  0.70684500  1
  Cu  Cu29  1  0.91262000  0.76943300  0.20684500  1
  Cu  Cu30  1  0.12856500  0.62403200  0.70009000  1
  Cu  Cu31  1  0.62403200  0.12856500  0.20009000  1
  Cu  Cu32  1  0.40929700  0.26680500  0.70086000  1
  Cu  Cu33  1  0.26680500  0.40929700  0.20086000  1
  Cu  Cu34  1  0.72676600  0.20848000  0.83132500  1
  Cu  Cu35  1  0.20848000  0.72676600  0.33132500  1
  Cu  Cu36  1  0.08328100  0.92288200  0.82571500  1
  Cu  Cu37  1  0.92288200  0.08328100  0.32571500  1
  Cu  Cu38  1  0.36068600  0.83583900  0.95075600  1
  Cu  Cu39  1  0.83583900  0.36068600  0.45075600  1
  Cu  Cu40  1  0.45048700  0.97270400  0.57550200  1
  Cu  Cu41  1  0.97270400  0.45048700  0.07550200  1
  Cu  Cu42  1  0.37162300  0.56953100  0.82565200  1
  Cu  Cu43  1  0.56953100  0.37162300  0.32565200  1
  Cu  Cu44  1  0.99874600  0.19341000  0.95042700  1
  Cu  Cu45  1  0.19341000  0.99874600  0.45042700  1
  Cu  Cu46  1  0.80691700  0.61786400  0.57573100  1
  Cu  Cu47  1  0.61786400  0.80691700  0.07573100  1
