# generated using pymatgen
data_Cu4NiC2
_symmetry_space_group_name_H-M   'P 1'
_cell_length_a   6.39563300
_cell_length_b   7.94736400
_cell_length_c   13.64324800
_cell_angle_alpha   90.00000000
_cell_angle_beta   90.00000000
_cell_angle_gamma   90.00000000
_symmetry_Int_Tables_number   1
_chemical_formula_structural   Cu4NiC2
_chemical_formula_sum   'Cu16 Ni4 C8'
_cell_volume   693.46478673
_cell_formula_units_Z   4
loop_
 _symmetry_equiv_pos_site_id
 _symmetry_equiv_pos_as_xyz
  1  'x, y, z'
loop_
 _atom_site_type_symbol
 _atom_site_label
 _atom_site_symmetry_multiplicity
 _atom_site_fract_x
 _atom_site_fract_y
 _atom_site_fract_z
 _atom_site_occupancy
  C  C0  1  0.49634500  0.25000000  0.76882400  1
  C  C1  1  0.00365500  0.25000000  0.26882400  1
  C  C2  1  0.50365500  0.75000000  0.23117600  1
  C  C3  1  0.99634500  0.75000000  0.73117600  1
  C  C4  1  0.00000000  0.00000000  0.00000000  1
  C  C5  1  0.50000000  0.50000000  0.50000000  1
  C  C6  1  0.00000000  0.50000000  0.00000000  1
  C  C7  1  0.50000000  0.00000000  0.50000000  1
  Ni  Ni8  1  0.58960900  0.25000000  0.08861800  1
  Ni  Ni9  1  0.91039100  0.25000000  0.58861800  1
  Ni  Ni10  1  0.41039100  0.75000000  0.91138200  1
  Ni  Ni11  1  0.08960900  0.75000000  0.41138200  1
  Cu  Cu12  1  0.21934200  0.25000000  0.09321800  1
  Cu  Cu13  1  0.28065800  0.25000000  0.59321800  1
  Cu  Cu14  1  0.78065800  0.75000000  0.90678200  1
  Cu  Cu15  1  0.71934200  0.75000000  0.40678200  1
  Cu  Cu16  1  0.75608900  0.01598400  0.16822300  1
  Cu  Cu17  1  0.74391100  0.48401600  0.66822300  1
  Cu  Cu18  1  0.24391100  0.51598400  0.83177700  1
  Cu  Cu19  1  0.25608900  0.98401600  0.33177700  1
  Cu  Cu20  1  0.24391100  0.98401600  0.83177700  1
  Cu  Cu21  1  0.25608900  0.51598400  0.33177700  1
  Cu  Cu22  1  0.75608900  0.48401600  0.16822300  1
  Cu  Cu23  1  0.74391100  0.01598400  0.66822300  1
  Cu  Cu24  1  0.74903400  0.25000000  0.92923900  1
  Cu  Cu25  1  0.75096600  0.25000000  0.42923900  1
  Cu  Cu26  1  0.25096600  0.75000000  0.07076100  1
  Cu  Cu27  1  0.24903400  0.75000000  0.57076100  1
