# generated using pymatgen
data_Cu10NiC4
_symmetry_space_group_name_H-M   'P 1'
_cell_length_a   9.62280007
_cell_length_b   9.62280007
_cell_length_c   5.86939459
_cell_angle_alpha   82.57091666
_cell_angle_beta   82.57091666
_cell_angle_gamma   116.38202601
_symmetry_Int_Tables_number   1
_chemical_formula_structural   Cu10NiC4
_chemical_formula_sum   'Cu20 Ni2 C8'
_cell_volume   472.01458962
_cell_formula_units_Z   2
loop_
 _symmetry_equiv_pos_site_id
 _symmetry_equiv_pos_as_xyz
  1  'x, y, z'
loop_
 _atom_site_type_symbol
 _atom_site_label
 _atom_site_symmetry_multiplicity
 _atom_site_fract_x
 _atom_site_fract_y
 _atom_site_fract_z
 _atom_site_occupancy
  C  C0  1  0.66981700  0.54611900  0.65873900  1
  C  C1  1  0.54611900  0.66981700  0.15873900  1
  C  C2  1  0.89697800  0.34393900  0.87439200  1
  C  C3  1  0.34393900  0.89697800  0.37439200  1
  C  C4  1  0.31363500  0.56634500  0.75141000  1
  C  C5  1  0.56634500  0.31363500  0.25141000  1
  C  C6  1  0.13545900  0.72332800  0.94732000  1
  C  C7  1  0.72332800  0.13545900  0.44732000  1
  Ni  Ni8  1  0.02909800  0.16104700  0.37503900  1
  Ni  Ni9  1  0.16104700  0.02909800  0.87503900  1
  Cu  Cu10  1  0.65304200  0.34746200  0.99628300  1
  Cu  Cu11  1  0.34746200  0.65304200  0.49628300  1
  Cu  Cu12  1  0.57039300  0.98046300  0.53644200  1
  Cu  Cu13  1  0.98046300  0.57039300  0.03644200  1
  Cu  Cu14  1  0.04224300  0.02631200  0.92033700  1
  Cu  Cu15  1  0.02631200  0.04224300  0.42033700  1
  Cu  Cu16  1  0.28110900  0.68280900  0.91808300  1
  Cu  Cu17  1  0.68280900  0.28110900  0.41808300  1
  Cu  Cu18  1  0.16236100  0.40755900  0.80907200  1
  Cu  Cu19  1  0.40755900  0.16236100  0.30907200  1
  Cu  Cu20  1  0.14207100  0.81630500  0.70371800  1
  Cu  Cu21  1  0.81630500  0.14207100  0.20371800  1
  Cu  Cu22  1  0.94070200  0.59594500  0.64612800  1
  Cu  Cu23  1  0.59594500  0.94070200  0.14612800  1
  Cu  Cu24  1  0.84008900  0.17280100  0.61462000  1
  Cu  Cu25  1  0.17280100  0.84008900  0.11462000  1
  Cu  Cu26  1  0.45416200  0.55996300  0.83205500  1
  Cu  Cu27  1  0.55996300  0.45416200  0.33205500  1
  Cu  Cu28  1  0.81336500  0.80268000  0.85336100  1
  Cu  Cu29  1  0.80268000  0.81336500  0.35336100  1
