# generated using pymatgen
data_CuNiC7
_symmetry_space_group_name_H-M   'P 1'
_cell_length_a   6.25472793
_cell_length_b   6.46464089
_cell_length_c   10.02072034
_cell_angle_alpha   108.42655034
_cell_angle_beta   104.30057426
_cell_angle_gamma   88.19804302
_symmetry_Int_Tables_number   1
_chemical_formula_structural   CuNiC7
_chemical_formula_sum   'Cu4 Ni4 C28'
_cell_volume   372.01850565
_cell_formula_units_Z   4
loop_
 _symmetry_equiv_pos_site_id
 _symmetry_equiv_pos_as_xyz
  1  'x, y, z'
loop_
 _atom_site_type_symbol
 _atom_site_label
 _atom_site_symmetry_multiplicity
 _atom_site_fract_x
 _atom_site_fract_y
 _atom_site_fract_z
 _atom_site_occupancy
  Ni  Ni0  1  0.63107500  0.56697900  0.90105300  1
  Ni  Ni1  1  0.63105900  0.06685900  0.90107400  1
  Ni  Ni2  1  0.36893600  0.43317200  0.09891200  1
  Ni  Ni3  1  0.36899100  0.93314400  0.09889200  1
  Cu  Cu4  1  0.78417200  0.69042200  0.63765100  1
  Cu  Cu5  1  0.21597600  0.30929700  0.36250600  1
  Cu  Cu6  1  0.78380100  0.19066800  0.63749600  1
  Cu  Cu7  1  0.21588400  0.80905800  0.36228900  1
  C  C8  1  0.32088900  0.67009300  0.65358400  1
  C  C9  1  0.32088800  0.17010100  0.65356000  1
  C  C10  1  0.67912000  0.32993700  0.34645200  1
  C  C11  1  0.67911200  0.82989700  0.34642600  1
  C  C12  1  0.12162000  0.58200400  0.83466300  1
  C  C13  1  0.12162500  0.08201300  0.83467100  1
  C  C14  1  0.87837000  0.41800900  0.16534000  1
  C  C15  1  0.87837100  0.91799200  0.16533300  1
  C  C16  1  0.28233200  0.63326200  0.50854900  1
  C  C17  1  0.28233300  0.13329000  0.50853200  1
  C  C18  1  0.71769800  0.36677300  0.49146500  1
  C  C19  1  0.71767300  0.86675400  0.49147700  1
  C  C20  1  0.30449700  0.60559000  0.94795500  1
  C  C21  1  0.30449700  0.10559200  0.94795100  1
  C  C22  1  0.69552700  0.39445400  0.05205100  1
  C  C23  1  0.69552400  0.89444900  0.05205700  1
  C  C24  1  0.90981100  0.52272700  0.82464700  1
  C  C25  1  0.90982600  0.02273200  0.82465000  1
  C  C26  1  0.09017400  0.47730600  0.17536300  1
  C  C27  1  0.09018100  0.97728100  0.17536100  1
  C  C28  1  0.52161400  0.74399100  0.75089700  1
  C  C29  1  0.52157600  0.24399400  0.75089900  1
  C  C30  1  0.47839900  0.25607100  0.24912900  1
  C  C31  1  0.47843900  0.75604000  0.24909900  1
  C  C32  1  0.14242100  0.62237600  0.70516300  1
  C  C33  1  0.14239700  0.12239500  0.70514700  1
  C  C34  1  0.85756500  0.37764900  0.29484700  1
  C  C35  1  0.85762900  0.87762900  0.29486000  1
