# generated using pymatgen
data_CuNi7C6
_symmetry_space_group_name_H-M   'P 1'
_cell_length_a   10.84830000
_cell_length_b   6.03576200
_cell_length_c   12.47579400
_cell_angle_alpha   90.00000000
_cell_angle_beta   90.00000000
_cell_angle_gamma   90.00000000
_symmetry_Int_Tables_number   1
_chemical_formula_structural   CuNi7C6
_chemical_formula_sum   'Cu4 Ni28 C24'
_cell_volume   816.88700672
_cell_formula_units_Z   4
loop_
 _symmetry_equiv_pos_site_id
 _symmetry_equiv_pos_as_xyz
  1  'x, y, z'
loop_
 _atom_site_type_symbol
 _atom_site_label
 _atom_site_symmetry_multiplicity
 _atom_site_fract_x
 _atom_site_fract_y
 _atom_site_fract_z
 _atom_site_occupancy
  Ni  Ni0  1  0.96498900  0.76663200  0.04158900  1
  Ni  Ni1  1  0.53501100  0.73336800  0.54158900  1
  Ni  Ni2  1  0.46498900  0.73336800  0.95841100  1
  Ni  Ni3  1  0.03501100  0.76663200  0.45841100  1
  Ni  Ni4  1  0.03501100  0.23336800  0.95841100  1
  Ni  Ni5  1  0.46498900  0.26663200  0.45841100  1
  Ni  Ni6  1  0.53501100  0.26663200  0.04158900  1
  Ni  Ni7  1  0.96498900  0.23336800  0.54158900  1
  Ni  Ni8  1  0.24252000  0.65212600  0.65347200  1
  Ni  Ni9  1  0.25748000  0.84787400  0.15347200  1
  Ni  Ni10  1  0.74252000  0.84787400  0.34652800  1
  Ni  Ni11  1  0.75748000  0.65212600  0.84652800  1
  Ni  Ni12  1  0.75748000  0.34787400  0.34652800  1
  Ni  Ni13  1  0.74252000  0.15212600  0.84652800  1
  Ni  Ni14  1  0.25748000  0.15212600  0.65347200  1
  Ni  Ni15  1  0.24252000  0.34787400  0.15347200  1
  Ni  Ni16  1  0.20728000  0.63556700  0.92596400  1
  Ni  Ni17  1  0.29272000  0.86443300  0.42596400  1
  Ni  Ni18  1  0.70728000  0.86443300  0.07403600  1
  Ni  Ni19  1  0.79272000  0.63556700  0.57403600  1
  Ni  Ni20  1  0.79272000  0.36443300  0.07403600  1
  Ni  Ni21  1  0.70728000  0.13556700  0.57403600  1
  Ni  Ni22  1  0.29272000  0.13556700  0.92596400  1
  Ni  Ni23  1  0.20728000  0.36443300  0.42596400  1
  Ni  Ni24  1  0.00000000  0.40958100  0.75000000  1
  Ni  Ni25  1  0.50000000  0.09041900  0.25000000  1
  Ni  Ni26  1  0.00000000  0.59041900  0.25000000  1
  Ni  Ni27  1  0.50000000  0.90958100  0.75000000  1
  Cu  Cu28  1  0.00000000  0.89873700  0.75000000  1
  Cu  Cu29  1  0.50000000  0.60126300  0.25000000  1
  Cu  Cu30  1  0.00000000  0.10126300  0.25000000  1
  Cu  Cu31  1  0.50000000  0.39873800  0.75000000  1
  C  C32  1  0.13312300  0.65545000  0.78176400  1
  C  C33  1  0.36687700  0.84455000  0.28176400  1
  C  C34  1  0.63312300  0.84455000  0.21823600  1
  C  C35  1  0.86687700  0.65545000  0.71823600  1
  C  C36  1  0.86687700  0.34455000  0.21823600  1
  C  C37  1  0.63312300  0.15545000  0.71823600  1
  C  C38  1  0.36687700  0.15545000  0.78176400  1
  C  C39  1  0.13312300  0.34455000  0.28176400  1
  C  C40  1  0.18346600  0.64941600  0.50432600  1
  C  C41  1  0.31653400  0.85058400  0.00432600  1
  C  C42  1  0.68346600  0.85058400  0.49567400  1
  C  C43  1  0.81653400  0.64941600  0.99567400  1
  C  C44  1  0.81653400  0.35058400  0.49567400  1
  C  C45  1  0.68346600  0.14941600  0.99567400  1
  C  C46  1  0.31653400  0.14941600  0.50432600  1
  C  C47  1  0.18346600  0.35058400  0.00432600  1
  C  C48  1  0.42709300  0.64945600  0.65075500  1
  C  C49  1  0.07290700  0.85054400  0.15075500  1
  C  C50  1  0.92709300  0.85054400  0.34924500  1
  C  C51  1  0.57290700  0.64945600  0.84924500  1
  C  C52  1  0.57290700  0.35054400  0.34924500  1
  C  C53  1  0.92709300  0.14945600  0.84924500  1
  C  C54  1  0.07290700  0.14945600  0.65075500  1
  C  C55  1  0.42709300  0.35054400  0.15075500  1
