# generated using pymatgen
data_CuNi3C10
_symmetry_space_group_name_H-M   'P 1'
_cell_length_a   10.37800616
_cell_length_b   10.37800616
_cell_length_c   13.42141705
_cell_angle_alpha   86.10975894
_cell_angle_beta   86.10975894
_cell_angle_gamma   91.21580046
_symmetry_Int_Tables_number   1
_chemical_formula_structural   CuNi3C10
_chemical_formula_sum   'Cu8 Ni24 C80'
_cell_volume   1438.38909123
_cell_formula_units_Z   8
loop_
 _symmetry_equiv_pos_site_id
 _symmetry_equiv_pos_as_xyz
  1  'x, y, z'
loop_
 _atom_site_type_symbol
 _atom_site_label
 _atom_site_symmetry_multiplicity
 _atom_site_fract_x
 _atom_site_fract_y
 _atom_site_fract_z
 _atom_site_occupancy
  C  C0  1  0.62315900  0.62315900  0.09236400  1
  C  C1  1  0.37684100  0.37684100  0.90763600  1
  C  C2  1  0.53758600  0.65971600  0.98241400  1
  C  C3  1  0.65971600  0.53758600  0.98241400  1
  C  C4  1  0.46241400  0.34028400  0.01758600  1
  C  C5  1  0.34028400  0.46241400  0.01758600  1
  C  C6  1  0.97368700  0.74778800  0.04959900  1
  C  C7  1  0.74778800  0.97368700  0.04959900  1
  C  C8  1  0.02631300  0.25221200  0.95040100  1
  C  C9  1  0.25221200  0.02631300  0.95040100  1
  C  C10  1  0.83800300  0.69793800  0.13464200  1
  C  C11  1  0.69793800  0.83800300  0.13464200  1
  C  C12  1  0.16199700  0.30206200  0.86535800  1
  C  C13  1  0.30206200  0.16199700  0.86535800  1
  C  C14  1  0.89817400  0.58956600  0.04512000  1
  C  C15  1  0.58956600  0.89817400  0.04512000  1
  C  C16  1  0.10182600  0.41043400  0.95488000  1
  C  C17  1  0.41043400  0.10182600  0.95488000  1
  C  C18  1  0.51951400  0.51951400  0.63757400  1
  C  C19  1  0.48048700  0.48048700  0.36242600  1
  C  C20  1  0.60458200  0.48236900  0.74746800  1
  C  C21  1  0.48236900  0.60458200  0.74746800  1
  C  C22  1  0.39541800  0.51763100  0.25253200  1
  C  C23  1  0.51763100  0.39541800  0.25253200  1
  C  C24  1  0.84234200  0.52113000  0.58955800  1
  C  C25  1  0.52113000  0.84234200  0.58955800  1
  C  C26  1  0.15765800  0.47887000  0.41044200  1
  C  C27  1  0.47887000  0.15765800  0.41044200  1
  C  C28  1  0.69046100  0.51641000  0.53290100  1
  C  C29  1  0.51641000  0.69046100  0.53290100  1
  C  C30  1  0.30953900  0.48359000  0.46709900  1
  C  C31  1  0.48359000  0.30953900  0.46709900  1
  C  C32  1  0.80882300  0.63990400  0.49042600  1
  C  C33  1  0.63990400  0.80882300  0.49042600  1
  C  C34  1  0.19117700  0.36009600  0.50957400  1
  C  C35  1  0.36009600  0.19117700  0.50957400  1
  C  C36  1  0.17143800  0.76746100  0.90641200  1
  C  C37  1  0.76746100  0.17143800  0.90641200  1
  C  C38  1  0.82856200  0.23253900  0.09358800  1
  C  C39  1  0.23253900  0.82856200  0.09358800  1
  C  C40  1  0.16772500  0.61238200  0.85275500  1
  C  C41  1  0.61238200  0.16772500  0.85275500  1
  C  C42  1  0.83227500  0.38761800  0.14724500  1
  C  C43  1  0.38761800  0.83227500  0.14724500  1
  C  C44  1  0.29031000  0.73169700  0.80931800  1
  C  C45  1  0.73169700  0.29031000  0.80931800  1
  C  C46  1  0.70969000  0.26830300  0.19068200  1
  C  C47  1  0.26830300  0.70969000  0.19068200  1
  C  C48  1  0.09483700  0.67876600  0.57111200  1
  C  C49  1  0.67876600  0.09483700  0.57111200  1
  C  C50  1  0.90516300  0.32123400  0.42888800  1
  C  C51  1  0.32123400  0.90516300  0.42888800  1
  C  C52  1  0.24818100  0.68199800  0.62573600  1
  C  C53  1  0.68199800  0.24818100  0.62573600  1
  C  C54  1  0.75181900  0.31800200  0.37426400  1
  C  C55  1  0.31800200  0.75181900  0.37426400  1
  C  C56  1  0.12648100  0.56466600  0.67425000  1
  C  C57  1  0.56466600  0.12648100  0.67425000  1
  C  C58  1  0.87351900  0.43533400  0.32575000  1
  C  C59  1  0.43533400  0.87351900  0.32575000  1
  C  C60  1  0.16683600  0.97801000  0.62364800  1
  C  C61  1  0.97801000  0.16683600  0.62364800  1
  C  C62  1  0.83316400  0.02199000  0.37635200  1
  C  C63  1  0.02199000  0.83316400  0.37635200  1
  C  C64  1  0.22716500  0.98053000  0.74719200  1
  C  C65  1  0.98053000  0.22716500  0.74719200  1
  C  C66  1  0.77283500  0.01947000  0.25280800  1
  C  C67  1  0.01947000  0.77283500  0.25280800  1
  C  C68  1  0.29381400  0.87313200  0.65936400  1
  C  C69  1  0.87313200  0.29381400  0.65936400  1
  C  C70  1  0.70618600  0.12686800  0.34063600  1
  C  C71  1  0.12686800  0.70618600  0.34063600  1
  C  C72  1  0.76655800  0.76655800  0.95254100  1
  C  C73  1  0.23344200  0.23344200  0.04745900  1
  C  C74  1  0.69927500  0.69927500  0.66177800  1
  C  C75  1  0.30072500  0.30072500  0.33822200  1
  C  C76  1  0.06307700  0.78787900  0.73805000  1
  C  C77  1  0.78787900  0.06307700  0.73805000  1
  C  C78  1  0.93692300  0.21212100  0.26195000  1
  C  C79  1  0.21212100  0.93692300  0.26195000  1
  Ni  Ni80  1  0.63055400  0.63055400  0.01024300  1
  Ni  Ni81  1  0.36944600  0.36944600  0.98975700  1
  Ni  Ni82  1  0.88242500  0.69125600  0.05842700  1
  Ni  Ni83  1  0.69125600  0.88242500  0.05842700  1
  Ni  Ni84  1  0.11757500  0.30874400  0.94157300  1
  Ni  Ni85  1  0.30874400  0.11757500  0.94157300  1
  Ni  Ni86  1  0.55965000  0.55965000  0.70307300  1
  Ni  Ni87  1  0.44035000  0.44035000  0.29692700  1
  Ni  Ni88  1  0.76756500  0.57956100  0.55589800  1
  Ni  Ni89  1  0.57956100  0.76756500  0.55589800  1
  Ni  Ni90  1  0.23243500  0.42043900  0.44410200  1
  Ni  Ni91  1  0.42043900  0.23243500  0.44410200  1
  Ni  Ni92  1  0.18929600  0.71615500  0.83781700  1
  Ni  Ni93  1  0.71615500  0.18929600  0.83781700  1
  Ni  Ni94  1  0.81070400  0.28384500  0.16218300  1
  Ni  Ni95  1  0.28384500  0.81070400  0.16218300  1
  Ni  Ni96  1  0.14393400  0.66354400  0.64084200  1
  Ni  Ni97  1  0.66354400  0.14393400  0.64084200  1
  Ni  Ni98  1  0.85606600  0.33645600  0.35915800  1
  Ni  Ni99  1  0.33645600  0.85606600  0.35915800  1
  Ni  Ni100  1  0.20550800  0.92012700  0.68589600  1
  Ni  Ni101  1  0.92012700  0.20550800  0.68589600  1
  Ni  Ni102  1  0.79449200  0.07987300  0.31410400  1
  Ni  Ni103  1  0.07987300  0.79449200  0.31410400  1
  Cu  Cu104  1  0.94460300  0.94460300  0.86644600  1
  Cu  Cu105  1  0.05539700  0.05539700  0.13355400  1
  Cu  Cu106  1  0.88373100  0.88373100  0.61389900  1
  Cu  Cu107  1  0.11626900  0.11626900  0.38610100  1
  Cu  Cu108  1  0.86360400  0.62155800  0.80433500  1
  Cu  Cu109  1  0.62155800  0.86360400  0.80433500  1
  Cu  Cu110  1  0.13639600  0.37844200  0.19566500  1
  Cu  Cu111  1  0.37844200  0.13639600  0.19566500  1
