# generated using pymatgen
data_Cu9(NiC2)2
_symmetry_space_group_name_H-M   'P 1'
_cell_length_a   11.01362100
_cell_length_b   3.78041300
_cell_length_c   11.19621067
_cell_angle_alpha   89.92091016
_cell_angle_beta   90.00000000
_cell_angle_gamma   90.00000000
_symmetry_Int_Tables_number   1
_chemical_formula_structural   Cu9(NiC2)2
_chemical_formula_sum   'Cu18 Ni4 C8'
_cell_volume   466.16538632
_cell_formula_units_Z   2
loop_
 _symmetry_equiv_pos_site_id
 _symmetry_equiv_pos_as_xyz
  1  'x, y, z'
loop_
 _atom_site_type_symbol
 _atom_site_label
 _atom_site_symmetry_multiplicity
 _atom_site_fract_x
 _atom_site_fract_y
 _atom_site_fract_z
 _atom_site_occupancy
  C  C0  1  0.81718300  0.99952700  0.85478000  1
  C  C1  1  0.18281700  0.00047300  0.14522000  1
  C  C2  1  0.68281700  0.99952700  0.35478000  1
  C  C3  1  0.31718300  0.00047300  0.64522000  1
  C  C4  1  0.60669400  0.49928000  0.63141100  1
  C  C5  1  0.39330600  0.50072000  0.36858900  1
  C  C6  1  0.89330600  0.49928000  0.13141100  1
  C  C7  1  0.10669400  0.50072000  0.86858900  1
  Ni  Ni8  1  0.93538800  0.38861300  0.56879800  1
  Ni  Ni9  1  0.43538800  0.61138700  0.93120200  1
  Ni  Ni10  1  0.06461200  0.61138700  0.43120200  1
  Ni  Ni11  1  0.56461200  0.38861300  0.06879800  1
  Cu  Cu12  1  0.60026200  0.99954000  0.62099800  1
  Cu  Cu13  1  0.39973800  0.00046000  0.37900200  1
  Cu  Cu14  1  0.89973800  0.99954000  0.12099800  1
  Cu  Cu15  1  0.10026200  0.00046000  0.87900200  1
  Cu  Cu16  1  0.70343500  0.49950700  0.75426100  1
  Cu  Cu17  1  0.29656500  0.50049300  0.24573900  1
  Cu  Cu18  1  0.79656500  0.49950700  0.25426100  1
  Cu  Cu19  1  0.20343500  0.50049300  0.74573900  1
  Cu  Cu20  1  0.47226900  0.49855400  0.72562400  1
  Cu  Cu21  1  0.52773100  0.50144600  0.27437600  1
  Cu  Cu22  1  0.02773100  0.49855400  0.22562400  1
  Cu  Cu23  1  0.97226900  0.50144600  0.77437600  1
  Cu  Cu24  1  0.73233500  0.50126400  0.52418400  1
  Cu  Cu25  1  0.26766500  0.49873600  0.47581600  1
  Cu  Cu26  1  0.76766500  0.50126400  0.02418400  1
  Cu  Cu27  1  0.23233500  0.49873600  0.97581600  1
  Cu  Cu28  1  0.50000000  0.50000000  0.50000000  1
  Cu  Cu29  1  0.00000000  0.50000000  0.00000000  1
