# generated using pymatgen
data_Cu3Ni5C2
_symmetry_space_group_name_H-M   'P 1'
_cell_length_a   8.34830337
_cell_length_b   8.34830337
_cell_length_c   5.88265893
_cell_angle_alpha   71.36080199
_cell_angle_beta   71.36080199
_cell_angle_gamma   94.40596999
_symmetry_Int_Tables_number   1
_chemical_formula_structural   Cu3Ni5C2
_chemical_formula_sum   'Cu6 Ni10 C4'
_cell_volume   360.71994634
_cell_formula_units_Z   2
loop_
 _symmetry_equiv_pos_site_id
 _symmetry_equiv_pos_as_xyz
  1  'x, y, z'
loop_
 _atom_site_type_symbol
 _atom_site_label
 _atom_site_symmetry_multiplicity
 _atom_site_fract_x
 _atom_site_fract_y
 _atom_site_fract_z
 _atom_site_occupancy
  C  C0  1  0.09106900  0.37024000  0.76338100  1
  C  C1  1  0.62976000  0.90893100  0.73661900  1
  C  C2  1  0.90893100  0.62976000  0.23661900  1
  C  C3  1  0.37024000  0.09106900  0.26338100  1
  Ni  Ni4  1  0.98651700  0.01348300  0.75000000  1
  Ni  Ni5  1  0.01348300  0.98651700  0.25000000  1
  Ni  Ni6  1  0.29309800  0.70690200  0.75000000  1
  Ni  Ni7  1  0.70690200  0.29309800  0.25000000  1
  Ni  Ni8  1  0.72229800  0.27770200  0.75000000  1
  Ni  Ni9  1  0.27770200  0.72229800  0.25000000  1
  Ni  Ni10  1  0.76477700  0.57536800  0.83083800  1
  Ni  Ni11  1  0.57536800  0.76477700  0.33083800  1
  Ni  Ni12  1  0.23522300  0.42463200  0.16916200  1
  Ni  Ni13  1  0.42463200  0.23522300  0.66916200  1
  Cu  Cu14  1  0.76140100  0.04543600  0.12618600  1
  Cu  Cu15  1  0.50253800  0.49746200  0.25000000  1
  Cu  Cu16  1  0.04543600  0.76140100  0.62618600  1
  Cu  Cu17  1  0.23859900  0.95456400  0.87381400  1
  Cu  Cu18  1  0.95456400  0.23859900  0.37381400  1
  Cu  Cu19  1  0.49746200  0.50253800  0.75000000  1
