# generated using pymatgen
data_Cu16Ni4C7
_symmetry_space_group_name_H-M   'P 1'
_cell_length_a   10.02273222
_cell_length_b   10.10810033
_cell_length_c   18.21289079
_cell_angle_alpha   90.23488802
_cell_angle_beta   72.41914152
_cell_angle_gamma   119.87109862
_symmetry_Int_Tables_number   1
_chemical_formula_structural   Cu16Ni4C7
_chemical_formula_sum   'Cu64 Ni16 C28'
_cell_volume   1501.20405489
_cell_formula_units_Z   4
loop_
 _symmetry_equiv_pos_site_id
 _symmetry_equiv_pos_as_xyz
  1  'x, y, z'
loop_
 _atom_site_type_symbol
 _atom_site_label
 _atom_site_symmetry_multiplicity
 _atom_site_fract_x
 _atom_site_fract_y
 _atom_site_fract_z
 _atom_site_occupancy
  C  C0  1  0.92312836  0.41443027  0.16575469  1
  C  C1  1  0.68054554  0.79201373  0.03579982  1
  C  C2  1  0.90788556  0.65352753  0.46007961  1
  C  C3  1  0.36875761  0.11664744  0.45771108  1
  C  C4  1  0.34579839  0.42801505  0.15911168  1
  C  C5  1  0.91851635  -0.00311042  0.16127159  1
  C  C6  1  0.91831470  0.49434770  0.65508190  1
  C  C7  1  0.91668734  0.22220848  0.96216893  1
  C  C8  1  0.07165532  0.08993528  0.33965743  1
  C  C9  1  0.92016804  0.91331690  0.66933108  1
  C  C10  1  0.67411394  0.88844083  0.53610950  1
  C  C11  1  0.31498732  0.68478036  0.45937412  1
  C  C12  1  0.34048608  0.21641656  0.95786758  1
  C  C13  1  0.33796216  0.92283890  0.66305383  1
  C  C14  1  0.33277029  0.62689977  0.96012639  1
  C  C15  1  0.07869536  0.59889666  0.83781568  1
  C  C16  1  0.48967875  0.00437766  0.00122929  1
  C  C17  1  0.50409706  0.24968087  0.24813594  1
  C  C18  1  0.49047568  0.75561408  0.25635489  1
  C  C19  1  0.47853080  0.47777302  0.50404924  1
  C  C20  1  0.49890883  0.25378107  0.75032438  1
  C  C21  1  0.00217714  0.74785885  0.24933872  1
  C  C22  1  0.50530904  0.74811190  0.75591045  1
  C  C23  1  0.99844891  0.25068410  0.75004718  1
  Ni  Ni24  1  0.66631345  0.09342128  0.13684080  1
  Ni  Ni25  1  0.26734856  0.08383511  0.15069813  1
  Ni  Ni26  1  0.72522157  0.42359371  0.34830400  1
  Ni  Ni27  1  0.72232334  0.60384158  0.17500061  1
  Ni  Ni28  1  0.72731337  0.11915007  0.67355023  1
  Ni  Ni29  1  0.35508993  0.40938996  0.35914111  1
  Ni  Ni30  1  0.72843419  0.79650535  0.35475095  1
  Ni  Ni31  1  0.71865766  0.30333096  0.84983048  1
  Ni  Ni32  1  0.27647238  0.19200889  0.64828104  1
  Ni  Ni33  1  0.26940086  0.68813991  0.14254877  1
  Ni  Ni34  1  0.66841302  0.57677150  0.64375071  1
  Ni  Ni35  1  0.26513302  0.57555260  0.64196489  1
  Ni  Ni36  1  0.27146454  0.89932973  0.33268364  1
  Ni  Ni37  1  0.26371729  0.37816941  0.83021744  1
  Ni  Ni38  1  0.72672877  0.93674265  0.86097014  1
  Ni  Ni39  1  0.34438147  0.93493872  0.85118904  1
  C  C40  1  0.87280159  0.18952044  0.43813752  1
  C  C41  1  0.12792413  0.31170259  0.06138463  1
  C  C42  1  0.87109259  0.68394806  0.93850462  1
  C  C43  1  0.12808770  0.81201185  0.56165375  1
  Cu  Cu44  1  0.67452467  0.15967884  0.07519649  1
  Cu  Cu45  1  0.93339201  0.21703981  0.35016256  1
  Cu  Cu46  1  0.93106320  0.08845043  0.46340242  1
  Cu  Cu47  1  0.63706718  0.14529397  0.20533120  1
  Cu  Cu48  1  0.27604070  0.06011703  0.08207864  1
  Cu  Cu49  1  0.93890296  0.33674934  0.46815292  1
  Cu  Cu50  1  0.68871419  0.09585958  0.47070398  1
  Cu  Cu51  1  0.84160285  0.01396203  0.79055209  1
  Cu  Cu52  1  0.70492535  0.46600519  0.18062043  1
  Cu  Cu53  1  0.86120448  0.50585054  0.28754285  1
  Cu  Cu54  1  0.38840409  0.20661243  0.16377274  1
  Cu  Cu55  1  0.60500150  0.29595065  0.33807666  1
  Cu  Cu56  1  0.85693819  0.72289530  0.17991715  1
  Cu  Cu57  1  0.85887616  0.23891856  0.68069877  1
  Cu  Cu58  1  0.29569565  0.04024406  0.32171560  1
  Cu  Cu59  1  0.31085738  0.40255176  0.03135558  1
  Cu  Cu60  1  0.06632634  0.16612428  0.02791448  1
  Cu  Cu61  1  0.61445833  0.62555459  0.16428437  1
  Cu  Cu62  1  0.70875260  0.46292064  0.41490221  1
  Cu  Cu63  1  0.60023770  0.13213941  0.68033745  1
  Cu  Cu64  1  0.36305610  0.35047049  0.29224255  1
  Cu  Cu65  1  0.86343913  0.79002054  0.34775860  1
  Cu  Cu66  1  0.86015625  0.31232258  0.84105077  1
  Cu  Cu67  1  0.06608562  0.40656447  0.03783498  1
  Cu  Cu68  1  0.06681671  0.27260830  0.14902704  1
  Cu  Cu69  1  0.63908888  0.43122452  0.65408889  1
  Cu  Cu70  1  0.37459107  0.22709188  0.57872608  1
  Cu  Cu71  1  0.68716112  0.97807912  0.13959444  1
  Cu  Cu72  1  0.38225003  0.73801987  0.07431813  1
  Cu  Cu73  1  0.34420472  0.33461816  0.41931515  1
  Cu  Cu74  1  0.72260356  0.85277081  0.29358815  1
  Cu  Cu75  1  0.70485526  0.35578292  0.78827002  1
  Cu  Cu76  1  0.68719470  0.63191091  0.57591800  1
  Cu  Cu77  1  0.26330652  0.60931175  0.19879522  1
  Cu  Cu78  1  0.30119296  0.14663220  0.70780834  1
  Cu  Cu79  1  0.36911847  0.07822897  0.84665362  1
  Cu  Cu80  1  0.61714945  0.74702145  0.42212757  1
  Cu  Cu81  1  0.35970146  0.53786468  0.35868334  1
  Cu  Cu82  1  0.60646077  0.24801877  0.91581260  1
  Cu  Cu83  1  0.93470351  0.59083103  0.96293833  1
  Cu  Cu84  1  0.92702634  0.71170303  0.85061313  1
  Cu  Cu85  1  0.15186760  0.72240047  0.15140944  1
  Cu  Cu86  1  0.13929346  0.19200400  0.66107482  1
  Cu  Cu87  1  0.68024348  0.65219774  0.70052903  1
  Cu  Cu88  1  0.36618380  0.87533840  0.35518460  1
  Cu  Cu89  1  0.25427153  0.52072342  0.57960638  1
  Cu  Cu90  1  0.39118384  0.36544089  0.82276826  1
  Cu  Cu91  1  0.93612065  0.83540638  0.96769958  1
  Cu  Cu92  1  0.68734084  0.59817277  0.97264540  1
  Cu  Cu93  1  0.72084637  0.99280650  0.66003459  1
  Cu  Cu94  1  0.14184488  0.78142585  0.32278114  1
  Cu  Cu95  1  0.38238352  0.70770457  0.64480523  1
  Cu  Cu96  1  0.13307077  0.26133013  0.82129264  1
  Cu  Cu97  1  0.60572559  0.80382740  0.86240604  1
  Cu  Cu98  1  0.26691307  0.50086222  0.84942248  1
  Cu  Cu99  1  0.14330374  0.49147550  0.71139961  1
  Cu  Cu100  1  0.13286255  0.99298746  0.21192583  1
  Cu  Cu101  1  0.05944735  0.65922905  0.53402372  1
  Cu  Cu102  1  0.31068588  0.89349852  0.53186084  1
  Cu  Cu103  1  0.73762006  0.99743458  0.92255704  1
  Cu  Cu104  1  0.32604529  0.86285901  0.79348493  1
  Cu  Cu105  1  0.07334125  0.90751780  0.53286984  1
  Cu  Cu106  1  0.06806159  0.78165722  0.64955868  1
  Cu  Cu107  1  0.34377672  0.87675327  0.91367283  1
