# generated using pymatgen
data_CuNiC8
_symmetry_space_group_name_H-M   'P 1'
_cell_length_a   8.47710104
_cell_length_b   8.42809095
_cell_length_c   8.46339245
_cell_angle_alpha   90.00000000
_cell_angle_beta   90.00000000
_cell_angle_gamma   90.00000000
_symmetry_Int_Tables_number   1
_chemical_formula_structural   CuNiC8
_chemical_formula_sum   'Cu4 Ni4 C32'
_cell_volume   604.67366283
_cell_formula_units_Z   4
loop_
 _symmetry_equiv_pos_site_id
 _symmetry_equiv_pos_as_xyz
  1  'x, y, z'
loop_
 _atom_site_type_symbol
 _atom_site_label
 _atom_site_symmetry_multiplicity
 _atom_site_fract_x
 _atom_site_fract_y
 _atom_site_fract_z
 _atom_site_occupancy
  Ni  Ni0  1  0.00000000  -0.00000000  -0.00000000  1
  Ni  Ni1  1  0.50000000  0.50000000  0.50000000  1
  Ni  Ni2  1  0.50000000  0.50000000  -0.00000000  1
  Ni  Ni3  1  0.00000000  -0.00000000  0.50000000  1
  Cu  Cu4  1  0.00000000  0.50000000  0.50000000  1
  Cu  Cu5  1  0.50000000  -0.00000000  0.50000000  1
  Cu  Cu6  1  0.50000000  -0.00000000  0.00000000  1
  Cu  Cu7  1  0.00000000  0.50000000  -0.00000000  1
  C  C8  1  0.75000000  0.75000000  0.75000000  1
  C  C9  1  0.25000000  0.25000000  0.75000000  1
  C  C10  1  0.25000000  0.75000000  0.25000000  1
  C  C11  1  0.75000000  0.25000000  0.25000000  1
  C  C12  1  0.25000000  0.25000000  0.25000000  1
  C  C13  1  0.75000000  0.75000000  0.25000000  1
  C  C14  1  0.75000000  0.25000000  0.75000000  1
  C  C15  1  0.25000000  0.75000000  0.75000000  1
  C  C16  1  0.02153595  0.21989165  0.26649553  1
  C  C17  1  0.97846405  0.78010835  0.26649553  1
  C  C18  1  0.97846405  0.21989165  0.73350447  1
  C  C19  1  0.02153595  0.78010835  0.73350447  1
  C  C20  1  0.26901774  0.02240512  0.20818982  1
  C  C21  1  0.26901774  0.97759488  0.79181018  1
  C  C22  1  0.73098226  0.97759488  0.20818982  1
  C  C23  1  0.73098226  0.02240512  0.79181018  1
  C  C24  1  0.22600472  0.28907615  0.02256016  1
  C  C25  1  0.77399528  0.28907615  0.97743984  1
  C  C26  1  0.22600472  0.71092385  0.97743984  1
  C  C27  1  0.77399528  0.71092385  0.02256016  1
  C  C28  1  0.47846405  0.28010835  0.23350447  1
  C  C29  1  0.52153595  0.71989165  0.23350447  1
  C  C30  1  0.52153595  0.28010835  0.76649553  1
  C  C31  1  0.47846405  0.71989165  0.76649553  1
  C  C32  1  0.23098226  0.47759488  0.29181018  1
  C  C33  1  0.23098226  0.52240512  0.70818982  1
  C  C34  1  0.76901774  0.52240512  0.29181018  1
  C  C35  1  0.76901774  0.47759488  0.70818982  1
  C  C36  1  0.27399528  0.21092385  0.47743984  1
  C  C37  1  0.72600472  0.21092385  0.52256016  1
  C  C38  1  0.27399528  0.78907615  0.52256016  1
  C  C39  1  0.72600472  0.78907615  0.47743984  1
