# generated using pymatgen
data_Cu23Ni6C7
_symmetry_space_group_name_H-M   'P 1'
_cell_length_a   9.70625663
_cell_length_b   9.70625663
_cell_length_c   9.94056700
_cell_angle_alpha   90.00000000
_cell_angle_beta   90.00000000
_cell_angle_gamma   120.00000430
_symmetry_Int_Tables_number   1
_chemical_formula_structural   Cu23Ni6C7
_chemical_formula_sum   'Cu23 Ni6 C7'
_cell_volume   811.04566849
_cell_formula_units_Z   1
loop_
 _symmetry_equiv_pos_site_id
 _symmetry_equiv_pos_as_xyz
  1  'x, y, z'
loop_
 _atom_site_type_symbol
 _atom_site_label
 _atom_site_symmetry_multiplicity
 _atom_site_fract_x
 _atom_site_fract_y
 _atom_site_fract_z
 _atom_site_occupancy
  C  C0  1  0.00000000  0.00000000  0.00000000  1
  C  C1  1  0.47897900  0.52102100  0.30597900  1
  C  C2  1  0.52102100  0.47897900  0.69402100  1
  C  C3  1  0.47897900  0.95795800  0.30597900  1
  C  C4  1  0.52102100  0.04204200  0.69402100  1
  C  C5  1  0.04204200  0.52102100  0.30597900  1
  C  C6  1  0.95795800  0.47897900  0.69402100  1
  Ni  Ni7  1  0.83241300  0.16758700  0.19803000  1
  Ni  Ni8  1  0.16758700  0.83241300  0.80197000  1
  Ni  Ni9  1  0.83241300  0.66482600  0.19803000  1
  Ni  Ni10  1  0.16758700  0.33517400  0.80197000  1
  Ni  Ni11  1  0.33517400  0.16758700  0.19803000  1
  Ni  Ni12  1  0.66482600  0.83241300  0.80197000  1
  Cu  Cu13  1  0.34672100  0.00000000  0.00000000  1
  Cu  Cu14  1  0.65327900  0.00000000  0.00000000  1
  Cu  Cu15  1  0.00000000  0.34672100  0.00000000  1
  Cu  Cu16  1  0.00000000  0.65327900  0.00000000  1
  Cu  Cu17  1  0.65327900  0.65327900  0.00000000  1
  Cu  Cu18  1  0.34672100  0.34672100  0.00000000  1
  Cu  Cu19  1  0.33333300  0.66666700  0.81880300  1
  Cu  Cu20  1  0.66666700  0.33333300  0.18119700  1
  Cu  Cu21  1  0.00000000  0.00000000  0.50000000  1
  Cu  Cu22  1  0.78109100  0.21890900  0.45375600  1
  Cu  Cu23  1  0.21890900  0.78109100  0.54624400  1
  Cu  Cu24  1  0.78109100  0.56218200  0.45375600  1
  Cu  Cu25  1  0.21890900  0.43781800  0.54624400  1
  Cu  Cu26  1  0.43781800  0.21890900  0.45375600  1
  Cu  Cu27  1  0.56218200  0.78109100  0.54624400  1
  Cu  Cu28  1  0.33333300  0.66666700  0.11563300  1
  Cu  Cu29  1  0.66666700  0.33333300  0.88436700  1
  Cu  Cu30  1  0.11774100  0.88225900  0.27567000  1
  Cu  Cu31  1  0.88225900  0.11774100  0.72433000  1
  Cu  Cu32  1  0.11774100  0.23548300  0.27567000  1
  Cu  Cu33  1  0.88225900  0.76451700  0.72433000  1
  Cu  Cu34  1  0.76451700  0.88225900  0.27567000  1
  Cu  Cu35  1  0.23548300  0.11774100  0.72433000  1
