# generated using pymatgen
data_CuNiC6
_symmetry_space_group_name_H-M   'P 1'
_cell_length_a   5.28104757
_cell_length_b   5.28104757
_cell_length_c   5.75182005
_cell_angle_alpha   62.67248750
_cell_angle_beta   62.67248750
_cell_angle_gamma   60.00000536
_symmetry_Int_Tables_number   1
_chemical_formula_structural   CuNiC6
_chemical_formula_sum   'Cu1 Ni1 C6'
_cell_volume   117.79860817
_cell_formula_units_Z   1
loop_
 _symmetry_equiv_pos_site_id
 _symmetry_equiv_pos_as_xyz
  1  'x, y, z'
loop_
 _atom_site_type_symbol
 _atom_site_label
 _atom_site_symmetry_multiplicity
 _atom_site_fract_x
 _atom_site_fract_y
 _atom_site_fract_z
 _atom_site_occupancy
  Ni  Ni0  1  0.50000000  0.50000000  0.50000000  1
  Cu  Cu1  1  0.00000000  0.00000000  0.00000000  1
  C  C2  1  0.62132700  0.22183700  0.23319200  1
  C  C3  1  0.92364400  0.62132700  0.23319200  1
  C  C4  1  0.77816300  0.07635600  0.76680800  1
  C  C5  1  0.07635600  0.37867300  0.76680800  1
  C  C6  1  0.37867300  0.77816300  0.76680800  1
  C  C7  1  0.22183700  0.92364400  0.23319200  1
