# generated using pymatgen
data_CuNiC8
_symmetry_space_group_name_H-M   'P 1'
_cell_length_a   5.31039500
_cell_length_b   5.52733100
_cell_length_c   7.61137400
_cell_angle_alpha   90.00000000
_cell_angle_beta   90.00000000
_cell_angle_gamma   90.00000000
_symmetry_Int_Tables_number   1
_chemical_formula_structural   CuNiC8
_chemical_formula_sum   'Cu2 Ni2 C16'
_cell_volume   223.41141607
_cell_formula_units_Z   2
loop_
 _symmetry_equiv_pos_site_id
 _symmetry_equiv_pos_as_xyz
  1  'x, y, z'
loop_
 _atom_site_type_symbol
 _atom_site_label
 _atom_site_symmetry_multiplicity
 _atom_site_fract_x
 _atom_site_fract_y
 _atom_site_fract_z
 _atom_site_occupancy
  Ni  Ni0  1  0.49383200  0.71387300  0.50000000  1
  Ni  Ni1  1  0.99383200  0.28612700  0.00000000  1
  Cu  Cu2  1  0.01874100  0.17850900  0.50000000  1
  Cu  Cu3  1  0.51874100  0.82149100  0.00000000  1
  C  C4  1  0.51215800  0.26388300  0.75281000  1
  C  C5  1  0.01215800  0.73611700  0.25281000  1
  C  C6  1  0.51215800  0.26388300  0.24719000  1
  C  C7  1  0.01215800  0.73611700  0.74719000  1
  C  C8  1  0.18912600  0.44415000  0.69546600  1
  C  C9  1  0.27843600  0.96426700  0.29238800  1
  C  C10  1  0.77843600  0.03573300  0.20761200  1
  C  C11  1  0.68912600  0.55585000  0.80453400  1
  C  C12  1  0.77843600  0.03573300  0.79238800  1
  C  C13  1  0.68912600  0.55585000  0.19546600  1
  C  C14  1  0.18912600  0.44415000  0.30453400  1
  C  C15  1  0.27843600  0.96426700  0.70761200  1
  C  C16  1  0.92113900  0.77758000  0.50000000  1
  C  C17  1  0.60684800  0.27523700  0.50000000  1
  C  C18  1  0.10684800  0.72476300  0.00000000  1
  C  C19  1  0.42113900  0.22242000  0.00000000  1
