# generated using pymatgen
data_Cu2NiC
_symmetry_space_group_name_H-M   'P 1'
_cell_length_a   3.81339000
_cell_length_b   6.54915000
_cell_length_c   6.69915132
_cell_angle_alpha   110.57985040
_cell_angle_beta   90.00000000
_cell_angle_gamma   90.00000000
_symmetry_Int_Tables_number   1
_chemical_formula_structural   Cu2NiC
_chemical_formula_sum   'Cu4 Ni2 C2'
_cell_volume   156.63066705
_cell_formula_units_Z   2
loop_
 _symmetry_equiv_pos_site_id
 _symmetry_equiv_pos_as_xyz
  1  'x, y, z'
loop_
 _atom_site_type_symbol
 _atom_site_label
 _atom_site_symmetry_multiplicity
 _atom_site_fract_x
 _atom_site_fract_y
 _atom_site_fract_z
 _atom_site_occupancy
  C  C0  1  0.75000000  0.30883600  0.16417900  1
  C  C1  1  0.25000000  0.69116400  0.83582100  1
  Ni  Ni2  1  0.25000000  0.26403100  0.47738600  1
  Ni  Ni3  1  0.75000000  0.73596900  0.52261400  1
  Cu  Cu4  1  0.25000000  0.08476100  0.95671200  1
  Cu  Cu5  1  0.75000000  0.91523900  0.04328800  1
  Cu  Cu6  1  0.25000000  0.54462000  0.11829100  1
  Cu  Cu7  1  0.75000000  0.45538000  0.88170900  1
