# generated using pymatgen
data_Cu9(NiC)2
_symmetry_space_group_name_H-M   'P 1'
_cell_length_a   8.60910200
_cell_length_b   10.68806905
_cell_length_c   10.19704242
_cell_angle_alpha   120.35860132
_cell_angle_beta   90.00000000
_cell_angle_gamma   90.00000000
_symmetry_Int_Tables_number   1
_chemical_formula_structural   Cu9(NiC)2
_chemical_formula_sum   'Cu36 Ni8 C8'
_cell_volume   809.62007449
_cell_formula_units_Z   4
loop_
 _symmetry_equiv_pos_site_id
 _symmetry_equiv_pos_as_xyz
  1  'x, y, z'
loop_
 _atom_site_type_symbol
 _atom_site_label
 _atom_site_symmetry_multiplicity
 _atom_site_fract_x
 _atom_site_fract_y
 _atom_site_fract_z
 _atom_site_occupancy
  C  C0  1  0.33507800  0.67981100  0.95985700  1
  C  C1  1  0.66492200  0.32018900  0.04014300  1
  C  C2  1  0.83507800  0.82018900  0.54014300  1
  C  C3  1  0.16492200  0.17981100  0.45985700  1
  C  C4  1  0.37115400  0.97017400  0.71863300  1
  C  C5  1  0.62884600  0.02982600  0.28136700  1
  C  C6  1  0.87115400  0.52982600  0.78136700  1
  C  C7  1  0.12884600  0.47017400  0.21863300  1
  Ni  Ni8  1  0.13184700  0.31442700  0.87559300  1
  Ni  Ni9  1  0.86815300  0.68557300  0.12440700  1
  Ni  Ni10  1  0.63184700  0.18557300  0.62440700  1
  Ni  Ni11  1  0.36815300  0.81442700  0.37559300  1
  Ni  Ni12  1  0.19633900  0.61169800  0.59847700  1
  Ni  Ni13  1  0.80366100  0.38830200  0.40152300  1
  Ni  Ni14  1  0.69633900  0.88830200  0.90152300  1
  Ni  Ni15  1  0.30366100  0.11169800  0.09847700  1
  Cu  Cu16  1  0.79268000  0.02125900  0.97443900  1
  Cu  Cu17  1  0.20732000  0.97874100  0.02556100  1
  Cu  Cu18  1  0.29268000  0.47874100  0.52556100  1
  Cu  Cu19  1  0.70732000  0.52125900  0.47443900  1
  Cu  Cu20  1  0.20302300  0.17424400  0.76359400  1
  Cu  Cu21  1  0.79697700  0.82575600  0.23640600  1
  Cu  Cu22  1  0.70302300  0.32575600  0.73640600  1
  Cu  Cu23  1  0.29697700  0.67424400  0.26359400  1
  Cu  Cu24  1  0.29795800  0.74340200  0.68204600  1
  Cu  Cu25  1  0.70204200  0.25659800  0.31795400  1
  Cu  Cu26  1  0.79795800  0.75659800  0.81795400  1
  Cu  Cu27  1  0.20204200  0.24340200  0.18204600  1
  Cu  Cu28  1  0.39526500  0.12423900  0.98173000  1
  Cu  Cu29  1  0.60473500  0.87576100  0.01827000  1
  Cu  Cu30  1  0.89526500  0.37576100  0.51827000  1
  Cu  Cu31  1  0.10473500  0.62423900  0.48173000  1
  Cu  Cu32  1  0.11960800  0.93909600  0.77921100  1
  Cu  Cu33  1  0.88039200  0.06090400  0.22078900  1
  Cu  Cu34  1  0.61960800  0.56090400  0.72078900  1
  Cu  Cu35  1  0.38039200  0.43909600  0.27921100  1
  Cu  Cu36  1  0.25204900  0.41665600  0.98441500  1
  Cu  Cu37  1  0.74795100  0.58334400  0.01558500  1
  Cu  Cu38  1  0.75204900  0.08334400  0.51558500  1
  Cu  Cu39  1  0.24795100  0.91665600  0.48441500  1
  Cu  Cu40  1  0.01281500  0.30071800  0.97354500  1
  Cu  Cu41  1  0.98718500  0.69928200  0.02645500  1
  Cu  Cu42  1  0.51281500  0.19928200  0.52645500  1
  Cu  Cu43  1  0.48718500  0.80071800  0.47354500  1
  Cu  Cu44  1  0.06142300  0.37856900  0.78897700  1
  Cu  Cu45  1  0.93857700  0.62143100  0.21102300  1
  Cu  Cu46  1  0.56142300  0.12143100  0.71102300  1
  Cu  Cu47  1  0.43857700  0.87856900  0.28897700  1
  Cu  Cu48  1  0.59340800  0.89110000  0.78650700  1
  Cu  Cu49  1  0.40659200  0.10890000  0.21349300  1
  Cu  Cu50  1  0.09340800  0.60890000  0.71349300  1
  Cu  Cu51  1  0.90659200  0.39110000  0.28650700  1
