# generated using pymatgen
data_Cu8Ni3C2
_symmetry_space_group_name_H-M   'P 1'
_cell_length_a   5.46569700
_cell_length_b   11.32680900
_cell_length_c   16.62838753
_cell_angle_alpha   76.23866295
_cell_angle_beta   90.00000000
_cell_angle_gamma   90.00000000
_symmetry_Int_Tables_number   1
_chemical_formula_structural   Cu8Ni3C2
_chemical_formula_sum   'Cu32 Ni12 C8'
_cell_volume   999.89507396
_cell_formula_units_Z   4
loop_
 _symmetry_equiv_pos_site_id
 _symmetry_equiv_pos_as_xyz
  1  'x, y, z'
loop_
 _atom_site_type_symbol
 _atom_site_label
 _atom_site_symmetry_multiplicity
 _atom_site_fract_x
 _atom_site_fract_y
 _atom_site_fract_z
 _atom_site_occupancy
  C  C0  1  0.74195900  0.33256000  0.59673600  1
  C  C1  1  0.74195900  0.66744000  0.40326400  1
  C  C2  1  0.75582600  0.16393600  0.90592200  1
  C  C3  1  0.75582600  0.83606400  0.09407800  1
  C  C4  1  0.21874400  0.33665100  0.10113000  1
  C  C5  1  0.21874400  0.66334900  0.89887000  1
  C  C6  1  0.28386200  0.16590600  0.39728400  1
  C  C7  1  0.28386200  0.83409400  0.60271600  1
  Ni  Ni8  1  0.86469500  0.39309400  0.31819700  1
  Ni  Ni9  1  0.86469500  0.60690600  0.68180300  1
  Ni  Ni10  1  0.32864500  0.10532700  0.68699500  1
  Ni  Ni11  1  0.32864500  0.89467300  0.31300500  1
  Ni  Ni12  1  0.62477800  0.10415500  0.18198300  1
  Ni  Ni13  1  0.62477800  0.89584500  0.81801700  1
  Ni  Ni14  1  0.15962000  0.39626200  0.80799500  1
  Ni  Ni15  1  0.15962000  0.60373800  0.19200500  1
  Ni  Ni16  1  0.18513400  0.50000000  0.50000000  1
  Ni  Ni17  1  0.75027900  0.50000000  0.00000000  1
  Ni  Ni18  1  0.32632600  0.00000000  0.00000000  1
  Ni  Ni19  1  0.74926000  0.00000000  0.50000000  1
  Cu  Cu20  1  0.95214500  0.37961300  0.82082600  1
  Cu  Cu21  1  0.95214500  0.62038700  0.17917400  1
  Cu  Cu22  1  0.99763300  0.30272100  0.14816900  1
  Cu  Cu23  1  0.99763300  0.69727900  0.85183100  1
  Cu  Cu24  1  0.10391100  0.09355200  0.36725000  1
  Cu  Cu25  1  0.10391100  0.90644800  0.63275000  1
  Cu  Cu26  1  0.40395400  0.40501300  0.13208900  1
  Cu  Cu27  1  0.40395400  0.59498700  0.86791100  1
  Cu  Cu28  1  0.56582000  0.40207100  0.63072400  1
  Cu  Cu29  1  0.56582000  0.59792900  0.36927600  1
  Cu  Cu30  1  0.06846500  0.38005700  0.33828900  1
  Cu  Cu31  1  0.06846500  0.61994300  0.66171100  1
  Cu  Cu32  1  0.50239500  0.20274500  0.34921600  1
  Cu  Cu33  1  0.50239500  0.79725500  0.65078400  1
  Cu  Cu34  1  0.93158000  0.09121000  0.87472400  1
  Cu  Cu35  1  0.93158000  0.90879000  0.12527600  1
  Cu  Cu36  1  0.53765000  0.11730000  0.67530700  1
  Cu  Cu37  1  0.53765000  0.88270000  0.32469300  1
  Cu  Cu38  1  0.41652100  0.12045100  0.17027300  1
  Cu  Cu39  1  0.41652100  0.87954900  0.82972700  1
  Cu  Cu40  1  0.96991100  0.29835900  0.63946200  1
  Cu  Cu41  1  0.96991100  0.70164100  0.36053800  1
  Cu  Cu42  1  0.53085100  0.19854200  0.86160200  1
  Cu  Cu43  1  0.53085100  0.80145800  0.13839800  1
  Cu  Cu44  1  0.79102400  0.18795600  0.98626900  1
  Cu  Cu45  1  0.79102400  0.81204400  0.01373100  1
  Cu  Cu46  1  0.23799800  0.32057100  0.01798300  1
  Cu  Cu47  1  0.23799800  0.67942900  0.98201700  1
  Cu  Cu48  1  0.70755700  0.31462800  0.51459400  1
  Cu  Cu49  1  0.70755700  0.68537200  0.48540600  1
  Cu  Cu50  1  0.26655700  0.18071900  0.48081100  1
  Cu  Cu51  1  0.26655700  0.81928100  0.51918900  1
