# generated using pymatgen
data_Cu(NiC6)5
_symmetry_space_group_name_H-M   'P 1'
_cell_length_a   8.49982260
_cell_length_b   8.61823509
_cell_length_c   8.61823591
_cell_angle_alpha   60.00000196
_cell_angle_beta   59.53807818
_cell_angle_gamma   59.53808101
_symmetry_Int_Tables_number   1
_chemical_formula_structural   Cu(NiC6)5
_chemical_formula_sum   'Cu1 Ni5 C30'
_cell_volume   443.26539016
_cell_formula_units_Z   1
loop_
 _symmetry_equiv_pos_site_id
 _symmetry_equiv_pos_as_xyz
  1  'x, y, z'
loop_
 _atom_site_type_symbol
 _atom_site_label
 _atom_site_symmetry_multiplicity
 _atom_site_fract_x
 _atom_site_fract_y
 _atom_site_fract_z
 _atom_site_occupancy
  Ni  Ni0  1  0.99450500  0.00183200  0.00183200  1
  Ni  Ni1  1  0.06925400  0.64358200  0.64358200  1
  Ni  Ni2  1  0.49755200  0.50081600  0.50081600  1
  Ni  Ni3  1  0.42699700  0.85766800  0.85766800  1
  Ni  Ni4  1  0.93014300  0.35661900  0.35661900  1
  Cu  Cu5  1  0.56903800  0.14365400  0.14365400  1
  C  C6  1  0.25179600  0.24863400  0.54412600  1
  C  C7  1  0.25179600  0.95544300  0.24863400  1
  C  C8  1  0.25179600  0.54412600  0.95544300  1
  C  C9  1  0.75062400  0.45558600  0.04422800  1
  C  C10  1  0.75062400  0.04422800  0.74956200  1
  C  C11  1  0.75062400  0.74956200  0.45558600  1
  C  C12  1  0.06894800  0.11308900  0.31724300  1
  C  C13  1  0.06894800  0.50072000  0.11308900  1
  C  C14  1  0.06894800  0.31724300  0.50072000  1
  C  C15  1  0.21648300  0.09367200  0.74997200  1
  C  C16  1  0.43781100  0.18185300  0.39541800  1
  C  C17  1  0.26860500  0.40895800  0.56993200  1
  C  C18  1  0.21648300  0.93987400  0.09367200  1
  C  C19  1  0.26860500  0.75250600  0.40895800  1
  C  C20  1  0.56754400  0.61273400  0.00402000  1
  C  C21  1  0.26860500  0.56993200  0.75250600  1
  C  C22  1  0.78802400  0.25599700  0.05306100  1
  C  C23  1  0.56754400  0.00402000  0.81570400  1
  C  C24  1  0.43781100  0.98491800  0.18185300  1
  C  C25  1  0.21648300  0.74997200  0.93987400  1
  C  C26  1  0.72452700  0.43794300  0.24585600  1
  C  C27  1  0.43781100  0.39541800  0.98491800  1
  C  C28  1  0.72452700  0.24585600  0.59167400  1
  C  C29  1  0.78802400  0.05306100  0.90291800  1
  C  C30  1  0.72452700  0.59167400  0.43794300  1
  C  C31  1  0.56754400  0.81570400  0.61273400  1
  C  C32  1  0.78802400  0.90291800  0.25599700  1
  C  C33  1  0.92980900  0.67250900  0.50935000  1
  C  C34  1  0.92980900  0.50935000  0.88833300  1
  C  C35  1  0.92980900  0.88833300  0.67250900  1
