# generated using pymatgen
data_CuNi7C6
_symmetry_space_group_name_H-M   'P 1'
_cell_length_a   6.04668775
_cell_length_b   10.52803933
_cell_length_c   6.04971734
_cell_angle_alpha   89.67937701
_cell_angle_beta   118.95214749
_cell_angle_gamma   73.32932932
_symmetry_Int_Tables_number   1
_chemical_formula_structural   CuNi7C6
_chemical_formula_sum   'Cu2 Ni14 C12'
_cell_volume   317.99819557
_cell_formula_units_Z   2
loop_
 _symmetry_equiv_pos_site_id
 _symmetry_equiv_pos_as_xyz
  1  'x, y, z'
loop_
 _atom_site_type_symbol
 _atom_site_label
 _atom_site_symmetry_multiplicity
 _atom_site_fract_x
 _atom_site_fract_y
 _atom_site_fract_z
 _atom_site_occupancy
  C  C0  1  0.76486200  0.38102400  0.86503100  1
  C  C1  1  0.76350700  0.87839100  0.36268300  1
  C  C2  1  0.99311200  0.99659300  0.01110000  1
  C  C3  1  0.37339100  0.68970100  0.92903600  1
  C  C4  1  0.38513000  0.18737400  0.43307500  1
  C  C5  1  0.37170800  0.18328600  0.94737100  1
  C  C6  1  0.86967200  0.18460100  0.45206000  1
  C  C7  1  0.99491000  0.49393300  0.50454700  1
  C  C8  1  0.36860900  0.68302700  0.43847200  1
  C  C9  1  0.86750500  0.68409200  0.94090400  1
  C  C10  1  0.36430300  0.93947500  0.69347400  1
  C  C11  1  0.37158700  0.43756500  0.19855500  1
  Ni  Ni12  1  0.12492200  0.06596900  0.81358000  1
  Ni  Ni13  1  0.12052400  0.56205700  0.29807200  1
  Ni  Ni14  1  0.16088000  0.81300300  0.58758300  1
  Ni  Ni15  1  0.16281300  0.31350700  0.06902600  1
  Ni  Ni16  1  0.62050600  0.58019000  0.81686700  1
  Ni  Ni17  1  0.62790100  0.07721300  0.29502400  1
  Ni  Ni18  1  0.61533400  0.81132300  0.02566400  1
  Ni  Ni19  1  0.62086100  0.31349200  0.53687500  1
  Ni  Ni20  1  0.13261900  0.06332000  0.33939700  1
  Ni  Ni21  1  0.12423600  0.56674000  0.82889200  1
  Ni  Ni22  1  0.59987700  0.06347100  0.80540900  1
  Ni  Ni23  1  0.60058800  0.56311000  0.28697100  1
  Ni  Ni24  1  0.13326600  0.29643200  0.57381600  1
  Ni  Ni25  1  0.12381100  0.79942100  0.05460700  1
  Cu  Cu26  1  0.61936700  0.81157200  0.56779100  1
  Cu  Cu27  1  0.62420300  0.31011000  0.07411700  1
