# generated using pymatgen
data_CuNi2C5
_symmetry_space_group_name_H-M   'P 1'
_cell_length_a   7.25767900
_cell_length_b   7.76742100
_cell_length_c   11.58261400
_cell_angle_alpha   90.00000000
_cell_angle_beta   90.00000000
_cell_angle_gamma   90.00000000
_symmetry_Int_Tables_number   1
_chemical_formula_structural   CuNi2C5
_chemical_formula_sum   'Cu4 Ni8 C20'
_cell_volume   652.95189123
_cell_formula_units_Z   4
loop_
 _symmetry_equiv_pos_site_id
 _symmetry_equiv_pos_as_xyz
  1  'x, y, z'
loop_
 _atom_site_type_symbol
 _atom_site_label
 _atom_site_symmetry_multiplicity
 _atom_site_fract_x
 _atom_site_fract_y
 _atom_site_fract_z
 _atom_site_occupancy
  Ni  Ni0  1  0.52158400  0.49755000  0.32103400  1
  Ni  Ni1  1  0.97841600  0.00245000  0.82103400  1
  Ni  Ni2  1  0.47841600  0.99755000  0.67896600  1
  Ni  Ni3  1  0.02158400  0.50245000  0.17896600  1
  Ni  Ni4  1  0.47841600  0.50245000  0.67896600  1
  Ni  Ni5  1  0.02158400  0.99755000  0.17896600  1
  Ni  Ni6  1  0.52158400  0.00245000  0.32103400  1
  Ni  Ni7  1  0.97841600  0.49755000  0.82103400  1
  Cu  Cu8  1  0.07933200  0.75000000  0.49300200  1
  Cu  Cu9  1  0.42066800  0.75000000  0.99300200  1
  Cu  Cu10  1  0.92066800  0.25000000  0.50699800  1
  Cu  Cu11  1  0.57933200  0.25000000  0.00699800  1
  C  C12  1  0.83941300  0.96212300  0.59471900  1
  C  C13  1  0.66058700  0.53787700  0.09471900  1
  C  C14  1  0.16058700  0.46212300  0.40528100  1
  C  C15  1  0.33941300  0.03787700  0.90528100  1
  C  C16  1  0.16058700  0.03787700  0.40528100  1
  C  C17  1  0.33941300  0.46212300  0.90528100  1
  C  C18  1  0.83941300  0.53787700  0.59471900  1
  C  C19  1  0.66058700  0.96212300  0.09471900  1
  C  C20  1  0.83131600  0.75000000  0.31742200  1
  C  C21  1  0.66868400  0.75000000  0.81742200  1
  C  C22  1  0.16868400  0.25000000  0.68257800  1
  C  C23  1  0.33131600  0.25000000  0.18257800  1
  C  C24  1  0.45053100  0.75000000  0.49740500  1
  C  C25  1  0.04946900  0.75000000  0.99740500  1
  C  C26  1  0.54946900  0.25000000  0.50259500  1
  C  C27  1  0.95053100  0.25000000  0.00259500  1
  C  C28  1  0.19182100  0.75000000  0.70887300  1
  C  C29  1  0.30817900  0.75000000  0.20887300  1
  C  C30  1  0.80817900  0.25000000  0.29112700  1
  C  C31  1  0.69182100  0.25000000  0.79112700  1
