# generated using pymatgen
data_Cu2Ni8C21
_symmetry_space_group_name_H-M   'P 1'
_cell_length_a   9.17226762
_cell_length_b   9.17226762
_cell_length_c   16.43685393
_cell_angle_alpha   74.21793689
_cell_angle_beta   74.21793689
_cell_angle_gamma   60.15649977
_symmetry_Int_Tables_number   1
_chemical_formula_structural   Cu2Ni8C21
_chemical_formula_sum   'Cu4 Ni16 C42'
_cell_volume   1138.67411318
_cell_formula_units_Z   2
loop_
 _symmetry_equiv_pos_site_id
 _symmetry_equiv_pos_as_xyz
  1  'x, y, z'
loop_
 _atom_site_type_symbol
 _atom_site_label
 _atom_site_symmetry_multiplicity
 _atom_site_fract_x
 _atom_site_fract_y
 _atom_site_fract_z
 _atom_site_occupancy
  C  C0  1  0.08657500  0.83647500  0.35574900  1
  C  C1  1  0.83647500  0.08657500  0.85574900  1
  C  C2  1  0.20694000  0.88460300  0.14055500  1
  C  C3  1  0.88460300  0.20694000  0.64055500  1
  C  C4  1  0.02968600  0.06068300  0.01494000  1
  C  C5  1  0.06068300  0.02968600  0.51494000  1
  C  C6  1  0.12088200  0.16861100  0.02539300  1
  C  C7  1  0.16861100  0.12088200  0.52539300  1
  C  C8  1  0.24534700  0.30502000  0.45078900  1
  C  C9  1  0.30502000  0.24534700  0.95078900  1
  C  C10  1  0.40519600  0.13306600  0.48409700  1
  C  C11  1  0.13306600  0.40519600  0.98409700  1
  C  C12  1  0.02947900  0.65679900  0.03939500  1
  C  C13  1  0.65679900  0.02947900  0.53939500  1
  C  C14  1  0.98106200  0.69342300  0.94886700  1
  C  C15  1  0.69342300  0.98106200  0.44886700  1
  Ni  Ni16  1  0.68081800  0.56012900  0.41484600  1
  Ni  Ni17  1  0.56012900  0.68081800  0.91484600  1
  Ni  Ni18  1  0.76888800  0.38569200  0.42136400  1
  Ni  Ni19  1  0.38569200  0.76888800  0.92136400  1
  Ni  Ni20  1  0.83521400  0.51569300  0.18091700  1
  Ni  Ni21  1  0.51569300  0.83521400  0.68091700  1
  Ni  Ni22  1  0.76574200  0.48815500  0.34139700  1
  Ni  Ni23  1  0.48815500  0.76574200  0.84139700  1
  Ni  Ni24  1  0.44441200  0.33190400  0.22815800  1
  Ni  Ni25  1  0.33190400  0.44441200  0.72815800  1
  Ni  Ni26  1  0.64017800  0.95782500  0.11094000  1
  Ni  Ni27  1  0.95782500  0.64017800  0.61094000  1
  Ni  Ni28  1  0.49667900  0.40118500  0.14742600  1
  Ni  Ni29  1  0.40118500  0.49667900  0.64742600  1
  Ni  Ni30  1  0.51780900  0.23668600  0.16192100  1
  Ni  Ni31  1  0.23668600  0.51780900  0.66192100  1
  Cu  Cu32  1  0.80796600  0.50323400  0.25723600  1
  Cu  Cu33  1  0.50323400  0.80796600  0.75723600  1
  Cu  Cu34  1  0.57302100  0.09292000  0.13447500  1
  Cu  Cu35  1  0.09292000  0.57302100  0.63447500  1
  C  C36  1  0.86820300  0.87021100  0.34935200  1
  C  C37  1  0.87021100  0.86820300  0.84935200  1
  C  C38  1  0.91431100  0.98542200  0.28613900  1
  C  C39  1  0.98542200  0.91431100  0.78613900  1
  C  C40  1  0.07084300  0.93368100  0.42929600  1
  C  C41  1  0.93368100  0.07084300  0.92929600  1
  C  C42  1  0.24937200  0.88097900  0.25300600  1
  C  C43  1  0.88097900  0.24937200  0.75300600  1
  C  C44  1  0.18266000  0.04678300  0.19957100  1
  C  C45  1  0.04678300  0.18266000  0.69957100  1
  C  C46  1  0.07515700  0.77924800  0.12355400  1
  C  C47  1  0.77924800  0.07515700  0.62355400  1
  C  C48  1  0.16061600  0.68726800  0.18963700  1
  C  C49  1  0.68726800  0.16061600  0.68963700  1
  C  C50  1  0.39394200  0.81120500  0.08463000  1
  C  C51  1  0.81120500  0.39394200  0.58463000  1
  C  C52  1  0.14345300  0.59997300  0.40680900  1
  C  C53  1  0.59997300  0.14345300  0.90680900  1
  C  C54  1  0.28753100  0.61077100  0.36416600  1
  C  C55  1  0.61077100  0.28753100  0.86416600  1
  C  C56  1  0.07063500  0.08218500  0.05820800  1
  C  C57  1  0.08218500  0.07063500  0.55820800  1
  C  C58  1  0.28325800  0.18562000  0.47595000  1
  C  C59  1  0.18562000  0.28325800  0.97595000  1
  C  C60  1  0.05196000  0.60507700  0.99004700  1
  C  C61  1  0.60507700  0.05196000  0.49004700  1
