# generated using pymatgen
data_Cu4NiC
_symmetry_space_group_name_H-M   'P 1'
_cell_length_a   13.50114500
_cell_length_b   5.49625500
_cell_length_c   10.18016136
_cell_angle_alpha   60.70701716
_cell_angle_beta   90.00000000
_cell_angle_gamma   90.00000000
_symmetry_Int_Tables_number   1
_chemical_formula_structural   Cu4NiC
_chemical_formula_sum   'Cu32 Ni8 C8'
_cell_volume   658.82939124
_cell_formula_units_Z   8
loop_
 _symmetry_equiv_pos_site_id
 _symmetry_equiv_pos_as_xyz
  1  'x, y, z'
loop_
 _atom_site_type_symbol
 _atom_site_label
 _atom_site_symmetry_multiplicity
 _atom_site_fract_x
 _atom_site_fract_y
 _atom_site_fract_z
 _atom_site_occupancy
  C  C0  1  0.08830800  0.59025300  0.65611900  1
  C  C1  1  0.58830800  0.40974700  0.84388100  1
  C  C2  1  0.91169200  0.40974700  0.34388100  1
  C  C3  1  0.41169200  0.59025300  0.15611900  1
  C  C4  1  0.34855800  0.09029700  0.68689500  1
  C  C5  1  0.84855800  0.90970300  0.81310500  1
  C  C6  1  0.65144200  0.90970300  0.31310500  1
  C  C7  1  0.15144200  0.09029700  0.18689500  1
  Ni  Ni8  1  0.11669000  0.82324700  0.92006700  1
  Ni  Ni9  1  0.61669000  0.17675300  0.57993300  1
  Ni  Ni10  1  0.88331000  0.17675300  0.07993300  1
  Ni  Ni11  1  0.38331000  0.82324700  0.42006700  1
  Ni  Ni12  1  0.33740000  0.36019000  0.88695400  1
  Ni  Ni13  1  0.83740000  0.63981000  0.61304600  1
  Ni  Ni14  1  0.66260000  0.63981000  0.11304600  1
  Ni  Ni15  1  0.16260000  0.36019000  0.38695400  1
  Cu  Cu16  1  0.03334500  0.93611200  0.81116600  1
  Cu  Cu17  1  0.53334500  0.06388800  0.68883400  1
  Cu  Cu18  1  0.96665500  0.06388800  0.18883400  1
  Cu  Cu19  1  0.46665500  0.93611200  0.31116600  1
  Cu  Cu20  1  0.37864800  0.96870000  0.51023000  1
  Cu  Cu21  1  0.87864800  0.03130000  0.98977000  1
  Cu  Cu22  1  0.62135200  0.03130000  0.48977000  1
  Cu  Cu23  1  0.12135200  0.96870000  0.01023000  1
  Cu  Cu24  1  0.10128400  0.51999800  0.02159500  1
  Cu  Cu25  1  0.60128400  0.48000200  0.47840500  1
  Cu  Cu26  1  0.89871600  0.48000200  0.97840500  1
  Cu  Cu27  1  0.39871600  0.51999800  0.52159500  1
  Cu  Cu28  1  0.21125500  0.86371100  0.83732700  1
  Cu  Cu29  1  0.71125500  0.13628900  0.66267300  1
  Cu  Cu30  1  0.78874500  0.13628900  0.16267300  1
  Cu  Cu31  1  0.28874500  0.86371100  0.33732700  1
  Cu  Cu32  1  0.23316500  0.41575900  0.26407500  1
  Cu  Cu33  1  0.73316500  0.58424100  0.23592500  1
  Cu  Cu34  1  0.76683500  0.58424100  0.73592500  1
  Cu  Cu35  1  0.26683500  0.41575900  0.76407500  1
  Cu  Cu36  1  0.29063300  0.25794400  0.03582300  1
  Cu  Cu37  1  0.79063300  0.74205600  0.46417700  1
  Cu  Cu38  1  0.70936700  0.74205600  0.96417700  1
  Cu  Cu39  1  0.20936700  0.25794400  0.53582300  1
  Cu  Cu40  1  0.10335900  0.61530200  0.35182600  1
  Cu  Cu41  1  0.60335900  0.38469800  0.14817400  1
  Cu  Cu42  1  0.89664100  0.38469800  0.64817400  1
  Cu  Cu43  1  0.39664100  0.61530200  0.85182600  1
  Cu  Cu44  1  0.09362500  0.13924600  0.39251100  1
  Cu  Cu45  1  0.59362500  0.86075400  0.10748900  1
  Cu  Cu46  1  0.90637500  0.86075400  0.60748900  1
  Cu  Cu47  1  0.40637500  0.13924600  0.89251100  1
