# generated using pymatgen
data_CuNi2C13
_symmetry_space_group_name_H-M   'P 1'
_cell_length_a   5.76974807
_cell_length_b   6.49779168
_cell_length_c   7.80521420
_cell_angle_alpha   94.22163292
_cell_angle_beta   99.86833171
_cell_angle_gamma   77.20872754
_symmetry_Int_Tables_number   1
_chemical_formula_structural   CuNi2C13
_chemical_formula_sum   'Cu2 Ni4 C26'
_cell_volume   280.94438002
_cell_formula_units_Z   2
loop_
 _symmetry_equiv_pos_site_id
 _symmetry_equiv_pos_as_xyz
  1  'x, y, z'
loop_
 _atom_site_type_symbol
 _atom_site_label
 _atom_site_symmetry_multiplicity
 _atom_site_fract_x
 _atom_site_fract_y
 _atom_site_fract_z
 _atom_site_occupancy
  C  C0  1  0.87595000  0.75015500  0.24966600  1
  C  C1  1  0.37405000  0.74983800  0.25033300  1
  C  C2  1  0.06753400  0.10770500  0.37488300  1
  C  C3  1  0.56517100  0.10583000  0.37082800  1
  C  C4  1  0.18246600  0.39229300  0.12511500  1
  C  C5  1  0.68482700  0.39417200  0.12917300  1
  C  C6  1  0.82222900  0.62909100  0.88795200  1
  C  C7  1  0.31918300  0.62977400  0.88797600  1
  C  C8  1  0.93081800  0.87022500  0.61202300  1
  C  C9  1  0.42776900  0.87090400  0.61204800  1
  Ni  Ni10  1  0.50726300  0.98592500  0.00594600  1
  Ni  Ni11  1  0.74275900  0.51408700  0.49406400  1
  Ni  Ni12  1  0.00893800  0.98830500  0.00605300  1
  Ni  Ni13  1  0.24106200  0.51169000  0.49393600  1
  Cu  Cu14  1  0.62500100  0.25000100  0.74999500  1
  Cu  Cu15  1  0.12499800  0.24999200  0.74999900  1
  C  C16  1  0.27895000  0.05957700  0.16596600  1
  C  C17  1  0.77539500  0.06369900  0.16407500  1
  C  C18  1  0.97104400  0.44042000  0.33403400  1
  C  C19  1  0.47461100  0.43630200  0.33593400  1
  C  C20  1  0.02034300  0.55595900  0.66520700  1
  C  C21  1  0.52160000  0.55215400  0.66651700  1
  C  C22  1  0.72839400  0.94784300  0.83347800  1
  C  C23  1  0.22966000  0.94404200  0.83479900  1
  C  C24  1  0.65890100  0.79340600  0.44438000  1
  C  C25  1  0.16062300  0.79118600  0.44380900  1
  C  C26  1  0.08936900  0.70881300  0.05618700  1
  C  C27  1  0.59109400  0.70662000  0.05561900  1
  C  C28  1  0.91992500  0.29401000  0.92461200  1
  C  C29  1  0.40621000  0.29404600  0.92007800  1
  C  C30  1  0.33007300  0.20598500  0.57538600  1
  C  C31  1  0.84379000  0.20595100  0.57992800  1
