# generated using pymatgen
data_Cu4Ni6C5
_symmetry_space_group_name_H-M   'P 1'
_cell_length_a   9.33316200
_cell_length_b   4.26033400
_cell_length_c   16.59559478
_cell_angle_alpha   86.80350653
_cell_angle_beta   90.00000000
_cell_angle_gamma   90.00000000
_symmetry_Int_Tables_number   1
_chemical_formula_structural   Cu4Ni6C5
_chemical_formula_sum   'Cu8 Ni12 C10'
_cell_volume   658.85381262
_cell_formula_units_Z   2
loop_
 _symmetry_equiv_pos_site_id
 _symmetry_equiv_pos_as_xyz
  1  'x, y, z'
loop_
 _atom_site_type_symbol
 _atom_site_label
 _atom_site_symmetry_multiplicity
 _atom_site_fract_x
 _atom_site_fract_y
 _atom_site_fract_z
 _atom_site_occupancy
  C  C0  1  0.75000000  0.76331100  0.47383000  1
  C  C1  1  0.25000000  0.23668900  0.52617000  1
  C  C2  1  0.75000000  0.75172600  0.98665800  1
  C  C3  1  0.25000000  0.24827400  0.01334200  1
  C  C4  1  0.50648200  0.31705400  0.23737600  1
  C  C5  1  0.00648200  0.68294600  0.76262400  1
  C  C6  1  0.49351800  0.68294600  0.76262400  1
  C  C7  1  0.99351800  0.31705400  0.23737600  1
  C  C8  1  0.75000000  0.09067700  0.74249400  1
  C  C9  1  0.25000000  0.90932300  0.25750600  1
  Ni  Ni10  1  0.75000000  0.78697700  0.28939000  1
  Ni  Ni11  1  0.25000000  0.21302300  0.71061000  1
  Ni  Ni12  1  0.75000000  0.23967200  0.10799600  1
  Ni  Ni13  1  0.25000000  0.76032800  0.89200400  1
  Ni  Ni14  1  0.44873900  0.73010200  0.08471100  1
  Ni  Ni15  1  0.94873900  0.26989800  0.91528900  1
  Ni  Ni16  1  0.55126100  0.26989800  0.91528900  1
  Ni  Ni17  1  0.05126100  0.73010200  0.08471100  1
  Ni  Ni18  1  0.52825500  0.26559100  0.41717200  1
  Ni  Ni19  1  0.02825500  0.73440900  0.58282800  1
  Ni  Ni20  1  0.47174500  0.73440900  0.58282800  1
  Ni  Ni21  1  0.97174500  0.26559100  0.41717200  1
  Cu  Cu22  1  0.75000000  0.82093200  0.78529300  1
  Cu  Cu23  1  0.25000000  0.17906800  0.21470700  1
  Cu  Cu24  1  0.62836600  0.20996300  0.72067700  1
  Cu  Cu25  1  0.12836600  0.79003700  0.27932300  1
  Cu  Cu26  1  0.37163400  0.79003700  0.27932300  1
  Cu  Cu27  1  0.87163400  0.20996300  0.72067700  1
  Cu  Cu28  1  0.75000000  0.24915800  0.54454800  1
  Cu  Cu29  1  0.25000000  0.75084200  0.45545200  1
