# generated using pymatgen
data_CuNi2C5
_symmetry_space_group_name_H-M   'P 1'
_cell_length_a   6.21889509
_cell_length_b   6.18183569
_cell_length_c   7.64322990
_cell_angle_alpha   65.77086689
_cell_angle_beta   65.62069427
_cell_angle_gamma   89.15672337
_symmetry_Int_Tables_number   1
_chemical_formula_structural   CuNi2C5
_chemical_formula_sum   'Cu1 Ni2 C5'
_cell_volume   239.79190542
_cell_formula_units_Z   1
loop_
 _symmetry_equiv_pos_site_id
 _symmetry_equiv_pos_as_xyz
  1  'x, y, z'
loop_
 _atom_site_type_symbol
 _atom_site_label
 _atom_site_symmetry_multiplicity
 _atom_site_fract_x
 _atom_site_fract_y
 _atom_site_fract_z
 _atom_site_occupancy
  Ni  Ni0  1  0.24187800  0.74187800  0.51624500  1
  Ni  Ni1  1  0.50601300  0.50601300  0.98797400  1
  Cu  Cu2  1  0.01047800  0.01047800  0.97904300  1
  C  C3  1  0.73902100  0.23902100  0.52195700  1
  C  C4  1  0.10974800  0.11761600  0.23579700  1
  C  C5  1  0.65445400  0.64658700  0.23579700  1
  C  C6  1  0.35254500  0.88203600  0.76159300  1
  C  C7  1  0.88586200  0.35637100  0.76159300  1
