# generated using pymatgen
data_Cu3NiC2
_symmetry_space_group_name_H-M   'P 1'
_cell_length_a   3.22057545
_cell_length_b   3.22057545
_cell_length_c   36.36268400
_cell_angle_alpha   90.00000000
_cell_angle_beta   90.00000000
_cell_angle_gamma   119.99998878
_symmetry_Int_Tables_number   1
_chemical_formula_structural   Cu3NiC2
_chemical_formula_sum   'Cu6 Ni2 C4'
_cell_volume   326.62811890
_cell_formula_units_Z   2
loop_
 _symmetry_equiv_pos_site_id
 _symmetry_equiv_pos_as_xyz
  1  'x, y, z'
loop_
 _atom_site_type_symbol
 _atom_site_label
 _atom_site_symmetry_multiplicity
 _atom_site_fract_x
 _atom_site_fract_y
 _atom_site_fract_z
 _atom_site_occupancy
  C  C0  1  0.00000000  0.00000000  0.09391500  1
  C  C1  1  0.33333300  0.66666700  0.28180400  1
  C  C2  1  0.33333300  0.66666700  0.65753700  1
  C  C3  1  0.00000000  0.00000000  0.46966800  1
  Ni  Ni4  1  0.00000000  0.00000000  0.32882600  1
  Ni  Ni5  1  0.00000000  0.00000000  0.23473900  1
  Cu  Cu6  1  0.00000000  0.00000000  0.70034300  1
  Cu  Cu7  1  0.33333300  0.66666700  0.05111500  1
  Cu  Cu8  1  0.33333300  0.66666700  0.42673700  1
  Cu  Cu9  1  0.33333300  0.66666700  0.13670900  1
  Cu  Cu10  1  0.33333300  0.66666700  0.51261200  1
  Cu  Cu11  1  0.00000000  0.00000000  0.61474200  1
