# generated using pymatgen
data_CuNiC6
_symmetry_space_group_name_H-M   'P 1'
_cell_length_a   7.25542100
_cell_length_b   8.13134800
_cell_length_c   8.99938000
_cell_angle_alpha   90.00000000
_cell_angle_beta   90.00000000
_cell_angle_gamma   90.00000000
_symmetry_Int_Tables_number   1
_chemical_formula_structural   CuNiC6
_chemical_formula_sum   'Cu4 Ni4 C24'
_cell_volume   530.93059960
_cell_formula_units_Z   4
loop_
 _symmetry_equiv_pos_site_id
 _symmetry_equiv_pos_as_xyz
  1  'x, y, z'
loop_
 _atom_site_type_symbol
 _atom_site_label
 _atom_site_symmetry_multiplicity
 _atom_site_fract_x
 _atom_site_fract_y
 _atom_site_fract_z
 _atom_site_occupancy
  C  C0  1  0.05135800  0.74396600  0.68168800  1
  C  C1  1  0.44864200  0.25603400  0.18168800  1
  C  C2  1  0.94864200  0.24396600  0.81831200  1
  C  C3  1  0.55135800  0.75603400  0.31831200  1
  Ni  Ni4  1  0.26168600  0.75109100  0.01484200  1
  Ni  Ni5  1  0.23831400  0.24890900  0.51484200  1
  Ni  Ni6  1  0.73831400  0.25109100  0.48515800  1
  Ni  Ni7  1  0.76168600  0.74890900  0.98515800  1
  Cu  Cu8  1  0.48960700  0.12991800  0.85075100  1
  Cu  Cu9  1  0.01039300  0.87008200  0.35075100  1
  Cu  Cu10  1  0.51039300  0.62991800  0.64924900  1
  Cu  Cu11  1  0.98960700  0.37008200  0.14924900  1
  C  C12  1  0.50251700  0.94536900  0.94953900  1
  C  C13  1  0.99748300  0.05463100  0.44953900  1
  C  C14  1  0.49748300  0.44536900  0.55046100  1
  C  C15  1  0.00251700  0.55463100  0.05046100  1
  C  C16  1  0.46423600  0.28817400  0.97529100  1
  C  C17  1  0.03576400  0.71182600  0.47529100  1
  C  C18  1  0.53576400  0.78817400  0.52470900  1
  C  C19  1  0.96423600  0.21182600  0.02470900  1
  C  C20  1  0.68966800  0.15499700  0.74924900  1
  C  C21  1  0.81033200  0.84500300  0.24924900  1
  C  C22  1  0.31033200  0.65499700  0.75075100  1
  C  C23  1  0.18966800  0.34500300  0.25075100  1
  C  C24  1  0.29922700  0.12298500  0.73719200  1
  C  C25  1  0.20077300  0.87701500  0.23719200  1
  C  C26  1  0.70077300  0.62298500  0.76280800  1
  C  C27  1  0.79922700  0.37701500  0.26280800  1
  C  C28  1  0.00147500  0.84875100  0.86219200  1
  C  C29  1  0.49852500  0.15124900  0.36219200  1
  C  C30  1  0.99852500  0.34875100  0.63780800  1
  C  C31  1  0.50147500  0.65124900  0.13780800  1
