# generated using pymatgen
data_Cu4NiC
_symmetry_space_group_name_H-M   'P 1'
_cell_length_a   9.22610600
_cell_length_b   9.22610600
_cell_length_c   7.54276800
_cell_angle_alpha   90.00000000
_cell_angle_beta   90.00000000
_cell_angle_gamma   90.00000000
_symmetry_Int_Tables_number   1
_chemical_formula_structural   Cu4NiC
_chemical_formula_sum   'Cu32 Ni8 C8'
_cell_volume   642.04819572
_cell_formula_units_Z   8
loop_
 _symmetry_equiv_pos_site_id
 _symmetry_equiv_pos_as_xyz
  1  'x, y, z'
loop_
 _atom_site_type_symbol
 _atom_site_label
 _atom_site_symmetry_multiplicity
 _atom_site_fract_x
 _atom_site_fract_y
 _atom_site_fract_z
 _atom_site_occupancy
  C  C0  1  0.50000000  0.00000000  0.43626200  1
  C  C1  1  0.50000000  0.00000000  0.93626200  1
  C  C2  1  0.00000000  0.50000000  0.56373800  1
  C  C3  1  0.00000000  0.50000000  0.06373800  1
  C  C4  1  0.00000000  0.00000000  0.50000000  1
  C  C5  1  0.00000000  0.00000000  0.00000000  1
  C  C6  1  0.50000000  0.50000000  0.00000000  1
  C  C7  1  0.50000000  0.50000000  0.50000000  1
  Ni  Ni8  1  0.84611600  0.15388400  0.25000000  1
  Ni  Ni9  1  0.84611600  0.84611600  0.75000000  1
  Ni  Ni10  1  0.15388400  0.15388400  0.75000000  1
  Ni  Ni11  1  0.15388400  0.84611600  0.25000000  1
  Ni  Ni12  1  0.65388400  0.34611600  0.75000000  1
  Ni  Ni13  1  0.65388400  0.65388400  0.25000000  1
  Ni  Ni14  1  0.34611600  0.34611600  0.25000000  1
  Ni  Ni15  1  0.34611600  0.65388400  0.75000000  1
  Cu  Cu16  1  0.29566000  0.87403900  0.17806200  1
  Cu  Cu17  1  0.29566000  0.12596100  0.67806200  1
  Cu  Cu18  1  0.70434000  0.87403900  0.67806200  1
  Cu  Cu19  1  0.70434000  0.12596100  0.17806200  1
  Cu  Cu20  1  0.37403900  0.79566000  0.67806200  1
  Cu  Cu21  1  0.37403900  0.20434000  0.17806200  1
  Cu  Cu22  1  0.62596100  0.79566000  0.17806200  1
  Cu  Cu23  1  0.62596100  0.20434000  0.67806200  1
  Cu  Cu24  1  0.20434000  0.62596100  0.82193800  1
  Cu  Cu25  1  0.20434000  0.37403900  0.32193800  1
  Cu  Cu26  1  0.79566000  0.62596100  0.32193800  1
  Cu  Cu27  1  0.79566000  0.37403900  0.82193800  1
  Cu  Cu28  1  0.12596100  0.70434000  0.32193800  1
  Cu  Cu29  1  0.12596100  0.29566000  0.82193800  1
  Cu  Cu30  1  0.87403900  0.70434000  0.82193800  1
  Cu  Cu31  1  0.87403900  0.29566000  0.32193800  1
  Cu  Cu32  1  0.46700500  0.37076900  0.39153200  1
  Cu  Cu33  1  0.46700500  0.62923100  0.89153200  1
  Cu  Cu34  1  0.53299500  0.37076900  0.89153200  1
  Cu  Cu35  1  0.53299500  0.62923100  0.39153200  1
  Cu  Cu36  1  0.87076900  0.96700500  0.89153200  1
  Cu  Cu37  1  0.87076900  0.03299500  0.39153200  1
  Cu  Cu38  1  0.12923100  0.96700500  0.39153200  1
  Cu  Cu39  1  0.12923100  0.03299500  0.89153200  1
  Cu  Cu40  1  0.03299500  0.12923100  0.60846800  1
  Cu  Cu41  1  0.03299500  0.87076900  0.10846800  1
  Cu  Cu42  1  0.96700500  0.12923100  0.10846800  1
  Cu  Cu43  1  0.96700500  0.87076900  0.60846800  1
  Cu  Cu44  1  0.62923100  0.53299500  0.10846800  1
  Cu  Cu45  1  0.62923100  0.46700500  0.60846800  1
  Cu  Cu46  1  0.37076900  0.53299500  0.60846800  1
  Cu  Cu47  1  0.37076900  0.46700500  0.10846800  1
