# generated using pymatgen
data_Cu(Ni2C15)2
_symmetry_space_group_name_H-M   'P 1'
_cell_length_a   8.65686514
_cell_length_b   8.65686514
_cell_length_c   8.65686460
_cell_angle_alpha   59.94264114
_cell_angle_beta   59.94264114
_cell_angle_gamma   59.94263551
_symmetry_Int_Tables_number   1
_chemical_formula_structural   Cu(Ni2C15)2
_chemical_formula_sum   'Cu1 Ni4 C30'
_cell_volume   458.14352706
_cell_formula_units_Z   1
loop_
 _symmetry_equiv_pos_site_id
 _symmetry_equiv_pos_as_xyz
  1  'x, y, z'
loop_
 _atom_site_type_symbol
 _atom_site_label
 _atom_site_symmetry_multiplicity
 _atom_site_fract_x
 _atom_site_fract_y
 _atom_site_fract_z
 _atom_site_occupancy
  Ni  Ni0  1  0.85335300  0.85335300  0.85335300  1
  Ni  Ni1  1  0.14664700  0.14664700  0.14664700  1
  Ni  Ni2  1  0.63519300  0.63519300  0.63519300  1
  Ni  Ni3  1  0.36480700  0.36480700  0.36480700  1
  Cu  Cu4  1  0.00000000  0.00000000  0.00000000  1
  C  C5  1  0.54408100  0.24690100  0.96847300  1
  C  C6  1  0.24690100  0.96847300  0.54408100  1
  C  C7  1  0.96847300  0.54408100  0.24690100  1
  C  C8  1  0.45591900  0.75309900  0.03152700  1
  C  C9  1  0.75309900  0.03152700  0.45591900  1
  C  C10  1  0.03152700  0.45591900  0.75309900  1
  C  C11  1  0.54825500  0.42035900  0.78748100  1
  C  C12  1  0.42035900  0.78748100  0.54825500  1
  C  C13  1  0.78748100  0.54825500  0.42035900  1
  C  C14  1  0.45174500  0.57964100  0.21251900  1
  C  C15  1  0.57964100  0.21251900  0.45174500  1
  C  C16  1  0.21251900  0.45174500  0.57964100  1
  C  C17  1  0.73976300  0.08528100  0.93596200  1
  C  C18  1  0.08528100  0.93596200  0.73976300  1
  C  C19  1  0.93596200  0.73976300  0.08528100  1
  C  C20  1  0.26023700  0.91471900  0.06403800  1
  C  C21  1  0.91471900  0.06403800  0.26023700  1
  C  C22  1  0.06403800  0.26023700  0.91471900  1
  C  C23  1  0.61741500  0.81474100  0.99121800  1
  C  C24  1  0.81474100  0.99121800  0.61741500  1
  C  C25  1  0.99121800  0.61741500  0.81474100  1
  C  C26  1  0.38258500  0.18525900  0.00878200  1
  C  C27  1  0.18525900  0.00878200  0.38258500  1
  C  C28  1  0.00878200  0.38258500  0.18525900  1
  C  C29  1  0.50866000  0.28348100  0.14076500  1
  C  C30  1  0.28348100  0.14076500  0.50866000  1
  C  C31  1  0.14076500  0.50866000  0.28348100  1
  C  C32  1  0.49134000  0.71651900  0.85923500  1
  C  C33  1  0.71651900  0.85923500  0.49134000  1
  C  C34  1  0.85923500  0.49134000  0.71651900  1
