# generated using pymatgen
data_Cu6Ni7C
_symmetry_space_group_name_H-M   'P 1'
_cell_length_a   5.32358200
_cell_length_b   10.36336411
_cell_length_c   8.39323383
_cell_angle_alpha   75.08230191
_cell_angle_beta   71.51022991
_cell_angle_gamma   75.11698948
_symmetry_Int_Tables_number   1
_chemical_formula_structural   Cu6Ni7C
_chemical_formula_sum   'Cu6 Ni7 C1'
_cell_volume   416.52508114
_cell_formula_units_Z   1
loop_
 _symmetry_equiv_pos_site_id
 _symmetry_equiv_pos_as_xyz
  1  'x, y, z'
loop_
 _atom_site_type_symbol
 _atom_site_label
 _atom_site_symmetry_multiplicity
 _atom_site_fract_x
 _atom_site_fract_y
 _atom_site_fract_z
 _atom_site_occupancy
  C  C0  1  0.50000000  0.50000000  0.50000000  1
  Ni  Ni1  1  0.00000000  0.00000000  0.00000000  1
  Ni  Ni2  1  0.26605300  0.58377500  0.88412000  1
  Ni  Ni3  1  0.73394700  0.41622500  0.11588000  1
  Ni  Ni4  1  0.91904300  0.70034800  0.46156600  1
  Ni  Ni5  1  0.08095700  0.29965200  0.53843400  1
  Ni  Ni6  1  0.63609700  0.92520200  0.80260300  1
  Ni  Ni7  1  0.36390300  0.07479800  0.19739700  1
  Cu  Cu8  1  0.36630700  0.63603400  0.63135100  1
  Cu  Cu9  1  0.63369300  0.36396600  0.36864900  1
  Cu  Cu10  1  0.22515100  0.40480200  0.65068600  1
  Cu  Cu11  1  0.71936100  0.40480200  0.65068600  1
  Cu  Cu12  1  0.77484900  0.59519800  0.34931400  1
  Cu  Cu13  1  0.28063900  0.59519800  0.34931400  1
