# generated using pymatgen
data_Cu2Ni3C14
_symmetry_space_group_name_H-M   'P 1'
_cell_length_a   6.26691455
_cell_length_b   6.89462568
_cell_length_c   8.70429938
_cell_angle_alpha   55.69664827
_cell_angle_beta   60.76074271
_cell_angle_gamma   63.95892072
_symmetry_Int_Tables_number   1
_chemical_formula_structural   Cu2Ni3C14
_chemical_formula_sum   'Cu2 Ni3 C14'
_cell_volume   264.00862505
_cell_formula_units_Z   1
loop_
 _symmetry_equiv_pos_site_id
 _symmetry_equiv_pos_as_xyz
  1  'x, y, z'
loop_
 _atom_site_type_symbol
 _atom_site_label
 _atom_site_symmetry_multiplicity
 _atom_site_fract_x
 _atom_site_fract_y
 _atom_site_fract_z
 _atom_site_occupancy
  C  C0  1  0.48976000  0.46340800  0.44311600  1
  C  C1  1  0.56006200  0.47229300  0.81264300  1
  C  C2  1  0.01419600  0.45730400  0.98591900  1
  C  C3  1  0.49197500  0.97047400  0.93528500  1
  Ni  Ni4  1  0.79820900  0.75475500  0.75834300  1
  Ni  Ni5  1  0.23692400  0.28207800  0.27681000  1
  Ni  Ni6  1  0.21311400  0.55846300  0.14500600  1
  Cu  Cu7  1  0.89748500  0.89826200  0.27413700  1
  Cu  Cu8  1  0.10597100  0.03772100  0.72637300  1
  C  C9  1  0.82397200  0.73282600  0.51725100  1
  C  C10  1  0.26336000  0.17952000  0.48573900  1
  C  C11  1  0.21282800  0.79180300  0.17758000  1
  C  C12  1  0.83491700  0.18947300  0.22023600  1
  C  C13  1  0.79102400  0.14147300  0.73411900  1
  C  C14  1  0.18186300  0.74293300  0.76041300  1
  C  C15  1  0.69730600  0.66983800  0.89590800  1
  C  C16  1  0.23309700  0.41099300  0.13885700  1
  C  C17  1  0.74529300  0.85879300  0.18518400  1
  C  C18  1  0.30402600  0.28297400  0.84974700  1
