# generated using pymatgen
data_Cu2NiC11
_symmetry_space_group_name_H-M   'P 1'
_cell_length_a   9.90537492
_cell_length_b   9.90537492
_cell_length_c   9.78303673
_cell_angle_alpha   64.22302776
_cell_angle_beta   64.22302776
_cell_angle_gamma   17.00609849
_symmetry_Int_Tables_number   1
_chemical_formula_structural   Cu2NiC11
_chemical_formula_sum   'Cu4 Ni2 C22'
_cell_volume   252.14349511
_cell_formula_units_Z   2
loop_
 _symmetry_equiv_pos_site_id
 _symmetry_equiv_pos_as_xyz
  1  'x, y, z'
loop_
 _atom_site_type_symbol
 _atom_site_label
 _atom_site_symmetry_multiplicity
 _atom_site_fract_x
 _atom_site_fract_y
 _atom_site_fract_z
 _atom_site_occupancy
  C  C0  1  0.08248400  0.08248400  0.21379300  1
  C  C1  1  0.78072100  0.78072100  0.35354300  1
  C  C2  1  0.50615800  0.50615800  0.49935100  1
  C  C3  1  0.21313100  0.21313100  0.64891700  1
  C  C4  1  0.92829100  0.92829100  0.78749100  1
  C  C5  1  0.64842700  0.64842700  0.92667800  1
  C  C6  1  0.34625700  0.34625700  0.07315500  1
  C  C7  1  0.71412600  0.71412600  0.14471600  1
  Ni  Ni8  1  0.00080200  0.00080200  0.00207400  1
  Ni  Ni9  1  0.85815500  0.85815500  0.57046500  1
  Cu  Cu10  1  0.42925400  0.42925400  0.28603700  1
  Cu  Cu11  1  0.14835700  0.14835700  0.40683800  1
  Cu  Cu12  1  0.57749400  0.57749400  0.69901900  1
  Cu  Cu13  1  0.27898700  0.27898700  0.88059200  1
  C  C14  1  0.52669300  0.52669300  0.10636000  1
  C  C15  1  0.24607100  0.24607100  0.26412500  1
  C  C16  1  0.95597000  0.95597000  0.38548600  1
  C  C17  1  0.67436000  0.67436000  0.54627600  1
  C  C18  1  0.39020000  0.39020000  0.65953600  1
  C  C19  1  0.09800900  0.09800900  0.83189700  1
  C  C20  1  0.82434100  0.82434100  0.95196300  1
  C  C21  1  0.60735500  0.60735500  0.32760500  1
  C  C22  1  0.33190600  0.33190600  0.46549500  1
  C  C23  1  0.03756400  0.03756400  0.61494700  1
  C  C24  1  0.76127700  0.76127700  0.73727800  1
  C  C25  1  0.47092900  0.47092900  0.90773000  1
  C  C26  1  0.18280000  0.18280000  0.02327800  1
  C  C27  1  0.90279700  0.90279700  0.18535400  1
