# generated using pymatgen
data_Cu26Ni8C3
_symmetry_space_group_name_H-M   'P 1'
_cell_length_a   16.35622600
_cell_length_b   7.24475700
_cell_length_c   9.61288232
_cell_angle_alpha   78.85107036
_cell_angle_beta   90.00000000
_cell_angle_gamma   90.00000000
_symmetry_Int_Tables_number   1
_chemical_formula_structural   Cu26Ni8C3
_chemical_formula_sum   'Cu52 Ni16 C6'
_cell_volume   1117.59943980
_cell_formula_units_Z   2
loop_
 _symmetry_equiv_pos_site_id
 _symmetry_equiv_pos_as_xyz
  1  'x, y, z'
loop_
 _atom_site_type_symbol
 _atom_site_label
 _atom_site_symmetry_multiplicity
 _atom_site_fract_x
 _atom_site_fract_y
 _atom_site_fract_z
 _atom_site_occupancy
  C  C0  1  0.12295800  0.74361500  0.11231100  1
  C  C1  1  0.62295800  0.25638500  0.38768900  1
  C  C2  1  0.87704200  0.25638500  0.88768900  1
  C  C3  1  0.37704200  0.74361500  0.61231100  1
  C  C4  1  0.50000000  0.00000000  0.00000000  1
  C  C5  1  0.00000000  0.00000000  0.50000000  1
  Ni  Ni6  1  0.11438000  0.21187600  0.25579000  1
  Ni  Ni7  1  0.61438000  0.78812400  0.24421000  1
  Ni  Ni8  1  0.88562000  0.78812400  0.74421000  1
  Ni  Ni9  1  0.38562000  0.21187600  0.75579000  1
  Ni  Ni10  1  0.29266200  0.15881300  0.29674800  1
  Ni  Ni11  1  0.79266200  0.84118700  0.20325200  1
  Ni  Ni12  1  0.70733800  0.84118700  0.70325200  1
  Ni  Ni13  1  0.20733800  0.15881300  0.79674800  1
  Ni  Ni14  1  0.40931500  0.45915900  0.30138600  1
  Ni  Ni15  1  0.90931500  0.54084100  0.19861400  1
  Ni  Ni16  1  0.59068500  0.54084100  0.69861400  1
  Ni  Ni17  1  0.09068500  0.45915900  0.80138600  1
  Ni  Ni18  1  0.35024400  0.70697000  0.03878600  1
  Ni  Ni19  1  0.85024400  0.29303000  0.46121400  1
  Ni  Ni20  1  0.64975600  0.29303000  0.96121400  1
  Ni  Ni21  1  0.14975600  0.70697000  0.53878600  1
  Cu  Cu22  1  0.12882200  0.39386800  0.16989300  1
  Cu  Cu23  1  0.62882200  0.60613200  0.33010700  1
  Cu  Cu24  1  0.87117800  0.60613200  0.83010700  1
  Cu  Cu25  1  0.37117800  0.39386800  0.66989300  1
  Cu  Cu26  1  0.05954400  0.22198700  0.37763600  1
  Cu  Cu27  1  0.55954400  0.77801300  0.12236400  1
  Cu  Cu28  1  0.94045600  0.77801300  0.62236400  1
  Cu  Cu29  1  0.44045600  0.22198700  0.87763600  1
  Cu  Cu30  1  0.10202500  0.05308700  0.18929300  1
  Cu  Cu31  1  0.60202500  0.94691300  0.31070700  1
  Cu  Cu32  1  0.89797500  0.94691300  0.81070700  1
  Cu  Cu33  1  0.39797500  0.05308700  0.68929300  1
  Cu  Cu34  1  0.20356600  0.15685500  0.35731400  1
  Cu  Cu35  1  0.70356600  0.84314500  0.14268600  1
  Cu  Cu36  1  0.79643400  0.84314500  0.64268600  1
  Cu  Cu37  1  0.29643400  0.15685500  0.85731400  1
  Cu  Cu38  1  0.33628200  0.01245800  0.38748800  1
  Cu  Cu39  1  0.83628200  0.98754200  0.11251200  1
  Cu  Cu40  1  0.66371800  0.98754200  0.61251200  1
  Cu  Cu41  1  0.16371800  0.01245800  0.88748800  1
  Cu  Cu42  1  0.29446300  0.18496800  0.14639400  1
  Cu  Cu43  1  0.79446300  0.81503200  0.35360600  1
  Cu  Cu44  1  0.70553700  0.81503200  0.85360600  1
  Cu  Cu45  1  0.20553700  0.18496800  0.64639400  1
  Cu  Cu46  1  0.32015300  0.36341600  0.34249300  1
  Cu  Cu47  1  0.82015300  0.63658400  0.15750700  1
  Cu  Cu48  1  0.67984700  0.63658400  0.65750700  1
  Cu  Cu49  1  0.17984700  0.36341600  0.84249300  1
  Cu  Cu50  1  0.47142600  0.31797700  0.32967500  1
  Cu  Cu51  1  0.97142600  0.68202300  0.17032500  1
  Cu  Cu52  1  0.52857400  0.68202300  0.67032500  1
  Cu  Cu53  1  0.02857400  0.31797700  0.82967500  1
  Cu  Cu54  1  0.40894100  0.61888300  0.36831500  1
  Cu  Cu55  1  0.90894100  0.38111700  0.13168500  1
  Cu  Cu56  1  0.59105900  0.38111700  0.63168400  1
  Cu  Cu57  1  0.09105900  0.61888300  0.86831600  1
  Cu  Cu58  1  0.40582000  0.51667400  0.13416400  1
  Cu  Cu59  1  0.90582000  0.48332600  0.36583600  1
  Cu  Cu60  1  0.59418000  0.48332600  0.86583600  1
  Cu  Cu61  1  0.09418000  0.51667400  0.63416400  1
  Cu  Cu62  1  0.27021600  0.68833800  0.10123500  1
  Cu  Cu63  1  0.77021600  0.31166200  0.39876500  1
  Cu  Cu64  1  0.72978400  0.31166200  0.89876500  1
  Cu  Cu65  1  0.22978400  0.68833800  0.60123500  1
  Cu  Cu66  1  0.36241600  0.67356700  0.89818300  1
  Cu  Cu67  1  0.86241600  0.32643300  0.60181700  1
  Cu  Cu68  1  0.63758400  0.32643300  0.10181700  1
  Cu  Cu69  1  0.13758400  0.67356700  0.39818300  1
  Cu  Cu70  1  0.39314500  0.87324200  0.07446000  1
  Cu  Cu71  1  0.89314500  0.12675800  0.42554000  1
  Cu  Cu72  1  0.60685500  0.12675800  0.92554000  1
  Cu  Cu73  1  0.10685500  0.87324200  0.57446000  1
