# generated using pymatgen
data_Cu2NiC4
_symmetry_space_group_name_H-M   'P 1'
_cell_length_a   3.28839300
_cell_length_b   10.01130500
_cell_length_c   11.72779100
_cell_angle_alpha   90.00000000
_cell_angle_beta   90.00000000
_cell_angle_gamma   90.00000000
_symmetry_Int_Tables_number   1
_chemical_formula_structural   Cu2NiC4
_chemical_formula_sum   'Cu8 Ni4 C16'
_cell_volume   386.09184225
_cell_formula_units_Z   4
loop_
 _symmetry_equiv_pos_site_id
 _symmetry_equiv_pos_as_xyz
  1  'x, y, z'
loop_
 _atom_site_type_symbol
 _atom_site_label
 _atom_site_symmetry_multiplicity
 _atom_site_fract_x
 _atom_site_fract_y
 _atom_site_fract_z
 _atom_site_occupancy
  Ni  Ni0  1  0.75000000  0.74088900  0.34603400  1
  Ni  Ni1  1  0.25000000  0.25911100  0.65396600  1
  Ni  Ni2  1  0.75000000  0.24088900  0.15396600  1
  Ni  Ni3  1  0.25000000  0.75911100  0.84603400  1
  Cu  Cu4  1  0.25000000  0.91616000  0.10575900  1
  Cu  Cu5  1  0.75000000  0.58384000  0.60575900  1
  Cu  Cu6  1  0.25000000  0.41616000  0.39424100  1
  Cu  Cu7  1  0.75000000  0.08384000  0.89424100  1
  Cu  Cu8  1  0.75000000  0.06561200  0.38552700  1
  Cu  Cu9  1  0.25000000  0.93438800  0.61447300  1
  Cu  Cu10  1  0.75000000  0.56561200  0.11447300  1
  Cu  Cu11  1  0.25000000  0.43438800  0.88552700  1
  C  C12  1  0.25000000  0.43354600  0.07314300  1
  C  C13  1  0.75000000  0.56645400  0.92685700  1
  C  C14  1  0.25000000  0.93354600  0.42685700  1
  C  C15  1  0.75000000  0.06645400  0.57314300  1
  C  C16  1  0.25000000  0.53128500  0.71674400  1
  C  C17  1  0.75000000  0.46871500  0.28325600  1
  C  C18  1  0.25000000  0.03128500  0.78325600  1
  C  C19  1  0.75000000  0.96871500  0.21674400  1
  C  C20  1  0.25000000  0.10951300  0.00975700  1
  C  C21  1  0.75000000  0.89048700  0.99024300  1
  C  C22  1  0.25000000  0.60951300  0.49024300  1
  C  C23  1  0.75000000  0.39048700  0.50975700  1
  C  C24  1  0.75000000  0.29782900  0.86747900  1
  C  C25  1  0.25000000  0.70217100  0.13252100  1
  C  C26  1  0.25000000  0.20217100  0.36747900  1
  C  C27  1  0.75000000  0.79782900  0.63252100  1
