# generated using pymatgen
data_Cu4Ni8C9
_symmetry_space_group_name_H-M   'P 1'
_cell_length_a   5.52829496
_cell_length_b   5.51555745
_cell_length_c   10.82895220
_cell_angle_alpha   90.49417714
_cell_angle_beta   74.36998209
_cell_angle_gamma   59.69663541
_symmetry_Int_Tables_number   1
_chemical_formula_structural   Cu4Ni8C9
_chemical_formula_sum   'Cu4 Ni8 C9'
_cell_volume   270.35312675
_cell_formula_units_Z   1
loop_
 _symmetry_equiv_pos_site_id
 _symmetry_equiv_pos_as_xyz
  1  'x, y, z'
loop_
 _atom_site_type_symbol
 _atom_site_label
 _atom_site_symmetry_multiplicity
 _atom_site_fract_x
 _atom_site_fract_y
 _atom_site_fract_z
 _atom_site_occupancy
  C  C0  1  0.49647100  0.22325300  0.75089400  1
  C  C1  1  0.13843500  0.43618100  0.29169200  1
  C  C2  1  0.12848600  0.89860400  0.78885000  1
  C  C3  1  0.34397700  0.35394700  0.00957200  1
  C  C4  1  0.65867200  0.19372400  0.49233200  1
  C  C5  1  0.34908100  0.84244600  0.47359100  1
  C  C6  1  0.84174100  0.08593100  0.20954000  1
  C  C7  1  0.66013200  0.68143900  0.02751100  1
  C  C8  1  0.85268400  0.55034900  0.71283000  1
  Ni  Ni9  1  0.45595500  0.11662800  0.36862700  1
  Ni  Ni10  1  0.55079400  0.39002000  0.13094800  1
  Ni  Ni11  1  0.25429000  0.55907100  0.63049600  1
  Ni  Ni12  1  0.74938000  0.43577100  0.37045300  1
  Ni  Ni13  1  0.44868600  0.61021000  0.87449500  1
  Ni  Ni14  1  0.93149000  0.68412400  0.13234400  1
  Ni  Ni15  1  0.94979100  0.16376300  0.62436400  1
  Ni  Ni16  1  0.74134800  0.92235100  0.88118500  1
  Cu  Cu17  1  0.25701400  0.06833500  0.13157300  1
  Cu  Cu18  1  0.07241900  0.81650000  0.37582100  1
  Cu  Cu19  1  0.05059000  0.30342000  0.87470200  1
  Cu  Cu20  1  0.57804300  0.84955300  0.61720300  1
