# generated using pymatgen
data_Cu14Ni7C18
_symmetry_space_group_name_H-M   'P 1'
_cell_length_a   26.23215335
_cell_length_b   26.23215335
_cell_length_c   11.14395765
_cell_angle_alpha   89.60250231
_cell_angle_beta   89.60250231
_cell_angle_gamma   8.45281812
_symmetry_Int_Tables_number   1
_chemical_formula_structural   Cu14Ni7C18
_chemical_formula_sum   'Cu14 Ni7 C18'
_cell_volume   1127.19531954
_cell_formula_units_Z   1
loop_
 _symmetry_equiv_pos_site_id
 _symmetry_equiv_pos_as_xyz
  1  'x, y, z'
loop_
 _atom_site_type_symbol
 _atom_site_label
 _atom_site_symmetry_multiplicity
 _atom_site_fract_x
 _atom_site_fract_y
 _atom_site_fract_z
 _atom_site_occupancy
  C  C0  1  0.98671000  0.98671000  0.14182700  1
  C  C1  1  0.01329000  0.01329000  0.85817300  1
  C  C2  1  0.54619300  0.54619300  0.06229300  1
  C  C3  1  0.45380700  0.45380700  0.93770700  1
  C  C4  1  0.89026300  0.89026300  0.02177800  1
  C  C5  1  0.10973700  0.10973700  0.97822200  1
  C  C6  1  0.23447700  0.23447700  0.10622700  1
  C  C7  1  0.76552300  0.76552300  0.89377300  1
  C  C8  1  0.67453100  0.67453100  0.04565300  1
  C  C9  1  0.32546900  0.32546900  0.95434700  1
  C  C10  1  0.79499000  0.79499000  0.16862600  1
  C  C11  1  0.20501000  0.20501000  0.83137400  1
  C  C12  1  0.42778500  0.42778500  0.21216600  1
  C  C13  1  0.57221500  0.57221500  0.78783400  1
  C  C14  1  0.35429200  0.35429200  0.22072600  1
  C  C15  1  0.64570800  0.64570800  0.77927400  1
  Ni  Ni16  1  0.84107600  0.84107600  0.09416300  1
  Ni  Ni17  1  0.15892400  0.15892400  0.90583700  1
  Ni  Ni18  1  0.50000000  0.50000000  0.00000000  1
  Ni  Ni19  1  0.94025200  0.94025200  0.08150900  1
  Ni  Ni20  1  0.05974800  0.05974800  0.91849100  1
  Ni  Ni21  1  0.28091400  0.28091400  0.03118800  1
  Ni  Ni22  1  0.71908600  0.71908600  0.96881200  1
  Cu  Cu23  1  0.60993800  0.60993800  0.19528600  1
  Cu  Cu24  1  0.39006200  0.39006200  0.80471400  1
  Cu  Cu25  1  0.68986400  0.68986400  0.60527500  1
  Cu  Cu26  1  0.31013600  0.31013600  0.39472500  1
  Cu  Cu27  1  0.89167200  0.89167200  0.39023300  1
  Cu  Cu28  1  0.10832800  0.10832800  0.60976700  1
  Cu  Cu29  1  0.95924700  0.95924700  0.72121300  1
  Cu  Cu30  1  0.04075300  0.04075300  0.27878700  1
  Cu  Cu31  1  0.47479000  0.47479000  0.36766700  1
  Cu  Cu32  1  0.52521000  0.52521000  0.63233300  1
  Cu  Cu33  1  0.74543000  0.74543000  0.32200900  1
  Cu  Cu34  1  0.25457000  0.25457000  0.67799100  1
  Cu  Cu35  1  0.81922000  0.81922000  0.74162000  1
  Cu  Cu36  1  0.18078000  0.18078000  0.25838000  1
  C  C37  1  0.39072200  0.39072200  0.12144600  1
  C  C38  1  0.60927800  0.60927800  0.87855400  1
