# generated using pymatgen
data_Cu2Ni2C7
_symmetry_space_group_name_H-M   'P 1'
_cell_length_a   8.59135800
_cell_length_b   9.57486500
_cell_length_c   12.88364616
_cell_angle_alpha   83.83086728
_cell_angle_beta   90.00000000
_cell_angle_gamma   90.00000000
_symmetry_Int_Tables_number   1
_chemical_formula_structural   Cu2Ni2C7
_chemical_formula_sum   'Cu8 Ni8 C28'
_cell_volume   1053.68538411
_cell_formula_units_Z   4
loop_
 _symmetry_equiv_pos_site_id
 _symmetry_equiv_pos_as_xyz
  1  'x, y, z'
loop_
 _atom_site_type_symbol
 _atom_site_label
 _atom_site_symmetry_multiplicity
 _atom_site_fract_x
 _atom_site_fract_y
 _atom_site_fract_z
 _atom_site_occupancy
  C  C0  1  0.46826900  0.73627700  0.63719500  1
  C  C1  1  0.96826900  0.26372300  0.86280500  1
  C  C2  1  0.53173100  0.26372300  0.36280500  1
  C  C3  1  0.03173100  0.73627700  0.13719500  1
  Ni  Ni4  1  0.40074400  0.85981400  0.85434000  1
  Ni  Ni5  1  0.90074400  0.14018600  0.64566000  1
  Ni  Ni6  1  0.59925600  0.14018600  0.14566000  1
  Ni  Ni7  1  0.09925600  0.85981400  0.35434000  1
  Ni  Ni8  1  0.64889800  0.77446500  0.38480600  1
  Ni  Ni9  1  0.14889800  0.22553500  0.11519400  1
  Ni  Ni10  1  0.35110200  0.22553500  0.61519400  1
  Ni  Ni11  1  0.85110200  0.77446500  0.88480600  1
  Cu  Cu12  1  0.53331600  0.05486700  0.72456000  1
  Cu  Cu13  1  0.03331600  0.94513300  0.77544000  1
  Cu  Cu14  1  0.46668400  0.94513300  0.27544000  1
  Cu  Cu15  1  0.96668400  0.05486700  0.22456000  1
  Cu  Cu16  1  0.62812200  0.86755500  0.49768100  1
  Cu  Cu17  1  0.12812200  0.13244500  0.00231900  1
  Cu  Cu18  1  0.37187800  0.13244500  0.50231900  1
  Cu  Cu19  1  0.87187800  0.86755500  0.99768100  1
  C  C20  1  0.14359900  0.68027100  0.57479300  1
  C  C21  1  0.64359900  0.31972900  0.92520700  1
  C  C22  1  0.85640100  0.31972900  0.42520700  1
  C  C23  1  0.35640100  0.68027100  0.07479300  1
  C  C24  1  0.70566800  0.54736400  0.75354800  1
  C  C25  1  0.20566800  0.45263600  0.74645200  1
  C  C26  1  0.29433200  0.45263600  0.24645200  1
  C  C27  1  0.79433200  0.54736400  0.25354800  1
  C  C28  1  0.43383900  0.88902800  0.75817700  1
  C  C29  1  0.93383900  0.11097200  0.74182300  1
  C  C30  1  0.56616100  0.11097200  0.24182300  1
  C  C31  1  0.06616100  0.88902800  0.25817700  1
  C  C32  1  0.35396600  0.84126100  0.94220300  1
  C  C33  1  0.85396600  0.15873900  0.55779700  1
  C  C34  1  0.64603400  0.15873900  0.05779700  1
  C  C35  1  0.14603400  0.84126100  0.44220300  1
  C  C36  1  0.59475400  0.82116200  0.28799200  1
  C  C37  1  0.09475400  0.17883800  0.21200800  1
  C  C38  1  0.40524600  0.17883800  0.71200800  1
  C  C39  1  0.90524600  0.82116200  0.78799200  1
  C  C40  1  0.73270300  0.67182100  0.42245400  1
  C  C41  1  0.23270300  0.32817900  0.07754600  1
  C  C42  1  0.26729700  0.32817900  0.57754600  1
  C  C43  1  0.76729700  0.67182100  0.92245400  1
