# generated using pymatgen
data_Cu6NiC5
_symmetry_space_group_name_H-M   'P 1'
_cell_length_a   5.99666001
_cell_length_b   5.96963616
_cell_length_c   15.84510251
_cell_angle_alpha   90.26636212
_cell_angle_beta   90.05976416
_cell_angle_gamma   120.12254496
_symmetry_Int_Tables_number   1
_chemical_formula_structural   Cu6NiC5
_chemical_formula_sum   'Cu12 Ni2 C10'
_cell_volume   490.61108956
_cell_formula_units_Z   2
loop_
 _symmetry_equiv_pos_site_id
 _symmetry_equiv_pos_as_xyz
  1  'x, y, z'
loop_
 _atom_site_type_symbol
 _atom_site_label
 _atom_site_symmetry_multiplicity
 _atom_site_fract_x
 _atom_site_fract_y
 _atom_site_fract_z
 _atom_site_occupancy
  C  C0  1  0.33719800  0.67304200  0.39078400  1
  C  C1  1  0.33401700  0.66788200  0.78457300  1
  C  C2  1  0.66592100  0.33208800  0.64086300  1
  C  C3  1  0.66851300  0.33615200  0.90875500  1
  C  C4  1  0.33700500  0.67240700  0.02269800  1
  C  C5  1  0.66622100  0.33269500  0.21049300  1
  C  C6  1  0.33093800  0.66314600  0.20689700  1
  C  C7  1  0.00085000  0.00133000  0.81571100  1
  C  C8  1  0.99798500  0.99651800  0.17854200  1
  C  C9  1  0.00106700  0.00182400  0.00138600  1
  Ni  Ni10  1  0.66540400  0.33155900  0.43076000  1
  Ni  Ni11  1  0.33307200  0.66613700  0.58691400  1
  Cu  Cu12  1  0.15327400  0.30614700  0.91051800  1
  Cu  Cu13  1  0.32816900  0.16390600  0.75931000  1
  Cu  Cu14  1  0.16118700  0.32303300  0.25091000  1
  Cu  Cu15  1  0.83494500  0.66982600  0.76002700  1
  Cu  Cu16  1  0.83567900  0.16401400  0.75937200  1
  Cu  Cu17  1  0.84888200  0.69797600  0.08919600  1
  Cu  Cu18  1  0.16312700  0.83409400  0.25138500  1
  Cu  Cu19  1  0.30326200  0.14984000  0.08922200  1
  Cu  Cu20  1  0.84648700  0.14975800  0.08904400  1
  Cu  Cu21  1  0.69672600  0.84966200  0.91060200  1
  Cu  Cu22  1  0.67008500  0.83391100  0.25117600  1
  Cu  Cu23  1  0.15331700  0.84971800  0.91068400  1
