# generated using pymatgen
data_Cu4Ni7C23
_symmetry_space_group_name_H-M   'P 1'
_cell_length_a   11.27431839
_cell_length_b   11.27431839
_cell_length_c   7.24974539
_cell_angle_alpha   81.08972122
_cell_angle_beta   81.08972122
_cell_angle_gamma   73.24478521
_symmetry_Int_Tables_number   1
_chemical_formula_structural   Cu4Ni7C23
_chemical_formula_sum   'Cu8 Ni14 C46'
_cell_volume   865.80640792
_cell_formula_units_Z   2
loop_
 _symmetry_equiv_pos_site_id
 _symmetry_equiv_pos_as_xyz
  1  'x, y, z'
loop_
 _atom_site_type_symbol
 _atom_site_label
 _atom_site_symmetry_multiplicity
 _atom_site_fract_x
 _atom_site_fract_y
 _atom_site_fract_z
 _atom_site_occupancy
  C  C0  1  0.75288100  0.43309200  0.06241600  1
  C  C1  1  0.43309200  0.75288100  0.56241600  1
  C  C2  1  0.25033800  0.55741900  0.93072500  1
  C  C3  1  0.55741900  0.25033800  0.43072500  1
  C  C4  1  0.99974300  0.00084800  0.74995900  1
  C  C5  1  0.00084800  0.99974300  0.24995900  1
  C  C6  1  0.37396300  0.03484600  0.18763900  1
  C  C7  1  0.03484600  0.37396300  0.68763900  1
  C  C8  1  0.62483400  0.97232000  0.81266200  1
  C  C9  1  0.97232000  0.62483400  0.31266200  1
  Ni  Ni10  1  0.19626400  0.92235300  0.48913900  1
  Ni  Ni11  1  0.92235300  0.19626400  0.98913900  1
  Ni  Ni12  1  0.80297000  0.07707300  0.51211800  1
  Ni  Ni13  1  0.07707300  0.80297000  0.01211800  1
  Ni  Ni14  1  0.28799900  0.30040600  0.06826200  1
  Ni  Ni15  1  0.30040600  0.28799900  0.56826200  1
  Ni  Ni16  1  0.71772000  0.69602300  0.93409300  1
  Ni  Ni17  1  0.69602300  0.71772000  0.43409300  1
  Ni  Ni18  1  0.16117000  0.79685900  0.50784100  1
  Ni  Ni19  1  0.79685900  0.16117000  0.00784100  1
  Ni  Ni20  1  0.84106600  0.20043000  0.49167600  1
  Ni  Ni21  1  0.20043000  0.84106600  0.99167600  1
  Ni  Ni22  1  0.53282100  0.48484900  0.71919400  1
  Ni  Ni23  1  0.48484900  0.53282100  0.21919400  1
  Cu  Cu24  1  0.07869100  0.30001400  0.17425700  1
  Cu  Cu25  1  0.30001400  0.07869100  0.67425700  1
  Cu  Cu26  1  0.92194300  0.69945000  0.82546100  1
  Cu  Cu27  1  0.69945000  0.92194300  0.32546100  1
  Cu  Cu28  1  0.72928800  0.46823400  0.53539300  1
  Cu  Cu29  1  0.46823400  0.72928800  0.03539300  1
  Cu  Cu30  1  0.27742900  0.52770900  0.45180400  1
  Cu  Cu31  1  0.52770900  0.27742900  0.95180400  1
  C  C32  1  0.19762700  0.35920600  0.04285600  1
  C  C33  1  0.35920600  0.19762700  0.54285600  1
  C  C34  1  0.80401900  0.63791300  0.96133300  1
  C  C35  1  0.63791300  0.80401900  0.46133300  1
  C  C36  1  0.97307100  0.33035400  0.02257000  1
  C  C37  1  0.33035400  0.97307100  0.52257000  1
  C  C38  1  0.02855000  0.66911700  0.97473400  1
  C  C39  1  0.66911700  0.02855000  0.47473400  1
  C  C40  1  0.02273100  0.38200200  0.35366900  1
  C  C41  1  0.38200200  0.02273100  0.85366900  1
  C  C42  1  0.97426500  0.61702600  0.64656800  1
  C  C43  1  0.61702600  0.97426500  0.14656800  1
  C  C44  1  0.57584800  0.54381800  0.61546000  1
  C  C45  1  0.54381800  0.57584800  0.11546000  1
  C  C46  1  0.42249600  0.45887200  0.35435500  1
  C  C47  1  0.45887200  0.42249600  0.85435500  1
  C  C48  1  0.13891300  0.14904200  0.23120600  1
  C  C49  1  0.14904200  0.13891300  0.73120600  1
  C  C50  1  0.85937000  0.85007200  0.77040100  1
  C  C51  1  0.85007200  0.85937000  0.27040100  1
  C  C52  1  0.80619300  0.41039900  0.71937100  1
  C  C53  1  0.41039900  0.80619300  0.21937100  1
  C  C54  1  0.18920800  0.59099200  0.27991600  1
  C  C55  1  0.59099200  0.18920800  0.77991600  1
  C  C56  1  0.72830100  0.35808600  0.40756900  1
  C  C57  1  0.35808600  0.72830100  0.90756900  1
  C  C58  1  0.27831500  0.63561200  0.58580900  1
  C  C59  1  0.63561200  0.27831500  0.08580900  1
  C  C60  1  0.12453600  0.88777600  0.49213900  1
  C  C61  1  0.88777600  0.12453600  0.99213900  1
  C  C62  1  0.87624900  0.10960100  0.50848200  1
  C  C63  1  0.10960100  0.87624900  0.00848200  1
  C  C64  1  0.77306400  0.58474700  0.39884000  1
  C  C65  1  0.58474700  0.77306400  0.89884000  1
  C  C66  1  0.22953200  0.41303000  0.59458400  1
  C  C67  1  0.41303000  0.22953200  0.09458400  1
