# generated using pymatgen
data_Cu(NiC7)2
_symmetry_space_group_name_H-M   'P 1'
_cell_length_a   9.34662300
_cell_length_b   9.49774000
_cell_length_c   12.59075800
_cell_angle_alpha   90.00000000
_cell_angle_beta   90.00000000
_cell_angle_gamma   90.00000000
_symmetry_Int_Tables_number   1
_chemical_formula_structural   Cu(NiC7)2
_chemical_formula_sum   'Cu4 Ni8 C56'
_cell_volume   1117.70418973
_cell_formula_units_Z   4
loop_
 _symmetry_equiv_pos_site_id
 _symmetry_equiv_pos_as_xyz
  1  'x, y, z'
loop_
 _atom_site_type_symbol
 _atom_site_label
 _atom_site_symmetry_multiplicity
 _atom_site_fract_x
 _atom_site_fract_y
 _atom_site_fract_z
 _atom_site_occupancy
  Ni  Ni0  1  0.22548100  0.45384500  0.62929600  1
  Ni  Ni1  1  0.27451900  0.54615500  0.12929600  1
  Ni  Ni2  1  0.77451900  0.95384500  0.62929600  1
  Ni  Ni3  1  0.27451900  0.95384500  0.87070400  1
  Ni  Ni4  1  0.72548100  0.04615500  0.12929600  1
  Ni  Ni5  1  0.72548100  0.45384500  0.87070400  1
  Ni  Ni6  1  0.77451900  0.54615500  0.37070400  1
  Ni  Ni7  1  0.22548100  0.04615500  0.37070400  1
  Cu  Cu8  1  0.03788400  0.25000000  0.00000000  1
  Cu  Cu9  1  0.96211600  0.75000000  0.00000000  1
  Cu  Cu10  1  0.53788400  0.25000000  0.50000000  1
  Cu  Cu11  1  0.46211600  0.75000000  0.50000000  1
  C  C12  1  0.88160200  0.60399000  0.64304500  1
  C  C13  1  0.88160200  0.89601000  0.35695500  1
  C  C14  1  0.61839800  0.10399000  0.85695500  1
  C  C15  1  0.61839800  0.39601000  0.14304500  1
  C  C16  1  0.11839800  0.39601000  0.35695500  1
  C  C17  1  0.11839800  0.10399000  0.64304500  1
  C  C18  1  0.38160200  0.89601000  0.14304500  1
  C  C19  1  0.38160200  0.60399000  0.85695500  1
  C  C20  1  0.64193700  0.23908900  0.17203400  1
  C  C21  1  0.64193700  0.26091100  0.82796600  1
  C  C22  1  0.85806300  0.73908900  0.32796600  1
  C  C23  1  0.85806300  0.76091100  0.67203400  1
  C  C24  1  0.35806300  0.76091100  0.82796600  1
  C  C25  1  0.35806300  0.73908900  0.17203400  1
  C  C26  1  0.14193700  0.26091100  0.67203400  1
  C  C27  1  0.14193700  0.23908900  0.32796600  1
  C  C28  1  0.67216100  0.07695700  0.97040900  1
  C  C29  1  0.67216100  0.42304300  0.02959100  1
  C  C30  1  0.82783900  0.57695700  0.52959100  1
  C  C31  1  0.82783900  0.92304300  0.47040900  1
  C  C32  1  0.32783900  0.92304300  0.02959100  1
  C  C33  1  0.32783900  0.57695700  0.97040900  1
  C  C34  1  0.17216100  0.42304300  0.47040900  1
  C  C35  1  0.17216100  0.07695700  0.52959100  1
  C  C36  1  0.07391600  0.84167100  0.90761400  1
  C  C37  1  0.92608400  0.15832900  0.09238600  1
  C  C38  1  0.57391600  0.65832900  0.40761400  1
  C  C39  1  0.57391600  0.84167100  0.59238600  1
  C  C40  1  0.04287900  0.92993100  0.34894000  1
  C  C41  1  0.04287900  0.57006900  0.65106000  1
  C  C42  1  0.45712100  0.42993100  0.15106000  1
  C  C43  1  0.45712100  0.07006900  0.84894000  1
  C  C44  1  0.95712100  0.07006900  0.65106000  1
  C  C45  1  0.95712100  0.42993100  0.34894000  1
  C  C46  1  0.54287900  0.57006900  0.84894000  1
  C  C47  1  0.54287900  0.92993100  0.15106000  1
  C  C48  1  0.35018900  0.87067000  0.42891800  1
  C  C49  1  0.35018900  0.62933000  0.57108200  1
  C  C50  1  0.14981100  0.37067000  0.07108200  1
  C  C51  1  0.14981100  0.12933000  0.92891800  1
  C  C52  1  0.64981100  0.12933000  0.57108200  1
  C  C53  1  0.64981100  0.37067000  0.42891800  1
  C  C54  1  0.85018900  0.62933000  0.92891800  1
  C  C55  1  0.85018900  0.87067000  0.07108200  1
  C  C56  1  0.29921900  0.99111200  0.22148800  1
  C  C57  1  0.29921900  0.50888800  0.77851200  1
  C  C58  1  0.20078100  0.49111200  0.27851200  1
  C  C59  1  0.20078100  0.00888800  0.72148800  1
  C  C60  1  0.70078100  0.00888800  0.77851200  1
  C  C61  1  0.70078100  0.49111200  0.22148800  1
  C  C62  1  0.79921900  0.50888800  0.72148800  1
  C  C63  1  0.79921900  0.99111200  0.27851200  1
  C  C64  1  0.42608400  0.15832900  0.40761400  1
  C  C65  1  0.42608400  0.34167100  0.59238600  1
  C  C66  1  0.07391600  0.65832900  0.09238600  1
  C  C67  1  0.92608400  0.34167100  0.90761400  1
