# generated using pymatgen
data_Cu8(Ni2C)3
_symmetry_space_group_name_H-M   'P 1'
_cell_length_a   11.77013461
_cell_length_b   11.77013461
_cell_length_c   11.77013461
_cell_angle_alpha   60.00000000
_cell_angle_beta   60.00000000
_cell_angle_gamma   60.00000000
_symmetry_Int_Tables_number   1
_chemical_formula_structural   Cu8(Ni2C)3
_chemical_formula_sum   'Cu16 Ni12 C6'
_cell_volume   1152.99995829
_cell_formula_units_Z   2
loop_
 _symmetry_equiv_pos_site_id
 _symmetry_equiv_pos_as_xyz
  1  'x, y, z'
loop_
 _atom_site_type_symbol
 _atom_site_label
 _atom_site_symmetry_multiplicity
 _atom_site_fract_x
 _atom_site_fract_y
 _atom_site_fract_z
 _atom_site_occupancy
  C  C0  1  0.86285600  0.13714400  0.13714400  1
  C  C1  1  0.86285600  0.86285600  0.13714400  1
  C  C2  1  0.13714400  0.86285600  0.13714400  1
  C  C3  1  0.13714400  0.13714400  0.86285600  1
  C  C4  1  0.86285600  0.13714400  0.86285600  1
  C  C5  1  0.13714400  0.86285600  0.86285600  1
  Ni  Ni6  1  0.58441500  0.00000000  0.41558500  1
  Ni  Ni7  1  0.00000000  0.58441500  0.41558500  1
  Ni  Ni8  1  0.00000000  0.00000000  0.41558500  1
  Ni  Ni9  1  0.00000000  0.41558500  0.00000000  1
  Ni  Ni10  1  0.00000000  0.41558500  0.58441500  1
  Ni  Ni11  1  0.58441500  0.41558500  0.00000000  1
  Ni  Ni12  1  0.41558500  0.00000000  0.58441500  1
  Ni  Ni13  1  0.41558500  0.00000000  0.00000000  1
  Ni  Ni14  1  0.41558500  0.58441500  0.00000000  1
  Ni  Ni15  1  0.00000000  0.58441500  0.00000000  1
  Ni  Ni16  1  0.58441500  0.00000000  0.00000000  1
  Ni  Ni17  1  0.00000000  0.00000000  0.58441500  1
  Cu  Cu18  1  0.75880400  0.24119600  0.24119600  1
  Cu  Cu19  1  0.75880400  0.75880400  0.24119600  1
  Cu  Cu20  1  0.24119600  0.75880400  0.24119600  1
  Cu  Cu21  1  0.24119600  0.24119600  0.75880400  1
  Cu  Cu22  1  0.75880400  0.24119600  0.75880400  1
  Cu  Cu23  1  0.24119600  0.75880400  0.75880400  1
  Cu  Cu24  1  0.75000000  0.75000000  0.75000000  1
  Cu  Cu25  1  0.25000000  0.25000000  0.25000000  1
  Cu  Cu26  1  0.92053600  0.92053600  0.23839100  1
  Cu  Cu27  1  0.92053600  0.23839100  0.92053600  1
  Cu  Cu28  1  0.23839100  0.92053600  0.92053600  1
  Cu  Cu29  1  0.92053600  0.92053600  0.92053600  1
  Cu  Cu30  1  0.07946400  0.07946400  0.76160900  1
  Cu  Cu31  1  0.07946400  0.76160900  0.07946400  1
  Cu  Cu32  1  0.76160900  0.07946400  0.07946400  1
  Cu  Cu33  1  0.07946400  0.07946400  0.07946400  1
