# generated using pymatgen
data_Cu4NiC13
_symmetry_space_group_name_H-M   'P 1'
_cell_length_a   7.63060826
_cell_length_b   7.63060826
_cell_length_c   10.66993964
_cell_angle_alpha   65.67612041
_cell_angle_beta   65.67612041
_cell_angle_gamma   69.25576011
_symmetry_Int_Tables_number   1
_chemical_formula_structural   Cu4NiC13
_chemical_formula_sum   'Cu8 Ni2 C26'
_cell_volume   502.96570684
_cell_formula_units_Z   2
loop_
 _symmetry_equiv_pos_site_id
 _symmetry_equiv_pos_as_xyz
  1  'x, y, z'
loop_
 _atom_site_type_symbol
 _atom_site_label
 _atom_site_symmetry_multiplicity
 _atom_site_fract_x
 _atom_site_fract_y
 _atom_site_fract_z
 _atom_site_occupancy
  C  C0  1  0.00158400  0.99841600  0.25000000  1
  C  C1  1  0.99841600  0.00158400  0.75000000  1
  Ni  Ni2  1  0.00000000  0.50000000  0.50000000  1
  Ni  Ni3  1  0.50000000  0.00000000  0.00000000  1
  Cu  Cu4  1  0.69373200  0.68050100  0.81078400  1
  Cu  Cu5  1  0.25766300  0.72587800  0.97673400  1
  Cu  Cu6  1  0.27412200  0.74233700  0.52326600  1
  Cu  Cu7  1  0.68050100  0.69373200  0.31078400  1
  Cu  Cu8  1  0.31949900  0.30626800  0.68921600  1
  Cu  Cu9  1  0.72587800  0.25766300  0.47673400  1
  Cu  Cu10  1  0.74233700  0.27412200  0.02326600  1
  Cu  Cu11  1  0.30626800  0.31949900  0.18921600  1
  C  C12  1  0.79743200  0.65760700  0.66315400  1
  C  C13  1  0.29303000  0.80365400  0.07355900  1
  C  C14  1  0.46701700  0.68048800  0.85250500  1
  C  C15  1  0.10195200  0.83458700  0.90784900  1
  C  C16  1  0.86267900  0.71056400  0.32759800  1
  C  C17  1  0.22540700  0.50370200  0.06828300  1
  C  C18  1  0.80365400  0.29303000  0.57355900  1
  C  C19  1  0.16541300  0.89804800  0.59215100  1
  C  C20  1  0.49629800  0.77459300  0.43171700  1
  C  C21  1  0.65760700  0.79743200  0.16315400  1
  C  C22  1  0.31951200  0.53298300  0.64749500  1
  C  C23  1  0.28943600  0.13732100  0.17240200  1
  C  C24  1  0.71056400  0.86267900  0.82759800  1
  C  C25  1  0.68048800  0.46701700  0.35250500  1
  C  C26  1  0.34239300  0.20256800  0.83684600  1
  C  C27  1  0.50370200  0.22540700  0.56828300  1
  C  C28  1  0.83458700  0.10195200  0.40784900  1
  C  C29  1  0.19634600  0.70697000  0.42644100  1
  C  C30  1  0.77459300  0.49629800  0.93171700  1
  C  C31  1  0.13732100  0.28943600  0.67240200  1
  C  C32  1  0.89804800  0.16541300  0.09215100  1
  C  C33  1  0.53298300  0.31951200  0.14749500  1
  C  C34  1  0.70697000  0.19634600  0.92644100  1
  C  C35  1  0.20256800  0.34239300  0.33684600  1
