# generated using pymatgen
data_Cu2Ni20C
_symmetry_space_group_name_H-M   'P 1'
_cell_length_a   11.32407044
_cell_length_b   11.32407044
_cell_length_c   11.32407044
_cell_angle_alpha   60.00000000
_cell_angle_beta   60.00000000
_cell_angle_gamma   60.00000000
_symmetry_Int_Tables_number   1
_chemical_formula_structural   Cu2Ni20C
_chemical_formula_sum   'Cu4 Ni40 C2'
_cell_volume   1026.81614566
_cell_formula_units_Z   2
loop_
 _symmetry_equiv_pos_site_id
 _symmetry_equiv_pos_as_xyz
  1  'x, y, z'
loop_
 _atom_site_type_symbol
 _atom_site_label
 _atom_site_symmetry_multiplicity
 _atom_site_fract_x
 _atom_site_fract_y
 _atom_site_fract_z
 _atom_site_occupancy
  C  C0  1  0.50000000  0.50000000  0.50000000  1
  C  C1  1  0.75000000  0.75000000  0.75000000  1
  Ni  Ni2  1  0.56839100  0.30221300  0.30221300  1
  Ni  Ni3  1  0.30221300  0.56839100  0.82718300  1
  Ni  Ni4  1  0.30221300  0.82718300  0.56839100  1
  Ni  Ni5  1  0.82718300  0.30221300  0.30221300  1
  Ni  Ni6  1  0.30221300  0.30221300  0.56839100  1
  Ni  Ni7  1  0.56839100  0.82718300  0.30221300  1
  Ni  Ni8  1  0.82718300  0.56839100  0.30221300  1
  Ni  Ni9  1  0.30221300  0.30221300  0.82718300  1
  Ni  Ni10  1  0.30221300  0.56839100  0.30221300  1
  Ni  Ni11  1  0.82718300  0.30221300  0.56839100  1
  Ni  Ni12  1  0.56839100  0.30221300  0.82718300  1
  Ni  Ni13  1  0.30221300  0.82718300  0.30221300  1
  Ni  Ni14  1  0.68160900  0.94778700  0.94778700  1
  Ni  Ni15  1  0.94778700  0.68160900  0.42281700  1
  Ni  Ni16  1  0.94778700  0.42281700  0.68160900  1
  Ni  Ni17  1  0.42281700  0.94778700  0.94778700  1
  Ni  Ni18  1  0.94778700  0.94778700  0.68160900  1
  Ni  Ni19  1  0.68160900  0.42281700  0.94778700  1
  Ni  Ni20  1  0.42281700  0.68160900  0.94778700  1
  Ni  Ni21  1  0.94778700  0.94778700  0.42281700  1
  Ni  Ni22  1  0.94778700  0.68160900  0.94778700  1
  Ni  Ni23  1  0.42281700  0.94778700  0.68160900  1
  Ni  Ni24  1  0.68160900  0.94778700  0.42281700  1
  Ni  Ni25  1  0.94778700  0.42281700  0.94778700  1
  Ni  Ni26  1  0.86209900  0.86209900  0.13790100  1
  Ni  Ni27  1  0.13790100  0.13790100  0.86209900  1
  Ni  Ni28  1  0.86209900  0.13790100  0.86209900  1
  Ni  Ni29  1  0.13790100  0.86209900  0.13790100  1
  Ni  Ni30  1  0.13790100  0.86209900  0.86209900  1
  Ni  Ni31  1  0.86209900  0.13790100  0.13790100  1
  Ni  Ni32  1  0.38790100  0.38790100  0.11209900  1
  Ni  Ni33  1  0.11209900  0.11209900  0.38790100  1
  Ni  Ni34  1  0.38790100  0.11209900  0.38790100  1
  Ni  Ni35  1  0.11209900  0.38790100  0.11209900  1
  Ni  Ni36  1  0.11209900  0.38790100  0.38790100  1
  Ni  Ni37  1  0.38790100  0.11209900  0.11209900  1
  Ni  Ni38  1  0.12500000  0.62500000  0.62500000  1
  Ni  Ni39  1  0.62500000  0.12500000  0.62500000  1
  Ni  Ni40  1  0.62500000  0.62500000  0.12500000  1
  Ni  Ni41  1  0.62500000  0.62500000  0.62500000  1
  Cu  Cu42  1  0.62500000  0.12500000  0.12500000  1
  Cu  Cu43  1  0.12500000  0.62500000  0.12500000  1
  Cu  Cu44  1  0.12500000  0.12500000  0.62500000  1
  Cu  Cu45  1  0.12500000  0.12500000  0.12500000  1
