# generated using pymatgen
data_CuNiC5
_symmetry_space_group_name_H-M   'P 1'
_cell_length_a   5.69418700
_cell_length_b   10.36922600
_cell_length_c   13.29394700
_cell_angle_alpha   90.00000000
_cell_angle_beta   90.00000000
_cell_angle_gamma   90.00000000
_symmetry_Int_Tables_number   1
_chemical_formula_structural   CuNiC5
_chemical_formula_sum   'Cu8 Ni8 C40'
_cell_volume   784.93195291
_cell_formula_units_Z   8
loop_
 _symmetry_equiv_pos_site_id
 _symmetry_equiv_pos_as_xyz
  1  'x, y, z'
loop_
 _atom_site_type_symbol
 _atom_site_label
 _atom_site_symmetry_multiplicity
 _atom_site_fract_x
 _atom_site_fract_y
 _atom_site_fract_z
 _atom_site_occupancy
  Ni  Ni0  1  0.25000000  0.40725400  0.42276000  1
  Ni  Ni1  1  0.75000000  0.59274600  0.57724000  1
  Ni  Ni2  1  0.75000000  0.90725400  0.07724000  1
  Ni  Ni3  1  0.25000000  0.09274600  0.92276000  1
  Ni  Ni4  1  0.25000000  0.68495600  0.20717500  1
  Ni  Ni5  1  0.75000000  0.31504400  0.79282500  1
  Ni  Ni6  1  0.75000000  0.18495600  0.29282500  1
  Ni  Ni7  1  0.25000000  0.81504400  0.70717500  1
  Cu  Cu8  1  0.25000000  0.01286900  0.41734300  1
  Cu  Cu9  1  0.75000000  0.98713100  0.58265700  1
  Cu  Cu10  1  0.75000000  0.51286900  0.08265700  1
  Cu  Cu11  1  0.25000000  0.48713100  0.91734300  1
  Cu  Cu12  1  0.25000000  0.31202200  0.14113700  1
  Cu  Cu13  1  0.75000000  0.68797800  0.85886300  1
  Cu  Cu14  1  0.75000000  0.81202200  0.35886300  1
  Cu  Cu15  1  0.25000000  0.18797800  0.64113700  1
  C  C16  1  0.25000000  0.73439200  0.46053900  1
  C  C17  1  0.75000000  0.26560800  0.53946100  1
  C  C18  1  0.75000000  0.23439200  0.03946100  1
  C  C19  1  0.25000000  0.76560800  0.96053900  1
  C  C20  1  0.25000000  0.03183900  0.19476100  1
  C  C21  1  0.75000000  0.96816100  0.80523900  1
  C  C22  1  0.75000000  0.53183900  0.30523900  1
  C  C23  1  0.25000000  0.46816100  0.69476100  1
  C  C24  1  0.25000000  0.18582600  0.29698000  1
  C  C25  1  0.75000000  0.81417400  0.70302000  1
  C  C26  1  0.75000000  0.68582600  0.20302000  1
  C  C27  1  0.25000000  0.31417400  0.79698000  1
  C  C28  1  0.50897400  0.44263700  0.21403000  1
  C  C29  1  0.49102600  0.55736300  0.78597000  1
  C  C30  1  0.49102600  0.94263700  0.28597000  1
  C  C31  1  0.00897400  0.55736300  0.78597000  1
  C  C32  1  0.50897400  0.05736300  0.71403000  1
  C  C33  1  0.99102600  0.44263700  0.21403000  1
  C  C34  1  0.99102600  0.05736300  0.71403000  1
  C  C35  1  0.00897400  0.94263700  0.28597000  1
  C  C36  1  0.00988500  0.14039100  0.11384100  1
  C  C37  1  0.99011500  0.85960900  0.88615900  1
  C  C38  1  0.99011500  0.64039100  0.38615900  1
  C  C39  1  0.50988500  0.85960900  0.88615900  1
  C  C40  1  0.00988500  0.35960900  0.61384100  1
  C  C41  1  0.49011500  0.14039100  0.11384100  1
  C  C42  1  0.49011500  0.35960900  0.61384100  1
  C  C43  1  0.50988500  0.64039100  0.38615900  1
  C  C44  1  0.50365300  0.36594900  0.00854800  1
  C  C45  1  0.49634700  0.63405100  0.99145200  1
  C  C46  1  0.49634700  0.86594900  0.49145200  1
  C  C47  1  0.00365300  0.63405100  0.99145200  1
  C  C48  1  0.50365300  0.13405100  0.50854800  1
  C  C49  1  0.99634700  0.36594900  0.00854800  1
  C  C50  1  0.99634700  0.13405100  0.50854800  1
  C  C51  1  0.00365300  0.86594900  0.49145200  1
  C  C52  1  0.25000000  0.60998600  0.58841700  1
  C  C53  1  0.75000000  0.39001400  0.41158300  1
  C  C54  1  0.75000000  0.10998600  0.91158300  1
  C  C55  1  0.25000000  0.89001400  0.08841700  1
