# generated using pymatgen
data_Cu9Ni3C7
_symmetry_space_group_name_H-M   'P 1'
_cell_length_a   8.54108500
_cell_length_b   9.79005300
_cell_length_c   10.30307830
_cell_angle_alpha   81.30776390
_cell_angle_beta   90.00000000
_cell_angle_gamma   90.00000000
_symmetry_Int_Tables_number   1
_chemical_formula_structural   Cu9Ni3C7
_chemical_formula_sum   'Cu36 Ni12 C28'
_cell_volume   851.62436114
_cell_formula_units_Z   4
loop_
 _symmetry_equiv_pos_site_id
 _symmetry_equiv_pos_as_xyz
  1  'x, y, z'
loop_
 _atom_site_type_symbol
 _atom_site_label
 _atom_site_symmetry_multiplicity
 _atom_site_fract_x
 _atom_site_fract_y
 _atom_site_fract_z
 _atom_site_occupancy
  C  C0  1  0.09885900  0.18279800  0.56468500  1
  C  C1  1  0.90114100  0.81720200  0.43531500  1
  C  C2  1  0.59885900  0.81720200  0.93531500  1
  C  C3  1  0.40114100  0.18279800  0.06468500  1
  C  C4  1  0.06536900  0.60988500  0.78452900  1
  C  C5  1  0.93463100  0.39011500  0.21547100  1
  C  C6  1  0.56536900  0.39011500  0.71547100  1
  C  C7  1  0.43463100  0.60988500  0.28452900  1
  C  C8  1  0.01889000  0.63134000  0.92704100  1
  C  C9  1  0.98111000  0.36866000  0.07295900  1
  C  C10  1  0.51889000  0.36866000  0.57295900  1
  C  C11  1  0.48111000  0.63134000  0.42704100  1
  C  C12  1  0.23599700  0.73269400  0.90655000  1
  C  C13  1  0.76400300  0.26730600  0.09345000  1
  C  C14  1  0.73599700  0.26730600  0.59345000  1
  C  C15  1  0.26400300  0.73269400  0.40655000  1
  C  C16  1  0.14969900  0.40043500  0.91620300  1
  C  C17  1  0.85030100  0.59956500  0.08379700  1
  C  C18  1  0.64969900  0.59956500  0.58379700  1
  C  C19  1  0.35030100  0.40043500  0.41620300  1
  C  C20  1  0.90260700  0.75184700  0.09666400  1
  C  C21  1  0.09739300  0.24815300  0.90333600  1
  C  C22  1  0.40260700  0.24815300  0.40333600  1
  C  C23  1  0.59739300  0.75184700  0.59666400  1
  C  C24  1  0.24391900  0.85862700  0.99168500  1
  C  C25  1  0.75608100  0.14137300  0.00831500  1
  C  C26  1  0.74391900  0.14137300  0.50831500  1
  C  C27  1  0.25608100  0.85862700  0.49168500  1
  Ni  Ni28  1  0.01618600  0.50590600  0.57343300  1
  Ni  Ni29  1  0.98381400  0.49409400  0.42656700  1
  Ni  Ni30  1  0.51618600  0.49409400  0.92656700  1
  Ni  Ni31  1  0.48381400  0.50590600  0.07343300  1
  Ni  Ni32  1  0.40249600  0.97531600  0.67379700  1
  Ni  Ni33  1  0.59750400  0.02468400  0.32620300  1
  Ni  Ni34  1  0.90249600  0.02468400  0.82620300  1
  Ni  Ni35  1  0.09750400  0.97531600  0.17379700  1
  Ni  Ni36  1  0.89166400  0.91808300  0.72985700  1
  Ni  Ni37  1  0.10833600  0.08191700  0.27014300  1
  Ni  Ni38  1  0.39166400  0.08191700  0.77014300  1
  Ni  Ni39  1  0.60833600  0.91808300  0.22985700  1
  Cu  Cu40  1  0.10685500  0.60156600  0.87547600  1
  Cu  Cu41  1  0.89314500  0.39843400  0.12452400  1
  Cu  Cu42  1  0.60685500  0.39843400  0.62452400  1
  Cu  Cu43  1  0.39314500  0.60156600  0.37547600  1
  Cu  Cu44  1  0.14220000  0.30550500  0.96559800  1
  Cu  Cu45  1  0.85780000  0.69449500  0.03440200  1
  Cu  Cu46  1  0.64220000  0.69449500  0.53440200  1
  Cu  Cu47  1  0.35780000  0.30550500  0.46559800  1
  Cu  Cu48  1  0.30350400  0.80723900  0.93209400  1
  Cu  Cu49  1  0.69649600  0.19276100  0.06790600  1
  Cu  Cu50  1  0.80350400  0.19276100  0.56790600  1
  Cu  Cu51  1  0.19649600  0.80723900  0.43209400  1
  Cu  Cu52  1  0.49731400  0.87629700  0.70055900  1
  Cu  Cu53  1  0.50268600  0.12370300  0.29944100  1
  Cu  Cu54  1  0.99731400  0.12370300  0.79944100  1
  Cu  Cu55  1  0.00268600  0.87629700  0.20055900  1
  Cu  Cu56  1  0.98984600  0.62202000  0.60950900  1
  Cu  Cu57  1  0.01015400  0.37798000  0.39049100  1
  Cu  Cu58  1  0.48984600  0.37798000  0.89049100  1
  Cu  Cu59  1  0.51015400  0.62202000  0.10950900  1
  Cu  Cu60  1  0.06667700  0.39985500  0.64722900  1
  Cu  Cu61  1  0.93332300  0.60014500  0.35277100  1
  Cu  Cu62  1  0.56667700  0.60014500  0.85277100  1
  Cu  Cu63  1  0.43332300  0.39985500  0.14722900  1
  Cu  Cu64  1  0.97453300  0.94184400  0.62528700  1
  Cu  Cu65  1  0.02546700  0.05815600  0.37471300  1
  Cu  Cu66  1  0.47453300  0.05815600  0.87471300  1
  Cu  Cu67  1  0.52546700  0.94184400  0.12528700  1
  Cu  Cu68  1  0.80169100  0.81654100  0.75772100  1
  Cu  Cu69  1  0.19830900  0.18345900  0.24227900  1
  Cu  Cu70  1  0.30169100  0.18345900  0.74227900  1
  Cu  Cu71  1  0.69830900  0.81654100  0.25772100  1
  Cu  Cu72  1  0.31185800  0.99713900  0.57477200  1
  Cu  Cu73  1  0.68814200  0.00286100  0.42522800  1
  Cu  Cu74  1  0.81185800  0.00286100  0.92522800  1
  Cu  Cu75  1  0.18814200  0.99713900  0.07477200  1
