# generated using pymatgen
data_Cu4NiC
_symmetry_space_group_name_H-M   'P 1'
_cell_length_a   12.54171902
_cell_length_b   12.54171902
_cell_length_c   9.89108900
_cell_angle_alpha   90.00000000
_cell_angle_beta   90.00000000
_cell_angle_gamma   119.99999485
_symmetry_Int_Tables_number   1
_chemical_formula_structural   Cu4NiC
_chemical_formula_sum   'Cu72 Ni18 C18'
_cell_volume   1347.37628063
_cell_formula_units_Z   18
loop_
 _symmetry_equiv_pos_site_id
 _symmetry_equiv_pos_as_xyz
  1  'x, y, z'
loop_
 _atom_site_type_symbol
 _atom_site_label
 _atom_site_symmetry_multiplicity
 _atom_site_fract_x
 _atom_site_fract_y
 _atom_site_fract_z
 _atom_site_occupancy
  C  C0  1  0.56287000  0.78435200  0.75976700  1
  C  C1  1  0.22148200  0.43713000  0.75976700  1
  C  C2  1  0.21564800  0.77851800  0.75976700  1
  C  C3  1  0.56287000  0.78435200  0.24023300  1
  C  C4  1  0.22148200  0.43713000  0.24023300  1
  C  C5  1  0.21564800  0.77851800  0.24023300  1
  C  C6  1  0.89534900  0.45165300  0.74372300  1
  C  C7  1  0.55630500  0.10465100  0.74372300  1
  C  C8  1  0.54834700  0.44369500  0.74372300  1
  C  C9  1  0.89534900  0.45165300  0.25627700  1
  C  C10  1  0.55630500  0.10465100  0.25627700  1
  C  C11  1  0.54834700  0.44369500  0.25627700  1
  C  C12  1  0.87865100  0.76999900  0.74334500  1
  C  C13  1  0.89134800  0.12134900  0.74334500  1
  C  C14  1  0.23000100  0.10865200  0.74334500  1
  C  C15  1  0.87865100  0.76999900  0.25665500  1
  C  C16  1  0.89134800  0.12134900  0.25665500  1
  C  C17  1  0.23000100  0.10865200  0.25665500  1
  Ni  Ni18  1  0.84191100  0.31237400  0.00000000  1
  Ni  Ni19  1  0.47046300  0.15808900  0.00000000  1
  Ni  Ni20  1  0.68762600  0.52953700  0.00000000  1
  Ni  Ni21  1  0.44633100  0.86897300  0.00000000  1
  Ni  Ni22  1  0.42264100  0.55366900  0.00000000  1
  Ni  Ni23  1  0.13102700  0.57735900  0.00000000  1
  Ni  Ni24  1  0.80027200  0.82887300  0.00000000  1
  Ni  Ni25  1  0.02860000  0.19972800  0.00000000  1
  Ni  Ni26  1  0.17112700  0.97140000  0.00000000  1
  Ni  Ni27  1  0.75524600  0.53667000  0.50000000  1
  Ni  Ni28  1  0.78142400  0.24475400  0.50000000  1
  Ni  Ni29  1  0.46333000  0.21857600  0.50000000  1
  Ni  Ni30  1  0.10905500  0.90517200  0.50000000  1
  Ni  Ni31  1  0.79611600  0.89094500  0.50000000  1
  Ni  Ni32  1  0.09482800  0.20388400  0.50000000  1
  Ni  Ni33  1  0.51429700  0.86925800  0.50000000  1
  Ni  Ni34  1  0.35496000  0.48570300  0.50000000  1
  Ni  Ni35  1  0.13074200  0.64504000  0.50000000  1
  Cu  Cu36  1  0.84672600  0.41896700  0.00000000  1
  Cu  Cu37  1  0.57224100  0.15327400  0.00000000  1
  Cu  Cu38  1  0.58103300  0.42775900  0.00000000  1
  Cu  Cu39  1  0.84105600  0.26339100  0.88511600  1
  Cu  Cu40  1  0.42233400  0.15894400  0.88511600  1
  Cu  Cu41  1  0.73660900  0.57766600  0.88511600  1
  Cu  Cu42  1  0.84105600  0.26339100  0.11488400  1
  Cu  Cu43  1  0.42233400  0.15894400  0.11488400  1
  Cu  Cu44  1  0.73660900  0.57766600  0.11488400  1
  Cu  Cu45  1  0.50319300  0.80618200  0.00000000  1
  Cu  Cu46  1  0.30298900  0.49680700  0.00000000  1
  Cu  Cu47  1  0.19381800  0.69701100  0.00000000  1
  Cu  Cu48  1  0.48019100  0.58104800  0.88540600  1
  Cu  Cu49  1  0.10085700  0.51980900  0.88540600  1
  Cu  Cu50  1  0.41895200  0.89914300  0.88540600  1
  Cu  Cu51  1  0.48019100  0.58104800  0.11459400  1
  Cu  Cu52  1  0.10085700  0.51980900  0.11459400  1
  Cu  Cu53  1  0.41895200  0.89914300  0.11459400  1
  Cu  Cu54  1  0.90209600  0.82579800  0.00000000  1
  Cu  Cu55  1  0.92370300  0.09790400  0.00000000  1
  Cu  Cu56  1  0.17420200  0.07629700  0.00000000  1
  Cu  Cu57  1  0.75036600  0.82833900  0.88575200  1
  Cu  Cu58  1  0.07797300  0.24963400  0.88575200  1
  Cu  Cu59  1  0.17166100  0.92202700  0.88575200  1
  Cu  Cu60  1  0.75036600  0.82833900  0.11424800  1
  Cu  Cu61  1  0.07797300  0.24963400  0.11424800  1
  Cu  Cu62  1  0.17166100  0.92202700  0.11424800  1
  Cu  Cu63  1  0.83396300  0.36367700  0.50000000  1
  Cu  Cu64  1  0.52971400  0.16603700  0.50000000  1
  Cu  Cu65  1  0.63632300  0.47028600  0.50000000  1
  Cu  Cu66  1  0.81403800  0.56978200  0.61386100  1
  Cu  Cu67  1  0.75574400  0.18596200  0.61386100  1
  Cu  Cu68  1  0.43021800  0.24425600  0.61386100  1
  Cu  Cu69  1  0.81403800  0.56978200  0.38613900  1
  Cu  Cu70  1  0.75574400  0.18596200  0.38613900  1
  Cu  Cu71  1  0.43021800  0.24425600  0.38613900  1
  Cu  Cu72  1  0.85252500  0.82745500  0.50000000  1
  Cu  Cu73  1  0.97493000  0.14747500  0.50000000  1
  Cu  Cu74  1  0.17254500  0.02507000  0.50000000  1
  Cu  Cu75  1  0.07847100  0.84745800  0.61448200  1
  Cu  Cu76  1  0.76898700  0.92152900  0.61448200  1
  Cu  Cu77  1  0.15254200  0.23101300  0.61448200  1
  Cu  Cu78  1  0.07847100  0.84745800  0.38551800  1
  Cu  Cu79  1  0.76898700  0.92152900  0.38551800  1
  Cu  Cu80  1  0.15254200  0.23101300  0.38551800  1
  Cu  Cu81  1  0.51604400  0.76629200  0.50000000  1
  Cu  Cu82  1  0.25024800  0.48395600  0.50000000  1
  Cu  Cu83  1  0.23370800  0.74975200  0.50000000  1
  Cu  Cu84  1  0.51454000  0.91880900  0.61405500  1
  Cu  Cu85  1  0.40426900  0.48546000  0.61405500  1
  Cu  Cu86  1  0.08119100  0.59573100  0.61405500  1
  Cu  Cu87  1  0.51454000  0.91880900  0.38594500  1
  Cu  Cu88  1  0.40426900  0.48546000  0.38594500  1
  Cu  Cu89  1  0.08119100  0.59573100  0.38594500  1
  Cu  Cu90  1  0.33333300  0.66666700  0.73949700  1
  Cu  Cu91  1  0.33333300  0.66666700  0.26050300  1
  Cu  Cu92  1  0.66666700  0.33333300  0.75385400  1
  Cu  Cu93  1  0.66666700  0.33333300  0.24614600  1
  Cu  Cu94  1  0.00000000  0.00000000  0.75821700  1
  Cu  Cu95  1  0.00000000  0.00000000  0.24178300  1
  Cu  Cu96  1  0.00758400  0.34478100  0.69166300  1
  Cu  Cu97  1  0.33719800  0.99241600  0.69166300  1
  Cu  Cu98  1  0.65521900  0.66280200  0.69166300  1
  Cu  Cu99  1  0.00758400  0.34478100  0.30833700  1
  Cu  Cu100  1  0.33719800  0.99241600  0.30833700  1
  Cu  Cu101  1  0.65521900  0.66280200  0.30833700  1
  Cu  Cu102  1  0.99299000  0.66927800  0.80633000  1
  Cu  Cu103  1  0.67628800  0.00701000  0.80633000  1
  Cu  Cu104  1  0.33072200  0.32371200  0.80633000  1
  Cu  Cu105  1  0.99299000  0.66927800  0.19367000  1
  Cu  Cu106  1  0.67628800  0.00701000  0.19367000  1
  Cu  Cu107  1  0.33072200  0.32371200  0.19367000  1
