# generated using pymatgen
data_Cu10Ni2C
_symmetry_space_group_name_H-M   'P 1'
_cell_length_a   7.32137100
_cell_length_b   7.32137100
_cell_length_c   9.74287600
_cell_angle_alpha   90.00000000
_cell_angle_beta   90.00000000
_cell_angle_gamma   90.00000000
_symmetry_Int_Tables_number   1
_chemical_formula_structural   Cu10Ni2C
_chemical_formula_sum   'Cu20 Ni4 C2'
_cell_volume   522.24225085
_cell_formula_units_Z   2
loop_
 _symmetry_equiv_pos_site_id
 _symmetry_equiv_pos_as_xyz
  1  'x, y, z'
loop_
 _atom_site_type_symbol
 _atom_site_label
 _atom_site_symmetry_multiplicity
 _atom_site_fract_x
 _atom_site_fract_y
 _atom_site_fract_z
 _atom_site_occupancy
  C  C0  1  0.50000000  0.00000000  0.74871700  1
  C  C1  1  0.00000000  0.50000000  0.24871700  1
  Ni  Ni2  1  0.00000000  0.00000000  0.50915200  1
  Ni  Ni3  1  0.00000000  0.00000000  0.00915200  1
  Ni  Ni4  1  0.50000000  0.50000000  0.48511000  1
  Ni  Ni5  1  0.50000000  0.50000000  0.98511000  1
  Cu  Cu6  1  0.00000000  0.82924400  0.58919600  1
  Cu  Cu7  1  0.00000000  0.17075600  0.58919600  1
  Cu  Cu8  1  0.17075600  0.00000000  0.08919600  1
  Cu  Cu9  1  0.82924400  0.00000000  0.08919600  1
  Cu  Cu10  1  0.50000000  0.67123100  0.40561000  1
  Cu  Cu11  1  0.50000000  0.32876900  0.40561000  1
  Cu  Cu12  1  0.32876900  0.50000000  0.90561000  1
  Cu  Cu13  1  0.67123100  0.50000000  0.90561000  1
  Cu  Cu14  1  0.50000000  0.00000000  0.54647700  1
  Cu  Cu15  1  0.00000000  0.50000000  0.04647700  1
  Cu  Cu16  1  0.50000000  0.00000000  0.95143200  1
  Cu  Cu17  1  0.00000000  0.50000000  0.45143200  1
  Cu  Cu18  1  0.69811400  0.81114400  0.74515000  1
  Cu  Cu19  1  0.30188600  0.18885600  0.74515000  1
  Cu  Cu20  1  0.18885600  0.69811400  0.24515000  1
  Cu  Cu21  1  0.81114400  0.30188600  0.24515000  1
  Cu  Cu22  1  0.30188600  0.81114400  0.74515000  1
  Cu  Cu23  1  0.69811400  0.18885600  0.74515000  1
  Cu  Cu24  1  0.81114400  0.69811400  0.24515000  1
  Cu  Cu25  1  0.18885600  0.30188600  0.24515000  1
