# generated using pymatgen
data_Cu16Ni4C11
_symmetry_space_group_name_H-M   'P 1'
_cell_length_a   6.50015200
_cell_length_b   10.00007694
_cell_length_c   10.11282770
_cell_angle_alpha   75.32759768
_cell_angle_beta   89.77653472
_cell_angle_gamma   89.14134564
_symmetry_Int_Tables_number   1
_chemical_formula_structural   Cu16Ni4C11
_chemical_formula_sum   'Cu16 Ni4 C11'
_cell_volume   635.84640874
_cell_formula_units_Z   1
loop_
 _symmetry_equiv_pos_site_id
 _symmetry_equiv_pos_as_xyz
  1  'x, y, z'
loop_
 _atom_site_type_symbol
 _atom_site_label
 _atom_site_symmetry_multiplicity
 _atom_site_fract_x
 _atom_site_fract_y
 _atom_site_fract_z
 _atom_site_occupancy
  C  C0  1  0.30515800  0.10555300  0.13302600  1
  C  C1  1  0.66486900  0.36619700  0.89167300  1
  C  C2  1  0.69949200  0.88235000  0.37324400  1
  C  C3  1  0.96804900  0.68063500  0.12929900  1
  C  C4  1  0.67527100  0.11092000  0.63195500  1
  C  C5  1  0.31696600  0.86338000  0.88967900  1
  C  C6  1  0.31911800  0.38577000  0.36778300  1
  C  C7  1  0.13276400  0.24174400  0.74863100  1
  C  C8  1  0.83221200  0.74318600  0.77190100  1
  C  C9  1  0.84858400  0.25713200  0.24728800  1
  C  C10  1  0.30127300  0.62869500  0.61113200  1
  Ni  Ni11  1  0.79443800  0.50351500  0.49425500  1
  Ni  Ni12  1  0.81618000  0.99910600  0.00293900  1
  Ni  Ni13  1  0.17187900  0.48581800  0.99153500  1
  Ni  Ni14  1  0.17516200  0.99801300  0.50967700  1
  Cu  Cu15  1  0.10967800  0.93242700  0.06196400  1
  Cu  Cu16  1  0.10618600  0.45353000  0.54962000  1
  Cu  Cu17  1  0.79695900  0.16498900  0.83301300  1
  Cu  Cu18  1  0.74968400  0.66098700  0.32980700  1
  Cu  Cu19  1  0.65082500  0.54699100  0.66557400  1
  Cu  Cu20  1  0.67650700  0.06322700  0.16145400  1
  Cu  Cu21  1  0.30197000  0.31906000  0.93852700  1
  Cu  Cu22  1  0.32741300  0.84092400  0.44700800  1
  Cu  Cu23  1  0.18479500  0.66244500  0.82052200  1
  Cu  Cu24  1  0.18897000  0.16549400  0.34157300  1
  Cu  Cu25  1  0.86734900  0.46344800  0.04483700  1
  Cu  Cu26  1  0.87763000  0.93773800  0.56050700  1
  Cu  Cu27  1  0.32450600  0.54734600  0.13825500  1
  Cu  Cu28  1  0.31472900  0.04743500  0.67285200  1
  Cu  Cu29  1  0.67464100  0.82876700  0.96983500  1
  Cu  Cu30  1  0.67539600  0.32841600  0.45539100  1
