# generated using pymatgen
data_CuNi3C29
_symmetry_space_group_name_H-M   'P 1'
_cell_length_a   12.30115740
_cell_length_b   12.30115740
_cell_length_c   14.85988500
_cell_angle_alpha   90.00000000
_cell_angle_beta   90.00000000
_cell_angle_gamma   153.73486593
_symmetry_Int_Tables_number   1
_chemical_formula_structural   CuNi3C29
_chemical_formula_sum   'Cu2 Ni6 C58'
_cell_volume   995.05199352
_cell_formula_units_Z   2
loop_
 _symmetry_equiv_pos_site_id
 _symmetry_equiv_pos_as_xyz
  1  'x, y, z'
loop_
 _atom_site_type_symbol
 _atom_site_label
 _atom_site_symmetry_multiplicity
 _atom_site_fract_x
 _atom_site_fract_y
 _atom_site_fract_z
 _atom_site_occupancy
  Ni  Ni0  1  0.00904700  0.85028100  0.25000000  1
  Ni  Ni1  1  0.85028100  0.00904700  0.75000000  1
  Ni  Ni2  1  0.68885600  0.17419700  0.88652200  1
  Ni  Ni3  1  0.17419700  0.68885600  0.11347800  1
  Ni  Ni4  1  0.68885600  0.17419700  0.61347800  1
  Ni  Ni5  1  0.17419700  0.68885600  0.38652200  1
  Cu  Cu6  1  0.47568200  0.25285700  0.75000000  1
  Cu  Cu7  1  0.25285700  0.47568200  0.25000000  1
  C  C8  1  0.61580200  0.39693500  0.02926700  1
  C  C9  1  0.39693500  0.61580200  0.97073300  1
  C  C10  1  0.61580200  0.39693500  0.47073300  1
  C  C11  1  0.39693500  0.61580200  0.52926700  1
  C  C12  1  0.99745600  0.99745600  0.00000000  1
  C  C13  1  0.99745600  0.99745600  0.50000000  1
  C  C14  1  0.63714000  0.28227700  0.25000000  1
  C  C15  1  0.28227700  0.63714000  0.75000000  1
  C  C16  1  0.11554800  0.81605700  0.94310500  1
  C  C17  1  0.81605700  0.11554800  0.05689500  1
  C  C18  1  0.11554800  0.81605700  0.55689500  1
  C  C19  1  0.81605700  0.11554800  0.44310500  1
  C  C20  1  0.44111600  0.44035500  0.86190300  1
  C  C21  1  0.44035500  0.44111600  0.13809700  1
  C  C22  1  0.44111600  0.44035500  0.63809700  1
  C  C23  1  0.44035500  0.44111600  0.36190300  1
  C  C24  1  0.10112300  0.71958300  0.75000000  1
  C  C25  1  0.71958300  0.10112300  0.25000000  1
  C  C26  1  0.95974100  0.78633400  0.96383100  1
  C  C27  1  0.78633400  0.95974100  0.03616900  1
  C  C28  1  0.95974100  0.78633400  0.53616900  1
  C  C29  1  0.78633400  0.95974100  0.46383100  1
  C  C30  1  0.91890700  0.54349600  0.96958000  1
  C  C31  1  0.54349600  0.91890700  0.03042000  1
  C  C32  1  0.91890700  0.54349600  0.53042000  1
  C  C33  1  0.54349600  0.91890700  0.46958000  1
  C  C34  1  0.45203400  0.43236500  0.75000000  1
  C  C35  1  0.43236500  0.45203400  0.25000000  1
  C  C36  1  0.19975300  0.88243900  0.83524500  1
  C  C37  1  0.88243900  0.19975300  0.16475500  1
  C  C38  1  0.19975300  0.88243900  0.66475500  1
  C  C39  1  0.88243900  0.19975300  0.33524500  1
  C  C40  1  0.78630700  0.29352600  0.25000000  1
  C  C41  1  0.29352600  0.78630700  0.75000000  1
  C  C42  1  0.66891400  0.72224900  0.89430400  1
  C  C43  1  0.72224900  0.66891400  0.10569600  1
  C  C44  1  0.66891400  0.72224900  0.60569600  1
  C  C45  1  0.72224900  0.66891400  0.39430400  1
  C  C46  1  0.36968900  0.02945800  0.00029700  1
  C  C47  1  0.02945800  0.36968900  0.99970300  1
  C  C48  1  0.36968900  0.02945800  0.49970300  1
  C  C49  1  0.02945800  0.36968900  0.50029700  1
  C  C50  1  0.74775200  0.44439600  0.16138200  1
  C  C51  1  0.44439600  0.74775200  0.83861800  1
  C  C52  1  0.74775200  0.44439600  0.33861800  1
  C  C53  1  0.44439600  0.74775200  0.66138200  1
  C  C54  1  0.28355200  0.19010500  0.11004500  1
  C  C55  1  0.19010500  0.28355200  0.88995500  1
  C  C56  1  0.28355200  0.19010500  0.38995500  1
  C  C57  1  0.19010500  0.28355200  0.61004500  1
  C  C58  1  0.34488600  0.99438800  0.25000000  1
  C  C59  1  0.99438800  0.34488600  0.75000000  1
  C  C60  1  0.42201900  0.30531300  0.90999500  1
  C  C61  1  0.30531300  0.42201900  0.09000500  1
  C  C62  1  0.42201900  0.30531300  0.59000500  1
  C  C63  1  0.30531300  0.42201900  0.40999500  1
  C  C64  1  0.81553900  0.43357000  0.75000000  1
  C  C65  1  0.43357000  0.81553900  0.25000000  1
