# generated using pymatgen
data_Cu3NiC12
_symmetry_space_group_name_H-M   'P 1'
_cell_length_a   22.86606423
_cell_length_b   7.64342065
_cell_length_c   7.64342216
_cell_angle_alpha   39.99569048
_cell_angle_beta   43.20651985
_cell_angle_gamma   43.20650770
_symmetry_Int_Tables_number   1
_chemical_formula_structural   Cu3NiC12
_chemical_formula_sum   'Cu6 Ni2 C24'
_cell_volume   541.91340695
_cell_formula_units_Z   2
loop_
 _symmetry_equiv_pos_site_id
 _symmetry_equiv_pos_as_xyz
  1  'x, y, z'
loop_
 _atom_site_type_symbol
 _atom_site_label
 _atom_site_symmetry_multiplicity
 _atom_site_fract_x
 _atom_site_fract_y
 _atom_site_fract_z
 _atom_site_occupancy
  C  C0  1  0.21621500  0.59734800  0.31570000  1
  C  C1  1  0.45045200  0.68430000  0.40265200  1
  C  C2  1  0.83333300  0.40000100  0.59999900  1
  Ni  Ni3  1  0.66989300  0.89965000  0.98461700  1
  Ni  Ni4  1  0.99677400  0.01538300  0.10035000  1
  Cu  Cu5  1  0.22851300  0.71318600  0.69874400  1
  Cu  Cu6  1  0.55575700  0.65486100  0.64827400  1
  Cu  Cu7  1  0.90847700  0.67973800  0.74718200  1
  Cu  Cu8  1  0.11091000  0.35172600  0.34513900  1
  Cu  Cu9  1  0.43815300  0.30125600  0.28681400  1
  Cu  Cu10  1  0.75819000  0.25281800  0.32026200  1
  C  C11  1  0.12236800  0.95124400  0.55994700  1
  C  C12  1  0.54771200  0.91710800  0.24838500  1
  C  C13  1  0.79073600  0.95768200  0.30651700  1
  C  C14  1  0.36029700  0.16338900  0.42596300  1
  C  C15  1  0.63201200  0.24671800  0.67077300  1
  C  C16  1  0.97848500  0.65740900  0.34624800  1
  C  C17  1  0.19078600  0.38310400  0.94973500  1
  C  C18  1  0.45109800  0.55540400  0.86505400  1
  C  C19  1  0.71261300  0.58067400  0.00025200  1
  C  C20  1  0.21556800  0.13494600  0.44459600  1
  C  C21  1  0.47588100  0.05026500  0.61689600  1
  C  C22  1  0.95405400  0.99974800  0.41932600  1
  C  C23  1  0.03465500  0.32922700  0.75328200  1
  C  C24  1  0.30636900  0.57403700  0.83661100  1
  C  C25  1  0.68818200  0.65375200  0.34259100  1
  C  C26  1  0.88422800  0.29434300  0.02669500  1
  C  C27  1  0.33333300  0.64222900  0.35777100  1
  C  C28  1  0.78243900  0.97330500  0.70565700  1
  C  C29  1  0.11895400  0.75161500  0.08289200  1
  C  C30  1  0.54429900  0.44005300  0.04875600  1
  C  C31  1  0.87593100  0.69348300  0.04231800  1
