# generated using pymatgen
data_Cu8Ni5C13
_symmetry_space_group_name_H-M   'P 1'
_cell_length_a   7.43762618
_cell_length_b   7.43762618
_cell_length_c   10.80177600
_cell_angle_alpha   90.00000000
_cell_angle_beta   90.00000000
_cell_angle_gamma   94.34082198
_symmetry_Int_Tables_number   1
_chemical_formula_structural   Cu8Ni5C13
_chemical_formula_sum   'Cu16 Ni10 C26'
_cell_volume   595.82164838
_cell_formula_units_Z   2
loop_
 _symmetry_equiv_pos_site_id
 _symmetry_equiv_pos_as_xyz
  1  'x, y, z'
loop_
 _atom_site_type_symbol
 _atom_site_label
 _atom_site_symmetry_multiplicity
 _atom_site_fract_x
 _atom_site_fract_y
 _atom_site_fract_z
 _atom_site_occupancy
  C  C0  1  0.57958200  0.57958200  0.50000000  1
  C  C1  1  0.07958200  0.07958200  0.00000000  1
  Ni  Ni2  1  0.91322300  0.91322300  0.50000000  1
  Ni  Ni3  1  0.41322300  0.41322300  0.00000000  1
  Ni  Ni4  1  0.92530500  0.74277600  0.69973300  1
  Ni  Ni5  1  0.74277600  0.92530500  0.30026700  1
  Ni  Ni6  1  0.42530500  0.24277600  0.80026700  1
  Ni  Ni7  1  0.24277600  0.42530500  0.19973300  1
  Ni  Ni8  1  0.92961000  0.06656300  0.70780700  1
  Ni  Ni9  1  0.06656300  0.92961000  0.29219300  1
  Ni  Ni10  1  0.42961000  0.56656300  0.79219300  1
  Ni  Ni11  1  0.56656300  0.42961000  0.20780700  1
  Cu  Cu12  1  0.27294100  0.02317300  0.47350100  1
  Cu  Cu13  1  0.02317300  0.27294100  0.52649900  1
  Cu  Cu14  1  0.77294100  0.52317300  0.02649900  1
  Cu  Cu15  1  0.52317300  0.77294100  0.97350100  1
  Cu  Cu16  1  0.43574000  0.15986900  0.43440200  1
  Cu  Cu17  1  0.15986900  0.43574000  0.56559800  1
  Cu  Cu18  1  0.93574000  0.65986900  0.06559800  1
  Cu  Cu19  1  0.65986900  0.93574000  0.93440200  1
  Cu  Cu20  1  0.42525100  0.09276600  0.64602800  1
  Cu  Cu21  1  0.09276600  0.42525100  0.35397200  1
  Cu  Cu22  1  0.92525100  0.59276600  0.85397200  1
  Cu  Cu23  1  0.59276600  0.92525100  0.14602800  1
  Cu  Cu24  1  0.92960400  0.33592800  0.75067100  1
  Cu  Cu25  1  0.33592800  0.92960400  0.24932900  1
  Cu  Cu26  1  0.42960400  0.83592800  0.74932900  1
  Cu  Cu27  1  0.83592800  0.42960400  0.25067100  1
  C  C28  1  0.90860400  0.74804300  0.57479200  1
  C  C29  1  0.74804300  0.90860400  0.42520800  1
  C  C30  1  0.40860400  0.24804300  0.92520800  1
  C  C31  1  0.24804300  0.40860400  0.07479200  1
  C  C32  1  0.92483300  0.07628600  0.58181300  1
  C  C33  1  0.07628600  0.92483300  0.41818700  1
  C  C34  1  0.42483300  0.57628600  0.91818700  1
  C  C35  1  0.57628600  0.42483300  0.08181300  1
  C  C36  1  0.93392300  0.90224300  0.77037400  1
  C  C37  1  0.90224300  0.93392300  0.22962600  1
  C  C38  1  0.43392300  0.40224300  0.72962600  1
  C  C39  1  0.40224300  0.43392300  0.27037400  1
  C  C40  1  0.92788700  0.58097100  0.76073400  1
  C  C41  1  0.58097100  0.92788700  0.23926600  1
  C  C42  1  0.42788700  0.08097100  0.73926600  1
  C  C43  1  0.08097100  0.42788700  0.26073400  1
  C  C44  1  0.93425900  0.21312900  0.78515900  1
  C  C45  1  0.21312900  0.93425900  0.21484100  1
  C  C46  1  0.43425900  0.71312900  0.71484100  1
  C  C47  1  0.71312900  0.43425900  0.28515900  1
  C  C48  1  0.39327400  0.07811500  0.49998900  1
  C  C49  1  0.07811500  0.39327400  0.50001100  1
  C  C50  1  0.89327400  0.57811500  0.00001100  1
  C  C51  1  0.57811500  0.89327400  0.99998900  1
