# generated using pymatgen
data_CuNi2C
_symmetry_space_group_name_H-M   'P 1'
_cell_length_a   4.18645800
_cell_length_b   4.20903400
_cell_length_c   8.67401624
_cell_angle_alpha   75.95858830
_cell_angle_beta   90.00000000
_cell_angle_gamma   90.00000000
_symmetry_Int_Tables_number   1
_chemical_formula_structural   CuNi2C
_chemical_formula_sum   'Cu2 Ni4 C2'
_cell_volume   148.27746017
_cell_formula_units_Z   2
loop_
 _symmetry_equiv_pos_site_id
 _symmetry_equiv_pos_as_xyz
  1  'x, y, z'
loop_
 _atom_site_type_symbol
 _atom_site_label
 _atom_site_symmetry_multiplicity
 _atom_site_fract_x
 _atom_site_fract_y
 _atom_site_fract_z
 _atom_site_occupancy
  C  C0  1  0.75000000  0.89387600  0.21224800  1
  C  C1  1  0.25000000  0.10612400  0.78775200  1
  Ni  Ni2  1  0.75000000  0.53616500  0.92767000  1
  Ni  Ni3  1  0.25000000  0.46383500  0.07233000  1
  Ni  Ni4  1  0.75000000  0.24927000  0.50146000  1
  Ni  Ni5  1  0.25000000  0.75073000  0.49854000  1
  Cu  Cu6  1  0.75000000  0.67697200  0.64605600  1
  Cu  Cu7  1  0.25000000  0.32302800  0.35394400  1
