# generated using pymatgen
data_Cu2NiC12
_symmetry_space_group_name_H-M   'P 1'
_cell_length_a   5.49571000
_cell_length_b   7.69655600
_cell_length_c   16.74955700
_cell_angle_alpha   90.00000000
_cell_angle_beta   90.00000000
_cell_angle_gamma   90.00000000
_symmetry_Int_Tables_number   1
_chemical_formula_structural   Cu2NiC12
_chemical_formula_sum   'Cu8 Ni4 C48'
_cell_volume   708.47342820
_cell_formula_units_Z   4
loop_
 _symmetry_equiv_pos_site_id
 _symmetry_equiv_pos_as_xyz
  1  'x, y, z'
loop_
 _atom_site_type_symbol
 _atom_site_label
 _atom_site_symmetry_multiplicity
 _atom_site_fract_x
 _atom_site_fract_y
 _atom_site_fract_z
 _atom_site_occupancy
  Ni  Ni0  1  0.00888900  0.75000000  0.34815400  1
  Ni  Ni1  1  0.49111100  0.75000000  0.84815400  1
  Ni  Ni2  1  0.99111100  0.25000000  0.65184600  1
  Ni  Ni3  1  0.50888900  0.25000000  0.15184600  1
  Cu  Cu4  1  0.01225600  0.75000000  0.68236500  1
  Cu  Cu5  1  0.00820200  0.75000000  0.01391000  1
  Cu  Cu6  1  0.48774400  0.75000000  0.18236500  1
  Cu  Cu7  1  0.49179800  0.75000000  0.51391000  1
  Cu  Cu8  1  0.98774400  0.25000000  0.31763500  1
  Cu  Cu9  1  0.99179800  0.25000000  0.98609000  1
  Cu  Cu10  1  0.50820200  0.25000000  0.48609000  1
  Cu  Cu11  1  0.51225600  0.25000000  0.81763500  1
  C  C12  1  0.49838400  0.50146600  0.33296200  1
  C  C13  1  0.50161600  0.49853400  0.66703800  1
  C  C14  1  0.50000000  0.50000000  0.00000000  1
  C  C15  1  0.00000000  0.00000000  0.50000000  1
  C  C16  1  0.00161600  0.99853400  0.83296200  1
  C  C17  1  0.99838400  0.00146600  0.16703800  1
  C  C18  1  0.49838400  0.99853400  0.33296200  1
  C  C19  1  0.50161600  0.00146600  0.66703800  1
  C  C20  1  0.50000000  0.00000000  0.00000000  1
  C  C21  1  0.99838400  0.49853400  0.16703800  1
  C  C22  1  0.00000000  0.50000000  0.50000000  1
  C  C23  1  0.00161600  0.50146600  0.83296200  1
  C  C24  1  0.29078300  0.53745900  0.43100400  1
  C  C25  1  0.28851300  0.54397400  0.76323600  1
  C  C26  1  0.28208300  0.54624100  0.09560600  1
  C  C27  1  0.21148700  0.95602600  0.26323600  1
  C  C28  1  0.21791700  0.95375900  0.59560600  1
  C  C29  1  0.20921700  0.96254100  0.93100400  1
  C  C30  1  0.71148700  0.04397400  0.23676400  1
  C  C31  1  0.70921700  0.03745900  0.56899600  1
  C  C32  1  0.71791700  0.04624100  0.90439400  1
  C  C33  1  0.78208300  0.45375900  0.40439400  1
  C  C34  1  0.78851300  0.45602600  0.73676400  1
  C  C35  1  0.79078300  0.46254100  0.06899600  1
  C  C36  1  0.71148700  0.45602600  0.23676400  1
  C  C37  1  0.70921700  0.46254100  0.56899600  1
  C  C38  1  0.71791700  0.45375900  0.90439400  1
  C  C39  1  0.78208300  0.04624100  0.40439400  1
  C  C40  1  0.78851300  0.04397400  0.73676400  1
  C  C41  1  0.79078300  0.03745900  0.06899600  1
  C  C42  1  0.29078300  0.96254100  0.43100400  1
  C  C43  1  0.28851300  0.95602600  0.76323600  1
  C  C44  1  0.28208300  0.95375900  0.09560600  1
  C  C45  1  0.21148700  0.54397400  0.26323600  1
  C  C46  1  0.21791700  0.54624100  0.59560600  1
  C  C47  1  0.20921700  0.53745900  0.93100400  1
  C  C48  1  0.92186400  0.75000000  0.49440000  1
  C  C49  1  0.91673500  0.75000000  0.82652500  1
  C  C50  1  0.91667000  0.75000000  0.15865800  1
  C  C51  1  0.58326500  0.75000000  0.32652500  1
  C  C52  1  0.58333000  0.75000000  0.65865800  1
  C  C53  1  0.57813600  0.75000000  0.99440000  1
  C  C54  1  0.08326500  0.25000000  0.17347500  1
  C  C55  1  0.07813600  0.25000000  0.50560000  1
  C  C56  1  0.08333000  0.25000000  0.84134200  1
  C  C57  1  0.41667000  0.25000000  0.34134200  1
  C  C58  1  0.41673500  0.25000000  0.67347500  1
  C  C59  1  0.42186400  0.25000000  0.00560000  1
