# generated using pymatgen
data_CuNiC8
_symmetry_space_group_name_H-M   'P 1'
_cell_length_a   7.40455503
_cell_length_b   7.40455503
_cell_length_c   5.75291662
_cell_angle_alpha   69.60620106
_cell_angle_beta   69.60620106
_cell_angle_gamma   86.17204142
_symmetry_Int_Tables_number   1
_chemical_formula_structural   CuNiC8
_chemical_formula_sum   'Cu2 Ni2 C16'
_cell_volume   276.57889019
_cell_formula_units_Z   2
loop_
 _symmetry_equiv_pos_site_id
 _symmetry_equiv_pos_as_xyz
  1  'x, y, z'
loop_
 _atom_site_type_symbol
 _atom_site_label
 _atom_site_symmetry_multiplicity
 _atom_site_fract_x
 _atom_site_fract_y
 _atom_site_fract_z
 _atom_site_occupancy
  C  C0  1  0.31652400  0.68347600  0.50000000  1
  C  C1  1  0.68288400  0.31711600  0.00000000  1
  Ni  Ni2  1  0.91718200  0.70026100  0.13562000  1
  Ni  Ni3  1  0.29973900  0.08281800  0.86438000  1
  Cu  Cu4  1  0.08268200  0.28588200  0.37139600  1
  Cu  Cu5  1  0.71411800  0.91731800  0.62860400  1
  C  C6  1  0.32410700  0.41112200  0.26631800  1
  C  C7  1  0.58887800  0.67589300  0.73368200  1
  C  C8  1  0.66686200  0.58361900  0.23781700  1
  C  C9  1  0.41638100  0.33313800  0.76218300  1
  C  C10  1  0.96077200  0.54777700  0.46773100  1
  C  C11  1  0.45222300  0.03922800  0.53226900  1
  C  C12  1  0.02894500  0.47771600  0.01896200  1
  C  C13  1  0.52228400  0.97105500  0.98103800  1
  C  C14  1  0.18684600  0.06593100  0.23533700  1
  C  C15  1  0.93406900  0.81315400  0.76466300  1
  C  C16  1  0.81939000  0.92123800  0.23623900  1
  C  C17  1  0.07876200  0.18061000  0.76376100  1
  C  C18  1  0.81720500  0.18279500  0.50000000  1
  C  C19  1  0.19014800  0.80985200  0.00000000  1
