# generated using pymatgen
data_CuNi3C19
_symmetry_space_group_name_H-M   'P 1'
_cell_length_a   8.52584200
_cell_length_b   8.52584200
_cell_length_c   8.52584200
_cell_angle_alpha   90.00000000
_cell_angle_beta   90.00000000
_cell_angle_gamma   90.00000000
_symmetry_Int_Tables_number   1
_chemical_formula_structural   CuNi3C19
_chemical_formula_sum   'Cu2 Ni6 C38'
_cell_volume   619.74329989
_cell_formula_units_Z   2
loop_
 _symmetry_equiv_pos_site_id
 _symmetry_equiv_pos_as_xyz
  1  'x, y, z'
loop_
 _atom_site_type_symbol
 _atom_site_label
 _atom_site_symmetry_multiplicity
 _atom_site_fract_x
 _atom_site_fract_y
 _atom_site_fract_z
 _atom_site_occupancy
  C  C0  1  0.68797400  0.68797400  0.68797400  1
  C  C1  1  0.18797400  0.18797400  0.18797400  1
  C  C2  1  0.81202600  0.81202600  0.18797400  1
  C  C3  1  0.31202600  0.31202600  0.68797400  1
  C  C4  1  0.68797400  0.31202600  0.31202600  1
  C  C5  1  0.81202600  0.18797400  0.81202600  1
  C  C6  1  0.18797400  0.81202600  0.81202600  1
  C  C7  1  0.31202600  0.68797400  0.31202600  1
  C  C8  1  0.25000000  0.50000000  0.00000000  1
  C  C9  1  0.50000000  0.00000000  0.75000000  1
  C  C10  1  0.50000000  0.00000000  0.25000000  1
  C  C11  1  0.00000000  0.25000000  0.50000000  1
  C  C12  1  0.00000000  0.75000000  0.50000000  1
  C  C13  1  0.75000000  0.50000000  0.00000000  1
  Ni  Ni14  1  0.75000000  0.00000000  0.50000000  1
  Ni  Ni15  1  0.25000000  0.00000000  0.50000000  1
  Ni  Ni16  1  0.00000000  0.50000000  0.75000000  1
  Ni  Ni17  1  0.00000000  0.50000000  0.25000000  1
  Ni  Ni18  1  0.50000000  0.25000000  0.00000000  1
  Ni  Ni19  1  0.50000000  0.75000000  0.00000000  1
  Cu  Cu20  1  0.00000000  0.00000000  0.00000000  1
  Cu  Cu21  1  0.50000000  0.50000000  0.50000000  1
  C  C22  1  0.64460200  0.92727600  0.64455500  1
  C  C23  1  0.64460200  0.07272400  0.35544500  1
  C  C24  1  0.92727600  0.64455500  0.64460200  1
  C  C25  1  0.07272400  0.64455500  0.35539800  1
  C  C26  1  0.64455500  0.64460200  0.92727600  1
  C  C27  1  0.35544500  0.35539800  0.92727600  1
  C  C28  1  0.85539800  0.85544500  0.42727600  1
  C  C29  1  0.85539800  0.14455500  0.57272400  1
  C  C30  1  0.14460200  0.85544500  0.57272400  1
  C  C31  1  0.14455500  0.57272400  0.85539800  1
  C  C32  1  0.57272400  0.14460200  0.85544500  1
  C  C33  1  0.57272400  0.85539800  0.14455500  1
  C  C34  1  0.85544500  0.42727600  0.85539800  1
  C  C35  1  0.42727600  0.85539800  0.85544500  1
  C  C36  1  0.14460200  0.14455500  0.42727600  1
  C  C37  1  0.35539800  0.92727600  0.35544500  1
  C  C38  1  0.35539800  0.07272400  0.64455500  1
  C  C39  1  0.07272400  0.35544500  0.64460200  1
  C  C40  1  0.92727600  0.35544500  0.35539800  1
  C  C41  1  0.64455500  0.35539800  0.07272400  1
  C  C42  1  0.35544500  0.64460200  0.07272400  1
  C  C43  1  0.42727600  0.14460200  0.14455500  1
  C  C44  1  0.14455500  0.42727600  0.14460200  1
  C  C45  1  0.85544500  0.57272400  0.14460200  1
