# generated using pymatgen
data_CuNi3C4
_symmetry_space_group_name_H-M   'P 1'
_cell_length_a   6.95034807
_cell_length_b   6.95034807
_cell_length_c   5.97361832
_cell_angle_alpha   64.91654519
_cell_angle_beta   64.91654519
_cell_angle_gamma   51.25224885
_symmetry_Int_Tables_number   1
_chemical_formula_structural   CuNi3C4
_chemical_formula_sum   'Cu1 Ni3 C4'
_cell_volume   198.62867397
_cell_formula_units_Z   1
loop_
 _symmetry_equiv_pos_site_id
 _symmetry_equiv_pos_as_xyz
  1  'x, y, z'
loop_
 _atom_site_type_symbol
 _atom_site_label
 _atom_site_symmetry_multiplicity
 _atom_site_fract_x
 _atom_site_fract_y
 _atom_site_fract_z
 _atom_site_occupancy
  C  C0  1  0.74040100  0.50318300  0.61945900  1
  C  C1  1  0.49681700  0.25959900  0.38054100  1
  C  C2  1  0.25657700  0.98599800  0.13710300  1
  C  C3  1  0.01400200  0.74342300  0.86289700  1
  Ni  Ni4  1  0.84293500  0.15706500  0.00000000  1
  Ni  Ni5  1  0.62463500  0.87461700  0.72123000  1
  Ni  Ni6  1  0.12538300  0.37536500  0.27877000  1
  Cu  Cu7  1  0.40925000  0.59075000  0.50000000  1
