# generated using pymatgen
data_Cu2NiC8
_symmetry_space_group_name_H-M   'P 1'
_cell_length_a   7.54119053
_cell_length_b   7.54119053
_cell_length_c   7.54119053
_cell_angle_alpha   120.01081277
_cell_angle_beta   118.79989942
_cell_angle_gamma   91.03621846
_symmetry_Int_Tables_number   1
_chemical_formula_structural   Cu2NiC8
_chemical_formula_sum   'Cu4 Ni2 C16'
_cell_volume   305.88246786
_cell_formula_units_Z   2
loop_
 _symmetry_equiv_pos_site_id
 _symmetry_equiv_pos_as_xyz
  1  'x, y, z'
loop_
 _atom_site_type_symbol
 _atom_site_label
 _atom_site_symmetry_multiplicity
 _atom_site_fract_x
 _atom_site_fract_y
 _atom_site_fract_z
 _atom_site_occupancy
  C  C0  1  0.00000000  0.00000000  0.50000000  1
  C  C1  1  0.00000000  0.50000000  0.00000000  1
  Ni  Ni2  1  0.50000000  0.00000000  0.50000000  1
  Ni  Ni3  1  0.00000000  0.50000000  0.50000000  1
  Cu  Cu4  1  0.00000000  0.00000000  0.00000000  1
  Cu  Cu5  1  0.50000000  0.50000000  0.00000000  1
  Cu  Cu6  1  0.50000000  0.00000000  0.00000000  1
  Cu  Cu7  1  0.50000000  0.50000000  0.50000000  1
  C  C8  1  0.36551600  0.09456800  0.27094800  1
  C  C9  1  0.67637900  0.40543200  0.27094800  1
  C  C10  1  0.69904400  0.31757100  0.77410900  1
  C  C11  1  0.95653800  0.18242900  0.38147300  1
  C  C12  1  0.95653800  0.57506600  0.77410900  1
  C  C13  1  0.69904400  0.92493400  0.38147300  1
  C  C14  1  0.30095600  0.07506600  0.61852700  1
  C  C15  1  0.04346200  0.42493400  0.22589100  1
  C  C16  1  0.04346200  0.81757100  0.61852700  1
  C  C17  1  0.30095600  0.68242900  0.22589100  1
  C  C18  1  0.91149600  0.75000000  0.16149600  1
  C  C19  1  0.63448400  0.90543200  0.72905200  1
  C  C20  1  0.32362100  0.59456800  0.72905200  1
  C  C21  1  0.08850400  0.25000000  0.83850400  1
