# generated using pymatgen
data_CuNi3C22
_symmetry_space_group_name_H-M   'P 1'
_cell_length_a   5.50006966
_cell_length_b   5.50006966
_cell_length_c   11.71695500
_cell_angle_alpha   90.00000000
_cell_angle_beta   90.00000000
_cell_angle_gamma   91.21761492
_symmetry_Int_Tables_number   1
_chemical_formula_structural   CuNi3C22
_chemical_formula_sum   'Cu1 Ni3 C22'
_cell_volume   354.36683151
_cell_formula_units_Z   1
loop_
 _symmetry_equiv_pos_site_id
 _symmetry_equiv_pos_as_xyz
  1  'x, y, z'
loop_
 _atom_site_type_symbol
 _atom_site_label
 _atom_site_symmetry_multiplicity
 _atom_site_fract_x
 _atom_site_fract_y
 _atom_site_fract_z
 _atom_site_occupancy
  Ni  Ni0  1  0.00000000  0.00000000  0.18395500  1
  Ni  Ni1  1  0.50000000  0.50000000  0.18294700  1
  Ni  Ni2  1  0.00000000  0.00000000  0.82008500  1
  Cu  Cu3  1  0.50000000  0.50000000  0.49884000  1
  C  C4  1  0.50000000  0.50000000  0.80539600  1
  C  C5  1  0.00000000  0.00000000  0.50348600  1
  C  C6  1  0.00000000  0.50000000  0.35117100  1
  C  C7  1  0.50000000  0.00000000  0.35117100  1
  C  C8  1  0.00000000  0.50000000  0.65200500  1
  C  C9  1  0.50000000  0.00000000  0.65200500  1
  C  C10  1  0.00000000  0.50000000  0.99735200  1
  C  C11  1  0.50000000  0.00000000  0.99735200  1
  C  C12  1  0.00000000  0.50000000  0.15575800  1
  C  C13  1  0.50000000  0.00000000  0.15575800  1
  C  C14  1  0.00000000  0.50000000  0.83707200  1
  C  C15  1  0.50000000  0.00000000  0.83707200  1
  C  C16  1  0.75112000  0.75112000  0.37074300  1
  C  C17  1  0.24888000  0.24888000  0.37074300  1
  C  C18  1  0.24884400  0.75115600  0.37456100  1
  C  C19  1  0.75115600  0.24884400  0.37456100  1
  C  C20  1  0.74117500  0.74117500  0.64087500  1
  C  C21  1  0.25882500  0.25882500  0.64087500  1
  C  C22  1  0.25800600  0.74199400  0.64161500  1
  C  C23  1  0.74199400  0.25800600  0.64161500  1
  C  C24  1  0.71833500  0.71833500  0.98149400  1
  C  C25  1  0.28166500  0.28166500  0.98149400  1
