# generated using pymatgen
data_Cu(Ni2C7)2
_symmetry_space_group_name_H-M   'P 1'
_cell_length_a   5.64076900
_cell_length_b   7.87358900
_cell_length_c   9.37295376
_cell_angle_alpha   114.83562764
_cell_angle_beta   90.00000000
_cell_angle_gamma   90.00000000
_symmetry_Int_Tables_number   1
_chemical_formula_structural   Cu(Ni2C7)2
_chemical_formula_sum   'Cu2 Ni8 C28'
_cell_volume   377.78268640
_cell_formula_units_Z   2
loop_
 _symmetry_equiv_pos_site_id
 _symmetry_equiv_pos_as_xyz
  1  'x, y, z'
loop_
 _atom_site_type_symbol
 _atom_site_label
 _atom_site_symmetry_multiplicity
 _atom_site_fract_x
 _atom_site_fract_y
 _atom_site_fract_z
 _atom_site_occupancy
  Ni  Ni0  1  0.50000000  0.67310300  0.34620500  1
  Ni  Ni1  1  0.00000000  0.67310300  0.34620500  1
  Ni  Ni2  1  0.50000000  0.32689700  0.65379500  1
  Ni  Ni3  1  0.00000000  0.32689700  0.65379500  1
  Ni  Ni4  1  0.25000000  0.85625600  0.17179500  1
  Ni  Ni5  1  0.75000000  0.31553900  0.17179500  1
  Ni  Ni6  1  0.75000000  0.14374400  0.82820500  1
  Ni  Ni7  1  0.25000000  0.68446100  0.82820500  1
  Cu  Cu8  1  0.25000000  0.37597600  0.00000000  1
  Cu  Cu9  1  0.75000000  0.62402400  0.00000000  1
  C  C10  1  0.25000000  0.96574100  0.66198900  1
  C  C11  1  0.75000000  0.69624800  0.66198900  1
  C  C12  1  0.75000000  0.03425900  0.33801100  1
  C  C13  1  0.25000000  0.30375200  0.33801100  1
  C  C14  1  0.53457400  0.25465300  0.00000000  1
  C  C15  1  0.46542600  0.74534700  0.00000000  1
  C  C16  1  0.96542600  0.25465300  0.00000000  1
  C  C17  1  0.03457400  0.74534700  0.00000000  1
  C  C18  1  0.48569400  0.09732100  0.67786700  1
  C  C19  1  0.51430600  0.58054600  0.67786700  1
  C  C20  1  0.01430600  0.09732100  0.67786700  1
  C  C21  1  0.98569400  0.58054600  0.67786700  1
  C  C22  1  0.51430600  0.90267900  0.32213300  1
  C  C23  1  0.48569400  0.41945400  0.32213300  1
  C  C24  1  0.98569400  0.90267900  0.32213300  1
  C  C25  1  0.01430600  0.41945400  0.32213300  1
  C  C26  1  0.25000000  0.90277800  0.80610000  1
  C  C27  1  0.75000000  0.90332200  0.80610000  1
  C  C28  1  0.75000000  0.09722200  0.19390000  1
  C  C29  1  0.25000000  0.09667800  0.19390000  1
  C  C30  1  0.25000000  0.77381900  0.49329600  1
  C  C31  1  0.75000000  0.71947700  0.49329600  1
  C  C32  1  0.75000000  0.22618100  0.50670400  1
  C  C33  1  0.25000000  0.28052300  0.50670400  1
  C  C34  1  0.25000000  0.61625600  0.19303900  1
  C  C35  1  0.75000000  0.57678300  0.19303900  1
  C  C36  1  0.75000000  0.38374400  0.80696100  1
  C  C37  1  0.25000000  0.42321700  0.80696100  1
