# generated using pymatgen
data_CuNi2C5
_symmetry_space_group_name_H-M   'P 1'
_cell_length_a   4.08100100
_cell_length_b   4.08100100
_cell_length_c   15.21065100
_cell_angle_alpha   90.00000000
_cell_angle_beta   90.00000000
_cell_angle_gamma   90.00000000
_symmetry_Int_Tables_number   1
_chemical_formula_structural   CuNi2C5
_chemical_formula_sum   'Cu2 Ni4 C10'
_cell_volume   253.32683908
_cell_formula_units_Z   2
loop_
 _symmetry_equiv_pos_site_id
 _symmetry_equiv_pos_as_xyz
  1  'x, y, z'
loop_
 _atom_site_type_symbol
 _atom_site_label
 _atom_site_symmetry_multiplicity
 _atom_site_fract_x
 _atom_site_fract_y
 _atom_site_fract_z
 _atom_site_occupancy
  Ni  Ni0  1  0.25000000  0.25000000  0.82455000  1
  Ni  Ni1  1  0.75000000  0.75000000  0.17545000  1
  Ni  Ni2  1  0.25000000  0.25000000  0.58907800  1
  Ni  Ni3  1  0.75000000  0.75000000  0.41092200  1
  Cu  Cu4  1  0.75000000  0.75000000  0.69878200  1
  Cu  Cu5  1  0.25000000  0.25000000  0.30121800  1
  C  C6  1  0.25000000  0.75000000  0.00000000  1
  C  C7  1  0.75000000  0.25000000  0.00000000  1
  C  C8  1  0.75000000  0.75000000  0.93804300  1
  C  C9  1  0.25000000  0.25000000  0.06195700  1
  C  C10  1  0.75000000  0.25000000  0.72073000  1
  C  C11  1  0.25000000  0.75000000  0.72073000  1
  C  C12  1  0.25000000  0.75000000  0.27927000  1
  C  C13  1  0.75000000  0.25000000  0.27927000  1
  C  C14  1  0.75000000  0.75000000  0.56844600  1
  C  C15  1  0.25000000  0.25000000  0.43155400  1
