# generated using pymatgen
data_Cu6NiC3
_symmetry_space_group_name_H-M   'P 1'
_cell_length_a   5.63188473
_cell_length_b   5.63188473
_cell_length_c   10.27482600
_cell_angle_alpha   90.00000000
_cell_angle_beta   90.00000000
_cell_angle_gamma   119.38313585
_symmetry_Int_Tables_number   1
_chemical_formula_structural   Cu6NiC3
_chemical_formula_sum   'Cu12 Ni2 C6'
_cell_volume   283.97410892
_cell_formula_units_Z   2
loop_
 _symmetry_equiv_pos_site_id
 _symmetry_equiv_pos_as_xyz
  1  'x, y, z'
loop_
 _atom_site_type_symbol
 _atom_site_label
 _atom_site_symmetry_multiplicity
 _atom_site_fract_x
 _atom_site_fract_y
 _atom_site_fract_z
 _atom_site_occupancy
  C  C0  1  0.00000000  0.00000000  0.50000000  1
  C  C1  1  0.00000000  0.00000000  0.00000000  1
  C  C2  1  0.32734900  0.67265100  0.50000000  1
  C  C3  1  0.67265100  0.32734900  0.50000000  1
  C  C4  1  0.67265100  0.32734900  0.00000000  1
  C  C5  1  0.32734900  0.67265100  0.00000000  1
  Ni  Ni6  1  0.97048500  0.97048500  0.25000000  1
  Ni  Ni7  1  0.02951500  0.02951500  0.75000000  1
  Cu  Cu8  1  0.99976500  0.41120600  0.92792000  1
  Cu  Cu9  1  0.41120600  0.99976500  0.92792000  1
  Cu  Cu10  1  0.57266500  0.57266500  0.93139900  1
  Cu  Cu11  1  0.00023500  0.58879400  0.07208000  1
  Cu  Cu12  1  0.58879400  0.00023500  0.07208000  1
  Cu  Cu13  1  0.42733500  0.42733500  0.06860100  1
  Cu  Cu14  1  0.00023500  0.58879400  0.42792000  1
  Cu  Cu15  1  0.58879400  0.00023500  0.42792000  1
  Cu  Cu16  1  0.42733500  0.42733500  0.43139900  1
  Cu  Cu17  1  0.99976500  0.41120600  0.57208000  1
  Cu  Cu18  1  0.41120600  0.99976500  0.57208000  1
  Cu  Cu19  1  0.57266500  0.57266500  0.56860100  1
