# generated using pymatgen
data_Cu8Ni3C
_symmetry_space_group_name_H-M   'P 1'
_cell_length_a   14.06499900
_cell_length_b   6.81383400
_cell_length_c   9.98018945
_cell_angle_alpha   73.62201087
_cell_angle_beta   90.00000000
_cell_angle_gamma   90.00000000
_symmetry_Int_Tables_number   1
_chemical_formula_structural   Cu8Ni3C
_chemical_formula_sum   'Cu32 Ni12 C4'
_cell_volume   917.65593893
_cell_formula_units_Z   4
loop_
 _symmetry_equiv_pos_site_id
 _symmetry_equiv_pos_as_xyz
  1  'x, y, z'
loop_
 _atom_site_type_symbol
 _atom_site_label
 _atom_site_symmetry_multiplicity
 _atom_site_fract_x
 _atom_site_fract_y
 _atom_site_fract_z
 _atom_site_occupancy
  C  C0  1  0.37658000  0.10203400  0.22914500  1
  C  C1  1  0.12342000  0.10203400  0.72914500  1
  C  C2  1  0.62342000  0.89796600  0.77085500  1
  C  C3  1  0.87658000  0.89796600  0.27085500  1
  Ni  Ni4  1  0.35051700  0.23883100  0.56544200  1
  Ni  Ni5  1  0.14948300  0.23883100  0.06544200  1
  Ni  Ni6  1  0.64948300  0.76116900  0.43455800  1
  Ni  Ni7  1  0.85051700  0.76116900  0.93455800  1
  Ni  Ni8  1  0.12569600  0.90181500  0.40707400  1
  Ni  Ni9  1  0.37430400  0.90181500  0.90707400  1
  Ni  Ni10  1  0.87430400  0.09818500  0.59292600  1
  Ni  Ni11  1  0.62569600  0.09818500  0.09292600  1
  Ni  Ni12  1  0.25603200  0.66156400  0.69719800  1
  Ni  Ni13  1  0.24396800  0.66156400  0.19719800  1
  Ni  Ni14  1  0.74396800  0.33843600  0.30280200  1
  Ni  Ni15  1  0.75603200  0.33843600  0.80280200  1
  Cu  Cu16  1  0.27715600  0.86022100  0.27812900  1
  Cu  Cu17  1  0.22284400  0.86022100  0.77812900  1
  Cu  Cu18  1  0.72284400  0.13977900  0.72187100  1
  Cu  Cu19  1  0.77715600  0.13977900  0.22187100  1
  Cu  Cu20  1  0.44355100  0.59228900  0.21271700  1
  Cu  Cu21  1  0.05644900  0.59228900  0.71271700  1
  Cu  Cu22  1  0.55644900  0.40771100  0.78728300  1
  Cu  Cu23  1  0.94355100  0.40771100  0.28728300  1
  Cu  Cu24  1  0.32865900  0.21967700  0.39775500  1
  Cu  Cu25  1  0.17134100  0.21967700  0.89775500  1
  Cu  Cu26  1  0.67134100  0.78032300  0.60224500  1
  Cu  Cu27  1  0.82865900  0.78032300  0.10224500  1
  Cu  Cu28  1  0.25976800  0.32310400  0.12076000  1
  Cu  Cu29  1  0.24023200  0.32310400  0.62076000  1
  Cu  Cu30  1  0.74023200  0.67689600  0.87924000  1
  Cu  Cu31  1  0.75976800  0.67689600  0.37924000  1
  Cu  Cu32  1  0.49451700  0.95390100  0.45098100  1
  Cu  Cu33  1  0.00548300  0.95390100  0.95098100  1
  Cu  Cu34  1  0.50548300  0.04609900  0.54901900  1
  Cu  Cu35  1  0.99451700  0.04609900  0.04901900  1
  Cu  Cu36  1  0.39546000  0.03872600  0.02561800  1
  Cu  Cu37  1  0.10454000  0.03872600  0.52561800  1
  Cu  Cu38  1  0.60454000  0.96127400  0.97438200  1
  Cu  Cu39  1  0.89546000  0.96127400  0.47438200  1
  Cu  Cu40  1  0.46495000  0.71294800  0.28132500  1
  Cu  Cu41  1  0.03505000  0.71294800  0.78132500  1
  Cu  Cu42  1  0.53505000  0.28705200  0.71867500  1
  Cu  Cu43  1  0.96495000  0.28705200  0.21867500  1
  Cu  Cu44  1  0.52425600  0.17816600  0.16556500  1
  Cu  Cu45  1  0.97574400  0.17816600  0.66556500  1
  Cu  Cu46  1  0.47574400  0.82183400  0.83443500  1
  Cu  Cu47  1  0.02425600  0.82183400  0.33443500  1
