# generated using pymatgen
data_Cu3(NiC8)2
_symmetry_space_group_name_H-M   'P 1'
_cell_length_a   7.97299700
_cell_length_b   7.98536642
_cell_length_c   11.00054770
_cell_angle_alpha   106.95660004
_cell_angle_beta   85.14039698
_cell_angle_gamma   119.93007188
_symmetry_Int_Tables_number   1
_chemical_formula_structural   Cu3(NiC8)2
_chemical_formula_sum   'Cu6 Ni4 C32'
_cell_volume   579.01845766
_cell_formula_units_Z   2
loop_
 _symmetry_equiv_pos_site_id
 _symmetry_equiv_pos_as_xyz
  1  'x, y, z'
loop_
 _atom_site_type_symbol
 _atom_site_label
 _atom_site_symmetry_multiplicity
 _atom_site_fract_x
 _atom_site_fract_y
 _atom_site_fract_z
 _atom_site_occupancy
  C  C0  1  0.77030700  0.47029500  0.57567700  1
  C  C1  1  0.22969300  0.52970500  0.42432300  1
  Ni  Ni2  1  0.16167600  0.32162300  0.97402500  1
  Ni  Ni3  1  0.83832400  0.67837700  0.02597500  1
  Ni  Ni4  1  0.48232500  0.93045600  0.84751700  1
  Ni  Ni5  1  0.51767500  0.06954400  0.15248300  1
  Cu  Cu6  1  0.83372200  0.31626900  0.82623900  1
  Cu  Cu7  1  0.16627800  0.68373100  0.17376100  1
  Cu  Cu8  1  0.52105700  0.56690600  0.82714400  1
  Cu  Cu9  1  0.47894300  0.43309400  0.17285600  1
  Cu  Cu10  1  0.08351400  0.87845000  0.82737500  1
  Cu  Cu11  1  0.91648600  0.12155000  0.17262500  1
  C  C12  1  0.00000000  0.50000000  0.50000000  1
  C  C13  1  0.50000000  0.00000000  0.00000000  1
  C  C14  1  0.86047500  0.37193900  0.70274900  1
  C  C15  1  0.13952500  0.62806100  0.29725100  1
  C  C16  1  0.29894700  0.93218200  0.79357400  1
  C  C17  1  0.70105300  0.06781800  0.20642600  1
  C  C18  1  0.95463800  0.75225900  0.70471300  1
  C  C19  1  0.04536200  0.24774100  0.29528700  1
  C  C20  1  0.69577200  0.71235900  0.92478400  1
  C  C21  1  0.30422800  0.28764100  0.07521600  1
  C  C22  1  0.03729000  0.76348200  0.92788600  1
  C  C23  1  0.96271000  0.23651800  0.07211400  1
  C  C24  1  0.02626600  0.35545400  0.87542900  1
  C  C25  1  0.97373400  0.64454600  0.12457100  1
  C  C26  1  0.44891200  0.70072900  0.79280500  1
  C  C27  1  0.55108800  0.29927100  0.20719500  1
  C  C28  1  0.71833300  0.59545700  0.49502800  1
  C  C29  1  0.28166700  0.40454300  0.50497200  1
  C  C30  1  0.57339400  0.46247000  0.70102900  1
  C  C31  1  0.42660600  0.53753000  0.29897100  1
  C  C32  1  0.74360300  0.42161900  0.92772800  1
  C  C33  1  0.25639700  0.57838100  0.07227200  1
  C  C34  1  0.35799800  0.40250300  0.87578500  1
  C  C35  1  0.64200200  0.59749700  0.12421500  1
  C  C36  1  0.07556000  0.07262700  0.87729900  1
  C  C37  1  0.92444000  0.92737300  0.12270100  1
  C  C38  1  0.62127300  0.22402900  0.48917900  1
  C  C39  1  0.37872700  0.77597100  0.51082100  1
  C  C40  1  0.68087300  0.08194500  0.79440900  1
  C  C41  1  0.31912700  0.91805500  0.20559100  1
