# generated using pymatgen
data_CuNi3C4
_symmetry_space_group_name_H-M   'P 1'
_cell_length_a   3.06789028
_cell_length_b   3.06789028
_cell_length_c   13.86128400
_cell_angle_alpha   90.00000000
_cell_angle_beta   90.00000000
_cell_angle_gamma   120.00000605
_symmetry_Int_Tables_number   1
_chemical_formula_structural   CuNi3C4
_chemical_formula_sum   'Cu1 Ni3 C4'
_cell_volume   112.98315916
_cell_formula_units_Z   1
loop_
 _symmetry_equiv_pos_site_id
 _symmetry_equiv_pos_as_xyz
  1  'x, y, z'
loop_
 _atom_site_type_symbol
 _atom_site_label
 _atom_site_symmetry_multiplicity
 _atom_site_fract_x
 _atom_site_fract_y
 _atom_site_fract_z
 _atom_site_occupancy
  Ni  Ni0  1  0.33333300  0.66666700  0.58627500  1
  Ni  Ni1  1  0.33333300  0.66666700  0.91645900  1
  Ni  Ni2  1  0.66666700  0.33333300  0.08311000  1
  Cu  Cu3  1  0.66666700  0.33333300  0.41113200  1
  C  C4  1  0.66666700  0.33333300  0.75152800  1
  C  C5  1  0.33333300  0.66666700  0.24691900  1
  C  C6  1  0.00000000  0.00000000  0.50486200  1
  C  C7  1  0.00000000  0.00000000  0.99971600  1
