# generated using pymatgen
data_Cu3Ni3C2
_symmetry_space_group_name_H-M   'P 1'
_cell_length_a   3.74988000
_cell_length_b   10.40534200
_cell_length_c   12.72404000
_cell_angle_alpha   90.00000000
_cell_angle_beta   90.00000000
_cell_angle_gamma   90.00000000
_symmetry_Int_Tables_number   1
_chemical_formula_structural   Cu3Ni3C2
_chemical_formula_sum   'Cu12 Ni12 C8'
_cell_volume   496.47656657
_cell_formula_units_Z   4
loop_
 _symmetry_equiv_pos_site_id
 _symmetry_equiv_pos_as_xyz
  1  'x, y, z'
loop_
 _atom_site_type_symbol
 _atom_site_label
 _atom_site_symmetry_multiplicity
 _atom_site_fract_x
 _atom_site_fract_y
 _atom_site_fract_z
 _atom_site_occupancy
  C  C0  1  0.25000000  0.33321500  0.99471800  1
  C  C1  1  0.25000000  0.16678500  0.49471800  1
  C  C2  1  0.75000000  0.66678500  0.00528200  1
  C  C3  1  0.75000000  0.83321500  0.50528200  1
  C  C4  1  0.25000000  0.42738100  0.70952000  1
  C  C5  1  0.25000000  0.07261900  0.20952000  1
  C  C6  1  0.75000000  0.57261900  0.29048000  1
  C  C7  1  0.75000000  0.92738100  0.79048000  1
  Ni  Ni8  1  0.25000000  0.90332400  0.98476900  1
  Ni  Ni9  1  0.25000000  0.59667600  0.48476900  1
  Ni  Ni10  1  0.75000000  0.09667600  0.01523100  1
  Ni  Ni11  1  0.75000000  0.40332400  0.51523100  1
  Ni  Ni12  1  0.25000000  0.13766200  0.71748700  1
  Ni  Ni13  1  0.25000000  0.36233800  0.21748700  1
  Ni  Ni14  1  0.75000000  0.86233800  0.28251300  1
  Ni  Ni15  1  0.75000000  0.63766200  0.78251300  1
  Ni  Ni16  1  0.25000000  0.77528900  0.16643200  1
  Ni  Ni17  1  0.25000000  0.72471100  0.66643200  1
  Ni  Ni18  1  0.75000000  0.22471100  0.83356800  1
  Ni  Ni19  1  0.75000000  0.27528900  0.33356800  1
  Cu  Cu20  1  0.25000000  0.10152100  0.89811100  1
  Cu  Cu21  1  0.25000000  0.39847900  0.39811100  1
  Cu  Cu22  1  0.75000000  0.89847900  0.10188900  1
  Cu  Cu23  1  0.75000000  0.60152100  0.60188900  1
  Cu  Cu24  1  0.25000000  0.73946800  0.85728600  1
  Cu  Cu25  1  0.25000000  0.76053200  0.35728600  1
  Cu  Cu26  1  0.75000000  0.26053200  0.14271400  1
  Cu  Cu27  1  0.75000000  0.23946800  0.64271400  1
  Cu  Cu28  1  0.25000000  0.55358100  0.12535700  1
  Cu  Cu29  1  0.25000000  0.94641900  0.62535700  1
  Cu  Cu30  1  0.75000000  0.44641900  0.87464300  1
  Cu  Cu31  1  0.75000000  0.05358100  0.37464300  1
