# generated using pymatgen
data_CuNi
_symmetry_space_group_name_H-M   'P 1'
_cell_length_a   3.16824600
_cell_length_b   4.21246200
_cell_length_c   5.00733644
_cell_angle_alpha   90.00000000
_cell_angle_beta   108.44295995
_cell_angle_gamma   90.00000000
_symmetry_Int_Tables_number   1
_chemical_formula_structural   CuNi
_chemical_formula_sum   'Cu2 Ni2'
_cell_volume   63.39611909
_cell_formula_units_Z   2
loop_
 _symmetry_equiv_pos_site_id
 _symmetry_equiv_pos_as_xyz
  1  'x, y, z'
loop_
 _atom_site_type_symbol
 _atom_site_label
 _atom_site_symmetry_multiplicity
 _atom_site_fract_x
 _atom_site_fract_y
 _atom_site_fract_z
 _atom_site_occupancy
  Ni  Ni0  1  0.86000200  0.25000000  0.72000400  1
  Ni  Ni1  1  0.13999800  0.75000000  0.27999600  1
  Cu  Cu2  1  0.58625500  0.25000000  0.17251000  1
  Cu  Cu3  1  0.41374500  0.75000000  0.82749000  1
