# generated using pymatgen
data_Cu3Ni3C5
_symmetry_space_group_name_H-M   'P 1'
_cell_length_a   6.77593097
_cell_length_b   7.04992726
_cell_length_c   9.27174137
_cell_angle_alpha   102.43271398
_cell_angle_beta   112.51368820
_cell_angle_gamma   103.18246407
_symmetry_Int_Tables_number   1
_chemical_formula_structural   Cu3Ni3C5
_chemical_formula_sum   'Cu6 Ni6 C10'
_cell_volume   375.14858282
_cell_formula_units_Z   2
loop_
 _symmetry_equiv_pos_site_id
 _symmetry_equiv_pos_as_xyz
  1  'x, y, z'
loop_
 _atom_site_type_symbol
 _atom_site_label
 _atom_site_symmetry_multiplicity
 _atom_site_fract_x
 _atom_site_fract_y
 _atom_site_fract_z
 _atom_site_occupancy
  Ni  Ni0  1  0.79070700  0.43771000  0.53936900  1
  Ni  Ni1  1  0.20929300  0.56229000  0.46063100  1
  Ni  Ni2  1  0.74889300  0.79520400  0.86410500  1
  Ni  Ni3  1  0.25110700  0.20479600  0.13589500  1
  Ni  Ni4  1  0.75279700  0.61132100  0.17432900  1
  Ni  Ni5  1  0.24720300  0.38867900  0.82567100  1
  Cu  Cu6  1  0.78974800  0.26785800  0.89017500  1
  Cu  Cu7  1  0.21025200  0.73214200  0.10982500  1
  Cu  Cu8  1  0.77212600  0.96980300  0.54968900  1
  Cu  Cu9  1  0.22787400  0.03019700  0.45031100  1
  Cu  Cu10  1  0.26968500  0.91010600  0.80570300  1
  Cu  Cu11  1  0.73031500  0.08989400  0.19429700  1
  C  C12  1  0.00616200  0.07814300  0.83246700  1
  C  C13  1  0.99383800  0.92185700  0.16753300  1
  C  C14  1  0.93345300  0.73759700  0.47486000  1
  C  C15  1  0.06654700  0.26240300  0.52514000  1
  C  C16  1  0.92077000  0.54464900  0.82787400  1
  C  C17  1  0.07923000  0.45535100  0.17212600  1
  C  C18  1  0.47945800  0.91143200  0.64989500  1
  C  C19  1  0.52054200  0.08856800  0.35010500  1
  C  C20  1  0.46836900  0.76431700  0.99470800  1
  C  C21  1  0.53163100  0.23568300  0.00529200  1
