# generated using pymatgen
data_CuNi3C10
_symmetry_space_group_name_H-M   'P 1'
_cell_length_a   8.33123364
_cell_length_b   8.33123404
_cell_length_c   8.33123358
_cell_angle_alpha   41.42598820
_cell_angle_beta   41.42598586
_cell_angle_gamma   41.42598594
_symmetry_Int_Tables_number   1
_chemical_formula_structural   CuNi3C10
_chemical_formula_sum   'Cu1 Ni3 C10'
_cell_volume   228.73533416
_cell_formula_units_Z   1
loop_
 _symmetry_equiv_pos_site_id
 _symmetry_equiv_pos_as_xyz
  1  'x, y, z'
loop_
 _atom_site_type_symbol
 _atom_site_label
 _atom_site_symmetry_multiplicity
 _atom_site_fract_x
 _atom_site_fract_y
 _atom_site_fract_z
 _atom_site_occupancy
  Ni  Ni0  1  0.79187700  0.79187700  0.79187700  1
  Ni  Ni1  1  0.20812300  0.20812300  0.20812300  1
  Ni  Ni2  1  0.00000000  0.00000000  0.00000000  1
  Cu  Cu3  1  0.50000000  0.50000000  0.50000000  1
  C  C4  1  0.60246500  0.60246500  0.60246500  1
  C  C5  1  0.39753500  0.39753500  0.39753500  1
  C  C6  1  0.67935400  0.67935400  0.67935400  1
  C  C7  1  0.32064600  0.32064600  0.32064600  1
  C  C8  1  0.72154700  0.72154700  0.25449400  1
  C  C9  1  0.72154700  0.25449400  0.72154700  1
  C  C10  1  0.25449400  0.72154700  0.72154700  1
  C  C11  1  0.27845300  0.74550600  0.27845300  1
  C  C12  1  0.27845300  0.27845300  0.74550600  1
  C  C13  1  0.74550600  0.27845300  0.27845300  1
