# generated using pymatgen
data_CuNi2C3
_symmetry_space_group_name_H-M   'P 1'
_cell_length_a   10.77338400
_cell_length_b   4.97532800
_cell_length_c   7.28447713
_cell_angle_alpha   88.63599215
_cell_angle_beta   90.00000000
_cell_angle_gamma   90.00000000
_symmetry_Int_Tables_number   1
_chemical_formula_structural   CuNi2C3
_chemical_formula_sum   'Cu4 Ni8 C12'
_cell_volume   390.34548633
_cell_formula_units_Z   4
loop_
 _symmetry_equiv_pos_site_id
 _symmetry_equiv_pos_as_xyz
  1  'x, y, z'
loop_
 _atom_site_type_symbol
 _atom_site_label
 _atom_site_symmetry_multiplicity
 _atom_site_fract_x
 _atom_site_fract_y
 _atom_site_fract_z
 _atom_site_occupancy
  Ni  Ni0  1  0.92651300  0.25152900  0.38718500  1
  Ni  Ni1  1  0.73885300  0.75189300  0.63389300  1
  Ni  Ni2  1  0.76114700  0.75189300  0.13389300  1
  Ni  Ni3  1  0.26114700  0.24810700  0.36610700  1
  Ni  Ni4  1  0.07348700  0.74847100  0.61281500  1
  Ni  Ni5  1  0.57348700  0.25152900  0.88718500  1
  Ni  Ni6  1  0.42651300  0.74847100  0.11281500  1
  Ni  Ni7  1  0.23885300  0.24810700  0.86610700  1
  Cu  Cu8  1  0.39829900  0.74485000  0.63395400  1
  Cu  Cu9  1  0.89829900  0.25515000  0.86604600  1
  Cu  Cu10  1  0.60170100  0.25515000  0.36604600  1
  Cu  Cu11  1  0.10170100  0.74485000  0.13395400  1
  C  C12  1  0.38630600  0.36079000  0.62002400  1
  C  C13  1  0.88630600  0.63921000  0.87997600  1
  C  C14  1  0.61369400  0.63921000  0.37997600  1
  C  C15  1  0.11369400  0.36079000  0.12002400  1
  C  C16  1  0.02188100  0.24780400  0.67823300  1
  C  C17  1  0.52188100  0.75219600  0.82176700  1
  C  C18  1  0.97811900  0.75219600  0.32176700  1
  C  C19  1  0.47811900  0.24780400  0.17823300  1
  C  C20  1  0.25689500  0.78117200  0.79158400  1
  C  C21  1  0.24310500  0.78117200  0.29158400  1
  C  C22  1  0.74310500  0.21882800  0.20841600  1
  C  C23  1  0.75689500  0.21882800  0.70841600  1
