# generated using pymatgen
data_CuNiC32
_symmetry_space_group_name_H-M   'P 1'
_cell_length_a   8.47450100
_cell_length_b   8.84064816
_cell_length_c   12.57703789
_cell_angle_alpha   95.71252883
_cell_angle_beta   90.00000000
_cell_angle_gamma   90.00000000
_symmetry_Int_Tables_number   1
_chemical_formula_structural   CuNiC32
_chemical_formula_sum   'Cu2 Ni2 C64'
_cell_volume   937.59321726
_cell_formula_units_Z   2
loop_
 _symmetry_equiv_pos_site_id
 _symmetry_equiv_pos_as_xyz
  1  'x, y, z'
loop_
 _atom_site_type_symbol
 _atom_site_label
 _atom_site_symmetry_multiplicity
 _atom_site_fract_x
 _atom_site_fract_y
 _atom_site_fract_z
 _atom_site_occupancy
  Ni  Ni0  1  0.00000000  0.00000000  0.50000000  1
  Ni  Ni1  1  0.50000000  0.00000000  0.00000000  1
  Cu  Cu2  1  0.00000000  0.50000000  0.00000000  1
  Cu  Cu3  1  0.50000000  0.50000000  0.50000000  1
  C  C4  1  0.37710500  0.79299700  0.81081500  1
  C  C5  1  0.62289500  0.20700300  0.18918500  1
  C  C6  1  0.87710500  0.20700300  0.68918500  1
  C  C7  1  0.12289500  0.79299700  0.31081500  1
  C  C8  1  0.82801000  0.95903100  0.91115800  1
  C  C9  1  0.17199000  0.04096900  0.08884200  1
  C  C10  1  0.32801000  0.04096900  0.58884200  1
  C  C11  1  0.67199000  0.95903100  0.41115800  1
  C  C12  1  0.94618000  0.71291500  0.60922300  1
  C  C13  1  0.05382000  0.28708500  0.39077700  1
  C  C14  1  0.44618000  0.28708500  0.89077700  1
  C  C15  1  0.55382000  0.71291500  0.10922300  1
  C  C16  1  0.28480000  0.85389600  0.88289600  1
  C  C17  1  0.71520000  0.14610400  0.11710400  1
  C  C18  1  0.78480000  0.14610400  0.61710400  1
  C  C19  1  0.21520000  0.85389600  0.38289600  1
  C  C20  1  0.32455500  0.70136700  0.73762200  1
  C  C21  1  0.67544500  0.29863300  0.26237800  1
  C  C22  1  0.82455500  0.29863300  0.76237800  1
  C  C23  1  0.17544500  0.70136700  0.23762200  1
  C  C24  1  0.79936300  0.51939300  0.94128600  1
  C  C25  1  0.20063700  0.48060700  0.05871400  1
  C  C26  1  0.29936300  0.48060700  0.55871400  1
  C  C27  1  0.70063700  0.51939300  0.44128600  1
  C  C28  1  0.01703900  0.70859100  0.51989500  1
  C  C29  1  0.98296100  0.29140900  0.48010500  1
  C  C30  1  0.51703900  0.29140900  0.98010500  1
  C  C31  1  0.48296100  0.70859100  0.01989500  1
  C  C32  1  0.52870300  0.66589100  0.60491200  1
  C  C33  1  0.47129700  0.33410900  0.39508800  1
  C  C34  1  0.02870300  0.33410900  0.89508800  1
  C  C35  1  0.97129700  0.66589100  0.10491200  1
  C  C36  1  0.96167100  0.94630200  0.87661100  1
  C  C37  1  0.03832900  0.05369800  0.12338900  1
  C  C38  1  0.46167100  0.05369800  0.62338900  1
  C  C39  1  0.53832900  0.94630200  0.37661100  1
  C  C40  1  0.91989700  0.58973900  0.64879800  1
  C  C41  1  0.08010300  0.41026100  0.35120200  1
  C  C42  1  0.41989700  0.41026100  0.85120200  1
  C  C43  1  0.58010300  0.58973900  0.14879800  1
  C  C44  1  0.54311600  0.42132600  0.62997300  1
  C  C45  1  0.45688400  0.57867400  0.37002700  1
  C  C46  1  0.04311600  0.57867400  0.87002700  1
  C  C47  1  0.95688400  0.42132600  0.12997300  1
  C  C48  1  0.90471300  0.84077800  0.65478000  1
  C  C49  1  0.09528700  0.15922200  0.34522000  1
  C  C50  1  0.40471300  0.15922200  0.84522000  1
  C  C51  1  0.59528700  0.84077800  0.15478000  1
  C  C52  1  0.74039800  0.60163900  0.77346100  1
  C  C53  1  0.25960200  0.39836100  0.22653900  1
  C  C54  1  0.24039800  0.39836100  0.72653900  1
  C  C55  1  0.75960200  0.60163900  0.27346100  1
  C  C56  1  0.23505100  0.93096900  0.60809300  1
  C  C57  1  0.76494900  0.06903100  0.39190700  1
  C  C58  1  0.73505100  0.06903100  0.89190700  1
  C  C59  1  0.26494900  0.93096900  0.10809300  1
  C  C60  1  0.52225900  0.83058000  0.81793500  1
  C  C61  1  0.47774100  0.16942000  0.18206500  1
  C  C62  1  0.02225900  0.16942000  0.68206500  1
  C  C63  1  0.97774100  0.83058000  0.31793500  1
  C  C64  1  0.76551400  0.86371200  0.97104800  1
  C  C65  1  0.23448600  0.13628800  0.02895200  1
  C  C66  1  0.26551400  0.13628800  0.52895200  1
  C  C67  1  0.73448600  0.86371200  0.47104800  1
