# generated using pymatgen
data_Cu10Ni2C7
_symmetry_space_group_name_H-M   'P 1'
_cell_length_a   4.64112800
_cell_length_b   5.86723099
_cell_length_c   8.30451215
_cell_angle_alpha   103.34450743
_cell_angle_beta   99.53565792
_cell_angle_gamma   95.48657765
_symmetry_Int_Tables_number   1
_chemical_formula_structural   Cu10Ni2C7
_chemical_formula_sum   'Cu10 Ni2 C7'
_cell_volume   214.86924445
_cell_formula_units_Z   1
loop_
 _symmetry_equiv_pos_site_id
 _symmetry_equiv_pos_as_xyz
  1  'x, y, z'
loop_
 _atom_site_type_symbol
 _atom_site_label
 _atom_site_symmetry_multiplicity
 _atom_site_fract_x
 _atom_site_fract_y
 _atom_site_fract_z
 _atom_site_occupancy
  C  C0  1  0.99929600  0.00198500  0.49663300  1
  C  C1  1  0.00328100  0.01021300  0.00851600  1
  C  C2  1  0.93310700  0.33897000  0.83702700  1
  C  C3  1  0.06462000  0.65928600  0.16447000  1
  C  C4  1  0.61723300  0.26688600  0.87413400  1
  C  C5  1  0.38470300  0.73253700  0.13023800  1
  C  C6  1  0.49825400  0.53268700  0.51462400  1
  Ni  Ni7  1  0.38799800  0.68254300  0.76307200  1
  Ni  Ni8  1  0.60844400  0.32011700  0.24415100  1
  Cu  Cu9  1  0.48873100  0.70213800  0.59496600  1
  Cu  Cu10  1  0.50844300  0.30768800  0.40532800  1
  Cu  Cu11  1  0.21403800  0.87977100  0.79664600  1
  Cu  Cu12  1  0.78471200  0.12117400  0.20571900  1
  Cu  Cu13  1  0.79679400  0.20516100  0.84750100  1
  Cu  Cu14  1  0.20040000  0.79120700  0.15014100  1
  Cu  Cu15  1  0.21837500  0.44708100  0.73150000  1
  Cu  Cu16  1  0.78119200  0.55347100  0.26639300  1
  Cu  Cu17  1  0.65113900  0.71450500  0.89763500  1
  Cu  Cu18  1  0.35023900  0.28757900  0.10230600  1
