# generated using pymatgen
data_Cu6NiC22
_symmetry_space_group_name_H-M   'P 1'
_cell_length_a   5.27239900
_cell_length_b   14.60938100
_cell_length_c   19.98516600
_cell_angle_alpha   90.00000000
_cell_angle_beta   90.00000000
_cell_angle_gamma   90.00000000
_symmetry_Int_Tables_number   1
_chemical_formula_structural   Cu6NiC22
_chemical_formula_sum   'Cu24 Ni4 C88'
_cell_volume   1539.38710461
_cell_formula_units_Z   4
loop_
 _symmetry_equiv_pos_site_id
 _symmetry_equiv_pos_as_xyz
  1  'x, y, z'
loop_
 _atom_site_type_symbol
 _atom_site_label
 _atom_site_symmetry_multiplicity
 _atom_site_fract_x
 _atom_site_fract_y
 _atom_site_fract_z
 _atom_site_occupancy
  C  C0  1  0.99512100  0.42372600  0.17103600  1
  C  C1  1  0.99512100  0.57627400  0.32896400  1
  C  C2  1  0.00487900  0.92372600  0.32896400  1
  C  C3  1  0.00487900  0.07627400  0.17103600  1
  C  C4  1  0.00487900  0.57627400  0.82896400  1
  C  C5  1  0.00487900  0.42372600  0.67103600  1
  C  C6  1  0.99512100  0.07627400  0.67103600  1
  C  C7  1  0.99512100  0.92372600  0.82896400  1
  C  C8  1  0.00000000  0.50000000  0.00000000  1
  C  C9  1  0.00000000  0.50000000  0.50000000  1
  C  C10  1  0.00000000  0.00000000  0.50000000  1
  C  C11  1  0.00000000  0.00000000  0.00000000  1
  C  C12  1  0.00000000  0.75000000  0.47725300  1
  C  C13  1  0.00000000  0.25000000  0.02274700  1
  C  C14  1  0.00000000  0.25000000  0.52274700  1
  C  C15  1  0.00000000  0.75000000  0.97725300  1
  C  C16  1  0.00000000  0.75000000  0.18077900  1
  C  C17  1  0.00000000  0.25000000  0.31922100  1
  C  C18  1  0.00000000  0.25000000  0.81922100  1
  C  C19  1  0.00000000  0.75000000  0.68077900  1
  Ni  Ni20  1  0.50000000  0.75000000  0.33041300  1
  Ni  Ni21  1  0.50000000  0.25000000  0.16958700  1
  Ni  Ni22  1  0.50000000  0.25000000  0.66958700  1
  Ni  Ni23  1  0.50000000  0.75000000  0.83041300  1
  Cu  Cu24  1  0.45065500  0.38905400  0.91851400  1
  Cu  Cu25  1  0.45065500  0.61094600  0.58148600  1
  Cu  Cu26  1  0.54934500  0.88905400  0.58148600  1
  Cu  Cu27  1  0.54934500  0.11094600  0.91851400  1
  Cu  Cu28  1  0.54934500  0.61094600  0.08148600  1
  Cu  Cu29  1  0.54934500  0.38905400  0.41851400  1
  Cu  Cu30  1  0.45065500  0.11094600  0.41851400  1
  Cu  Cu31  1  0.45065500  0.88905400  0.08148600  1
  Cu  Cu32  1  0.46452700  0.39722000  0.27392500  1
  Cu  Cu33  1  0.46452700  0.60278000  0.22607500  1
  Cu  Cu34  1  0.53547300  0.89722000  0.22607500  1
  Cu  Cu35  1  0.53547300  0.10278000  0.27392500  1
  Cu  Cu36  1  0.53547300  0.60278000  0.72607500  1
  Cu  Cu37  1  0.53547300  0.39722000  0.77392500  1
  Cu  Cu38  1  0.46452700  0.10278000  0.77392500  1
  Cu  Cu39  1  0.46452700  0.89722000  0.72607500  1
  Cu  Cu40  1  0.53430000  0.40122300  0.06468500  1
  Cu  Cu41  1  0.53430000  0.59877700  0.43531500  1
  Cu  Cu42  1  0.46570000  0.90122300  0.43531500  1
  Cu  Cu43  1  0.46570000  0.09877700  0.06468500  1
  Cu  Cu44  1  0.46570000  0.59877700  0.93531500  1
  Cu  Cu45  1  0.46570000  0.40122300  0.56468500  1
  Cu  Cu46  1  0.53430000  0.09877700  0.56468500  1
  Cu  Cu47  1  0.53430000  0.90122300  0.93531500  1
  C  C48  1  0.77623000  0.31597900  0.41739500  1
  C  C49  1  0.77623000  0.68402100  0.08260500  1
  C  C50  1  0.22377000  0.81597900  0.08260500  1
  C  C51  1  0.22377000  0.18402100  0.41739500  1
  C  C52  1  0.22377000  0.68402100  0.58260500  1
  C  C53  1  0.22377000  0.31597900  0.91739500  1
  C  C54  1  0.77623000  0.18402100  0.91739500  1
  C  C55  1  0.77623000  0.81597900  0.58260500  1
  C  C56  1  0.76550100  0.38294000  0.27135000  1
  C  C57  1  0.76550100  0.61706000  0.22865000  1
  C  C58  1  0.23449900  0.88294000  0.22865000  1
  C  C59  1  0.23449900  0.11706000  0.27135000  1
  C  C60  1  0.23449900  0.61706000  0.72865000  1
  C  C61  1  0.23449900  0.38294000  0.77135000  1
  C  C62  1  0.76550100  0.11706000  0.77135000  1
  C  C63  1  0.76550100  0.88294000  0.72865000  1
  C  C64  1  0.35535600  0.38154400  0.35284600  1
  C  C65  1  0.35535600  0.61845600  0.14715400  1
  C  C66  1  0.64464400  0.88154400  0.14715400  1
  C  C67  1  0.64464400  0.11845600  0.35284600  1
  C  C68  1  0.64464400  0.61845600  0.64715400  1
  C  C69  1  0.64464400  0.38154400  0.85284600  1
  C  C70  1  0.35535600  0.11845600  0.85284600  1
  C  C71  1  0.35535600  0.88154400  0.64715400  1
  C  C72  1  0.28962500  0.32361300  0.23271800  1
  C  C73  1  0.28962500  0.67638700  0.26728200  1
  C  C74  1  0.71037500  0.82361300  0.26728200  1
  C  C75  1  0.71037500  0.17638700  0.23271800  1
  C  C76  1  0.36074600  0.61862000  0.01465300  1
  C  C77  1  0.71037500  0.67638700  0.76728200  1
  C  C78  1  0.28962500  0.17638700  0.73271800  1
  C  C79  1  0.28962500  0.82361300  0.76728200  1
  C  C80  1  0.36547500  0.50000000  0.25000000  1
  C  C81  1  0.63452500  0.00000000  0.25000000  1
  C  C82  1  0.63452500  0.50000000  0.75000000  1
  C  C83  1  0.36547500  0.00000000  0.75000000  1
  C  C84  1  0.23156900  0.39787600  0.06779300  1
  C  C85  1  0.23156900  0.60212400  0.43220700  1
  C  C86  1  0.76843100  0.89787600  0.43220700  1
  C  C87  1  0.76843100  0.10212400  0.06779300  1
  C  C88  1  0.76843100  0.60212400  0.93220700  1
  C  C89  1  0.76843100  0.39787600  0.56779300  1
  C  C90  1  0.23156900  0.10212400  0.56779300  1
  C  C91  1  0.23156900  0.89787600  0.93220700  1
  C  C92  1  0.63925400  0.38138000  0.98534700  1
  C  C93  1  0.63925400  0.61862000  0.51465300  1
  C  C94  1  0.36074600  0.88138000  0.51465300  1
  C  C95  1  0.36074600  0.11862000  0.98534700  1
  C  C96  1  0.66188200  0.00424700  0.91799000  1
  C  C97  1  0.66188200  0.99575300  0.58201000  1
  C  C98  1  0.33811800  0.50424700  0.58201000  1
  C  C99  1  0.33811800  0.49575300  0.91799000  1
  C  C100  1  0.33811800  0.99575300  0.08201000  1
  C  C101  1  0.33811800  0.00424700  0.41799000  1
  C  C102  1  0.66188200  0.49575300  0.41799000  1
  C  C103  1  0.66188200  0.50424700  0.08201000  1
  C  C104  1  0.69750300  0.82902800  0.89077100  1
  C  C105  1  0.69750300  0.17097200  0.60922900  1
  C  C106  1  0.30249700  0.32902800  0.60922900  1
  C  C107  1  0.30249700  0.67097200  0.89077100  1
  C  C108  1  0.30249700  0.17097200  0.10922900  1
  C  C109  1  0.30249700  0.82902800  0.39077100  1
  C  C110  1  0.69750300  0.67097200  0.39077100  1
  C  C111  1  0.69750300  0.32902800  0.10922900  1
  C  C112  1  0.63925400  0.88138000  0.01465300  1
  C  C113  1  0.63925400  0.11862000  0.48534700  1
  C  C114  1  0.36074600  0.38138000  0.48534700  1
  C  C115  1  0.71037500  0.32361300  0.73271800  1
