# generated using pymatgen
data_Cu9NiC2
_symmetry_space_group_name_H-M   'P 1'
_cell_length_a   9.87105000
_cell_length_b   10.04378300
_cell_length_c   12.43840533
_cell_angle_alpha   90.00000000
_cell_angle_beta   120.60306943
_cell_angle_gamma   90.00000000
_symmetry_Int_Tables_number   1
_chemical_formula_structural   Cu9NiC2
_chemical_formula_sum   'Cu36 Ni4 C8'
_cell_volume   1061.41354630
_cell_formula_units_Z   4
loop_
 _symmetry_equiv_pos_site_id
 _symmetry_equiv_pos_as_xyz
  1  'x, y, z'
loop_
 _atom_site_type_symbol
 _atom_site_label
 _atom_site_symmetry_multiplicity
 _atom_site_fract_x
 _atom_site_fract_y
 _atom_site_fract_z
 _atom_site_occupancy
  C  C0  1  0.52347500  0.56635700  0.36402700  1
  C  C1  1  0.52347500  0.93364300  0.86402700  1
  C  C2  1  0.47652500  0.43364300  0.63597300  1
  C  C3  1  0.47652500  0.06635700  0.13597300  1
  C  C4  1  0.13490900  0.62654200  0.40288800  1
  C  C5  1  0.13490900  0.87345800  0.90288800  1
  C  C6  1  0.86509100  0.37345800  0.59711200  1
  C  C7  1  0.86509100  0.12654200  0.09711200  1
  Ni  Ni8  1  0.23034400  0.70251100  0.22330300  1
  Ni  Ni9  1  0.23034400  0.79748900  0.72330300  1
  Ni  Ni10  1  0.76965600  0.29748900  0.77669700  1
  Ni  Ni11  1  0.76965600  0.20251100  0.27669700  1
  Cu  Cu12  1  0.61898100  0.71126100  0.46268600  1
  Cu  Cu13  1  0.61898100  0.78873900  0.96268600  1
  Cu  Cu14  1  0.38101900  0.28873900  0.53731400  1
  Cu  Cu15  1  0.38101900  0.21126100  0.03731400  1
  Cu  Cu16  1  0.41776500  0.41604800  0.28063300  1
  Cu  Cu17  1  0.41776500  0.08395200  0.78063300  1
  Cu  Cu18  1  0.58223500  0.58395200  0.71936700  1
  Cu  Cu19  1  0.58223500  0.91604800  0.21936700  1
  Cu  Cu20  1  0.19294200  0.80143700  0.44393000  1
  Cu  Cu21  1  0.19294200  0.69856300  0.94393000  1
  Cu  Cu22  1  0.80705800  0.19856300  0.55607000  1
  Cu  Cu23  1  0.80705800  0.30143700  0.05607000  1
  Cu  Cu24  1  0.05879700  0.47020300  0.31460300  1
  Cu  Cu25  1  0.05879700  0.02979700  0.81460300  1
  Cu  Cu26  1  0.94120300  0.52979700  0.68539700  1
  Cu  Cu27  1  0.94120300  0.97020300  0.18539700  1
  Cu  Cu28  1  0.37618200  0.56068100  0.45500500  1
  Cu  Cu29  1  0.37618200  0.93931900  0.95500500  1
  Cu  Cu30  1  0.62381800  0.43931900  0.54499500  1
  Cu  Cu31  1  0.62381800  0.06068100  0.04499500  1
  Cu  Cu32  1  0.76299900  0.47627400  0.43043500  1
  Cu  Cu33  1  0.76299900  0.02372600  0.93043500  1
  Cu  Cu34  1  0.23700100  0.52372600  0.56956500  1
  Cu  Cu35  1  0.23700100  0.97627400  0.06956500  1
  Cu  Cu36  1  0.54909900  0.62814200  0.23370700  1
  Cu  Cu37  1  0.54909900  0.87185800  0.73370700  1
  Cu  Cu38  1  0.45090100  0.37185800  0.76629300  1
  Cu  Cu39  1  0.45090100  0.12814200  0.26629300  1
  Cu  Cu40  1  0.94308800  0.65823800  0.41277700  1
  Cu  Cu41  1  0.94308800  0.84176200  0.91277700  1
  Cu  Cu42  1  0.05691200  0.34176200  0.58722300  1
  Cu  Cu43  1  0.05691200  0.15823800  0.08722300  1
  Cu  Cu44  1  0.93039200  0.71661400  0.22429100  1
  Cu  Cu45  1  0.93039200  0.78338600  0.72429100  1
  Cu  Cu46  1  0.06960800  0.28338600  0.77570900  1
  Cu  Cu47  1  0.06960800  0.21661400  0.27570900  1
