# generated using pymatgen
data_Cu(NiC)2
_symmetry_space_group_name_H-M   'P 1'
_cell_length_a   8.72327800
_cell_length_b   8.72431663
_cell_length_c   8.73437425
_cell_angle_alpha   109.57742774
_cell_angle_beta   109.29064223
_cell_angle_gamma   109.41605058
_symmetry_Int_Tables_number   1
_chemical_formula_structural   Cu(NiC)2
_chemical_formula_sum   'Cu8 Ni16 C16'
_cell_volume   512.52064121
_cell_formula_units_Z   8
loop_
 _symmetry_equiv_pos_site_id
 _symmetry_equiv_pos_as_xyz
  1  'x, y, z'
loop_
 _atom_site_type_symbol
 _atom_site_label
 _atom_site_symmetry_multiplicity
 _atom_site_fract_x
 _atom_site_fract_y
 _atom_site_fract_z
 _atom_site_occupancy
  C  C0  1  0.24008000  0.78449400  0.96736800  1
  C  C1  1  0.00149100  0.00719600  0.98851300  1
  C  C2  1  0.46815900  0.25437900  0.77554600  1
  C  C3  1  0.97482900  0.24951100  0.27896700  1
  C  C4  1  0.50047800  0.99945000  0.50274100  1
  C  C5  1  0.49738500  0.49778500  0.99138500  1
  C  C6  1  0.74782600  0.71702100  0.54192200  1
  C  C7  1  0.28098700  0.03048100  0.26674600  1
  C  C8  1  0.71517500  0.96596700  0.74640300  1
  C  C9  1  0.79315900  0.53431800  0.25131600  1
  C  C10  1  0.21252300  0.45864400  0.74728100  1
  C  C11  1  0.25355200  0.28759800  0.46219600  1
  C  C12  1  0.00188300  0.51122000  0.49904200  1
  C  C13  1  0.53360400  0.75640900  0.21650200  1
  C  C14  1  0.02758500  0.74986200  0.71637400  1
  C  C15  1  0.75908800  0.21268300  0.02809300  1
  Ni  Ni16  1  0.99205200  0.76307100  0.96872500  1
  Ni  Ni17  1  0.04801400  0.53093200  0.22617700  1
  Ni  Ni18  1  0.74285000  0.97055800  0.48196300  1
  Ni  Ni19  1  0.50692600  0.03759600  0.73439300  1
  Ni  Ni20  1  0.23143600  0.26398300  0.22913300  1
  Ni  Ni21  1  0.49271800  0.95786500  0.27096700  1
  Ni  Ni22  1  0.72547300  0.45483600  0.53171100  1
  Ni  Ni23  1  0.76825600  0.73610800  0.77690700  1
  Ni  Ni24  1  0.23830100  0.22404500  0.72910000  1
  Ni  Ni25  1  0.26309600  0.03309400  0.51544400  1
  Ni  Ni26  1  0.03445700  0.77549400  0.44987600  1
  Ni  Ni27  1  0.46080000  0.51176600  0.76721100  1
  Ni  Ni28  1  0.77540600  0.01103600  0.95057600  1
  Ni  Ni29  1  0.95182300  0.46724600  0.77301800  1
  Ni  Ni30  1  0.27422500  0.54339700  0.46280500  1
  Ni  Ni31  1  0.00567400  0.23479800  0.03753800  1
  Cu  Cu32  1  0.71924100  0.27486400  0.26441000  1
  Cu  Cu33  1  0.45300200  0.72256400  0.01650200  1
  Cu  Cu34  1  0.75403600  0.76768000  0.27354500  1
  Cu  Cu35  1  0.54010500  0.48999500  0.23478600  1
  Cu  Cu36  1  0.96695500  0.22309100  0.54950900  1
  Cu  Cu37  1  0.22865200  0.98909100  0.04796400  1
  Cu  Cu38  1  0.27515200  0.72662300  0.73933300  1
  Cu  Cu39  1  0.54354300  0.27324900  0.98801400  1
