# generated using pymatgen
data_Cu9Ni3C
_symmetry_space_group_name_H-M   'P 1'
_cell_length_a   13.27431300
_cell_length_b   8.94199800
_cell_length_c   17.30014408
_cell_angle_alpha   63.68254117
_cell_angle_beta   90.00000000
_cell_angle_gamma   90.00000000
_symmetry_Int_Tables_number   1
_chemical_formula_structural   Cu9Ni3C
_chemical_formula_sum   'Cu36 Ni12 C4'
_cell_volume   1840.66448636
_cell_formula_units_Z   4
loop_
 _symmetry_equiv_pos_site_id
 _symmetry_equiv_pos_as_xyz
  1  'x, y, z'
loop_
 _atom_site_type_symbol
 _atom_site_label
 _atom_site_symmetry_multiplicity
 _atom_site_fract_x
 _atom_site_fract_y
 _atom_site_fract_z
 _atom_site_occupancy
  C  C0  1  0.73850000  0.70454100  0.87158600  1
  C  C1  1  0.76150000  0.70454100  0.37158600  1
  C  C2  1  0.26150000  0.29545900  0.12841400  1
  C  C3  1  0.23850000  0.29545900  0.62841400  1
  Ni  Ni4  1  0.68079600  0.68180700  0.74019900  1
  Ni  Ni5  1  0.81920400  0.68180700  0.24019900  1
  Ni  Ni6  1  0.31920400  0.31819300  0.25980100  1
  Ni  Ni7  1  0.18079600  0.31819300  0.75980100  1
  Ni  Ni8  1  0.57639300  0.71327000  0.92747300  1
  Ni  Ni9  1  0.92360700  0.71327000  0.42747300  1
  Ni  Ni10  1  0.42360700  0.28673000  0.07252700  1
  Ni  Ni11  1  0.07639300  0.28673000  0.57252700  1
  Ni  Ni12  1  0.82299000  0.74155400  0.98690100  1
  Ni  Ni13  1  0.67701000  0.74155400  0.48690100  1
  Ni  Ni14  1  0.17701000  0.25844600  0.01309900  1
  Ni  Ni15  1  0.32299000  0.25844600  0.51309900  1
  Cu  Cu16  1  0.73365900  0.39896200  0.98407200  1
  Cu  Cu17  1  0.76634100  0.39896200  0.48407200  1
  Cu  Cu18  1  0.26634100  0.60103800  0.01592800  1
  Cu  Cu19  1  0.23365900  0.60103800  0.51592800  1
  Cu  Cu20  1  0.88635400  0.64207100  0.79624700  1
  Cu  Cu21  1  0.61364600  0.64207100  0.29624700  1
  Cu  Cu22  1  0.11364600  0.35792900  0.20375300  1
  Cu  Cu23  1  0.38635400  0.35792900  0.70375300  1
  Cu  Cu24  1  0.74299000  0.99595900  0.75262100  1
  Cu  Cu25  1  0.75701000  0.99595900  0.25262100  1
  Cu  Cu26  1  0.25701000  0.00404100  0.24737900  1
  Cu  Cu27  1  0.24299000  0.00404100  0.74737900  1
  Cu  Cu28  1  0.66701400  0.39906900  0.76314500  1
  Cu  Cu29  1  0.83298600  0.39906900  0.26314500  1
  Cu  Cu30  1  0.33298600  0.60093100  0.23685500  1
  Cu  Cu31  1  0.16701400  0.60093100  0.73685500  1
  Cu  Cu32  1  0.50459800  0.75317200  0.72017300  1
  Cu  Cu33  1  0.99540200  0.75317200  0.22017300  1
  Cu  Cu34  1  0.49540200  0.24682800  0.27982700  1
  Cu  Cu35  1  0.00459800  0.24682800  0.77982700  1
  Cu  Cu36  1  0.59547700  0.66210500  0.07610500  1
  Cu  Cu37  1  0.90452300  0.66210500  0.57610500  1
  Cu  Cu38  1  0.40452300  0.33789500  0.92389500  1
  Cu  Cu39  1  0.09547700  0.33789500  0.42389500  1
  Cu  Cu40  1  0.50557700  0.98384800  0.86632900  1
  Cu  Cu41  1  0.99442300  0.98384800  0.36632900  1
  Cu  Cu42  1  0.49442300  0.01615200  0.13367100  1
  Cu  Cu43  1  0.00557700  0.01615200  0.63367100  1
  Cu  Cu44  1  0.79341200  0.01912300  0.96663300  1
  Cu  Cu45  1  0.70658800  0.01912300  0.46663300  1
  Cu  Cu46  1  0.20658800  0.98087700  0.03336700  1
  Cu  Cu47  1  0.29341200  0.98087700  0.53336700  1
  Cu  Cu48  1  0.99858200  0.74480300  0.96443700  1
  Cu  Cu49  1  0.50141800  0.74480300  0.46443700  1
  Cu  Cu50  1  0.00141800  0.25519700  0.03556300  1
  Cu  Cu51  1  0.49858200  0.25519700  0.53556300  1
