# generated using pymatgen
data_Cu6NiC7
_symmetry_space_group_name_H-M   'P 1'
_cell_length_a   10.19092400
_cell_length_b   6.47379000
_cell_length_c   9.79112679
_cell_angle_alpha   51.45195522
_cell_angle_beta   90.00000000
_cell_angle_gamma   90.00000000
_symmetry_Int_Tables_number   1
_chemical_formula_structural   Cu6NiC7
_chemical_formula_sum   'Cu24 Ni4 C28'
_cell_volume   505.19528561
_cell_formula_units_Z   4
loop_
 _symmetry_equiv_pos_site_id
 _symmetry_equiv_pos_as_xyz
  1  'x, y, z'
loop_
 _atom_site_type_symbol
 _atom_site_label
 _atom_site_symmetry_multiplicity
 _atom_site_fract_x
 _atom_site_fract_y
 _atom_site_fract_z
 _atom_site_occupancy
  C  C0  1  0.84196000  0.33317400  0.91181700  1
  C  C1  1  0.65804000  0.33317400  0.41181700  1
  C  C2  1  0.15804000  0.66682600  0.08818300  1
  C  C3  1  0.34196000  0.66682600  0.58818300  1
  Ni  Ni4  1  0.16287200  0.29324900  0.95784800  1
  Ni  Ni5  1  0.33712800  0.29324900  0.45784800  1
  Ni  Ni6  1  0.83712800  0.70675100  0.04215200  1
  Ni  Ni7  1  0.66287200  0.70675100  0.54215200  1
  Cu  Cu8  1  0.87450700  0.06112100  0.59419400  1
  Cu  Cu9  1  0.62549300  0.06112100  0.09419400  1
  Cu  Cu10  1  0.12549300  0.93887900  0.40580600  1
  Cu  Cu11  1  0.37450700  0.93887900  0.90580600  1
  Cu  Cu12  1  0.63262200  0.32882100  0.08075500  1
  Cu  Cu13  1  0.86737800  0.32882100  0.58075500  1
  Cu  Cu14  1  0.36737800  0.67117900  0.91924500  1
  Cu  Cu15  1  0.13262200  0.67117900  0.41924500  1
  Cu  Cu16  1  0.57756400  0.35345000  0.90943700  1
  Cu  Cu17  1  0.92243600  0.35345000  0.40943700  1
  Cu  Cu18  1  0.42243600  0.64655000  0.09056300  1
  Cu  Cu19  1  0.07756400  0.64655000  0.59056300  1
  Cu  Cu20  1  0.47473800  0.82981800  0.30667700  1
  Cu  Cu21  1  0.02526200  0.82981800  0.80667700  1
  Cu  Cu22  1  0.52526200  0.17018200  0.69332300  1
  Cu  Cu23  1  0.97473800  0.17018200  0.19332300  1
  Cu  Cu24  1  0.07105200  0.09738700  0.78176400  1
  Cu  Cu25  1  0.42894800  0.09738700  0.28176400  1
  Cu  Cu26  1  0.92894800  0.90261300  0.21823600  1
  Cu  Cu27  1  0.57105200  0.90261300  0.71823600  1
  Cu  Cu28  1  0.32439400  0.95511800  0.23104600  1
  Cu  Cu29  1  0.17560600  0.95511800  0.73104600  1
  Cu  Cu30  1  0.67560600  0.04488200  0.76895400  1
  Cu  Cu31  1  0.82439400  0.04488200  0.26895400  1
  C  C32  1  0.64318800  0.25957200  0.01143200  1
  C  C33  1  0.85681200  0.25957200  0.51143200  1
  C  C34  1  0.35681200  0.74042800  0.98856800  1
  C  C35  1  0.14318800  0.74042800  0.48856800  1
  C  C36  1  0.89709400  0.07909100  0.18389800  1
  C  C37  1  0.60290600  0.07909100  0.68389800  1
  C  C38  1  0.10290600  0.92090900  0.81610200  1
  C  C39  1  0.39709400  0.92090900  0.31610200  1
  C  C40  1  0.34888100  0.35785100  0.58595000  1
  C  C41  1  0.15111900  0.35785100  0.08595000  1
  C  C42  1  0.65111900  0.64214900  0.41405000  1
  C  C43  1  0.84888100  0.64214900  0.91405000  1
  C  C44  1  0.18076100  0.98972500  0.07392300  1
  C  C45  1  0.31923900  0.98972500  0.57392300  1
  C  C46  1  0.81923900  0.01027500  0.92607700  1
  C  C47  1  0.68076100  0.01027500  0.42607700  1
  C  C48  1  0.28368800  0.43747600  0.83769400  1
  C  C49  1  0.21631200  0.43747600  0.33769400  1
  C  C50  1  0.71631200  0.56252400  0.16230600  1
  C  C51  1  0.78368800  0.56252400  0.66230600  1
  C  C52  1  0.03610100  0.37896200  0.84428300  1
  C  C53  1  0.46389900  0.37896200  0.34428300  1
  C  C54  1  0.96389900  0.62103800  0.15571700  1
  C  C55  1  0.53610100  0.62103800  0.65571700  1
