# generated using pymatgen
data_Cu5Ni7C4
_symmetry_space_group_name_H-M   'P 1'
_cell_length_a   4.44315200
_cell_length_b   7.09936000
_cell_length_c   10.37123865
_cell_angle_alpha   89.76578317
_cell_angle_beta   90.00000000
_cell_angle_gamma   90.00000000
_symmetry_Int_Tables_number   1
_chemical_formula_structural   Cu5Ni7C4
_chemical_formula_sum   'Cu5 Ni7 C4'
_cell_volume   327.14280215
_cell_formula_units_Z   1
loop_
 _symmetry_equiv_pos_site_id
 _symmetry_equiv_pos_as_xyz
  1  'x, y, z'
loop_
 _atom_site_type_symbol
 _atom_site_label
 _atom_site_symmetry_multiplicity
 _atom_site_fract_x
 _atom_site_fract_y
 _atom_site_fract_z
 _atom_site_occupancy
  C  C0  1  0.50000000  0.78309300  0.17005600  1
  C  C1  1  0.50000000  0.28203300  0.33032300  1
  C  C2  1  0.00000000  0.21558700  0.83083600  1
  C  C3  1  0.00000000  0.71748300  0.66977300  1
  Ni  Ni4  1  0.50000000  0.92228300  0.84768900  1
  Ni  Ni5  1  0.50000000  0.42196300  0.65202100  1
  Ni  Ni6  1  0.00000000  0.07857300  0.15211000  1
  Ni  Ni7  1  0.00000000  0.57808900  0.34772300  1
  Ni  Ni8  1  0.50000000  0.20275800  0.03766000  1
  Ni  Ni9  1  0.00000000  0.29797100  0.53747100  1
  Ni  Ni10  1  0.00000000  0.79701700  0.96226900  1
  Cu  Cu11  1  0.50000000  0.54059300  0.90245700  1
  Cu  Cu12  1  0.50000000  0.04339600  0.59901700  1
  Cu  Cu13  1  0.00000000  0.45894600  0.09776300  1
  Cu  Cu14  1  0.00000000  0.95975100  0.40201700  1
  Cu  Cu15  1  0.50000000  0.70046500  0.46081400  1
