# generated using pymatgen
data_Cu3Ni3C13
_symmetry_space_group_name_H-M   'P 1'
_cell_length_a   6.24387500
_cell_length_b   9.87358042
_cell_length_c   9.87379717
_cell_angle_alpha   120.00021303
_cell_angle_beta   90.00000000
_cell_angle_gamma   90.00000000
_symmetry_Int_Tables_number   1
_chemical_formula_structural   Cu3Ni3C13
_chemical_formula_sum   'Cu6 Ni6 C26'
_cell_volume   527.16038760
_cell_formula_units_Z   2
loop_
 _symmetry_equiv_pos_site_id
 _symmetry_equiv_pos_as_xyz
  1  'x, y, z'
loop_
 _atom_site_type_symbol
 _atom_site_label
 _atom_site_symmetry_multiplicity
 _atom_site_fract_x
 _atom_site_fract_y
 _atom_site_fract_z
 _atom_site_occupancy
  C  C0  1  0.75000000  0.33333700  0.66666200  1
  C  C1  1  0.25000000  0.66666300  0.33333800  1
  Ni  Ni2  1  0.25000000  0.06953000  0.17394000  1
  Ni  Ni3  1  0.25000000  0.82606400  0.89558500  1
  Ni  Ni4  1  0.25000000  0.10441100  0.93047100  1
  Ni  Ni5  1  0.75000000  0.93047000  0.82606000  1
  Ni  Ni6  1  0.75000000  0.17393600  0.10441500  1
  Ni  Ni7  1  0.75000000  0.89558900  0.06952900  1
  Cu  Cu8  1  0.75000000  0.89598200  0.30073900  1
  Cu  Cu9  1  0.75000000  0.69926200  0.59524400  1
  Cu  Cu10  1  0.75000000  0.40475300  0.10402000  1
  Cu  Cu11  1  0.25000000  0.10401800  0.69926100  1
  Cu  Cu12  1  0.25000000  0.30073800  0.40475600  1
  Cu  Cu13  1  0.25000000  0.59524700  0.89598000  1
  C  C14  1  0.75000000  0.04354400  0.48028500  1
  C  C15  1  0.75000000  0.51971100  0.56325700  1
  C  C16  1  0.75000000  0.43674500  0.95645600  1
  C  C17  1  0.25000000  0.95645600  0.51971500  1
  C  C18  1  0.25000000  0.48028900  0.43674300  1
  C  C19  1  0.25000000  0.56325500  0.04354400  1
  C  C20  1  0.53183600  0.78741700  0.24755500  1
  C  C21  1  0.53183300  0.75244400  0.53986300  1
  C  C22  1  0.53183700  0.46013600  0.21257700  1
  C  C23  1  0.03183600  0.21258300  0.75244500  1
  C  C24  1  0.03183300  0.24755600  0.46013700  1
  C  C25  1  0.03183700  0.53986400  0.78742300  1
  C  C26  1  0.46816400  0.21258300  0.75244500  1
  C  C27  1  0.46816700  0.24755600  0.46013700  1
  C  C28  1  0.46816300  0.53986400  0.78742300  1
  C  C29  1  0.96816400  0.78741700  0.24755500  1
  C  C30  1  0.96816700  0.75244400  0.53986300  1
  C  C31  1  0.96816300  0.46013600  0.21257700  1
  C  C32  1  0.25000000  0.17778500  0.19455500  1
  C  C33  1  0.25000000  0.80544800  0.98324100  1
  C  C34  1  0.25000000  0.01676400  0.82221200  1
  C  C35  1  0.75000000  0.82221500  0.80544500  1
  C  C36  1  0.75000000  0.19455200  0.01675900  1
  C  C37  1  0.75000000  0.98323600  0.17778800  1
