# generated using pymatgen
data_CuNi2C7
_symmetry_space_group_name_H-M   'P 1'
_cell_length_a   5.47601903
_cell_length_b   5.47601903
_cell_length_c   5.47601885
_cell_angle_alpha   60.29972052
_cell_angle_beta   60.29972052
_cell_angle_gamma   60.29971889
_symmetry_Int_Tables_number   1
_chemical_formula_structural   CuNi2C7
_chemical_formula_sum   'Cu1 Ni2 C7'
_cell_volume   116.90025714
_cell_formula_units_Z   1
loop_
 _symmetry_equiv_pos_site_id
 _symmetry_equiv_pos_as_xyz
  1  'x, y, z'
loop_
 _atom_site_type_symbol
 _atom_site_label
 _atom_site_symmetry_multiplicity
 _atom_site_fract_x
 _atom_site_fract_y
 _atom_site_fract_z
 _atom_site_occupancy
  C  C0  1  0.50000000  0.50000000  0.50000000  1
  Ni  Ni1  1  0.24950500  0.24950500  0.24950500  1
  Ni  Ni2  1  0.75049500  0.75049500  0.75049500  1
  Cu  Cu3  1  0.00000000  0.00000000  0.00000000  1
  C  C4  1  0.58332500  0.41667500  0.00000000  1
  C  C5  1  0.00000000  0.58332500  0.41667500  1
  C  C6  1  0.41667500  0.00000000  0.58332500  1
  C  C7  1  0.50000000  0.93522500  0.06477500  1
  C  C8  1  0.06477500  0.50000000  0.93522500  1
  C  C9  1  0.93522500  0.06477500  0.50000000  1
