# generated using pymatgen
data_Cu(NiC4)2
_symmetry_space_group_name_H-M   'P 1'
_cell_length_a   6.10847123
_cell_length_b   6.55622798
_cell_length_c   6.14807359
_cell_angle_alpha   130.62360377
_cell_angle_beta   126.47178689
_cell_angle_gamma   73.99252821
_symmetry_Int_Tables_number   1
_chemical_formula_structural   Cu(NiC4)2
_chemical_formula_sum   'Cu1 Ni2 C8'
_cell_volume   147.76371042
_cell_formula_units_Z   1
loop_
 _symmetry_equiv_pos_site_id
 _symmetry_equiv_pos_as_xyz
  1  'x, y, z'
loop_
 _atom_site_type_symbol
 _atom_site_label
 _atom_site_symmetry_multiplicity
 _atom_site_fract_x
 _atom_site_fract_y
 _atom_site_fract_z
 _atom_site_occupancy
  Ni  Ni0  1  0.21453100  0.69052600  0.47209100  1
  Ni  Ni1  1  0.78542900  0.30945300  0.52787100  1
  Cu  Cu2  1  0.50000700  0.00001300  0.49995200  1
  C  C3  1  0.00007000  0.00003400  0.00006000  1
  C  C4  1  0.49987100  0.50002300  0.99982900  1
  C  C5  1  0.66851200  0.79942700  0.12507700  1
  C  C6  1  0.18274500  0.70873600  0.03842500  1
  C  C7  1  0.81727700  0.29126600  0.96157300  1
  C  C8  1  0.33153100  0.20050600  0.87499000  1
  C  C9  1  0.31728100  0.29344600  0.47596800  1
  C  C10  1  0.68274400  0.70657100  0.52416400  1
