# generated using pymatgen
data_Cu(NiC12)3
_symmetry_space_group_name_H-M   'P 1'
_cell_length_a   8.75780100
_cell_length_b   8.70487600
_cell_length_c   12.31033711
_cell_angle_alpha   88.72997983
_cell_angle_beta   90.00000000
_cell_angle_gamma   90.00000000
_symmetry_Int_Tables_number   1
_chemical_formula_structural   Cu(NiC12)3
_chemical_formula_sum   'Cu2 Ni6 C72'
_cell_volume   938.25504311
_cell_formula_units_Z   2
loop_
 _symmetry_equiv_pos_site_id
 _symmetry_equiv_pos_as_xyz
  1  'x, y, z'
loop_
 _atom_site_type_symbol
 _atom_site_label
 _atom_site_symmetry_multiplicity
 _atom_site_fract_x
 _atom_site_fract_y
 _atom_site_fract_z
 _atom_site_occupancy
  C  C0  1  0.08054200  0.32570500  0.05363500  1
  C  C1  1  0.69432600  0.32382400  0.99151300  1
  C  C2  1  0.77216300  0.45810100  0.56885800  1
  C  C3  1  0.27216300  0.54189900  0.43114200  1
  C  C4  1  0.19432600  0.67617600  0.00848700  1
  C  C5  1  0.58054200  0.67429500  0.94636500  1
  C  C6  1  0.41503100  0.82756000  0.55111400  1
  C  C7  1  0.80527100  0.83135300  0.48420500  1
  C  C8  1  0.71881700  0.95903300  0.07490300  1
  C  C9  1  0.21881700  0.04096700  0.92509700  1
  C  C10  1  0.30527100  0.16864700  0.51579500  1
  C  C11  1  0.91503100  0.17244000  0.44888600  1
  Ni  Ni12  1  0.45808700  0.49443600  0.64112800  1
  Ni  Ni13  1  0.95808700  0.50556400  0.35887200  1
  Ni  Ni14  1  0.04047200  0.99610900  0.14143900  1
  Ni  Ni15  1  0.54047200  0.00389100  0.85856100  1
  Ni  Ni16  1  0.96355400  0.99816900  0.64665200  1
  Ni  Ni17  1  0.46355400  0.00183100  0.35334800  1
  Cu  Cu18  1  0.53029700  0.49538100  0.14384800  1
  Cu  Cu19  1  0.03029700  0.50461900  0.85615200  1
  C  C20  1  0.25249400  0.28795400  0.25996700  1
  C  C21  1  0.37972000  0.35240200  0.90118200  1
  C  C22  1  0.09722200  0.34961200  0.60340600  1
  C  C23  1  0.59722200  0.65038800  0.39659400  1
  C  C24  1  0.87972000  0.64759800  0.09881800  1
  C  C25  1  0.75249400  0.71204600  0.74003300  1
  C  C26  1  0.24782200  0.78919200  0.75338800  1
  C  C27  1  0.11804300  0.85514900  0.39221900  1
  C  C28  1  0.40160500  0.85175300  0.09410800  1
  C  C29  1  0.90160500  0.14824700  0.90589200  1
  C  C30  1  0.61804300  0.14485100  0.60778100  1
  C  C31  1  0.74782200  0.21080800  0.24661200  1
  C  C32  1  0.86387700  0.29349400  0.31854400  1
  C  C33  1  0.89714300  0.33048100  0.90140000  1
  C  C34  1  0.67857800  0.32311600  0.15704000  1
  C  C35  1  0.59718100  0.31700800  0.57959300  1
  C  C36  1  0.38144500  0.35981700  0.18317500  1
  C  C37  1  0.20914900  0.39838000  0.93173200  1
  C  C38  1  0.40827600  0.39225800  0.78352300  1
  C  C39  1  0.97043600  0.39269100  0.52110400  1
  C  C40  1  0.25537200  0.40120700  0.56117000  1
  C  C41  1  0.18058200  0.42220600  0.31766500  1
  C  C42  1  0.05746800  0.41782000  0.71543900  1
  C  C43  1  0.49741200  0.44237200  0.97459500  1
  C  C44  1  0.99741200  0.55762800  0.02540500  1
  C  C45  1  0.55746800  0.58218000  0.28456100  1
  C  C46  1  0.68058200  0.57779400  0.68233500  1
  C  C47  1  0.75537200  0.59879300  0.43883000  1
  C  C48  1  0.90827600  0.60774200  0.21647700  1
  C  C49  1  0.70914900  0.60162000  0.06826800  1
  C  C50  1  0.47043600  0.60730900  0.47889600  1
  C  C51  1  0.88144500  0.64018300  0.81682500  1
  C  C52  1  0.17857800  0.67688400  0.84296000  1
  C  C53  1  0.39714300  0.66951900  0.09860000  1
  C  C54  1  0.09718100  0.68299200  0.42040700  1
  C  C55  1  0.36387700  0.70650600  0.68145600  1
  C  C56  1  0.64459700  0.79305800  0.81815900  1
  C  C57  1  0.89718200  0.82078100  0.07282500  1
  C  C58  1  0.60841600  0.83032600  0.39210700  1
  C  C59  1  0.82266500  0.82117000  0.65258300  1
  C  C60  1  0.12535400  0.85214100  0.67388100  1
  C  C61  1  0.52484800  0.88830000  0.00429100  1
  C  C62  1  0.28627800  0.89663600  0.42792000  1
  C  C63  1  0.10459400  0.88161200  0.26794200  1
  C  C64  1  0.24010900  0.89659100  0.05419300  1
  C  C65  1  0.32257800  0.92063200  0.81603500  1
  C  C66  1  0.45337300  0.92382200  0.19794400  1
  C  C67  1  0.99762500  0.95064500  0.45357600  1
  C  C68  1  0.49762500  0.04935500  0.54642400  1
  C  C69  1  0.95337300  0.07617800  0.80205600  1
  C  C70  1  0.82257800  0.07936800  0.18396500  1
  C  C71  1  0.74010900  0.10340900  0.94580700  1
  C  C72  1  0.02484800  0.11170000  0.99570900  1
  C  C73  1  0.60459400  0.11838800  0.73205800  1
  C  C74  1  0.78627800  0.10336400  0.57208000  1
  C  C75  1  0.62535400  0.14785900  0.32611900  1
  C  C76  1  0.39718200  0.17921900  0.92717500  1
  C  C77  1  0.32266500  0.17883000  0.34741700  1
  C  C78  1  0.10841600  0.16967400  0.60789300  1
  C  C79  1  0.14459700  0.20694200  0.18184100  1
