# generated using pymatgen
data_CuNiC8
_symmetry_space_group_name_H-M   'P 1'
_cell_length_a   5.64132308
_cell_length_b   5.66085287
_cell_length_c   18.71808980
_cell_angle_alpha   89.71386998
_cell_angle_beta   80.69628455
_cell_angle_gamma   59.60545300
_symmetry_Int_Tables_number   1
_chemical_formula_structural   CuNiC8
_chemical_formula_sum   'Cu4 Ni4 C32'
_cell_volume   506.74404563
_cell_formula_units_Z   4
loop_
 _symmetry_equiv_pos_site_id
 _symmetry_equiv_pos_as_xyz
  1  'x, y, z'
loop_
 _atom_site_type_symbol
 _atom_site_label
 _atom_site_symmetry_multiplicity
 _atom_site_fract_x
 _atom_site_fract_y
 _atom_site_fract_z
 _atom_site_occupancy
  C  C0  1  0.49441100  0.25621900  0.75322600  1
  C  C1  1  0.99924600  0.49310600  0.50132200  1
  C  C2  1  0.99615000  0.00776800  0.99831000  1
  C  C3  1  0.50705700  0.74479800  0.24838000  1
  C  C4  1  0.74668900  0.63506000  0.87450500  1
  C  C5  1  0.24486700  0.87025300  0.62727500  1
  C  C6  1  0.25199900  0.37772900  0.12146800  1
  C  C7  1  0.75404700  0.11809800  0.37617800  1
  Ni  Ni8  1  0.12226300  0.94851900  0.81462400  1
  Ni  Ni9  1  0.61759800  0.17798400  0.56484700  1
  Ni  Ni10  1  0.62309400  0.69348600  0.05902800  1
  Ni  Ni11  1  0.13500400  0.43039400  0.31159000  1
  Cu  Cu12  1  0.37297400  0.32038000  0.93710400  1
  Cu  Cu13  1  0.87032200  0.56203900  0.68920700  1
  Cu  Cu14  1  0.87974900  0.06018700  0.18589900  1
  Cu  Cu15  1  0.37479800  0.80721600  0.43788000  1
  C  C16  1  0.25093800  0.13898300  0.87721900  1
  C  C17  1  0.73384600  0.35108000  0.62957800  1
  C  C18  1  0.72518400  0.88843100  0.12446900  1
  C  C19  1  0.27295100  0.62719700  0.37312000  1
  C  C20  1  0.00947600  0.77204800  0.74847300  1
  C  C21  1  0.47939800  0.97938900  0.50346700  1
  C  C22  1  0.49639800  0.50300700  0.99670600  1
  C  C23  1  0.03612200  0.23493600  0.24756400  1
  C  C24  1  0.99880100  0.27471500  0.75366300  1
  C  C25  1  0.49063700  0.47917200  0.50115800  1
  C  C26  1  0.50034200  0.01146500  0.99563100  1
  C  C27  1  0.04401500  0.72462600  0.24436600  1
  C  C28  1  0.24598000  0.63218700  0.87662700  1
  C  C29  1  0.74323700  0.84631700  0.62485200  1
  C  C30  1  0.72060900  0.39990300  0.12581100  1
  C  C31  1  0.26127400  0.12985600  0.37703100  1
  C  C32  1  0.50993700  0.75988000  0.75209700  1
  C  C33  1  0.98205700  0.98496000  0.49927100  1
  C  C34  1  0.00631300  0.50060800  0.99919900  1
  C  C35  1  0.54374200  0.22692200  0.25410800  1
  C  C36  1  0.74083100  0.13965700  0.87587300  1
  C  C37  1  0.22789000  0.36465700  0.62695900  1
  C  C38  1  0.22196500  0.89903800  0.11743200  1
  C  C39  1  0.76778800  0.62772900  0.37448100  1
