# generated using pymatgen
data_CuNiC2
_symmetry_space_group_name_H-M   'P 1'
_cell_length_a   6.36251479
_cell_length_b   6.36251479
_cell_length_c   6.36251436
_cell_angle_alpha   32.97594552
_cell_angle_beta   32.97594552
_cell_angle_gamma   32.97594167
_symmetry_Int_Tables_number   1
_chemical_formula_structural   CuNiC2
_chemical_formula_sum   'Cu1 Ni1 C2'
_cell_volume   67.90052279
_cell_formula_units_Z   1
loop_
 _symmetry_equiv_pos_site_id
 _symmetry_equiv_pos_as_xyz
  1  'x, y, z'
loop_
 _atom_site_type_symbol
 _atom_site_label
 _atom_site_symmetry_multiplicity
 _atom_site_fract_x
 _atom_site_fract_y
 _atom_site_fract_z
 _atom_site_occupancy
  Ni  Ni0  1  0.00205700  0.00205700  0.00205700  1
  Cu  Cu1  1  0.85864100  0.85864100  0.85864100  1
  C  C2  1  0.73358100  0.73358100  0.73358100  1
  C  C3  1  0.25272100  0.25272100  0.25272100  1
