# generated using pymatgen
data_Cu3Ni3C7
_symmetry_space_group_name_H-M   'P 1'
_cell_length_a   7.34378753
_cell_length_b   7.34378753
_cell_length_c   13.60492700
_cell_angle_alpha   90.00000000
_cell_angle_beta   90.00000000
_cell_angle_gamma   120.33534867
_symmetry_Int_Tables_number   1
_chemical_formula_structural   Cu3Ni3C7
_chemical_formula_sum   'Cu12 Ni12 C28'
_cell_volume   633.27092368
_cell_formula_units_Z   4
loop_
 _symmetry_equiv_pos_site_id
 _symmetry_equiv_pos_as_xyz
  1  'x, y, z'
loop_
 _atom_site_type_symbol
 _atom_site_label
 _atom_site_symmetry_multiplicity
 _atom_site_fract_x
 _atom_site_fract_y
 _atom_site_fract_z
 _atom_site_occupancy
  C  C0  1  0.67533200  0.32466800  0.75000000  1
  C  C1  1  0.32466800  0.67533200  0.25000000  1
  C  C2  1  0.00000000  0.00000000  0.00000000  1
  C  C3  1  0.00000000  0.00000000  0.50000000  1
  C  C4  1  0.44832700  0.87127700  0.80856500  1
  C  C5  1  0.87127700  0.44832700  0.19143500  1
  C  C6  1  0.44832700  0.87127700  0.69143500  1
  C  C7  1  0.87127700  0.44832700  0.30856500  1
  C  C8  1  0.55167300  0.12872300  0.19143500  1
  C  C9  1  0.12872300  0.55167300  0.80856500  1
  C  C10  1  0.55167300  0.12872300  0.30856500  1
  C  C11  1  0.12872300  0.55167300  0.69143500  1
  C  C12  1  0.31301400  0.68698600  0.96305500  1
  C  C13  1  0.68698600  0.31301400  0.03694500  1
  C  C14  1  0.31301400  0.68698600  0.53694500  1
  C  C15  1  0.68698600  0.31301400  0.46305500  1
  C  C16  1  0.41598000  0.58402000  0.89865100  1
  C  C17  1  0.58402000  0.41598000  0.10134900  1
  C  C18  1  0.41598000  0.58402000  0.60134900  1
  C  C19  1  0.58402000  0.41598000  0.39865100  1
  Ni  Ni20  1  0.86822200  0.13177800  0.93914900  1
  Ni  Ni21  1  0.13177800  0.86822200  0.06085100  1
  Ni  Ni22  1  0.86822200  0.13177800  0.56085100  1
  Ni  Ni23  1  0.13177800  0.86822200  0.43914900  1
  Ni  Ni24  1  0.22863600  0.13561100  0.91313500  1
  Ni  Ni25  1  0.13561100  0.22863600  0.08686500  1
  Ni  Ni26  1  0.22863600  0.13561100  0.58686500  1
  Ni  Ni27  1  0.13561100  0.22863600  0.41313500  1
  Ni  Ni28  1  0.77136400  0.86438900  0.08686500  1
  Ni  Ni29  1  0.86438900  0.77136400  0.91313500  1
  Ni  Ni30  1  0.77136400  0.86438900  0.41313500  1
  Ni  Ni31  1  0.86438900  0.77136400  0.58686500  1
  Cu  Cu32  1  0.78662300  0.21337700  0.89900500  1
  Cu  Cu33  1  0.21337700  0.78662300  0.10099500  1
  Cu  Cu34  1  0.78662300  0.21337700  0.60099500  1
  Cu  Cu35  1  0.21337700  0.78662300  0.39900500  1
  Cu  Cu36  1  0.37443800  0.21961900  0.86055400  1
  Cu  Cu37  1  0.21961900  0.37443800  0.13944600  1
  Cu  Cu38  1  0.37443800  0.21961900  0.63944600  1
  Cu  Cu39  1  0.21961900  0.37443800  0.36055400  1
  Cu  Cu40  1  0.62556200  0.78038100  0.13944600  1
  Cu  Cu41  1  0.78038100  0.62556200  0.86055400  1
  Cu  Cu42  1  0.62556200  0.78038100  0.36055400  1
  Cu  Cu43  1  0.78038100  0.62556200  0.63944600  1
  C  C44  1  0.51009300  0.96170200  0.75000000  1
  C  C45  1  0.96170200  0.51009300  0.25000000  1
  C  C46  1  0.48990700  0.03829800  0.25000000  1
  C  C47  1  0.03829800  0.48990700  0.75000000  1
  C  C48  1  0.33926900  0.66073100  0.89534800  1
  C  C49  1  0.66073100  0.33926900  0.10465200  1
  C  C50  1  0.33926900  0.66073100  0.60465200  1
  C  C51  1  0.66073100  0.33926900  0.39534800  1
