# generated using pymatgen
data_Cu22Ni2C3
_symmetry_space_group_name_H-M   'P 1'
_cell_length_a   6.86489400
_cell_length_b   8.98078430
_cell_length_c   9.36796683
_cell_angle_alpha   62.49915603
_cell_angle_beta   70.59115819
_cell_angle_gamma   68.42227953
_symmetry_Int_Tables_number   1
_chemical_formula_structural   Cu22Ni2C3
_chemical_formula_sum   'Cu22 Ni2 C3'
_cell_volume   467.05704917
_cell_formula_units_Z   1
loop_
 _symmetry_equiv_pos_site_id
 _symmetry_equiv_pos_as_xyz
  1  'x, y, z'
loop_
 _atom_site_type_symbol
 _atom_site_label
 _atom_site_symmetry_multiplicity
 _atom_site_fract_x
 _atom_site_fract_y
 _atom_site_fract_z
 _atom_site_occupancy
  C  C0  1  0.11594300  0.99700900  0.80286500  1
  C  C1  1  0.88405700  0.00299100  0.19713500  1
  C  C2  1  0.00000000  0.50000000  0.50000000  1
  Ni  Ni3  1  0.67457100  0.05458300  0.61088600  1
  Ni  Ni4  1  0.32542900  0.94541700  0.38911400  1
  Cu  Cu5  1  0.20609100  0.76267700  0.87210500  1
  Cu  Cu6  1  0.79390900  0.23732300  0.12789500  1
  Cu  Cu7  1  0.04272900  0.23825300  0.68959600  1
  Cu  Cu8  1  0.95727100  0.76174700  0.31040400  1
  Cu  Cu9  1  0.17002400  0.01205300  0.00651100  1
  Cu  Cu10  1  0.82997600  0.98794700  0.99348900  1
  Cu  Cu11  1  0.49099200  0.98628700  0.73334500  1
  Cu  Cu12  1  0.50900800  0.01371300  0.26665500  1
  Cu  Cu13  1  0.73972200  0.97872200  0.48454000  1
  Cu  Cu14  1  0.26027800  0.02127800  0.51546000  1
  Cu  Cu15  1  0.85775700  0.97395500  0.69851400  1
  Cu  Cu16  1  0.14224300  0.02604500  0.30148600  1
  Cu  Cu17  1  0.62198200  0.24280400  0.54296100  1
  Cu  Cu18  1  0.37801800  0.75719600  0.45703900  1
  Cu  Cu19  1  0.72972000  0.55410800  0.66362200  1
  Cu  Cu20  1  0.27028000  0.44589200  0.33637800  1
  Cu  Cu21  1  0.04242000  0.55822800  0.66814900  1
  Cu  Cu22  1  0.95758000  0.44177200  0.33185100  1
  Cu  Cu23  1  0.83658300  0.57708500  0.74481400  1
  Cu  Cu24  1  0.16341700  0.42291500  0.25518600  1
  Cu  Cu25  1  0.40504800  0.23660700  0.92941600  1
  Cu  Cu26  1  0.59495200  0.76339300  0.07058400  1
