# generated using pymatgen
data_Cu2Ni6C31
_symmetry_space_group_name_H-M   'P 1'
_cell_length_a   7.60002482
_cell_length_b   7.60002482
_cell_length_c   12.30367779
_cell_angle_alpha   90.00000000
_cell_angle_beta   90.00000000
_cell_angle_gamma   109.96279885
_symmetry_Int_Tables_number   1
_chemical_formula_structural   Cu2Ni6C31
_chemical_formula_sum   'Cu2 Ni6 C31'
_cell_volume   667.96439759
_cell_formula_units_Z   1
loop_
 _symmetry_equiv_pos_site_id
 _symmetry_equiv_pos_as_xyz
  1  'x, y, z'
loop_
 _atom_site_type_symbol
 _atom_site_label
 _atom_site_symmetry_multiplicity
 _atom_site_fract_x
 _atom_site_fract_y
 _atom_site_fract_z
 _atom_site_occupancy
  Ni  Ni0  1  0.50000000  0.00000000  0.00000000  1
  Ni  Ni1  1  0.00000000  0.50000000  0.00000000  1
  Ni  Ni2  1  0.73483400  0.73483400  0.25791700  1
  Ni  Ni3  1  0.26516600  0.26516600  0.74208300  1
  Ni  Ni4  1  0.26516600  0.26516600  0.25791700  1
  Ni  Ni5  1  0.73483400  0.73483400  0.74208300  1
  Cu  Cu6  1  0.00000000  0.50000000  0.50000000  1
  Cu  Cu7  1  0.50000000  0.00000000  0.50000000  1
  C  C8  1  0.00000000  0.00000000  0.00000000  1
  C  C9  1  0.24722400  0.75277600  0.24548400  1
  C  C10  1  0.75277600  0.24722400  0.75451600  1
  C  C11  1  0.00000000  0.00000000  0.50000000  1
  C  C12  1  0.50000000  0.50000000  0.00000000  1
  C  C13  1  0.75277600  0.24722400  0.24548400  1
  C  C14  1  0.24722400  0.75277600  0.75451600  1
  C  C15  1  0.37503700  0.62496300  0.12419400  1
  C  C16  1  0.87016800  0.12983200  0.62108100  1
  C  C17  1  0.62496300  0.37503700  0.12419400  1
  C  C18  1  0.12983200  0.87016800  0.62108100  1
  C  C19  1  0.00000000  0.50000000  0.25454700  1
  C  C20  1  0.50000000  0.00000000  0.74545300  1
  C  C21  1  0.87016800  0.12983200  0.37891900  1
  C  C22  1  0.37503700  0.62496300  0.87580600  1
  C  C23  1  0.12983200  0.87016800  0.37891900  1
  C  C24  1  0.62496300  0.37503700  0.87580600  1
  C  C25  1  0.50000000  0.00000000  0.25454700  1
  C  C26  1  0.00000000  0.50000000  0.74545300  1
  C  C27  1  0.86420800  0.13579200  0.13365200  1
  C  C28  1  0.34996000  0.65004000  0.63841500  1
  C  C29  1  0.34996000  0.65004000  0.36158500  1
  C  C30  1  0.86420800  0.13579200  0.86634800  1
  C  C31  1  0.72504100  0.72504100  0.00000000  1
  C  C32  1  0.21855800  0.21855800  0.50000000  1
  C  C33  1  0.65004000  0.34996000  0.36158500  1
  C  C34  1  0.13579200  0.86420800  0.86634800  1
  C  C35  1  0.13579200  0.86420800  0.13365200  1
  C  C36  1  0.65004000  0.34996000  0.63841500  1
  C  C37  1  0.78144200  0.78144200  0.50000000  1
  C  C38  1  0.27495900  0.27495900  0.00000000  1
