# generated using pymatgen
data_Cu8Ni8C9
_symmetry_space_group_name_H-M   'P 1'
_cell_length_a   4.91152475
_cell_length_b   10.42254544
_cell_length_c   5.74930490
_cell_angle_alpha   84.70931609
_cell_angle_beta   92.15478816
_cell_angle_gamma   89.51098947
_symmetry_Int_Tables_number   1
_chemical_formula_structural   Cu8Ni8C9
_chemical_formula_sum   'Cu8 Ni8 C9'
_cell_volume   292.82793596
_cell_formula_units_Z   1
loop_
 _symmetry_equiv_pos_site_id
 _symmetry_equiv_pos_as_xyz
  1  'x, y, z'
loop_
 _atom_site_type_symbol
 _atom_site_label
 _atom_site_symmetry_multiplicity
 _atom_site_fract_x
 _atom_site_fract_y
 _atom_site_fract_z
 _atom_site_occupancy
  C  C0  1  0.00000000  0.50000000  0.00000000  1
  C  C1  1  0.48165083  0.25685197  0.76140485  1
  C  C2  1  0.50000000  0.00000000  0.50000000  1
  C  C3  1  0.51834917  0.74314803  0.23859515  1
  C  C4  1  0.50000000  0.50000000  0.00000000  1
  C  C5  1  0.97811362  0.22724251  0.28138450  1
  C  C6  1  0.02188638  0.77275749  0.71861550  1
  C  C7  1  0.00000000  0.50000000  0.50000000  1
  C  C8  1  0.00000000  0.00000000  0.00000000  1
  Ni  Ni9  1  0.79023819  0.07404786  0.27817072  1
  Ni  Ni10  1  0.70266829  0.82362025  0.49603414  1
  Ni  Ni11  1  0.74153448  0.57591266  0.22548035  1
  Ni  Ni12  1  0.74034834  0.34038045  0.01509038  1
  Ni  Ni13  1  0.25846552  0.42408734  0.77451965  1
  Ni  Ni14  1  0.25965166  0.65961955  0.98490962  1
  Ni  Ni15  1  0.29733171  0.17637975  0.50396586  1
  Ni  Ni16  1  0.20976181  0.92595214  0.72182928  1
  Cu  Cu17  1  0.76674324  0.58643997  0.74666620  1
  Cu  Cu18  1  0.77191853  0.32554857  0.52689328  1
  Cu  Cu19  1  0.77348642  0.82680221  0.99563048  1
  Cu  Cu20  1  0.70032933  0.08435794  0.76982504  1
  Cu  Cu21  1  0.29967067  0.91564206  0.23017496  1
  Cu  Cu22  1  0.22808147  0.67445143  0.47310672  1
  Cu  Cu23  1  0.22651358  0.17319779  0.00436952  1
  Cu  Cu24  1  0.23325676  0.41356003  0.25333380  1
