# generated using pymatgen
data_Cu3NiC136
_symmetry_space_group_name_H-M   'P 1'
_cell_length_a   8.93566185
_cell_length_b   16.29892571
_cell_length_c   15.68629524
_cell_angle_alpha   78.04300330
_cell_angle_beta   73.45104769
_cell_angle_gamma   90.00025902
_symmetry_Int_Tables_number   1
_chemical_formula_structural   Cu3NiC136
_chemical_formula_sum   'Cu3 Ni1 C136'
_cell_volume   2138.18280107
_cell_formula_units_Z   1
loop_
 _symmetry_equiv_pos_site_id
 _symmetry_equiv_pos_as_xyz
  1  'x, y, z'
loop_
 _atom_site_type_symbol
 _atom_site_label
 _atom_site_symmetry_multiplicity
 _atom_site_fract_x
 _atom_site_fract_y
 _atom_site_fract_z
 _atom_site_occupancy
  Ni  Ni0  1  0.25000000  0.75000000  0.50000000  1
  Cu  Cu1  1  0.00013888  0.00016144  0.99981870  1
  Cu  Cu2  1  0.75000000  0.25000000  0.50000000  1
  Cu  Cu3  1  0.49986112  0.49983856  0.00018130  1
  C  C4  1  0.28786389  0.56050672  0.42424015  1
  C  C5  1  0.03605214  0.81356386  0.92661925  1
  C  C6  1  0.53722281  0.31339288  0.92535011  1
  C  C7  1  0.78837470  0.06519542  0.42486301  1
  C  C8  1  0.96277719  0.18660712  0.07464989  1
  C  C9  1  0.71162530  0.43480458  0.57513699  1
  C  C10  1  0.21213611  0.93949328  0.57575985  1
  C  C11  1  0.46394786  0.68643614  0.07338075  1
  C  C12  1  0.16002910  0.19962608  0.67990081  1
  C  C13  1  0.91013627  0.44960246  0.17993397  1
  C  C14  1  0.41010781  0.94972487  0.17946759  1
  C  C15  1  0.66010584  0.69920629  0.67996908  1
  C  C16  1  0.08989319  0.55027413  0.82053241  1
  C  C17  1  0.83989516  0.80079271  0.32003092  1
  C  C18  1  0.33997190  0.30037292  0.32009919  1
  C  C19  1  0.58986473  0.05039654  0.82006603  1
  C  C20  1  0.77352686  0.25723988  0.72721404  1
  C  C21  1  0.52426554  0.50707605  0.22632300  1
  C  C22  1  0.02358635  0.00748371  0.22708298  1
  C  C23  1  0.27408404  0.75857828  0.72945963  1
  C  C24  1  0.39379358  0.36234797  0.51560468  1
  C  C25  1  0.14354419  0.61325368  0.01550925  1
  C  C26  1  0.64362560  0.11318791  0.01544992  1
  C  C27  1  0.88978679  0.86516237  0.51638963  1
  C  C28  1  0.27239287  0.18168520  0.87842176  1
  C  C29  1  0.02159047  0.43109653  0.37826138  1
  C  C30  1  0.52431285  0.93468826  0.37748582  1
  C  C31  1  0.77273602  0.68171518  0.87823797  1
  C  C32  1  0.47641365  0.49251629  0.77291702  1
  C  C33  1  0.22591596  0.74142172  0.27054037  1
  C  C34  1  0.72647314  0.24276012  0.27278596  1
  C  C35  1  0.97573446  0.99292395  0.77367700  1
  C  C36  1  0.85637440  0.38681209  0.98455008  1
  C  C37  1  0.61021321  0.63483763  0.48361037  1
  C  C38  1  0.10620642  0.13765203  0.48439532  1
  C  C39  1  0.35645581  0.88674632  0.98449075  1
  C  C40  1  0.97568715  0.56531174  0.62251418  1
  C  C41  1  0.72726398  0.81828482  0.12176203  1
  C  C42  1  0.22760713  0.31831480  0.12157824  1
  C  C43  1  0.47840953  0.06890347  0.62173862  1
  C  C44  1  0.12237140  0.39237830  0.13153169  1
  C  C45  1  0.87553473  0.64208080  0.63028496  1
  C  C46  1  0.37229987  0.14271581  0.63179463  1
  C  C47  1  0.62194431  0.89231291  0.13174547  1
  C  C48  1  0.80909116  0.32958943  0.25718716  1
  C  C49  1  0.55922593  0.57949705  0.75708478  1
  C  C50  1  0.05874691  0.07978956  0.75764056  1
  C  C51  1  0.30821643  0.82784127  0.25895484  1
  C  C52  1  0.83969694  0.42361049  0.06917371  1
  C  C53  1  0.58752796  0.67324190  0.56806539  1
  C  C54  1  0.08955080  0.17395216  0.56935253  1
  C  C55  1  0.33973320  0.92338898  0.06933952  1
  C  C56  1  0.12770013  0.35728419  0.36820537  1
  C  C57  1  0.87805569  0.60768709  0.86825453  1
  C  C58  1  0.37762860  0.10762170  0.86846831  1
  C  C59  1  0.62446527  0.85791920  0.36971504  1
  C  C60  1  0.44125309  0.42021044  0.24235944  1
  C  C61  1  0.19178357  0.67215873  0.74104516  1
  C  C62  1  0.69090884  0.17041057  0.74281284  1
  C  C63  1  0.94077407  0.92050295  0.24291522  1
  C  C64  1  0.41044920  0.32604784  0.43064747  1
  C  C65  1  0.16026680  0.57661102  0.93066048  1
  C  C66  1  0.66030306  0.07638951  0.93082629  1
  C  C67  1  0.91247204  0.82675810  0.43193461  1
  C  C68  1  0.23146776  0.21818959  0.78991016  1
  C  C69  1  0.98121275  0.46791957  0.28974689  1
  C  C70  1  0.48328333  0.96858849  0.28861452  1
  C  C71  1  0.73178574  0.71802667  0.78960830  1
  C  C72  1  0.94612067  0.25066583  0.72495640  1
  C  C73  1  0.69652777  0.50052517  0.22448548  1
  C  C74  1  0.19616120  0.00034737  0.22478743  1
  C  C75  1  0.44678586  0.74996942  0.72604711  1
  C  C76  1  0.26576406  0.31353519  0.59856352  1
  C  C77  1  0.01583637  0.56381852  0.09835938  1
  C  C78  1  0.51582968  0.06387387  0.09836222  1
  C  C79  1  0.76330447  0.81365733  0.59833650  1
  C  C80  1  0.01671667  0.53141151  0.71138548  1
  C  C81  1  0.76821426  0.78197333  0.21039170  1
  C  C82  1  0.26853224  0.28181041  0.21008984  1
  C  C83  1  0.51878725  0.03208043  0.71025311  1
  C  C84  1  0.30383880  0.49965263  0.77521257  1
  C  C85  1  0.05321414  0.75003058  0.27395289  1
  C  C86  1  0.55387933  0.24933417  0.27504360  1
  C  C87  1  0.80347223  0.99947483  0.77551452  1
  C  C88  1  0.98417032  0.43612613  0.90163778  1
  C  C89  1  0.73669553  0.68634267  0.40166350  1
  C  C90  1  0.23423594  0.18646481  0.40143648  1
  C  C91  1  0.48416363  0.93618148  0.90164062  1
  C  C92  1  0.48574073  0.44077878  0.86688717  1
  C  C93  1  0.23469420  0.68346714  0.36082884  1
  C  C94  1  0.73570805  0.19119417  0.36669349  1
  C  C95  1  0.98534891  0.94079866  0.86733681  1
  C  C96  1  0.69559260  0.39245608  0.96314986  1
  C  C97  1  0.45364539  0.63440664  0.45909478  1
  C  C98  1  0.94564728  0.14323425  0.46318064  1
  C  C99  1  0.19544751  0.89254899  0.96345991  1
  C  C100  1  0.12970078  0.59199788  0.54393142  1
  C  C101  1  0.88129398  0.85225267  0.04447136  1
  C  C102  1  0.38163692  0.35206145  0.04394105  1
  C  C103  1  0.63194355  0.10260672  0.54409151  1
  C  C104  1  0.76429195  0.30880583  0.63330651  1
  C  C105  1  0.51465109  0.55920134  0.13266319  1
  C  C106  1  0.01425927  0.05922122  0.13311283  1
  C  C107  1  0.26530580  0.81653286  0.63917116  1
  C  C108  1  0.55435272  0.35676575  0.53681936  1
  C  C109  1  0.30455249  0.60745101  0.03654009  1
  C  C110  1  0.80440740  0.10754392  0.03685014  1
  C  C111  1  0.04635461  0.86559336  0.54090522  1
  C  C112  1  0.11836308  0.14793855  0.95605895  1
  C  C113  1  0.86805645  0.39739328  0.45590849  1
  C  C114  1  0.37029922  0.90800212  0.45606858  1
  C  C115  1  0.61870602  0.64774733  0.95552864  1
  C  C116  1  0.94204558  0.05315950  0.30363363  1
  C  C117  1  0.69115608  0.30296144  0.80386114  1
  C  C118  1  0.44226906  0.55256484  0.30273767  1
  C  C119  1  0.19149909  0.80176729  0.80779686  1
  C  C120  1  0.84516492  0.95728969  0.49673593  1
  C  C121  1  0.60143248  0.20635808  0.99717990  1
  C  C122  1  0.35236177  0.45520270  0.49741465  1
  C  C123  1  0.10121406  0.70625217  0.99745023  1
  C  C124  1  0.61020868  0.00520902  0.40103806  1
  C  C125  1  0.35480880  0.25289938  0.90396047  1
  C  C126  1  0.10348124  0.50206328  0.40375587  1
  C  C127  1  0.85452629  0.75294993  0.90391434  1
  C  C128  1  0.30850091  0.69823271  0.19220314  1
  C  C129  1  0.05773094  0.94743516  0.69726233  1
  C  C130  1  0.80884392  0.19703856  0.19613886  1
  C  C131  1  0.55795442  0.44684050  0.69636637  1
  C  C132  1  0.39878594  0.79374783  0.00254977  1
  C  C133  1  0.14763823  0.04479730  0.50258535  1
  C  C134  1  0.89856752  0.29364192  0.00282010  1
  C  C135  1  0.65483508  0.54271031  0.50326407  1
  C  C136  1  0.64547371  0.74705007  0.09608566  1
  C  C137  1  0.39651876  0.99793672  0.59624413  1
  C  C138  1  0.14519120  0.24710062  0.09603953  1
  C  C139  1  0.88979132  0.49479098  0.59896194  1
