# generated using pymatgen
data_Cu3NiC18
_symmetry_space_group_name_H-M   'P 1'
_cell_length_a   19.96481300
_cell_length_b   7.77330200
_cell_length_c   11.18632037
_cell_angle_alpha   72.90228435
_cell_angle_beta   90.00000000
_cell_angle_gamma   90.00000000
_symmetry_Int_Tables_number   1
_chemical_formula_structural   Cu3NiC18
_chemical_formula_sum   'Cu12 Ni4 C72'
_cell_volume   1659.30881070
_cell_formula_units_Z   4
loop_
 _symmetry_equiv_pos_site_id
 _symmetry_equiv_pos_as_xyz
  1  'x, y, z'
loop_
 _atom_site_type_symbol
 _atom_site_label
 _atom_site_symmetry_multiplicity
 _atom_site_fract_x
 _atom_site_fract_y
 _atom_site_fract_z
 _atom_site_occupancy
  Ni  Ni0  1  0.51030800  0.74036400  0.77916200  1
  Ni  Ni1  1  0.48969200  0.25963600  0.22083800  1
  Ni  Ni2  1  0.01030800  0.75963600  0.22083800  1
  Ni  Ni3  1  0.98969200  0.24036400  0.77916200  1
  Cu  Cu4  1  0.23120600  0.13602700  0.78346100  1
  Cu  Cu5  1  0.76879400  0.86397300  0.21653900  1
  Cu  Cu6  1  0.73120600  0.36397300  0.21653900  1
  Cu  Cu7  1  0.26879400  0.63602700  0.78346100  1
  Cu  Cu8  1  0.14170300  0.91394800  0.62419200  1
  Cu  Cu9  1  0.85829700  0.08605200  0.37580800  1
  Cu  Cu10  1  0.64170300  0.58605200  0.37580800  1
  Cu  Cu11  1  0.35829700  0.41394800  0.62419200  1
  Cu  Cu12  1  0.26381700  0.22733600  0.46498700  1
  Cu  Cu13  1  0.73618300  0.77266400  0.53501300  1
  Cu  Cu14  1  0.76381700  0.27266400  0.53501300  1
  Cu  Cu15  1  0.23618300  0.72733600  0.46498700  1
  C  C16  1  0.26458200  0.47196100  0.49459500  1
  C  C17  1  0.73541800  0.52803900  0.50540500  1
  C  C18  1  0.76458200  0.02803900  0.50540500  1
  C  C19  1  0.23541800  0.97196100  0.49459500  1
  C  C20  1  0.04920000  0.33628300  0.66129300  1
  C  C21  1  0.95080000  0.66371700  0.33870700  1
  C  C22  1  0.54920000  0.16371700  0.33870700  1
  C  C23  1  0.45080000  0.83628300  0.66129300  1
  C  C24  1  0.33437700  0.73951300  0.24965000  1
  C  C25  1  0.66562300  0.26048700  0.75035000  1
  C  C26  1  0.83437700  0.76048700  0.75035000  1
  C  C27  1  0.16562300  0.23951300  0.24965000  1
  C  C28  1  0.05211200  0.55892300  0.30930200  1
  C  C29  1  0.94788800  0.44107700  0.69069800  1
  C  C30  1  0.55211200  0.94107700  0.69069800  1
  C  C31  1  0.44788800  0.05892300  0.30930200  1
  C  C32  1  0.41455500  0.47418100  0.50348300  1
  C  C33  1  0.58544500  0.52581900  0.49651700  1
  C  C34  1  0.91455500  0.02581900  0.49651700  1
  C  C35  1  0.08544500  0.97418100  0.50348300  1
  C  C36  1  0.23981600  0.86751000  0.76864500  1
  C  C37  1  0.76018400  0.13249000  0.23135500  1
  C  C38  1  0.73981600  0.63249000  0.23135500  1
  C  C39  1  0.26018400  0.36751000  0.76864500  1
  C  C40  1  0.57208000  0.64043600  0.89374800  1
  C  C41  1  0.42792000  0.35956400  0.10625200  1
  C  C42  1  0.07208000  0.85956400  0.10625200  1
  C  C43  1  0.92792000  0.14043600  0.89374800  1
  C  C44  1  0.03159800  0.05043500  0.87690000  1
  C  C45  1  0.96840200  0.94956500  0.12310000  1
  C  C46  1  0.53159800  0.44956500  0.12310000  1
  C  C47  1  0.46840200  0.55043500  0.87690000  1
  C  C48  1  0.78693800  0.55002300  0.96663600  1
  C  C49  1  0.21306200  0.44997700  0.03336400  1
  C  C50  1  0.28693800  0.94997700  0.03336400  1
  C  C51  1  0.71306200  0.05002300  0.96663600  1
  C  C52  1  0.17958700  0.15447900  0.63387200  1
  C  C53  1  0.82041300  0.84552100  0.36612800  1
  C  C54  1  0.67958700  0.34552100  0.36612800  1
  C  C55  1  0.32041300  0.65447900  0.63387200  1
  C  C56  1  0.31897000  0.25554900  0.34542900  1
  C  C57  1  0.68103000  0.74445100  0.65457100  1
  C  C58  1  0.81897000  0.24445100  0.65457100  1
  C  C59  1  0.18103000  0.75554900  0.34542900  1
  C  C60  1  0.31827600  0.17983300  0.62298300  1
  C  C61  1  0.68172400  0.82016700  0.37701700  1
  C  C62  1  0.81827600  0.32016700  0.37701700  1
  C  C63  1  0.18172400  0.67983300  0.62298300  1
  C  C64  1  0.17246300  0.30558700  0.33869700  1
  C  C65  1  0.82753700  0.69441300  0.66130300  1
  C  C66  1  0.67246300  0.19441300  0.66130300  1
  C  C67  1  0.32753700  0.80558700  0.33869700  1
  C  C68  1  0.09456900  0.84634100  0.75847100  1
  C  C69  1  0.90543100  0.15365900  0.24152900  1
  C  C70  1  0.59456900  0.65365900  0.24152900  1
  C  C71  1  0.40543100  0.34634100  0.75847100  1
  C  C72  1  0.47638200  0.91831800  0.83137100  1
  C  C73  1  0.52361800  0.08168200  0.16862900  1
  C  C74  1  0.97638200  0.58168200  0.16862900  1
  C  C75  1  0.02361800  0.41831800  0.83137100  1
  C  C76  1  0.45263600  0.42891800  0.27577200  1
  C  C77  1  0.54736400  0.57108200  0.72422800  1
  C  C78  1  0.95263600  0.07108200  0.72422800  1
  C  C79  1  0.04736400  0.92891800  0.27577200  1
  C  C80  1  0.16971000  0.10268200  0.89199200  1
  C  C81  1  0.83029000  0.89731800  0.10800800  1
  C  C82  1  0.66971000  0.39731800  0.10800800  1
  C  C83  1  0.33029000  0.60268200  0.89199200  1
  C  C84  1  0.30521500  0.01349900  0.91864200  1
  C  C85  1  0.69478500  0.98650100  0.08135800  1
  C  C86  1  0.80521500  0.48650100  0.08135800  1
  C  C87  1  0.19478500  0.51349900  0.91864200  1
