# generated using pymatgen
data_Cu3Ni17
_symmetry_space_group_name_H-M   'P 1'
_cell_length_a   11.25161215
_cell_length_b   11.25161215
_cell_length_c   7.68920900
_cell_angle_alpha   90.00000000
_cell_angle_beta   90.00000000
_cell_angle_gamma   120.00000089
_symmetry_Int_Tables_number   1
_chemical_formula_structural   Cu3Ni17
_chemical_formula_sum   'Cu9 Ni51'
_cell_volume   843.02761342
_cell_formula_units_Z   3
loop_
 _symmetry_equiv_pos_site_id
 _symmetry_equiv_pos_as_xyz
  1  'x, y, z'
loop_
 _atom_site_type_symbol
 _atom_site_label
 _atom_site_symmetry_multiplicity
 _atom_site_fract_x
 _atom_site_fract_y
 _atom_site_fract_z
 _atom_site_occupancy
  Ni  Ni0  1  0.93117500  0.68938600  0.83304300  1
  Ni  Ni1  1  0.75821100  0.06882500  0.16637600  1
  Ni  Ni2  1  0.06882500  0.31061400  0.83304300  1
  Ni  Ni3  1  0.31061400  0.24178900  0.49971000  1
  Ni  Ni4  1  0.24178900  0.93117500  0.16637600  1
  Ni  Ni5  1  0.68938600  0.75821100  0.49971000  1
  Ni  Ni6  1  0.68587100  0.57295600  0.99312100  1
  Ni  Ni7  1  0.88708500  0.31412900  0.32645400  1
  Ni  Ni8  1  0.31412900  0.42704400  0.99312100  1
  Ni  Ni9  1  0.42704400  0.11291500  0.65978700  1
  Ni  Ni10  1  0.11291500  0.68587100  0.32645400  1
  Ni  Ni11  1  0.57295600  0.88708500  0.65978700  1
  Ni  Ni12  1  0.51818200  0.62670800  0.79192900  1
  Ni  Ni13  1  0.10852600  0.48181800  0.12526200  1
  Ni  Ni14  1  0.48181800  0.37329200  0.79192900  1
  Ni  Ni15  1  0.37329200  0.89147400  0.45859600  1
  Ni  Ni16  1  0.89147400  0.51818200  0.12526200  1
  Ni  Ni17  1  0.62670800  0.10852600  0.45859600  1
  Ni  Ni18  1  0.93243300  0.77988600  0.51106600  1
  Ni  Ni19  1  0.84745300  0.06756700  0.84440000  1
  Ni  Ni20  1  0.06756700  0.22011400  0.51106600  1
  Ni  Ni21  1  0.22011400  0.15254700  0.17773300  1
  Ni  Ni22  1  0.15254700  0.93243300  0.84440000  1
  Ni  Ni23  1  0.77988600  0.84745300  0.17773300  1
  Ni  Ni24  1  0.57599600  0.84344700  0.98962000  1
  Ni  Ni25  1  0.26745100  0.42400400  0.32295300  1
  Ni  Ni26  1  0.42400400  0.15655300  0.98962000  1
  Ni  Ni27  1  0.15655300  0.73254900  0.65628700  1
  Ni  Ni28  1  0.73254900  0.57599600  0.32295300  1
  Ni  Ni29  1  0.84344700  0.26745100  0.65628700  1
  Ni  Ni30  1  0.78937700  0.81392800  0.82118300  1
  Ni  Ni31  1  0.02455100  0.21062300  0.15451600  1
  Ni  Ni32  1  0.21062300  0.18607200  0.82118300  1
  Ni  Ni33  1  0.18607200  0.97544900  0.48785000  1
  Ni  Ni34  1  0.97544900  0.78937700  0.15451600  1
  Ni  Ni35  1  0.81392800  0.02455100  0.48785000  1
  Ni  Ni36  1  0.37007300  0.88883000  0.85762400  1
  Ni  Ni37  1  0.51875600  0.62992700  0.19095700  1
  Ni  Ni38  1  0.62992700  0.11117000  0.85762400  1
  Ni  Ni39  1  0.11117000  0.48124400  0.52429100  1
  Ni  Ni40  1  0.48124400  0.37007300  0.19095700  1
  Ni  Ni41  1  0.88883000  0.51875600  0.52429100  1
  Ni  Ni42  1  0.72269200  0.38405500  0.83300700  1
  Ni  Ni43  1  0.66136300  0.27730800  0.16634000  1
  Ni  Ni44  1  0.27730800  0.61594500  0.83300700  1
  Ni  Ni45  1  0.61594500  0.33863700  0.49967300  1
  Ni  Ni46  1  0.33863700  0.72269200  0.16634000  1
  Ni  Ni47  1  0.38405500  0.66136300  0.49967300  1
  Ni  Ni48  1  0.50000000  0.50000000  0.49475700  1
  Ni  Ni49  1  0.00000000  0.50000000  0.82809100  1
  Ni  Ni50  1  0.50000000  0.00000000  0.16142400  1
  Cu  Cu51  1  0.71476200  0.57482000  0.66219900  1
  Cu  Cu52  1  0.86005800  0.28523800  0.99553200  1
  Cu  Cu53  1  0.28523800  0.42518000  0.66219900  1
  Cu  Cu54  1  0.42518000  0.13994200  0.32886500  1
  Cu  Cu55  1  0.13994200  0.71476200  0.99553200  1
  Cu  Cu56  1  0.57482000  0.86005800  0.32886500  1
  Cu  Cu57  1  0.00000000  0.00000000  0.00000000  1
  Cu  Cu58  1  0.00000000  0.00000000  0.33333400  1
  Cu  Cu59  1  0.00000000  0.00000000  0.66666700  1
