# generated using pymatgen
data_Cu11NiC2
_symmetry_space_group_name_H-M   'P 1'
_cell_length_a   5.97132900
_cell_length_b   6.75138845
_cell_length_c   12.86364700
_cell_angle_alpha   90.00000000
_cell_angle_beta   90.00000000
_cell_angle_gamma   65.05810183
_symmetry_Int_Tables_number   1
_chemical_formula_structural   Cu11NiC2
_chemical_formula_sum   'Cu22 Ni2 C4'
_cell_volume   470.22857138
_cell_formula_units_Z   2
loop_
 _symmetry_equiv_pos_site_id
 _symmetry_equiv_pos_as_xyz
  1  'x, y, z'
loop_
 _atom_site_type_symbol
 _atom_site_label
 _atom_site_symmetry_multiplicity
 _atom_site_fract_x
 _atom_site_fract_y
 _atom_site_fract_z
 _atom_site_occupancy
  C  C0  1  0.56062000  0.76133400  0.45334500  1
  C  C1  1  0.43938000  0.23866600  0.95334500  1
  C  C2  1  0.88996100  0.77639500  0.91458500  1
  C  C3  1  0.11003900  0.22360500  0.41458500  1
  Ni  Ni4  1  0.61744900  0.76055200  0.11832500  1
  Ni  Ni5  1  0.38255100  0.23944800  0.61832500  1
  Cu  Cu6  1  0.24625400  0.70709800  0.83013600  1
  Cu  Cu7  1  0.75374600  0.29290200  0.33013600  1
  Cu  Cu8  1  0.00318300  0.73267100  0.57776200  1
  Cu  Cu9  1  0.99681700  0.26732900  0.07776200  1
  Cu  Cu10  1  0.78168000  0.02149300  0.85372000  1
  Cu  Cu11  1  0.21832000  0.97850700  0.35372000  1
  Cu  Cu12  1  0.61009200  0.85165200  0.99279500  1
  Cu  Cu13  1  0.38990800  0.14834800  0.49279500  1
  Cu  Cu14  1  0.15236200  0.81681100  0.57873700  1
  Cu  Cu15  1  0.84763800  0.18318900  0.07873700  1
  Cu  Cu16  1  0.47773100  0.08692700  0.66997000  1
  Cu  Cu17  1  0.52226900  0.91307300  0.16997000  1
  Cu  Cu18  1  0.41975000  0.51295700  0.82768100  1
  Cu  Cu19  1  0.58025000  0.48704300  0.32768100  1
  Cu  Cu20  1  0.07389000  0.65914100  0.04230600  1
  Cu  Cu21  1  0.92611000  0.34085900  0.54230600  1
  Cu  Cu22  1  0.90780400  0.53297900  0.82764400  1
  Cu  Cu23  1  0.09219600  0.46702100  0.32764400  1
  Cu  Cu24  1  0.67355300  0.45022100  0.55208300  1
  Cu  Cu25  1  0.32644700  0.54977800  0.05208300  1
  Cu  Cu26  1  0.91283300  0.66207000  0.35551000  1
  Cu  Cu27  1  0.08716700  0.33793000  0.85551000  1
