# generated using pymatgen
data_Cu(NiC12)3
_symmetry_space_group_name_H-M   'P 1'
_cell_length_a   11.06059948
_cell_length_b   10.52916602
_cell_length_c   10.53786461
_cell_angle_alpha   51.57641653
_cell_angle_beta   40.60654441
_cell_angle_gamma   40.57279609
_symmetry_Int_Tables_number   1
_chemical_formula_structural   Cu(NiC12)3
_chemical_formula_sum   'Cu1 Ni3 C36'
_cell_volume   516.60369681
_cell_formula_units_Z   1
loop_
 _symmetry_equiv_pos_site_id
 _symmetry_equiv_pos_as_xyz
  1  'x, y, z'
loop_
 _atom_site_type_symbol
 _atom_site_label
 _atom_site_symmetry_multiplicity
 _atom_site_fract_x
 _atom_site_fract_y
 _atom_site_fract_z
 _atom_site_occupancy
  Ni  Ni0  1  0.11997100  0.71272900  0.28788000  1
  Ni  Ni1  1  0.62928400  0.71883700  0.27996600  1
  Ni  Ni2  1  0.86810700  0.29327200  0.71403700  1
  Cu  Cu3  1  0.38467200  0.27052200  0.72072100  1
  C  C4  1  0.12377500  0.08685900  0.90770500  1
  C  C5  1  0.37687300  0.89733500  0.10176900  1
  C  C6  1  0.62507100  0.11146700  0.89627000  1
  C  C7  1  0.87163700  0.90816100  0.09235400  1
  C  C8  1  0.13669000  0.20326300  0.25886400  1
  C  C9  1  0.38445900  0.26141300  0.20652200  1
  C  C10  1  0.63692000  0.20513300  0.25688700  1
  C  C11  1  0.11189600  0.74795400  0.79301800  1
  C  C12  1  0.89332800  0.25637400  0.19968200  1
  C  C13  1  0.36676000  0.79207000  0.73986200  1
  C  C14  1  0.61500500  0.73613200  0.79822700  1
  C  C15  1  0.85608700  0.79787900  0.74525900  1
  C  C16  1  0.06950100  0.01641900  0.19042900  1
  C  C17  1  0.30571500  0.19558100  0.01936500  1
  C  C18  1  0.13194300  0.30667700  0.33533300  1
  C  C19  1  0.27159700  0.02508300  0.66225100  1
  C  C20  1  0.56545000  0.02154900  0.19910000  1
  C  C21  1  0.99965800  0.33014700  0.96383000  1
  C  C22  1  0.37901800  0.33486100  0.31610900  1
  C  C23  1  0.11393900  0.66846200  0.69266300  1
  C  C24  1  0.51031200  0.66244700  0.03159500  1
  C  C25  1  0.81467700  0.19980000  0.01670300  1
  C  C26  1  0.23554000  0.96993900  0.33717000  1
  C  C27  1  0.63533000  0.30823200  0.33333400  1
  C  C28  1  0.37230400  0.68696400  0.66377100  1
  C  C29  1  0.75296300  0.02930600  0.66127300  1
  C  C30  1  0.18215200  0.80965200  0.97957000  1
  C  C31  1  0.47404600  0.35199400  0.98008000  1
  C  C32  1  0.88057700  0.33305500  0.31056800  1
  C  C33  1  0.61943200  0.66199300  0.69265200  1
  C  C34  1  0.01252300  0.66741300  0.02574400  1
  C  C35  1  0.43571300  0.97891000  0.80487000  1
  C  C36  1  0.74156700  0.97184900  0.33211100  1
  C  C37  1  0.86874300  0.68544100  0.66867700  1
  C  C38  1  0.68172200  0.79944200  0.98412700  1
  C  C39  1  0.94504300  0.98538100  0.79965200  1
