# generated using pymatgen
data_Cu5Ni2C7
_symmetry_space_group_name_H-M   'P 1'
_cell_length_a   5.56680600
_cell_length_b   10.26823717
_cell_length_c   11.87531932
_cell_angle_alpha   107.68798330
_cell_angle_beta   95.03847908
_cell_angle_gamma   90.10476834
_symmetry_Int_Tables_number   1
_chemical_formula_structural   Cu5Ni2C7
_chemical_formula_sum   'Cu10 Ni4 C14'
_cell_volume   643.92822172
_cell_formula_units_Z   2
loop_
 _symmetry_equiv_pos_site_id
 _symmetry_equiv_pos_as_xyz
  1  'x, y, z'
loop_
 _atom_site_type_symbol
 _atom_site_label
 _atom_site_symmetry_multiplicity
 _atom_site_fract_x
 _atom_site_fract_y
 _atom_site_fract_z
 _atom_site_occupancy
  C  C0  1  0.75385200  0.21321700  0.39943500  1
  C  C1  1  0.24614800  0.78678300  0.60056500  1
  Ni  Ni2  1  0.27987000  0.26000800  0.53458900  1
  Ni  Ni3  1  0.72013000  0.73999200  0.46541100  1
  Ni  Ni4  1  0.59369000  0.12751000  0.12224200  1
  Ni  Ni5  1  0.40631000  0.87249000  0.87775800  1
  Cu  Cu6  1  0.24636800  0.92500500  0.31917800  1
  Cu  Cu7  1  0.75363200  0.07499500  0.68082200  1
  Cu  Cu8  1  0.24601600  0.44748700  0.32022400  1
  Cu  Cu9  1  0.75398400  0.55251300  0.67977600  1
  Cu  Cu10  1  0.19777300  0.46163500  0.14259000  1
  Cu  Cu11  1  0.80222700  0.53836500  0.85741000  1
  Cu  Cu12  1  0.40937800  0.62267900  0.13920100  1
  Cu  Cu13  1  0.59062200  0.37732100  0.86079900  1
  Cu  Cu14  1  0.19482300  0.78463800  0.14177400  1
  Cu  Cu15  1  0.80517700  0.21536200  0.85822600  1
  C  C16  1  0.15607200  0.85902400  0.40117300  1
  C  C17  1  0.84392800  0.14097600  0.59882700  1
  C  C18  1  0.09048600  0.32561300  0.30325200  1
  C  C19  1  0.90951400  0.67438700  0.69674800  1
  C  C20  1  0.16029000  0.57247800  0.40185500  1
  C  C21  1  0.83971000  0.42752200  0.59814500  1
  C  C22  1  0.09664600  0.03656500  0.30182300  1
  C  C23  1  0.90335400  0.96343500  0.69817700  1
  C  C24  1  0.50278700  0.42406700  0.34596900  1
  C  C25  1  0.49721300  0.57593300  0.65403100  1
  C  C26  1  0.49491500  0.03696800  0.65550300  1
  C  C27  1  0.50508500  0.96303200  0.34449700  1
