# generated using pymatgen
data_Cu9NiC7
_symmetry_space_group_name_H-M   'P 1'
_cell_length_a   6.34629100
_cell_length_b   11.27661000
_cell_length_c   11.41466900
_cell_angle_alpha   90.00000000
_cell_angle_beta   90.00000000
_cell_angle_gamma   90.00000000
_symmetry_Int_Tables_number   1
_chemical_formula_structural   Cu9NiC7
_chemical_formula_sum   'Cu36 Ni4 C28'
_cell_volume   816.88677534
_cell_formula_units_Z   4
loop_
 _symmetry_equiv_pos_site_id
 _symmetry_equiv_pos_as_xyz
  1  'x, y, z'
loop_
 _atom_site_type_symbol
 _atom_site_label
 _atom_site_symmetry_multiplicity
 _atom_site_fract_x
 _atom_site_fract_y
 _atom_site_fract_z
 _atom_site_occupancy
  C  C0  1  0.14979500  0.03703000  0.74621300  1
  C  C1  1  0.14979500  0.96297000  0.25378700  1
  C  C2  1  0.64979500  0.53703000  0.75378700  1
  C  C3  1  0.64979500  0.46297000  0.24621300  1
  C  C4  1  0.31790900  0.25477500  0.46753900  1
  C  C5  1  0.31790900  0.74522500  0.53246100  1
  C  C6  1  0.81790900  0.75477500  0.03246100  1
  C  C7  1  0.81790900  0.24522500  0.96753900  1
  C  C8  1  0.31439100  0.72130500  0.19460500  1
  C  C9  1  0.31439100  0.27869500  0.80539500  1
  C  C10  1  0.81439100  0.22130500  0.30539500  1
  C  C11  1  0.81439100  0.77869500  0.69460500  1
  C  C12  1  0.35640800  0.24797400  0.02673600  1
  C  C13  1  0.35640800  0.75202600  0.97326400  1
  C  C14  1  0.85640800  0.74797400  0.47326400  1
  C  C15  1  0.85640800  0.25202600  0.52673600  1
  C  C16  1  0.19184200  0.51249500  0.23646000  1
  C  C17  1  0.19184200  0.48750500  0.76354000  1
  C  C18  1  0.69184200  0.01249500  0.26354000  1
  C  C19  1  0.69184200  0.98750500  0.73646000  1
  C  C20  1  0.45554700  0.17889700  0.22653000  1
  C  C21  1  0.45554700  0.82110300  0.77347000  1
  C  C22  1  0.95554700  0.67889700  0.27347000  1
  C  C23  1  0.95554700  0.32110300  0.72653000  1
  C  C24  1  0.12863200  0.29051600  0.19302300  1
  C  C25  1  0.12863200  0.70948400  0.80697700  1
  C  C26  1  0.62863200  0.79051600  0.30697700  1
  C  C27  1  0.62863200  0.20948400  0.69302300  1
  Ni  Ni28  1  0.99782600  0.00000000  0.00000000  1
  Ni  Ni29  1  0.49782600  0.50000000  0.50000000  1
  Ni  Ni30  1  0.23447500  0.00000000  0.50000000  1
  Ni  Ni31  1  0.73447500  0.50000000  0.00000000  1
  Cu  Cu32  1  0.51252300  0.21775400  0.10610100  1
  Cu  Cu33  1  0.51252300  0.78224600  0.89389900  1
  Cu  Cu34  1  0.01252300  0.71775400  0.39389900  1
  Cu  Cu35  1  0.01252300  0.28224600  0.60610100  1
  Cu  Cu36  1  0.42468600  0.75695600  0.08659500  1
  Cu  Cu37  1  0.42468600  0.24304400  0.91340500  1
  Cu  Cu38  1  0.92468600  0.25695600  0.41340500  1
  Cu  Cu39  1  0.92468600  0.74304400  0.58659500  1
  Cu  Cu40  1  0.35067500  0.59227900  0.21450600  1
  Cu  Cu41  1  0.35067500  0.40772100  0.78549400  1
  Cu  Cu42  1  0.85067500  0.09227900  0.28549400  1
  Cu  Cu43  1  0.85067500  0.90772100  0.71450600  1
  Cu  Cu44  1  0.58513700  0.24571400  0.31296200  1
  Cu  Cu45  1  0.58513700  0.75428600  0.68703800  1
  Cu  Cu46  1  0.08513700  0.74571400  0.18703800  1
  Cu  Cu47  1  0.08513700  0.25428600  0.81296200  1
  Cu  Cu48  1  0.40175400  0.20527800  0.71027400  1
  Cu  Cu49  1  0.40175400  0.79472200  0.28972600  1
  Cu  Cu50  1  0.90175400  0.70527800  0.78972600  1
  Cu  Cu51  1  0.90175400  0.29472200  0.21027400  1
  Cu  Cu52  1  0.49206300  0.04867600  0.23611600  1
  Cu  Cu53  1  0.49206300  0.95132400  0.76388400  1
  Cu  Cu54  1  0.99206300  0.54867600  0.26388400  1
  Cu  Cu55  1  0.99206300  0.45132400  0.73611600  1
  Cu  Cu56  1  0.23260600  0.19034400  0.25230500  1
  Cu  Cu57  1  0.23260600  0.80965600  0.74769500  1
  Cu  Cu58  1  0.73260600  0.69034400  0.24769500  1
  Cu  Cu59  1  0.73260600  0.30965600  0.75230500  1
  Cu  Cu60  1  0.15826000  0.28098400  0.06197100  1
  Cu  Cu61  1  0.15826000  0.71901600  0.93802900  1
  Cu  Cu62  1  0.65826000  0.78098400  0.43802900  1
  Cu  Cu63  1  0.65826000  0.21901600  0.56197100  1
  Cu  Cu64  1  0.25037200  0.39632800  0.23496700  1
  Cu  Cu65  1  0.25037200  0.60367200  0.76503300  1
  Cu  Cu66  1  0.75037200  0.89632800  0.26503300  1
  Cu  Cu67  1  0.75037200  0.10367200  0.73496700  1
