# generated using pymatgen
data_Cu3NiC5
_symmetry_space_group_name_H-M   'P 1'
_cell_length_a   10.61113383
_cell_length_b   10.61113383
_cell_length_c   10.61113404
_cell_angle_alpha   105.66232076
_cell_angle_beta   105.66232076
_cell_angle_gamma   105.66231396
_symmetry_Int_Tables_number   1
_chemical_formula_structural   Cu3NiC5
_chemical_formula_sum   'Cu12 Ni4 C20'
_cell_volume   1029.17146276
_cell_formula_units_Z   4
loop_
 _symmetry_equiv_pos_site_id
 _symmetry_equiv_pos_as_xyz
  1  'x, y, z'
loop_
 _atom_site_type_symbol
 _atom_site_label
 _atom_site_symmetry_multiplicity
 _atom_site_fract_x
 _atom_site_fract_y
 _atom_site_fract_z
 _atom_site_occupancy
  C  C0  1  0.97610900  0.76113100  0.73506000  1
  C  C1  1  0.76113100  0.73506000  0.97610900  1
  C  C2  1  0.73506000  0.97610900  0.76113100  1
  C  C3  1  0.02389100  0.26494000  0.23886900  1
  C  C4  1  0.23886900  0.02389100  0.26493900  1
  C  C5  1  0.26494000  0.23886900  0.02389100  1
  C  C6  1  0.50000000  0.22024300  0.77975700  1
  C  C7  1  0.22024300  0.77975700  0.50000000  1
  C  C8  1  0.77975700  0.50000000  0.22024300  1
  C  C9  1  0.50000000  0.01572200  0.98427800  1
  C  C10  1  0.01572200  0.98427800  0.50000000  1
  C  C11  1  0.98427800  0.50000000  0.01572200  1
  Ni  Ni12  1  0.00000000  0.76481800  0.23518200  1
  Ni  Ni13  1  0.76481800  0.23518200  0.00000000  1
  Ni  Ni14  1  0.23518200  0.00000000  0.76481800  1
  Ni  Ni15  1  0.00000000  0.00000000  0.00000000  1
  Cu  Cu16  1  0.74527700  0.47037700  0.73471500  1
  Cu  Cu17  1  0.47037700  0.73471500  0.74527700  1
  Cu  Cu18  1  0.73471500  0.74527700  0.47037700  1
  Cu  Cu19  1  0.25472300  0.26528500  0.52962300  1
  Cu  Cu20  1  0.52962300  0.25472300  0.26528500  1
  Cu  Cu21  1  0.26528500  0.52962300  0.25472300  1
  Cu  Cu22  1  0.00000000  0.50168900  0.49831100  1
  Cu  Cu23  1  0.50168900  0.49831100  0.00000000  1
  Cu  Cu24  1  0.49831100  0.00000000  0.50168900  1
  Cu  Cu25  1  0.00000000  0.22810900  0.77189100  1
  Cu  Cu26  1  0.22810900  0.77189100  0.00000000  1
  Cu  Cu27  1  0.77189100  0.00000000  0.22810900  1
  C  C28  1  0.89410200  0.65475600  0.12769800  1
  C  C29  1  0.65475600  0.12769800  0.89410200  1
  C  C30  1  0.12769800  0.89410200  0.65475600  1
  C  C31  1  0.10589800  0.87230200  0.34524400  1
  C  C32  1  0.34524400  0.10589800  0.87230200  1
  C  C33  1  0.87230200  0.34524400  0.10589800  1
  C  C34  1  0.89146000  0.89146000  0.89146000  1
  C  C35  1  0.10854000  0.10854000  0.10854000  1
