# generated using pymatgen
data_Cu10NiC9
_symmetry_space_group_name_H-M   'P 1'
_cell_length_a   8.40308300
_cell_length_b   9.73873000
_cell_length_c   12.87437900
_cell_angle_alpha   90.00000000
_cell_angle_beta   90.00000000
_cell_angle_gamma   90.00000000
_symmetry_Int_Tables_number   1
_chemical_formula_structural   Cu10NiC9
_chemical_formula_sum   'Cu40 Ni4 C36'
_cell_volume   1053.57939524
_cell_formula_units_Z   4
loop_
 _symmetry_equiv_pos_site_id
 _symmetry_equiv_pos_as_xyz
  1  'x, y, z'
loop_
 _atom_site_type_symbol
 _atom_site_label
 _atom_site_symmetry_multiplicity
 _atom_site_fract_x
 _atom_site_fract_y
 _atom_site_fract_z
 _atom_site_occupancy
  C  C0  1  0.52001200  0.25226800  0.23798700  1
  C  C1  1  0.97998800  0.74773200  0.73798700  1
  C  C2  1  0.02001200  0.24773200  0.76201300  1
  C  C3  1  0.47998800  0.75226800  0.26201300  1
  C  C4  1  0.72947700  0.00333800  0.46473700  1
  C  C5  1  0.77052300  0.99666200  0.96473700  1
  C  C6  1  0.22947700  0.49666200  0.53526300  1
  C  C7  1  0.27052300  0.50333800  0.03526300  1
  C  C8  1  0.53965400  0.22001700  0.74232300  1
  C  C9  1  0.96034600  0.77998300  0.24232300  1
  C  C10  1  0.03965400  0.27998300  0.25767700  1
  C  C11  1  0.46034600  0.72001700  0.75767700  1
  C  C12  1  0.45148000  0.23864300  0.97782300  1
  C  C13  1  0.04852000  0.76135700  0.47782300  1
  C  C14  1  0.95148000  0.26135700  0.02217700  1
  C  C15  1  0.54852000  0.73864300  0.52217700  1
  C  C16  1  0.54144200  0.26562300  0.51297500  1
  C  C17  1  0.95855800  0.73437700  0.01297500  1
  C  C18  1  0.04144200  0.23437700  0.48702500  1
  C  C19  1  0.45855800  0.76562300  0.98702500  1
  C  C20  1  0.80019000  0.50473100  0.27292800  1
  C  C21  1  0.69981000  0.49526900  0.77292800  1
  C  C22  1  0.30019000  0.99526900  0.72707200  1
  C  C23  1  0.19981000  0.00473100  0.22707200  1
  C  C24  1  0.79179100  0.36727500  0.43911400  1
  C  C25  1  0.70820900  0.63272500  0.93911400  1
  C  C26  1  0.29179100  0.13272500  0.56088600  1
  C  C27  1  0.20820900  0.86727500  0.06088600  1
  C  C28  1  0.88286000  0.50060600  0.07835900  1
  C  C29  1  0.61714000  0.49939400  0.57835900  1
  C  C30  1  0.38286000  0.99939400  0.92164100  1
  C  C31  1  0.11714000  0.00060600  0.42164100  1
  C  C32  1  0.20839000  0.13561300  0.05954100  1
  C  C33  1  0.29161000  0.86438700  0.55954100  1
  C  C34  1  0.70839000  0.36438700  0.94045900  1
  C  C35  1  0.79161000  0.63561300  0.44045900  1
  Ni  Ni36  1  0.25851100  0.48700500  0.30433700  1
  Ni  Ni37  1  0.24148900  0.51299500  0.80433700  1
  Ni  Ni38  1  0.75851100  0.01299500  0.69566300  1
  Ni  Ni39  1  0.74148900  0.98700500  0.19566300  1
  Cu  Cu40  1  0.71854000  0.50135700  0.47989100  1
  Cu  Cu41  1  0.78146000  0.49864300  0.97989100  1
  Cu  Cu42  1  0.21854000  0.99864300  0.52010900  1
  Cu  Cu43  1  0.28146000  0.00135700  0.02010900  1
  Cu  Cu44  1  0.77869800  0.50456800  0.16768000  1
  Cu  Cu45  1  0.72130200  0.49543200  0.66768000  1
  Cu  Cu46  1  0.27869800  0.99543200  0.83232000  1
  Cu  Cu47  1  0.22130200  0.00456800  0.33232000  1
  Cu  Cu48  1  0.31259200  0.25046200  0.03372100  1
  Cu  Cu49  1  0.18740800  0.74953800  0.53372100  1
  Cu  Cu50  1  0.81259200  0.24953800  0.96627900  1
  Cu  Cu51  1  0.68740800  0.75046200  0.46627900  1
  Cu  Cu52  1  0.67787900  0.25531600  0.45406900  1
  Cu  Cu53  1  0.82212100  0.74468400  0.95406900  1
  Cu  Cu54  1  0.17787900  0.24468400  0.54593100  1
  Cu  Cu55  1  0.32212100  0.75531600  0.04593100  1
  Cu  Cu56  1  0.48650700  0.12284600  0.92039000  1
  Cu  Cu57  1  0.01349300  0.87715400  0.42039000  1
  Cu  Cu58  1  0.98650700  0.37715400  0.07961000  1
  Cu  Cu59  1  0.51349300  0.62284600  0.57961000  1
  Cu  Cu60  1  0.55081800  0.34909500  0.98495900  1
  Cu  Cu61  1  0.94918200  0.65090500  0.48495900  1
  Cu  Cu62  1  0.05081800  0.15090500  0.01504100  1
  Cu  Cu63  1  0.44918200  0.84909500  0.51504100  1
  Cu  Cu64  1  0.81360500  0.38222800  0.32534400  1
  Cu  Cu65  1  0.68639500  0.61777200  0.82534400  1
  Cu  Cu66  1  0.31360500  0.11777200  0.67465600  1
  Cu  Cu67  1  0.18639500  0.88222800  0.17465600  1
  Cu  Cu68  1  0.44184400  0.15551600  0.50793000  1
  Cu  Cu69  1  0.05815600  0.84448400  0.00793000  1
  Cu  Cu70  1  0.94184400  0.34448400  0.49207000  1
  Cu  Cu71  1  0.55815600  0.65551600  0.99207000  1
  Cu  Cu72  1  0.79603400  0.62758100  0.32548700  1
  Cu  Cu73  1  0.70396600  0.37241900  0.82548700  1
  Cu  Cu74  1  0.29603400  0.87241900  0.67451300  1
  Cu  Cu75  1  0.20396600  0.12758100  0.17451300  1
  Cu  Cu76  1  0.51074100  0.37846400  0.57487600  1
  Cu  Cu77  1  0.98925900  0.62153600  0.07487600  1
  Cu  Cu78  1  0.01074100  0.12153600  0.42512400  1
  Cu  Cu79  1  0.48925900  0.87846400  0.92512400  1
