# generated using pymatgen
data_Cu2NiC6
_symmetry_space_group_name_H-M   'P 1'
_cell_length_a   8.22937893
_cell_length_b   8.22937893
_cell_length_c   8.22937893
_cell_angle_alpha   111.93678913
_cell_angle_beta   109.61446620
_cell_angle_gamma   106.90149302
_symmetry_Int_Tables_number   1
_chemical_formula_structural   Cu2NiC6
_chemical_formula_sum   'Cu4 Ni2 C12'
_cell_volume   428.19347947
_cell_formula_units_Z   2
loop_
 _symmetry_equiv_pos_site_id
 _symmetry_equiv_pos_as_xyz
  1  'x, y, z'
loop_
 _atom_site_type_symbol
 _atom_site_label
 _atom_site_symmetry_multiplicity
 _atom_site_fract_x
 _atom_site_fract_y
 _atom_site_fract_z
 _atom_site_occupancy
  C  C0  1  0.95839300  0.26128200  0.69711100  1
  C  C1  1  0.04160700  0.73871800  0.30288900  1
  C  C2  1  0.67355300  0.86158600  0.18803300  1
  C  C3  1  0.32644700  0.51448100  0.18803300  1
  C  C4  1  0.32644700  0.13841400  0.81196700  1
  C  C5  1  0.67355300  0.48551900  0.81196700  1
  C  C6  1  0.56417100  0.26128200  0.30288900  1
  C  C7  1  0.43582900  0.73871800  0.69711100  1
  C  C8  1  0.18074000  0.78058500  0.96132500  1
  C  C9  1  0.81926000  0.78058500  0.59984600  1
  C  C10  1  0.18074000  0.21941500  0.40015400  1
  C  C11  1  0.81926000  0.21941500  0.03867500  1
  Ni  Ni12  1  0.00000000  0.50000000  0.50000000  1
  Ni  Ni13  1  0.50000000  0.00000000  0.50000000  1
  Cu  Cu14  1  0.11517400  0.11517400  0.00000000  1
  Cu  Cu15  1  0.88482600  0.88482600  0.00000000  1
  Cu  Cu16  1  0.66367600  0.50000000  0.16367600  1
  Cu  Cu17  1  0.33632400  0.50000000  0.83632400  1
