# generated using pymatgen
data_Cu4NiC8
_symmetry_space_group_name_H-M   'P 1'
_cell_length_a   6.04669049
_cell_length_b   6.04669049
_cell_length_c   6.04669049
_cell_angle_alpha   122.35277100
_cell_angle_beta   122.01743585
_cell_angle_gamma   86.25546541
_symmetry_Int_Tables_number   1
_chemical_formula_structural   Cu4NiC8
_chemical_formula_sum   'Cu4 Ni1 C8'
_cell_volume   150.81281839
_cell_formula_units_Z   1
loop_
 _symmetry_equiv_pos_site_id
 _symmetry_equiv_pos_as_xyz
  1  'x, y, z'
loop_
 _atom_site_type_symbol
 _atom_site_label
 _atom_site_symmetry_multiplicity
 _atom_site_fract_x
 _atom_site_fract_y
 _atom_site_fract_z
 _atom_site_occupancy
  Ni  Ni0  1  0.61378600  0.11378600  0.50000000  1
  Cu  Cu1  1  0.24812400  0.99252000  0.74439600  1
  Cu  Cu2  1  0.24812400  0.50372800  0.25560400  1
  Cu  Cu3  1  0.75450600  0.49974800  0.25475800  1
  Cu  Cu4  1  0.24499000  0.49974800  0.74524200  1
  C  C5  1  0.03731500  0.75078400  0.28653200  1
  C  C6  1  0.46425200  0.75078400  0.71346800  1
  C  C7  1  0.03061700  0.75297600  0.72235900  1
  C  C8  1  0.03061700  0.30825900  0.27764100  1
  C  C9  1  0.02543200  0.24927100  0.77616100  1
  C  C10  1  0.47310900  0.24927100  0.22383900  1
  C  C11  1  0.47662900  0.70201300  0.22538400  1
  C  C12  1  0.47662900  0.25124500  0.77461600  1
