# generated using pymatgen
data_Cu12Ni3C2
_symmetry_space_group_name_H-M   'P 1'
_cell_length_a   11.24271337
_cell_length_b   11.24271337
_cell_length_c   6.94132723
_cell_angle_alpha   73.61536516
_cell_angle_beta   73.61536516
_cell_angle_gamma   34.71443242
_symmetry_Int_Tables_number   1
_chemical_formula_structural   Cu12Ni3C2
_chemical_formula_sum   'Cu24 Ni6 C4'
_cell_volume   477.33313152
_cell_formula_units_Z   2
loop_
 _symmetry_equiv_pos_site_id
 _symmetry_equiv_pos_as_xyz
  1  'x, y, z'
loop_
 _atom_site_type_symbol
 _atom_site_label
 _atom_site_symmetry_multiplicity
 _atom_site_fract_x
 _atom_site_fract_y
 _atom_site_fract_z
 _atom_site_occupancy
  C  C0  1  0.72187200  0.01396700  0.13088000  1
  C  C1  1  0.27812800  0.98603300  0.86912000  1
  C  C2  1  0.98603300  0.27812800  0.36912000  1
  C  C3  1  0.01396700  0.72187200  0.63088000  1
  Ni  Ni4  1  0.50069000  0.86571500  0.32243500  1
  Ni  Ni5  1  0.49931000  0.13428500  0.67756500  1
  Ni  Ni6  1  0.13428500  0.49931000  0.17756500  1
  Ni  Ni7  1  0.86571500  0.50069000  0.82243500  1
  Ni  Ni8  1  0.83594200  0.16405800  0.25000000  1
  Ni  Ni9  1  0.16405800  0.83594200  0.75000000  1
  Cu  Cu10  1  0.33997700  0.96314700  0.19845000  1
  Cu  Cu11  1  0.66002300  0.03685300  0.80155000  1
  Cu  Cu12  1  0.03685300  0.66002300  0.30155000  1
  Cu  Cu13  1  0.96314700  0.33997700  0.69845000  1
  Cu  Cu14  1  0.62790700  0.01769500  0.49370100  1
  Cu  Cu15  1  0.37209300  0.98230500  0.50629900  1
  Cu  Cu16  1  0.98230500  0.37209300  0.00629900  1
  Cu  Cu17  1  0.01769500  0.62790700  0.99370100  1
  Cu  Cu18  1  0.35882700  0.34738400  0.12467300  1
  Cu  Cu19  1  0.64117300  0.65261600  0.87532700  1
  Cu  Cu20  1  0.65261600  0.64117300  0.37532700  1
  Cu  Cu21  1  0.34738400  0.35882700  0.62467300  1
  Cu  Cu22  1  0.60516500  0.89760300  0.20918700  1
  Cu  Cu23  1  0.39483500  0.10239700  0.79081300  1
  Cu  Cu24  1  0.10239700  0.39483500  0.29081300  1
  Cu  Cu25  1  0.89760300  0.60516500  0.70918700  1
  Cu  Cu26  1  0.91092600  0.97656200  0.35823100  1
  Cu  Cu27  1  0.08907400  0.02343800  0.64176900  1
  Cu  Cu28  1  0.02343800  0.08907400  0.14176900  1
  Cu  Cu29  1  0.97656200  0.91092600  0.85823100  1
  Cu  Cu30  1  0.69100900  0.25999700  0.10995000  1
  Cu  Cu31  1  0.30899100  0.74000300  0.89005000  1
  Cu  Cu32  1  0.74000300  0.30899100  0.39005000  1
  Cu  Cu33  1  0.25999700  0.69100900  0.60995000  1
