# generated using pymatgen
data_Cu2NiC16
_symmetry_space_group_name_H-M   'P 1'
_cell_length_a   6.43945191
_cell_length_b   7.85536862
_cell_length_c   5.44461643
_cell_angle_alpha   88.70036110
_cell_angle_beta   108.87043753
_cell_angle_gamma   99.92766703
_symmetry_Int_Tables_number   1
_chemical_formula_structural   Cu2NiC16
_chemical_formula_sum   'Cu2 Ni1 C16'
_cell_volume   256.54516777
_cell_formula_units_Z   1
loop_
 _symmetry_equiv_pos_site_id
 _symmetry_equiv_pos_as_xyz
  1  'x, y, z'
loop_
 _atom_site_type_symbol
 _atom_site_label
 _atom_site_symmetry_multiplicity
 _atom_site_fract_x
 _atom_site_fract_y
 _atom_site_fract_z
 _atom_site_occupancy
  Ni  Ni0  1  0.02947000  0.59415000  0.51699200  1
  Cu  Cu1  1  0.19566400  0.64460700  0.10594800  1
  Cu  Cu2  1  0.82443500  0.34499200  0.86282600  1
  C  C3  1  0.25724500  0.37568000  0.90102500  1
  C  C4  1  0.77710700  0.61073500  0.03532200  1
  C  C5  1  0.17911500  0.88207700  0.79946700  1
  C  C6  1  0.82475700  0.18701500  0.25807000  1
  C  C7  1  0.63848000  0.90813600  0.85003100  1
  C  C8  1  0.33827900  0.13331100  0.42194700  1
  C  C9  1  0.13661300  0.44074500  0.88341000  1
  C  C10  1  0.88897300  0.53611100  0.10366500  1
  C  C11  1  0.09998000  0.76475200  0.80761300  1
  C  C12  1  0.87396700  0.16944500  0.10939200  1
  C  C13  1  0.15058500  0.80907700  0.31410800  1
  C  C14  1  0.78588000  0.16949200  0.61311400  1
  C  C15  1  0.26735000  0.52138400  0.40690100  1
  C  C16  1  0.76066700  0.48436900  0.58082400  1
  C  C17  1  0.48464600  0.73486700  0.16548700  1
  C  C18  1  0.52845300  0.31868500  0.82635800  1
