# generated using pymatgen
data_CuNiC3
_symmetry_space_group_name_H-M   'P 1'
_cell_length_a   5.39201758
_cell_length_b   6.77681291
_cell_length_c   6.78857860
_cell_angle_alpha   86.18256993
_cell_angle_beta   75.73327589
_cell_angle_gamma   75.75190409
_symmetry_Int_Tables_number   1
_chemical_formula_structural   CuNiC3
_chemical_formula_sum   'Cu4 Ni4 C12'
_cell_volume   233.00914797
_cell_formula_units_Z   4
loop_
 _symmetry_equiv_pos_site_id
 _symmetry_equiv_pos_as_xyz
  1  'x, y, z'
loop_
 _atom_site_type_symbol
 _atom_site_label
 _atom_site_symmetry_multiplicity
 _atom_site_fract_x
 _atom_site_fract_y
 _atom_site_fract_z
 _atom_site_occupancy
  Ni  Ni0  1  0.24948400  0.74587100  0.75447800  1
  Ni  Ni1  1  0.75029100  0.25425200  0.24571700  1
  Ni  Ni2  1  0.25015900  0.09755200  0.40232100  1
  Ni  Ni3  1  0.74987900  0.90229300  0.59748200  1
  Cu  Cu4  1  0.23091500  0.21335600  0.88473600  1
  Cu  Cu5  1  0.26900500  0.61514500  0.28664300  1
  Cu  Cu6  1  0.76911500  0.78661800  0.11511000  1
  Cu  Cu7  1  0.73099200  0.38489100  0.71342900  1
  C  C8  1  0.96493600  0.37275600  0.83511500  1
  C  C9  1  0.53503900  0.66460900  0.12741300  1
  C  C10  1  0.03499400  0.62721100  0.16505600  1
  C  C11  1  0.46483700  0.33544700  0.87250600  1
  C  C12  1  0.13445900  0.14018200  0.11824800  1
  C  C13  1  0.36575900  0.38141300  0.36022700  1
  C  C14  1  0.86568800  0.85962000  0.88164100  1
  C  C15  1  0.63445700  0.61869700  0.64010200  1
  C  C16  1  0.83984300  0.21056300  0.53615300  1
  C  C17  1  0.66002100  0.96401500  0.28916500  1
  C  C18  1  0.16020600  0.78944600  0.46390700  1
  C  C19  1  0.33992400  0.03606400  0.71055300  1
