# generated using pymatgen
data_CuNi2C5
_symmetry_space_group_name_H-M   'P 1'
_cell_length_a   20.63020800
_cell_length_b   6.32129400
_cell_length_c   9.25139744
_cell_angle_alpha   87.31301699
_cell_angle_beta   90.00000000
_cell_angle_gamma   90.00000000
_symmetry_Int_Tables_number   1
_chemical_formula_structural   CuNi2C5
_chemical_formula_sum   'Cu8 Ni16 C40'
_cell_volume   1205.14467904
_cell_formula_units_Z   8
loop_
 _symmetry_equiv_pos_site_id
 _symmetry_equiv_pos_as_xyz
  1  'x, y, z'
loop_
 _atom_site_type_symbol
 _atom_site_label
 _atom_site_symmetry_multiplicity
 _atom_site_fract_x
 _atom_site_fract_y
 _atom_site_fract_z
 _atom_site_occupancy
  C  C0  1  0.20591100  0.86219400  0.62754000  1
  C  C1  1  0.79408900  0.13780600  0.37246000  1
  C  C2  1  0.70591100  0.13780600  0.87246000  1
  C  C3  1  0.29408900  0.86219400  0.12754000  1
  C  C4  1  0.36034600  0.37391300  0.77245700  1
  C  C5  1  0.63965400  0.62608700  0.22754300  1
  C  C6  1  0.86034600  0.62608700  0.72754300  1
  C  C7  1  0.13965400  0.37391300  0.27245700  1
  Ni  Ni8  1  0.00435000  0.66597800  0.67294900  1
  Ni  Ni9  1  0.99565000  0.33402200  0.32705100  1
  Ni  Ni10  1  0.50435000  0.33402200  0.82705100  1
  Ni  Ni11  1  0.49565000  0.66597800  0.17294900  1
  Ni  Ni12  1  0.10531000  0.25833700  0.57212700  1
  Ni  Ni13  1  0.89469000  0.74166300  0.42787300  1
  Ni  Ni14  1  0.60531000  0.74166300  0.92787300  1
  Ni  Ni15  1  0.39469000  0.25833700  0.07212700  1
  Ni  Ni16  1  0.44454000  0.30567800  0.52202000  1
  Ni  Ni17  1  0.55546000  0.69432200  0.47798000  1
  Ni  Ni18  1  0.94454000  0.69432200  0.97798000  1
  Ni  Ni19  1  0.05546000  0.30567800  0.02202000  1
  Ni  Ni20  1  0.10078300  0.87479700  0.86394400  1
  Ni  Ni21  1  0.89921700  0.12520300  0.13605600  1
  Ni  Ni22  1  0.60078300  0.12520300  0.63605600  1
  Ni  Ni23  1  0.39921700  0.87479700  0.36394400  1
  Cu  Cu24  1  0.21779200  0.37835200  0.89869200  1
  Cu  Cu25  1  0.78220800  0.62164800  0.10130800  1
  Cu  Cu26  1  0.71779200  0.62164800  0.60130800  1
  Cu  Cu27  1  0.28220800  0.37835200  0.39869200  1
  Cu  Cu28  1  0.42726000  0.81077100  0.77591400  1
  Cu  Cu29  1  0.57274000  0.18922900  0.22408600  1
  Cu  Cu30  1  0.92726000  0.18922900  0.72408600  1
  Cu  Cu31  1  0.07274000  0.81077100  0.27591400  1
  C  C32  1  0.41189900  0.65705500  0.90317500  1
  C  C33  1  0.58810100  0.34294500  0.09682500  1
  C  C34  1  0.91189900  0.34294500  0.59682500  1
  C  C35  1  0.08810100  0.65705500  0.40317500  1
  C  C36  1  0.16056800  0.40653900  0.80908700  1
  C  C37  1  0.83943200  0.59346100  0.19091300  1
  C  C38  1  0.66056800  0.59346100  0.69091300  1
  C  C39  1  0.33943200  0.40653900  0.30908700  1
  C  C40  1  0.29858000  0.36164200  0.55710300  1
  C  C41  1  0.70142000  0.63835800  0.44289700  1
  C  C42  1  0.79858000  0.63835800  0.94289700  1
  C  C43  1  0.20142000  0.36164200  0.05710300  1
  C  C44  1  0.75699800  0.81481200  0.63531200  1
  C  C45  1  0.24300200  0.18518800  0.36468800  1
  C  C46  1  0.25699800  0.18518800  0.86468800  1
  C  C47  1  0.74300200  0.81481200  0.13531200  1
  C  C48  1  0.26541200  0.56074000  0.87475300  1
  C  C49  1  0.73458800  0.43926000  0.12524700  1
  C  C50  1  0.76541200  0.43926000  0.62524700  1
  C  C51  1  0.23458800  0.56074000  0.37475300  1
  C  C52  1  0.38700700  0.00810300  0.79541800  1
  C  C53  1  0.61299300  0.99189700  0.20458200  1
  C  C54  1  0.88700700  0.99189700  0.70458200  1
  C  C55  1  0.11299300  0.00810300  0.29541800  1
  C  C56  1  0.49523100  0.86074000  0.76348300  1
  C  C57  1  0.50476900  0.13926000  0.23651700  1
  C  C58  1  0.99523100  0.13926000  0.73651700  1
  C  C59  1  0.00476900  0.86074000  0.26348300  1
  C  C60  1  0.40023600  0.70087500  0.64681500  1
  C  C61  1  0.59976400  0.29912500  0.35318500  1
  C  C62  1  0.90023600  0.29912500  0.85318500  1
  C  C63  1  0.09976400  0.70087500  0.14681500  1
