# generated using pymatgen
data_CuNi5C6
_symmetry_space_group_name_H-M   'P 1'
_cell_length_a   5.47736300
_cell_length_b   11.49864900
_cell_length_c   13.53225800
_cell_angle_alpha   90.00000000
_cell_angle_beta   90.00000000
_cell_angle_gamma   90.00000000
_symmetry_Int_Tables_number   1
_chemical_formula_structural   CuNi5C6
_chemical_formula_sum   'Cu4 Ni20 C24'
_cell_volume   852.29238908
_cell_formula_units_Z   4
loop_
 _symmetry_equiv_pos_site_id
 _symmetry_equiv_pos_as_xyz
  1  'x, y, z'
loop_
 _atom_site_type_symbol
 _atom_site_label
 _atom_site_symmetry_multiplicity
 _atom_site_fract_x
 _atom_site_fract_y
 _atom_site_fract_z
 _atom_site_occupancy
  C  C0  1  0.25000000  0.41368600  0.58836200  1
  C  C1  1  0.25000000  0.08631400  0.08836200  1
  C  C2  1  0.75000000  0.58631400  0.41163800  1
  C  C3  1  0.75000000  0.91368600  0.91163800  1
  C  C4  1  0.75000000  0.36190400  0.84344200  1
  C  C5  1  0.75000000  0.13809600  0.34344200  1
  C  C6  1  0.25000000  0.63809600  0.15655800  1
  C  C7  1  0.25000000  0.86190400  0.65655800  1
  Ni  Ni8  1  0.49154800  0.51838800  0.83442600  1
  Ni  Ni9  1  0.00845200  0.98161200  0.33442600  1
  Ni  Ni10  1  0.99154800  0.48161200  0.16557400  1
  Ni  Ni11  1  0.50845200  0.01838800  0.66557400  1
  Ni  Ni12  1  0.50845200  0.48161200  0.16557400  1
  Ni  Ni13  1  0.99154800  0.01838800  0.66557400  1
  Ni  Ni14  1  0.00845200  0.51838800  0.83442600  1
  Ni  Ni15  1  0.49154800  0.98161200  0.33442600  1
  Ni  Ni16  1  0.75000000  0.30121400  0.67989100  1
  Ni  Ni17  1  0.75000000  0.19878600  0.17989100  1
  Ni  Ni18  1  0.25000000  0.69878600  0.32010900  1
  Ni  Ni19  1  0.25000000  0.80121400  0.82010900  1
  Ni  Ni20  1  0.48983300  0.28106700  0.86767700  1
  Ni  Ni21  1  0.01016700  0.21893300  0.36767700  1
  Ni  Ni22  1  0.98983300  0.71893300  0.13232300  1
  Ni  Ni23  1  0.51016700  0.78106700  0.63232300  1
  Ni  Ni24  1  0.51016700  0.71893300  0.13232300  1
  Ni  Ni25  1  0.98983300  0.78106700  0.63232300  1
  Ni  Ni26  1  0.01016700  0.28106700  0.86767700  1
  Ni  Ni27  1  0.48983300  0.21893300  0.36767700  1
  Cu  Cu28  1  0.75000000  0.52465200  0.12433700  1
  Cu  Cu29  1  0.75000000  0.97534800  0.62433700  1
  Cu  Cu30  1  0.25000000  0.47534800  0.87566300  1
  Cu  Cu31  1  0.25000000  0.02465200  0.37566300  1
  C  C32  1  0.95191800  0.33401100  0.62918300  1
  C  C33  1  0.54808200  0.16598900  0.12918300  1
  C  C34  1  0.45191800  0.66598900  0.37081700  1
  C  C35  1  0.04808200  0.83401100  0.87081700  1
  C  C36  1  0.04808200  0.66598900  0.37081700  1
  C  C37  1  0.45191800  0.83401100  0.87081700  1
  C  C38  1  0.54808200  0.33401100  0.62918300  1
  C  C39  1  0.95191800  0.16598900  0.12918300  1
  C  C40  1  0.25000000  0.55367200  0.62947000  1
  C  C41  1  0.25000000  0.94632800  0.12947000  1
  C  C42  1  0.75000000  0.44632800  0.37053000  1
  C  C43  1  0.75000000  0.05367200  0.87053000  1
  C  C44  1  0.25000000  0.42290500  0.46157700  1
  C  C45  1  0.25000000  0.07709500  0.96157700  1
  C  C46  1  0.75000000  0.57709500  0.53842300  1
  C  C47  1  0.75000000  0.92290500  0.03842300  1
