# generated using pymatgen
data_Cu8Ni2C5
_symmetry_space_group_name_H-M   'P 1'
_cell_length_a   6.42406400
_cell_length_b   5.35536500
_cell_length_c   10.98619180
_cell_angle_alpha   90.00000000
_cell_angle_beta   108.07334271
_cell_angle_gamma   90.00000000
_symmetry_Int_Tables_number   1
_chemical_formula_structural   Cu8Ni2C5
_chemical_formula_sum   'Cu16 Ni4 C10'
_cell_volume   359.31174360
_cell_formula_units_Z   2
loop_
 _symmetry_equiv_pos_site_id
 _symmetry_equiv_pos_as_xyz
  1  'x, y, z'
loop_
 _atom_site_type_symbol
 _atom_site_label
 _atom_site_symmetry_multiplicity
 _atom_site_fract_x
 _atom_site_fract_y
 _atom_site_fract_z
 _atom_site_occupancy
  C  C0  1  0.09605400  0.16780100  0.90674100  1
  C  C1  1  0.90394600  0.66780100  0.59325900  1
  C  C2  1  0.90394600  0.83219900  0.09325900  1
  C  C3  1  0.09605400  0.33219900  0.40674100  1
  C  C4  1  0.25848300  0.39540500  0.96135800  1
  C  C5  1  0.74151700  0.89540500  0.53864200  1
  C  C6  1  0.74151700  0.60459500  0.03864200  1
  C  C7  1  0.25848300  0.10459500  0.46135800  1
  C  C8  1  0.50000000  0.00000000  0.00000000  1
  C  C9  1  0.50000000  0.50000000  0.50000000  1
  Ni  Ni10  1  0.24467700  0.73359500  0.77620500  1
  Ni  Ni11  1  0.75532300  0.23359500  0.72379500  1
  Ni  Ni12  1  0.75532300  0.26640500  0.22379500  1
  Ni  Ni13  1  0.24467700  0.76640500  0.27620500  1
  Cu  Cu14  1  0.30900600  0.71629000  0.90520300  1
  Cu  Cu15  1  0.69099400  0.21629000  0.59479700  1
  Cu  Cu16  1  0.69099400  0.28371000  0.09479700  1
  Cu  Cu17  1  0.30900600  0.78371000  0.40520300  1
  Cu  Cu18  1  0.10967100  0.57101900  0.72023900  1
  Cu  Cu19  1  0.89032900  0.07101900  0.77976100  1
  Cu  Cu20  1  0.89032900  0.42898100  0.27976100  1
  Cu  Cu21  1  0.10967100  0.92898100  0.22023900  1
  Cu  Cu22  1  0.31801400  0.90045800  0.72479500  1
  Cu  Cu23  1  0.68198600  0.40045800  0.77520500  1
  Cu  Cu24  1  0.68198600  0.09954200  0.27520500  1
  Cu  Cu25  1  0.31801400  0.59954200  0.22479500  1
  Cu  Cu26  1  0.22777200  0.22005900  0.97878900  1
  Cu  Cu27  1  0.77222800  0.72005900  0.52121100  1
  Cu  Cu28  1  0.77222800  0.77994100  0.02121100  1
  Cu  Cu29  1  0.22777200  0.27994100  0.47878900  1
