# generated using pymatgen
data_CuNiC40
_symmetry_space_group_name_H-M   'P 1'
_cell_length_a   9.13300786
_cell_length_b   9.13300786
_cell_length_c   9.13300786
_cell_angle_alpha   133.26088265
_cell_angle_beta   130.91702998
_cell_angle_gamma   70.10565341
_symmetry_Int_Tables_number   1
_chemical_formula_structural   CuNiC40
_chemical_formula_sum   'Cu1 Ni1 C40'
_cell_volume   410.97964169
_cell_formula_units_Z   1
loop_
 _symmetry_equiv_pos_site_id
 _symmetry_equiv_pos_as_xyz
  1  'x, y, z'
loop_
 _atom_site_type_symbol
 _atom_site_label
 _atom_site_symmetry_multiplicity
 _atom_site_fract_x
 _atom_site_fract_y
 _atom_site_fract_z
 _atom_site_occupancy
  Ni  Ni0  1  0.50000000  0.50000000  0.00000000  1
  C  C1  1  0.62979400  0.80888800  0.60839300  1
  C  C2  1  0.20049400  0.02140100  0.39160700  1
  C  C3  1  0.79950600  0.19111200  0.82090600  1
  C  C4  1  0.37020600  0.97859900  0.17909400  1
  C  C5  1  0.63769300  0.02228100  0.85427700  1
  C  C6  1  0.16800400  0.78341600  0.14572300  1
  C  C7  1  0.83199600  0.97771900  0.61541200  1
  C  C8  1  0.36230700  0.21658400  0.38458800  1
  C  C9  1  0.69958000  0.81833600  0.83457900  1
  C  C10  1  0.98375700  0.86500100  0.16542100  1
  C  C11  1  0.01624300  0.18166400  0.88124400  1
  C  C12  1  0.30042000  0.13499900  0.11875600  1
  C  C13  1  0.81014000  0.42232700  0.60610900  1
  C  C14  1  0.81621800  0.20403100  0.39389100  1
  C  C15  1  0.18378200  0.57767300  0.38781300  1
  C  C16  1  0.18986000  0.79596900  0.61218700  1
  C  C17  1  0.79567500  0.44470300  0.34894000  1
  C  C18  1  0.09576300  0.44673500  0.65106000  1
  C  C19  1  0.90423700  0.55529700  0.35097200  1
  C  C20  1  0.20432500  0.55326500  0.64902800  1
  Cu  Cu21  1  0.00000000  0.00000000  0.00000000  1
  C  C22  1  0.68206500  0.78840400  0.11037100  1
  C  C23  1  0.67803300  0.57169400  0.88962900  1
  C  C24  1  0.32196700  0.21159600  0.89366100  1
  C  C25  1  0.31793500  0.42830600  0.10633900  1
  C  C26  1  0.70870000  0.90197800  0.80209200  1
  C  C27  1  0.09988600  0.90660800  0.19790800  1
  C  C28  1  0.90011400  0.09802200  0.80672300  1
  C  C29  1  0.29130000  0.09339200  0.19327700  1
  C  C30  1  0.60904400  0.79226200  0.19355400  1
  C  C31  1  0.59870800  0.41549000  0.80644600  1
  C  C32  1  0.40129200  0.20773800  0.81678200  1
  C  C33  1  0.39095600  0.58451000  0.18321800  1
  C  C34  1  0.75758000  0.94089500  0.18775100  1
  C  C35  1  0.75314400  0.56982900  0.81224900  1
  C  C36  1  0.24685600  0.05910500  0.81668500  1
  C  C37  1  0.24242000  0.43017100  0.18331500  1
  C  C38  1  0.77472000  0.50000000  0.27472000  1
  C  C39  1  0.22528000  0.50000000  0.72528000  1
  C  C40  1  0.85358200  0.35358200  0.50000000  1
  C  C41  1  0.14641800  0.64641800  0.50000000  1
