# generated using pymatgen
data_Cu2NiC
_symmetry_space_group_name_H-M   'P 1'
_cell_length_a   5.89417500
_cell_length_b   7.09280600
_cell_length_c   7.57060700
_cell_angle_alpha   90.00000000
_cell_angle_beta   90.00000000
_cell_angle_gamma   90.00000000
_symmetry_Int_Tables_number   1
_chemical_formula_structural   Cu2NiC
_chemical_formula_sum   'Cu8 Ni4 C4'
_cell_volume   316.49861171
_cell_formula_units_Z   4
loop_
 _symmetry_equiv_pos_site_id
 _symmetry_equiv_pos_as_xyz
  1  'x, y, z'
loop_
 _atom_site_type_symbol
 _atom_site_label
 _atom_site_symmetry_multiplicity
 _atom_site_fract_x
 _atom_site_fract_y
 _atom_site_fract_z
 _atom_site_occupancy
  C  C0  1  0.34680900  0.75000000  0.03273600  1
  C  C1  1  0.15319100  0.75000000  0.53273600  1
  C  C2  1  0.65319100  0.25000000  0.96726400  1
  C  C3  1  0.84680900  0.25000000  0.46726400  1
  Ni  Ni4  1  0.65402200  0.75000000  0.38178100  1
  Ni  Ni5  1  0.84597800  0.75000000  0.88178100  1
  Ni  Ni6  1  0.34597800  0.25000000  0.61821900  1
  Ni  Ni7  1  0.15402200  0.25000000  0.11821900  1
  Cu  Cu8  1  0.91196800  0.55283600  0.17706800  1
  Cu  Cu9  1  0.58803200  0.94716400  0.67706800  1
  Cu  Cu10  1  0.08803200  0.05283600  0.82293200  1
  Cu  Cu11  1  0.41196800  0.44716400  0.32293200  1
  Cu  Cu12  1  0.08803200  0.44716400  0.82293200  1
  Cu  Cu13  1  0.41196800  0.05283600  0.32293200  1
  Cu  Cu14  1  0.91196800  0.94716400  0.17706800  1
  Cu  Cu15  1  0.58803200  0.55283600  0.67706800  1
