# generated using pymatgen
data_Cu2Ni8C39
_symmetry_space_group_name_H-M   'P 1'
_cell_length_a   5.55623900
_cell_length_b   7.83892370
_cell_length_c   14.81971755
_cell_angle_alpha   105.18452140
_cell_angle_beta   100.59500844
_cell_angle_gamma   89.51167785
_symmetry_Int_Tables_number   1
_chemical_formula_structural   Cu2Ni8C39
_chemical_formula_sum   'Cu2 Ni8 C39'
_cell_volume   611.78169310
_cell_formula_units_Z   1
loop_
 _symmetry_equiv_pos_site_id
 _symmetry_equiv_pos_as_xyz
  1  'x, y, z'
loop_
 _atom_site_type_symbol
 _atom_site_label
 _atom_site_symmetry_multiplicity
 _atom_site_fract_x
 _atom_site_fract_y
 _atom_site_fract_z
 _atom_site_occupancy
  C  C0  1  0.10156700  0.34952100  0.20074000  1
  C  C1  1  0.49816000  0.74960600  0.99897900  1
  C  C2  1  0.49834500  0.24582600  0.99785800  1
  C  C3  1  0.09851700  0.85034300  0.19652900  1
  C  C4  1  0.70114500  0.45123200  0.40144700  1
  C  C5  1  0.89853300  0.65530400  0.80664900  1
  C  C6  1  0.69848200  0.95123300  0.40009700  1
  C  C7  1  0.29953900  0.55244600  0.60322700  1
  C  C8  1  0.89932000  0.15029900  0.79630500  1
  Ni  Ni9  1  0.00498900  0.99736600  0.00373200  1
  Ni  Ni10  1  0.58920000  0.59627900  0.19819600  1
  Ni  Ni11  1  0.20539300  0.19901900  0.40265400  1
  Ni  Ni12  1  0.99789200  0.49835700  0.00572900  1
  Ni  Ni13  1  0.79879400  0.80590000  0.60321800  1
  Ni  Ni14  1  0.60966400  0.10471200  0.19921300  1
  Ni  Ni15  1  0.39738000  0.39889200  0.79860900  1
  Ni  Ni16  1  0.19680100  0.70307300  0.40286400  1
  Cu  Cu17  1  0.80181900  0.29040200  0.59909500  1
  Cu  Cu18  1  0.40110100  0.90081200  0.80178900  1
  C  C19  1  0.32502500  0.57497800  0.09029800  1
  C  C20  1  0.01613700  0.26688800  0.02597300  1
  C  C21  1  0.92110000  0.15800900  0.28022700  1
  C  C22  1  0.83634600  0.58939000  0.11292800  1
  C  C23  1  0.76480900  0.01742000  0.08711200  1
  C  C24  1  0.58999500  0.33972200  0.17629400  1
  C  C25  1  0.61252800  0.86206500  0.22434600  1
  C  C26  1  0.52292300  0.75623500  0.47960800  1
  C  C27  1  0.44383400  0.17524700  0.30923300  1
  C  C28  1  0.36813400  0.62303200  0.28661000  1
  C  C29  1  0.27938000  0.02564900  0.11080000  1
  C  C30  1  0.18626400  0.93423400  0.37094700  1
  C  C31  1  0.20875300  0.46030600  0.41790000  1
  C  C32  1  0.12791700  0.40126100  0.70188300  1
  C  C33  1  0.02210200  0.76552700  0.50295700  1
  C  C34  1  0.94529700  0.21890700  0.46954600  1
  C  C35  1  0.86993500  0.63745000  0.31217200  1
  C  C36  1  0.78437700  0.53991200  0.56923300  1
  C  C37  1  0.80551300  0.04560600  0.62347500  1
  C  C38  1  0.74408500  0.98496500  0.89107100  1
  C  C39  1  0.63940100  0.39422300  0.72374200  1
  C  C40  1  0.57803100  0.79200200  0.69019200  1
  C  C41  1  0.46619300  0.23137600  0.49920100  1
  C  C42  1  0.39522500  0.14589900  0.79065900  1
  C  C43  1  0.41564700  0.66923500  0.82740800  1
  C  C44  1  0.22623600  0.99813200  0.91323400  1
  C  C45  1  0.16195300  0.41469600  0.89218300  1
  C  C46  1  0.06588200  0.81018100  0.70784500  1
  C  C47  1  0.99278300  0.74270100  0.98069900  1
  C  C48  1  0.68755500  0.42413200  0.91529900  1
