# generated using pymatgen
data_CuNiC
_symmetry_space_group_name_H-M   'P 1'
_cell_length_a   5.79758800
_cell_length_b   5.77255000
_cell_length_c   5.84091497
_cell_angle_alpha   69.34305612
_cell_angle_beta   90.00000000
_cell_angle_gamma   90.00000000
_symmetry_Int_Tables_number   1
_chemical_formula_structural   CuNiC
_chemical_formula_sum   'Cu4 Ni4 C4'
_cell_volume   182.90977930
_cell_formula_units_Z   4
loop_
 _symmetry_equiv_pos_site_id
 _symmetry_equiv_pos_as_xyz
  1  'x, y, z'
loop_
 _atom_site_type_symbol
 _atom_site_label
 _atom_site_symmetry_multiplicity
 _atom_site_fract_x
 _atom_site_fract_y
 _atom_site_fract_z
 _atom_site_occupancy
  Ni  Ni0  1  0.12207300  0.84947200  0.87279600  1
  Ni  Ni1  1  0.62207300  0.15052800  0.62720400  1
  Ni  Ni2  1  0.87792700  0.15052800  0.12720400  1
  Ni  Ni3  1  0.37792700  0.84947200  0.37279600  1
  C  C4  1  0.49743100  0.72606900  0.79284600  1
  C  C5  1  0.99743100  0.27393100  0.70715400  1
  C  C6  1  0.50256900  0.27393100  0.20715400  1
  C  C7  1  0.00256900  0.72606900  0.29284600  1
  Cu  Cu8  1  0.87784200  0.66465900  0.69094800  1
  Cu  Cu9  1  0.37784200  0.33534100  0.80905200  1
  Cu  Cu10  1  0.12215800  0.33534100  0.30905200  1
  Cu  Cu11  1  0.62215800  0.66465900  0.19094800  1
