# generated using pymatgen
data_Cu3NiC6
_symmetry_space_group_name_H-M   'P 1'
_cell_length_a   4.37670700
_cell_length_b   4.42251796
_cell_length_c   6.69078841
_cell_angle_alpha   82.22664816
_cell_angle_beta   77.33095367
_cell_angle_gamma   69.68881281
_symmetry_Int_Tables_number   1
_chemical_formula_structural   Cu3NiC6
_chemical_formula_sum   'Cu3 Ni1 C6'
_cell_volume   118.25003266
_cell_formula_units_Z   1
loop_
 _symmetry_equiv_pos_site_id
 _symmetry_equiv_pos_as_xyz
  1  'x, y, z'
loop_
 _atom_site_type_symbol
 _atom_site_label
 _atom_site_symmetry_multiplicity
 _atom_site_fract_x
 _atom_site_fract_y
 _atom_site_fract_z
 _atom_site_occupancy
  Ni  Ni0  1  0.92514100  0.08060200  0.02152000  1
  Cu  Cu1  1  0.62434400  0.32022800  0.54834400  1
  Cu  Cu2  1  0.22201900  0.24439000  0.34652800  1
  Cu  Cu3  1  0.71762000  0.74317600  0.73809000  1
  C  C4  1  0.31068400  0.33273200  0.50396000  1
  C  C5  1  0.59314500  0.63638500  0.60560700  1
  C  C6  1  0.71142900  0.06684500  0.72102900  1
  C  C7  1  0.90118900  0.22682100  0.36456200  1
  C  C8  1  0.40281000  0.18297200  0.15102000  1
  C  C9  1  0.82601800  0.58444900  0.91544100  1
