# generated using pymatgen
data_Cu2(NiC2)3
_symmetry_space_group_name_H-M   'P 1'
_cell_length_a   6.22232400
_cell_length_b   6.26384986
_cell_length_c   7.55609046
_cell_angle_alpha   76.40648847
_cell_angle_beta   80.63807975
_cell_angle_gamma   82.23941130
_symmetry_Int_Tables_number   1
_chemical_formula_structural   Cu2(NiC2)3
_chemical_formula_sum   'Cu4 Ni6 C12'
_cell_volume   280.99898291
_cell_formula_units_Z   2
loop_
 _symmetry_equiv_pos_site_id
 _symmetry_equiv_pos_as_xyz
  1  'x, y, z'
loop_
 _atom_site_type_symbol
 _atom_site_label
 _atom_site_symmetry_multiplicity
 _atom_site_fract_x
 _atom_site_fract_y
 _atom_site_fract_z
 _atom_site_occupancy
  Ni  Ni0  1  0.27075100  0.93539000  0.44090800  1
  Ni  Ni1  1  0.72924900  0.06461000  0.55909200  1
  Ni  Ni2  1  0.62587500  0.23947200  0.99844600  1
  Ni  Ni3  1  0.37412500  0.76052800  0.00155400  1
  Ni  Ni4  1  0.86719800  0.55699000  0.29408600  1
  Ni  Ni5  1  0.13280200  0.44301000  0.70591400  1
  Cu  Cu6  1  0.62019500  0.56540700  0.63871200  1
  Cu  Cu7  1  0.37980500  0.43459300  0.36128800  1
  Cu  Cu8  1  0.08805200  0.16744500  0.12681500  1
  Cu  Cu9  1  0.91194800  0.83255500  0.87318500  1
  C  C10  1  0.60850900  0.75524900  0.49699100  1
  C  C11  1  0.39149100  0.24475100  0.50300900  1
  C  C12  1  0.46354800  0.52999800  0.79359600  1
  C  C13  1  0.53645200  0.47000200  0.20640400  1
  C  C14  1  0.30743800  0.07373200  0.11866000  1
  C  C15  1  0.69256200  0.92626800  0.88134000  1
  C  C16  1  0.79331700  0.40435800  0.61542700  1
  C  C17  1  0.20668300  0.59564200  0.38457300  1
  C  C18  1  0.98947500  0.25537400  0.97256800  1
  C  C19  1  0.01052500  0.74462600  0.02743200  1
  C  C20  1  0.97701800  0.17140700  0.30212500  1
  C  C21  1  0.02298200  0.82859300  0.69787500  1
