# generated using pymatgen
data_Cu2Ni2C15
_symmetry_space_group_name_H-M   'P 1'
_cell_length_a   8.06958408
_cell_length_b   7.21771080
_cell_length_c   4.82355550
_cell_angle_alpha   88.51316240
_cell_angle_beta   114.56952884
_cell_angle_gamma   110.45870497
_symmetry_Int_Tables_number   1
_chemical_formula_structural   Cu2Ni2C15
_chemical_formula_sum   'Cu2 Ni2 C15'
_cell_volume   237.02795582
_cell_formula_units_Z   1
loop_
 _symmetry_equiv_pos_site_id
 _symmetry_equiv_pos_as_xyz
  1  'x, y, z'
loop_
 _atom_site_type_symbol
 _atom_site_label
 _atom_site_symmetry_multiplicity
 _atom_site_fract_x
 _atom_site_fract_y
 _atom_site_fract_z
 _atom_site_occupancy
  C  C0  1  0.44581800  0.96813800  0.90361900  1
  Ni  Ni1  1  0.16529800  0.68127500  0.18929500  1
  Ni  Ni2  1  0.83037500  0.31408300  0.80534900  1
  C  C3  1  0.15565700  0.49027600  0.73937600  1
  C  C4  1  0.84312000  0.50508300  0.25878700  1
  C  C5  1  0.10143300  0.85871400  0.73135500  1
  C  C6  1  0.88338400  0.13475700  0.26125400  1
  Cu  Cu7  1  0.73777700  0.78848700  0.73229800  1
  Cu  Cu8  1  0.25909100  0.22199900  0.25348900  1
  C  C9  1  0.10067300  0.46677900  0.89133900  1
  C  C10  1  0.89976500  0.53032400  0.10845200  1
  C  C11  1  0.07763100  0.86021400  0.91590500  1
  C  C12  1  0.91833200  0.13822100  0.08614300  1
  C  C13  1  0.21557100  0.86569900  0.50321200  1
  C  C14  1  0.79468100  0.12997600  0.51169900  1
  C  C15  1  0.27132900  0.54441700  0.49977400  1
  C  C16  1  0.73354100  0.45693600  0.49952500  1
  C  C17  1  0.40691300  0.81004000  0.19747100  1
  C  C18  1  0.58669400  0.18828700  0.78666000  1
