# generated using pymatgen
data_Cu8Ni2C21
_symmetry_space_group_name_H-M   'P 1'
_cell_length_a   9.01174300
_cell_length_b   9.40750400
_cell_length_c   22.22661563
_cell_angle_alpha   72.71349929
_cell_angle_beta   90.00000000
_cell_angle_gamma   90.00000000
_symmetry_Int_Tables_number   1
_chemical_formula_structural   Cu8Ni2C21
_chemical_formula_sum   'Cu32 Ni8 C84'
_cell_volume   1799.21467649
_cell_formula_units_Z   4
loop_
 _symmetry_equiv_pos_site_id
 _symmetry_equiv_pos_as_xyz
  1  'x, y, z'
loop_
 _atom_site_type_symbol
 _atom_site_label
 _atom_site_symmetry_multiplicity
 _atom_site_fract_x
 _atom_site_fract_y
 _atom_site_fract_z
 _atom_site_occupancy
  C  C0  1  0.12370300  0.62788900  0.04136100  1
  C  C1  1  0.87629700  0.37211100  0.95863900  1
  C  C2  1  0.12370300  0.37211100  0.45863900  1
  C  C3  1  0.87629700  0.62788900  0.54136100  1
  Ni  Ni4  1  0.84056700  0.39726600  0.10524800  1
  Ni  Ni5  1  0.15943300  0.60273400  0.89475200  1
  Ni  Ni6  1  0.84056700  0.60273400  0.39475200  1
  Ni  Ni7  1  0.15943300  0.39726600  0.60524800  1
  Ni  Ni8  1  0.29813900  0.81589100  0.12521900  1
  Ni  Ni9  1  0.70186100  0.18410900  0.87478100  1
  Ni  Ni10  1  0.29813900  0.18410900  0.37478100  1
  Ni  Ni11  1  0.70186100  0.81589100  0.62521900  1
  C  C12  1  0.65713900  0.41859400  0.23977200  1
  C  C13  1  0.34286100  0.58140600  0.76022800  1
  C  C14  1  0.65713900  0.58140600  0.26022800  1
  C  C15  1  0.34286100  0.41859400  0.73977200  1
  C  C16  1  0.52312600  0.54603300  0.21104900  1
  C  C17  1  0.47687400  0.45396700  0.78895100  1
  C  C18  1  0.52312600  0.45396700  0.28895100  1
  C  C19  1  0.47687400  0.54603300  0.71104900  1
  C  C20  1  0.34786900  0.81963100  0.29026800  1
  C  C21  1  0.65213100  0.18036900  0.70973200  1
  C  C22  1  0.34786900  0.18036900  0.20973200  1
  C  C23  1  0.65213100  0.81963100  0.79026800  1
  C  C24  1  0.41766900  0.89183400  0.34766200  1
  C  C25  1  0.58233100  0.10816600  0.65233800  1
  C  C26  1  0.41766900  0.10816600  0.15233800  1
  C  C27  1  0.58233100  0.89183400  0.84766200  1
  C  C28  1  0.34232300  0.71746400  0.36640400  1
  C  C29  1  0.65767700  0.28253600  0.63359600  1
  C  C30  1  0.34232300  0.28253600  0.13359600  1
  C  C31  1  0.65767700  0.71746400  0.86640400  1
  C  C32  1  0.51029100  0.75475500  0.32983600  1
  C  C33  1  0.48970900  0.24524500  0.67016400  1
  C  C34  1  0.51029100  0.24524500  0.17016400  1
  C  C35  1  0.48970900  0.75475500  0.82983600  1
  C  C36  1  0.99543300  0.52231200  0.20928100  1
  C  C37  1  0.00456700  0.47768800  0.79071900  1
  C  C38  1  0.99543300  0.47768800  0.29071900  1
  C  C39  1  0.00456700  0.52231200  0.70928100  1
  C  C40  1  0.12465900  0.40582800  0.25441800  1
  C  C41  1  0.87534100  0.59417200  0.74558200  1
  C  C42  1  0.12465900  0.59417200  0.24558200  1
  C  C43  1  0.87534100  0.40582800  0.75441800  1
  C  C44  1  0.83549300  0.04935700  0.15935200  1
  C  C45  1  0.16450700  0.95064300  0.84064800  1
  C  C46  1  0.83549300  0.95064300  0.34064800  1
  C  C47  1  0.16450700  0.04935700  0.65935200  1
  C  C48  1  0.97384800  0.91971900  0.16619400  1
  C  C49  1  0.02615200  0.08028100  0.83380600  1
  C  C50  1  0.97384800  0.08028100  0.33380600  1
  C  C51  1  0.02615200  0.91971900  0.66619400  1
  C  C52  1  0.80127300  0.89203600  0.13895000  1
  C  C53  1  0.19872700  0.10796400  0.86105000  1
  C  C54  1  0.80127300  0.10796400  0.36105000  1
  C  C55  1  0.19872700  0.89203600  0.63895000  1
  C  C56  1  0.91650700  0.02239700  0.09462600  1
  C  C57  1  0.08349300  0.97760300  0.90537400  1
  C  C58  1  0.91650700  0.97760300  0.40537400  1
  C  C59  1  0.08349300  0.02239700  0.59462600  1
  C  C60  1  0.58467200  0.80214600  0.04904700  1
  C  C61  1  0.41532800  0.19785400  0.95095300  1
  C  C62  1  0.58467200  0.19785400  0.45095300  1
  C  C63  1  0.41532800  0.80214600  0.54904700  1
  C  C64  1  0.62718900  0.66521600  0.01447800  1
  C  C65  1  0.37281100  0.33478400  0.98552200  1
  C  C66  1  0.62718900  0.33478400  0.48552200  1
  C  C67  1  0.37281100  0.66521600  0.51447800  1
  C  C68  1  0.53819900  0.82727500  0.97349600  1
  C  C69  1  0.46180100  0.17272500  0.02650400  1
  C  C70  1  0.53819900  0.17272500  0.52650400  1
  C  C71  1  0.46180100  0.82727500  0.47349600  1
  C  C72  1  0.71623400  0.83392600  0.99350200  1
  C  C73  1  0.28376600  0.16607400  0.00649800  1
  C  C74  1  0.71623400  0.16607400  0.50649800  1
  C  C75  1  0.28376600  0.83392600  0.49350200  1
  Cu  Cu76  1  0.76830900  0.24943300  0.19628100  1
  Cu  Cu77  1  0.23169100  0.75056700  0.80371900  1
  Cu  Cu78  1  0.76830900  0.75056700  0.30371900  1
  Cu  Cu79  1  0.23169100  0.24943300  0.69628100  1
  Cu  Cu80  1  0.67436600  0.40903800  0.03201500  1
  Cu  Cu81  1  0.32563400  0.59096200  0.96798500  1
  Cu  Cu82  1  0.67436600  0.59096200  0.46798500  1
  Cu  Cu83  1  0.32563400  0.40903800  0.53201500  1
  Cu  Cu84  1  0.04216800  0.32711100  0.06536700  1
  Cu  Cu85  1  0.95783200  0.67288900  0.93463300  1
  Cu  Cu86  1  0.04216800  0.67288900  0.43463300  1
  Cu  Cu87  1  0.95783200  0.32711100  0.56536700  1
  Cu  Cu88  1  0.89751000  0.61987900  0.11048500  1
  Cu  Cu89  1  0.10249000  0.38012100  0.88951500  1
  Cu  Cu90  1  0.89751000  0.38012100  0.38951500  1
  Cu  Cu91  1  0.10249000  0.61987900  0.61048500  1
  Cu  Cu92  1  0.33048900  0.58112300  0.13102600  1
  Cu  Cu93  1  0.66951100  0.41887700  0.86897400  1
  Cu  Cu94  1  0.33048900  0.41887700  0.36897400  1
  Cu  Cu95  1  0.66951100  0.58112300  0.63102600  1
  Cu  Cu96  1  0.15736600  0.90168000  0.04120900  1
  Cu  Cu97  1  0.84263400  0.09832000  0.95879100  1
  Cu  Cu98  1  0.15736600  0.09832000  0.45879100  1
  Cu  Cu99  1  0.84263400  0.90168000  0.54120900  1
  Cu  Cu100  1  0.51180400  0.93158700  0.11482100  1
  Cu  Cu101  1  0.48819600  0.06841300  0.88517900  1
  Cu  Cu102  1  0.51180400  0.06841300  0.38517900  1
  Cu  Cu103  1  0.48819600  0.93158700  0.61482100  1
  Cu  Cu104  1  0.19018500  0.84430900  0.20902900  1
  Cu  Cu105  1  0.80981500  0.15569100  0.79097100  1
  Cu  Cu106  1  0.19018500  0.15569100  0.29097100  1
  Cu  Cu107  1  0.80981500  0.84430900  0.70902900  1
  C  C108  1  0.59109500  0.50000000  0.25000000  1
  C  C109  1  0.40890500  0.50000000  0.75000000  1
  C  C110  1  0.40392500  0.79513700  0.33359800  1
  C  C111  1  0.59607500  0.20486300  0.66640200  1
  C  C112  1  0.40392500  0.20486300  0.16640200  1
  C  C113  1  0.59607500  0.79513700  0.83359800  1
  C  C114  1  0.05983800  0.50000000  0.25000000  1
  C  C115  1  0.94016200  0.50000000  0.75000000  1
  C  C116  1  0.88034900  0.97047900  0.13998800  1
  C  C117  1  0.11965100  0.02952100  0.86001200  1
  C  C118  1  0.88034900  0.02952100  0.36001200  1
  C  C119  1  0.11965100  0.97047900  0.63998800  1
  C  C120  1  0.61664300  0.77977700  0.00742600  1
  C  C121  1  0.38335700  0.22022300  0.99257400  1
  C  C122  1  0.61664300  0.22022300  0.49257400  1
  C  C123  1  0.38335700  0.77977700  0.50742600  1
