# generated using pymatgen
data_CuNiC19
_symmetry_space_group_name_H-M   'P 1'
_cell_length_a   6.44374600
_cell_length_b   6.47318531
_cell_length_c   6.50734918
_cell_angle_alpha   83.69436051
_cell_angle_beta   83.44790655
_cell_angle_gamma   83.00790856
_symmetry_Int_Tables_number   1
_chemical_formula_structural   CuNiC19
_chemical_formula_sum   'Cu1 Ni1 C19'
_cell_volume   266.38349987
_cell_formula_units_Z   1
loop_
 _symmetry_equiv_pos_site_id
 _symmetry_equiv_pos_as_xyz
  1  'x, y, z'
loop_
 _atom_site_type_symbol
 _atom_site_label
 _atom_site_symmetry_multiplicity
 _atom_site_fract_x
 _atom_site_fract_y
 _atom_site_fract_z
 _atom_site_occupancy
  C  C0  1  0.66125300  0.65293100  0.66024400  1
  C  C1  1  0.33874700  0.34706900  0.33975600  1
  C  C2  1  0.71344800  0.00186600  0.28488900  1
  C  C3  1  0.00044200  0.28294000  0.71703000  1
  C  C4  1  0.29166100  0.71011100  0.99839700  1
  C  C5  1  0.99955800  0.71706000  0.28297000  1
  C  C6  1  0.70833900  0.28988900  0.00160300  1
  C  C7  1  0.28655200  0.99813400  0.71511100  1
  C  C8  1  0.90413700  0.90472900  0.90467900  1
  C  C9  1  0.09586300  0.09527100  0.09532100  1
  C  C10  1  0.34504400  0.85262700  0.34057300  1
  C  C11  1  0.85072000  0.34342100  0.34079500  1
  C  C12  1  0.34420500  0.34266900  0.85240700  1
  C  C13  1  0.65495600  0.14737300  0.65942700  1
  C  C14  1  0.14928000  0.65657900  0.65920500  1
  C  C15  1  0.65579500  0.65733100  0.14759300  1
  C  C16  1  0.00000000  0.50000000  0.00000000  1
  C  C17  1  0.50000000  0.00000000  0.00000000  1
  C  C18  1  0.00000000  0.00000000  0.50000000  1
  Ni  Ni19  1  0.50000000  0.00000000  0.50000000  1
  Cu  Cu20  1  0.00000000  0.50000000  0.50000000  1
