# generated using pymatgen
data_Cu10Ni30C7
_symmetry_space_group_name_H-M   'P 1'
_cell_length_a   14.48818557
_cell_length_b   14.62571669
_cell_length_c   19.35868261
_cell_angle_alpha   81.83977696
_cell_angle_beta   68.95000915
_cell_angle_gamma   65.15493318
_symmetry_Int_Tables_number   1
_chemical_formula_structural   Cu10Ni30C7
_chemical_formula_sum   'Cu60 Ni180 C42'
_cell_volume   3473.84200262
_cell_formula_units_Z   6
loop_
 _symmetry_equiv_pos_site_id
 _symmetry_equiv_pos_as_xyz
  1  'x, y, z'
loop_
 _atom_site_type_symbol
 _atom_site_label
 _atom_site_symmetry_multiplicity
 _atom_site_fract_x
 _atom_site_fract_y
 _atom_site_fract_z
 _atom_site_occupancy
  C  C0  1  0.26092575  0.00285801  0.75676383  1
  C  C1  1  0.73907425  0.99714199  0.24323617  1
  C  C2  1  0.34560978  0.78394561  0.74548149  1
  C  C3  1  0.65439022  0.21605439  0.25451851  1
  C  C4  1  0.43454018  0.56720158  0.72621314  1
  C  C5  1  0.56545982  0.43279842  0.27378686  1
  C  C6  1  0.98421847  0.07726090  0.71168221  1
  C  C7  1  0.01578153  0.92273910  0.28831779  1
  C  C8  1  0.11769065  0.90921965  0.70421089  1
  C  C9  1  0.88230935  0.09078035  0.29578911  1
  C  C10  1  0.03974601  0.80538511  0.78970678  1
  C  C11  1  0.96025399  0.19461489  0.21029322  1
  C  C12  1  0.17132167  0.67867840  0.83801650  1
  C  C13  1  0.82867833  0.32132160  0.16198350  1
  C  C14  1  0.15380336  0.52219217  0.84201235  1
  C  C15  1  0.84619664  0.47780783  0.15798765  1
  C  C16  1  0.17967429  0.85157952  0.58006701  1
  C  C17  1  0.82032571  0.14842048  0.41993299  1
  C  C18  1  0.13430012  0.72680836  0.96147117  1
  C  C19  1  0.86569988  0.27319164  0.03852883  1
  C  C20  1  0.48675452  0.02305890  0.83230849  1
  C  C21  1  0.51324548  0.97694110  0.16769151  1
  C  C22  1  0.48999607  0.87229984  0.79420610  1
  C  C23  1  0.51000393  0.12770016  0.20579390  1
  C  C24  1  0.60734680  0.82760055  0.67036740  1
  C  C25  1  0.39265320  0.17239945  0.32963260  1
  C  C26  1  0.61116073  0.67459638  0.63645695  1
  C  C27  1  0.38883927  0.32540362  0.36354305  1
  C  C28  1  0.64257564  0.67034298  0.50586836  1
  C  C29  1  0.35742436  0.32965702  0.49413164  1
  C  C30  1  0.53543546  0.74941547  0.88471761  1
  C  C31  1  0.46456454  0.25058453  0.11528239  1
  C  C32  1  0.76252523  0.52595498  0.65055634  1
  C  C33  1  0.23747477  0.47404502  0.34944366  1
  Ni  Ni34  1  0.12995851  0.18676086  0.76077888  1
  Ni  Ni35  1  0.87004149  0.81323914  0.23922112  1
  Ni  Ni36  1  0.22592688  0.17275415  0.80328013  1
  Ni  Ni37  1  0.77407312  0.82724585  0.19671987  1
  Ni  Ni38  1  0.26382610  0.17061746  0.70474870  1
  Ni  Ni39  1  0.73617390  0.82938254  0.29525130  1
  Ni  Ni40  1  0.43912113  0.39146496  0.72200487  1
  Ni  Ni41  1  0.56087887  0.60853504  0.27799513  1
  Ni  Ni42  1  0.55219340  0.40531284  0.65134894  1
  Ni  Ni43  1  0.44780660  0.59468716  0.34865106  1
  Ni  Ni44  1  0.55019868  0.38518296  0.74492459  1
  Ni  Ni45  1  0.44980132  0.61481704  0.25507541  1
  Ni  Ni46  1  0.12238732  0.14794699  0.63742733  1
  Ni  Ni47  1  0.87761268  0.85205301  0.36257267  1
  Ni  Ni48  1  0.03998791  0.15108471  0.58677445  1
  Ni  Ni49  1  0.96001209  0.84891529  0.41322555  1
  Ni  Ni50  1  0.98877684  0.24137544  0.65819717  1
  Ni  Ni51  1  0.01122316  0.75862456  0.34180283  1
  Ni  Ni52  1  0.88634029  0.09507196  0.84793159  1
  Ni  Ni53  1  0.11365971  0.90492804  0.15206841  1
  Ni  Ni54  1  0.99236023  0.13777495  0.82379966  1
  Ni  Ni55  1  0.00763977  0.86222505  0.17620034  1
  Ni  Ni56  1  0.87068473  0.21463639  0.80531504  1
  Ni  Ni57  1  0.12931527  0.78536361  0.19468496  1
  Ni  Ni58  1  0.80391989  0.15675350  0.69732002  1
  Ni  Ni59  1  0.19608011  0.84324650  0.30267998  1
  Ni  Ni60  1  0.88745477  0.05271834  0.63504798  1
  Ni  Ni61  1  0.11254523  0.94728166  0.36495202  1
  Ni  Ni62  1  0.82649329  0.03210586  0.73030355  1
  Ni  Ni63  1  0.17350671  0.96789414  0.26969645  1
  Ni  Ni64  1  0.93233183  0.81007126  0.71240550  1
  Ni  Ni65  1  0.06766817  0.18992874  0.28759450  1
  Ni  Ni66  1  0.04720098  0.69341454  0.69774592  1
  Ni  Ni67  1  0.95279902  0.30658546  0.30225408  1
  Ni  Ni68  1  0.93274712  0.71378314  0.77966187  1
  Ni  Ni69  1  0.06725288  0.28621686  0.22033813  1
  Ni  Ni70  1  0.87805425  0.83451808  0.90333055  1
  Ni  Ni71  1  0.12194575  0.16548192  0.09666945  1
  Ni  Ni72  1  0.93839941  0.91823555  0.90393658  1
  Ni  Ni73  1  0.06160059  0.08176445  0.09606342  1
  Ni  Ni74  1  0.85812590  0.94288922  0.84671066  1
  Ni  Ni75  1  0.14187410  0.05711078  0.15328934  1
  Ni  Ni76  1  0.19518168  0.39372828  0.75238024  1
  Ni  Ni77  1  0.80481832  0.60627172  0.24761976  1
  Ni  Ni78  1  0.13021750  0.51698154  0.72111911  1
  Ni  Ni79  1  0.86978250  0.48301846  0.27888089  1
  Ni  Ni80  1  0.26993667  0.46910440  0.71002557  1
  Ni  Ni81  1  0.73006333  0.53089560  0.28997443  1
  Ni  Ni82  1  0.97601560  0.57670269  0.94761519  1
  Ni  Ni83  1  0.02398440  0.42329731  0.05238481  1
  Ni  Ni84  1  0.95536504  0.58819793  0.86108071  1
  Ni  Ni85  1  0.04463496  0.41180207  0.13891929  1
  Ni  Ni86  1  0.00282399  0.46757839  0.90069558  1
  Ni  Ni87  1  0.99717601  0.53242161  0.09930442  1
  Ni  Ni88  1  0.32472399  0.40521859  0.86712914  1
  Ni  Ni89  1  0.67527601  0.59478141  0.13287086  1
  Ni  Ni90  1  0.21207211  0.43921638  0.95070399  1
  Ni  Ni91  1  0.78792789  0.56078362  0.04929601  1
  Ni  Ni92  1  0.22957638  0.34967174  0.88869865  1
  Ni  Ni93  1  0.77042362  0.65032826  0.11130135  1
  Ni  Ni94  1  0.35407649  0.72098043  0.59034466  1
  Ni  Ni95  1  0.64592351  0.27901957  0.40965534  1
  Ni  Ni96  1  0.25810861  0.66768079  0.60626940  1
  Ni  Ni97  1  0.74189139  0.33231921  0.39373060  1
  Ni  Ni98  1  0.32743577  0.69419421  0.51436919  1
  Ni  Ni99  1  0.67256423  0.30580579  0.48563081  1
  Ni  Ni100  1  0.28385266  0.89711491  0.45806692  1
  Ni  Ni101  1  0.71614734  0.10288509  0.54193308  1
  Ni  Ni102  1  0.17344407  0.00699861  0.50434183  1
  Ni  Ni103  1  0.82655593  0.99300139  0.49565817  1
  Ni  Ni104  1  0.29244388  0.95521646  0.52887878  1
  Ni  Ni105  1  0.70755612  0.04478354  0.47112122  1
  Ni  Ni106  1  0.11429583  0.82223921  0.48804123  1
  Ni  Ni107  1  0.88570417  0.17776079  0.51195877  1
  Ni  Ni108  1  0.04484598  0.78637474  0.57605832  1
  Ni  Ni109  1  0.95515402  0.21362526  0.42394168  1
  Ni  Ni110  1  0.00555039  0.91605566  0.55192139  1
  Ni  Ni111  1  0.99444961  0.08394434  0.44807861  1
  Ni  Ni112  1  0.93294148  0.82519754  0.01602060  1
  Ni  Ni113  1  0.06705852  0.17480246  0.98397940  1
  Ni  Ni114  1  0.96381201  0.69384377  0.02085078  1
  Ni  Ni115  1  0.03618799  0.30615623  0.97914922  1
  Ni  Ni116  1  0.99037416  0.75052215  0.08263273  1
  Ni  Ni117  1  0.00962584  0.24947785  0.91736727  1
  Ni  Ni118  1  0.19628635  0.56834742  0.03211280  1
  Ni  Ni119  1  0.80371365  0.43165258  0.96788720  1
  Ni  Ni120  1  0.30991922  0.59352521  0.97426303  1
  Ni  Ni121  1  0.69008078  0.40647479  0.02573697  1
  Ni  Ni122  1  0.22236209  0.66536991  0.05685010  1
  Ni  Ni123  1  0.77763791  0.33463009  0.94314990  1
  Ni  Ni124  1  0.14020612  0.86942620  0.01369423  1
  Ni  Ni125  1  0.85979388  0.13057380  0.98630577  1
  Ni  Ni126  1  0.23707296  0.83884227  0.92309280  1
  Ni  Ni127  1  0.76292704  0.16115773  0.07690720  1
  Ni  Ni128  1  0.09822474  0.90896002  0.93456893  1
  Ni  Ni129  1  0.90177526  0.09103998  0.06543107  1
  Ni  Ni130  1  0.28834793  0.10980726  0.90373494  1
  Ni  Ni131  1  0.71165207  0.89019274  0.09626506  1
  Ni  Ni132  1  0.36088113  0.03557556  0.96314983  1
  Ni  Ni133  1  0.63911887  0.96442444  0.03685017  1
  Ni  Ni134  1  0.36775775  0.15370960  0.93064918  1
  Ni  Ni135  1  0.63224225  0.84629040  0.06935082  1
  Ni  Ni136  1  0.49076355  0.18772972  0.78291655  1
  Ni  Ni137  1  0.50923645  0.81227028  0.21708345  1
  Ni  Ni138  1  0.57256344  0.09292512  0.71298562  1
  Ni  Ni139  1  0.42743656  0.90707488  0.28701438  1
  Ni  Ni140  1  0.42950103  0.14705604  0.73559603  1
  Ni  Ni141  1  0.57049897  0.85294396  0.26440397  1
  Ni  Ni142  1  0.61910932  0.05364250  0.86866369  1
  Ni  Ni143  1  0.38089068  0.94635750  0.13133631  1
  Ni  Ni144  1  0.60467484  0.94261129  0.91202569  1
  Ni  Ni145  1  0.39532516  0.05738871  0.08797431  1
  Ni  Ni146  1  0.68471897  0.93894663  0.81719657  1
  Ni  Ni147  1  0.31528103  0.06105337  0.18280343  1
  Ni  Ni148  1  0.73002650  0.91175415  0.65581978  1
  Ni  Ni149  1  0.26997350  0.08824585  0.34418022  1
  Ni  Ni150  1  0.78841806  0.78484115  0.68401135  1
  Ni  Ni151  1  0.21158194  0.21515885  0.31598865  1
  Ni  Ni152  1  0.79308012  0.81152289  0.59043919  1
  Ni  Ni153  1  0.20691988  0.18847711  0.40956081  1
  Ni  Ni154  1  0.58688688  0.92806458  0.55713714  1
  Ni  Ni155  1  0.41311312  0.07193542  0.44286286  1
  Ni  Ni156  1  0.46012897  0.92769705  0.61441237  1
  Ni  Ni157  1  0.53987103  0.07230295  0.38558763  1
  Ni  Ni158  1  0.51131425  0.00702206  0.63692672  1
  Ni  Ni159  1  0.48868575  0.99297794  0.36307328  1
  Ni  Ni160  1  0.61057565  0.57420610  0.42743815  1
  Ni  Ni161  1  0.38942435  0.42579390  0.57256185  1
  Ni  Ni162  1  0.68289867  0.48947906  0.48355034  1
  Ni  Ni163  1  0.31710133  0.51052094  0.51644966  1
  Ni  Ni164  1  0.54155470  0.55989488  0.52205533  1
  Ni  Ni165  1  0.45844530  0.44010512  0.47794467  1
  Ni  Ni166  1  0.80601686  0.71323467  0.46053716  1
  Ni  Ni167  1  0.19398314  0.28676533  0.53946284  1
  Ni  Ni168  1  0.84667877  0.58020340  0.46052938  1
  Ni  Ni169  1  0.15332123  0.41979660  0.53947062  1
  Ni  Ni170  1  0.79664924  0.65408978  0.39080822  1
  Ni  Ni171  1  0.20335076  0.34591022  0.60919178  1
  Ni  Ni172  1  0.56567484  0.76971786  0.41133295  1
  Ni  Ni173  1  0.43432516  0.23028214  0.58866705  1
  Ni  Ni174  1  0.46886923  0.81273304  0.50000225  1
  Ni  Ni175  1  0.53113077  0.18726696  0.49999775  1
  Ni  Ni176  1  0.57838908  0.85098361  0.46424827  1
  Ni  Ni177  1  0.42161092  0.14901639  0.53575173  1
  Ni  Ni178  1  0.47922715  0.73156516  0.02037345  1
  Ni  Ni179  1  0.52077285  0.26843484  0.97962655  1
  Ni  Ni180  1  0.48522592  0.85151417  0.99680988  1
  Ni  Ni181  1  0.51477408  0.14848583  0.00319012  1
  Ni  Ni182  1  0.37232992  0.83141189  0.99639372  1
  Ni  Ni183  1  0.62767008  0.16858811  0.00360628  1
  Ni  Ni184  1  0.70261127  0.63378377  0.90924379  1
  Ni  Ni185  1  0.29738873  0.36621623  0.09075621  1
  Ni  Ni186  1  0.73588193  0.67182666  0.81518470  1
  Ni  Ni187  1  0.26411807  0.32817334  0.18481530  1
  Ni  Ni188  1  0.70595937  0.75477406  0.88650079  1
  Ni  Ni189  1  0.29404063  0.24522594  0.11349921  1
  Ni  Ni190  1  0.41420043  0.66597558  0.88920669  1
  Ni  Ni191  1  0.58579957  0.33402442  0.11079331  1
  Ni  Ni192  1  0.54184579  0.61041708  0.81919874  1
  Ni  Ni193  1  0.45815421  0.38958292  0.18080126  1
  Ni  Ni194  1  0.52810260  0.58067269  0.91394381  1
  Ni  Ni195  1  0.47189740  0.41932731  0.08605619  1
  Ni  Ni196  1  0.73591092  0.51406869  0.78708735  1
  Ni  Ni197  1  0.26408908  0.48593131  0.21291265  1
  Ni  Ni198  1  0.67828547  0.44148459  0.76375653  1
  Ni  Ni199  1  0.32171453  0.55851541  0.23624347  1
  Ni  Ni200  1  0.82061952  0.39690275  0.73952338  1
  Ni  Ni201  1  0.17938048  0.60309725  0.26047662  1
  Ni  Ni202  1  0.87678015  0.35832022  0.59032166  1
  Ni  Ni203  1  0.12321985  0.64167978  0.40967834  1
  Ni  Ni204  1  0.74109474  0.39246755  0.59583355  1
  Ni  Ni205  1  0.25890526  0.60753245  0.40416645  1
  Ni  Ni206  1  0.82421163  0.44504024  0.52628702  1
  Ni  Ni207  1  0.17578837  0.55495976  0.47371298  1
  Ni  Ni208  1  0.95459673  0.48835403  0.62647091  1
  Ni  Ni209  1  0.04540327  0.51164597  0.37352909  1
  Ni  Ni210  1  0.90210421  0.59450796  0.57339753  1
  Ni  Ni211  1  0.09789579  0.40549204  0.42660247  1
  Ni  Ni212  1  0.87307383  0.60887254  0.66955038  1
  Ni  Ni213  1  0.12692617  0.39112746  0.33044962  1
  Cu  Cu214  1  0.21514938  0.14814349  0.75680176  1
  Cu  Cu215  1  0.78485062  0.85185651  0.24319824  1
  Cu  Cu216  1  0.50031450  0.42257031  0.70947569  1
  Cu  Cu217  1  0.49968550  0.57742969  0.29052431  1
  Cu  Cu218  1  0.03970856  0.16191727  0.64181766  1
  Cu  Cu219  1  0.96029144  0.83808273  0.35818234  1
  Cu  Cu220  1  0.92863765  0.13637078  0.80644118  1
  Cu  Cu221  1  0.07136235  0.86362922  0.19355882  1
  Cu  Cu222  1  0.86493315  0.07865568  0.69151607  1
  Cu  Cu223  1  0.13506685  0.92134432  0.30848393  1
  Cu  Cu224  1  0.98342906  0.74962373  0.73980278  1
  Cu  Cu225  1  0.01657094  0.25037627  0.26019722  1
  Cu  Cu226  1  0.91750542  0.88299379  0.86859372  1
  Cu  Cu227  1  0.08249458  0.11700621  0.13140628  1
  Cu  Cu228  1  0.19107481  0.47128143  0.74703530  1
  Cu  Cu229  1  0.80892519  0.52871857  0.25296470  1
  Cu  Cu230  1  0.00804070  0.54159399  0.89288175  1
  Cu  Cu231  1  0.99195930  0.45840601  0.10711825  1
  Cu  Cu232  1  0.23840259  0.42004046  0.89206726  1
  Cu  Cu233  1  0.76159741  0.57995954  0.10793274  1
  Cu  Cu234  1  0.29028605  0.72131241  0.57212797  1
  Cu  Cu235  1  0.70971395  0.27868759  0.42787203  1
  Cu  Cu236  1  0.23771529  0.93619170  0.51207030  1
  Cu  Cu237  1  0.76228471  0.06380830  0.48792970  1
  Cu  Cu238  1  0.07500542  0.84369547  0.54709372  1
  Cu  Cu239  1  0.92499458  0.15630453  0.45290628  1
  Cu  Cu240  1  0.99156265  0.75139061  0.02532717  1
  Cu  Cu241  1  0.00843735  0.24860939  0.97467283  1
  Cu  Cu242  1  0.22527045  0.62846240  0.00981592  1
  Cu  Cu243  1  0.77472955  0.37153760  0.99018408  1
  Cu  Cu244  1  0.15477610  0.84722781  0.95748899  1
  Cu  Cu245  1  0.84522390  0.15277219  0.04251101  1
  Cu  Cu246  1  0.36413120  0.08588864  0.91529541  1
  Cu  Cu247  1  0.63586880  0.91411136  0.08470459  1
  Cu  Cu248  1  0.49532621  0.12160031  0.75855977  1
  Cu  Cu249  1  0.50467379  0.87839969  0.24144023  1
  Cu  Cu250  1  0.61060931  0.98503724  0.86021660  1
  Cu  Cu251  1  0.38939069  0.01496276  0.13978340  1
  Cu  Cu252  1  0.74315250  0.83349392  0.64838351  1
  Cu  Cu253  1  0.25684750  0.16650608  0.35161649  1
  Cu  Cu254  1  0.53367649  0.93263827  0.61484663  1
  Cu  Cu255  1  0.46632351  0.06736173  0.38515337  1
  Cu  Cu256  1  0.61729153  0.56288843  0.48321417  1
  Cu  Cu257  1  0.38270847  0.43711157  0.51678583  1
  Cu  Cu258  1  0.78676899  0.65245688  0.45008187  1
  Cu  Cu259  1  0.21323101  0.34754312  0.54991813  1
  Cu  Cu260  1  0.55506706  0.78771948  0.46784336  1
  Cu  Cu261  1  0.44493294  0.21228052  0.53215664  1
  Cu  Cu262  1  0.46031684  0.79667449  0.98365790  1
  Cu  Cu263  1  0.53968316  0.20332551  0.01634210  1
  Cu  Cu264  1  0.68424949  0.69828555  0.87197555  1
  Cu  Cu265  1  0.31575051  0.30171445  0.12802445  1
  Cu  Cu266  1  0.50167772  0.64126812  0.87568715  1
  Cu  Cu267  1  0.49832228  0.35873188  0.12431285  1
  Cu  Cu268  1  0.74607843  0.46519654  0.74471839  1
  Cu  Cu269  1  0.25392157  0.53480346  0.25528161  1
  Cu  Cu270  1  0.80408548  0.42131069  0.58412153  1
  Cu  Cu271  1  0.19591452  0.57868931  0.41587847  1
  Cu  Cu272  1  0.88370579  0.55877102  0.62762045  1
  Cu  Cu273  1  0.11629421  0.44122898  0.37237955  1
  C  C274  1  0.22615620  0.90360143  0.72280030  1
  C  C275  1  0.77384380  0.09639857  0.27719970  1
  C  C276  1  0.37110999  0.88485185  0.78750292  1
  C  C277  1  0.62889001  0.11514815  0.21249708  1
  C  C278  1  0.29650577  0.67219259  0.78474037  1
  C  C279  1  0.70349423  0.32780741  0.21525963  1
  C  C280  1  0.48623763  0.67710868  0.68635784  1
  C  C281  1  0.51376237  0.32289132  0.31364216  1
