# generated using pymatgen
data_Cu8NiC16
_symmetry_space_group_name_H-M   'P 1'
_cell_length_a   4.90967213
_cell_length_b   10.68755756
_cell_length_c   5.65857929
_cell_angle_alpha   84.78931012
_cell_angle_beta   89.17459364
_cell_angle_gamma   89.84303531
_symmetry_Int_Tables_number   1
_chemical_formula_structural   Cu8NiC16
_chemical_formula_sum   'Cu8 Ni1 C16'
_cell_volume   295.66124068
_cell_formula_units_Z   1
loop_
 _symmetry_equiv_pos_site_id
 _symmetry_equiv_pos_as_xyz
  1  'x, y, z'
loop_
 _atom_site_type_symbol
 _atom_site_label
 _atom_site_symmetry_multiplicity
 _atom_site_fract_x
 _atom_site_fract_y
 _atom_site_fract_z
 _atom_site_occupancy
  Ni  Ni0  1  0.49100560  0.85731500  0.87060340  1
  Cu  Cu1  1  0.47591361  0.26660117  0.73321249  1
  Cu  Cu2  1  0.51254345  0.00199968  0.45381537  1
  Cu  Cu3  1  0.52809625  0.71059047  0.30631439  1
  Cu  Cu4  1  0.49304424  0.50852503  0.01131214  1
  Cu  Cu5  1  0.97883250  0.24184876  0.24350032  1
  Cu  Cu6  1  0.00970493  0.75294499  0.75211023  1
  Cu  Cu7  1  0.98731449  0.47681012  0.52077771  1
  Cu  Cu8  1  0.01744464  0.02445416  0.96915999  1
  C  C9  1  0.80694080  0.30763919  0.52493443  1
  C  C10  1  0.80042596  0.07010648  0.24961032  1
  C  C11  1  0.65279990  0.82818340  0.54555978  1
  C  C12  1  0.71563288  0.55701983  0.30679109  1
  C  C13  1  0.31059968  0.42604998  0.72208064  1
  C  C14  1  0.34611432  0.69435581  0.99340701  1
  C  C15  1  0.18825948  0.94136748  0.70261181  1
  C  C16  1  0.18932549  0.18363490  0.96319750  1
  C  C17  1  0.82514716  0.57144107  0.79441199  1
  C  C18  1  0.82711687  0.83598490  0.04779295  1
  C  C19  1  0.66719050  0.06649757  0.76581230  1
  C  C20  1  0.68913469  0.32333815  0.02397636  1
  C  C21  1  0.32888307  0.93085931  0.17116036  1
  C  C22  1  0.30457133  0.17547094  0.44992771  1
  C  C23  1  0.18292969  0.65781471  0.48183268  1
  C  C24  1  0.18491745  0.41414692  0.22942004  1
