# generated using pymatgen
data_Cu2NiC
_symmetry_space_group_name_H-M   'P 1'
_cell_length_a   4.67113847
_cell_length_b   4.67113847
_cell_length_c   6.32006511
_cell_angle_alpha   73.39315563
_cell_angle_beta   73.39315563
_cell_angle_gamma   95.42751436
_symmetry_Int_Tables_number   1
_chemical_formula_structural   Cu2NiC
_chemical_formula_sum   'Cu4 Ni2 C2'
_cell_volume   124.28187264
_cell_formula_units_Z   2
loop_
 _symmetry_equiv_pos_site_id
 _symmetry_equiv_pos_as_xyz
  1  'x, y, z'
loop_
 _atom_site_type_symbol
 _atom_site_label
 _atom_site_symmetry_multiplicity
 _atom_site_fract_x
 _atom_site_fract_y
 _atom_site_fract_z
 _atom_site_occupancy
  C  C0  1  0.85632800  0.14367200  0.25000000  1
  C  C1  1  0.14367200  0.85632800  0.75000000  1
  Ni  Ni2  1  0.27049900  0.72950100  0.25000000  1
  Ni  Ni3  1  0.72950100  0.27049900  0.75000000  1
  Cu  Cu4  1  0.05362900  0.66533500  0.18127900  1
  Cu  Cu5  1  0.33466500  0.94637100  0.31872100  1
  Cu  Cu6  1  0.94637100  0.33466500  0.81872100  1
  Cu  Cu7  1  0.66533500  0.05362900  0.68127900  1
