# generated using pymatgen
data_Cu2NiC2
_symmetry_space_group_name_H-M   'P 1'
_cell_length_a   4.04971600
_cell_length_b   5.39969044
_cell_length_c   5.39969044
_cell_angle_alpha   60.74777918
_cell_angle_beta   67.97598378
_cell_angle_gamma   67.97598378
_symmetry_Int_Tables_number   1
_chemical_formula_structural   Cu2NiC2
_chemical_formula_sum   'Cu2 Ni1 C2'
_cell_volume   92.77843981
_cell_formula_units_Z   1
loop_
 _symmetry_equiv_pos_site_id
 _symmetry_equiv_pos_as_xyz
  1  'x, y, z'
loop_
 _atom_site_type_symbol
 _atom_site_label
 _atom_site_symmetry_multiplicity
 _atom_site_fract_x
 _atom_site_fract_y
 _atom_site_fract_z
 _atom_site_occupancy
  C  C0  1  0.20685900  0.29314100  0.29314100  1
  C  C1  1  0.79314100  0.70685900  0.70685900  1
  Ni  Ni2  1  0.00000000  0.00000000  0.00000000  1
  Cu  Cu3  1  0.50000000  0.28628600  0.71371400  1
  Cu  Cu4  1  0.50000000  0.71371400  0.28628600  1
