# generated using pymatgen
data_Cu2NiC4
_symmetry_space_group_name_H-M   'P 1'
_cell_length_a   7.93144000
_cell_length_b   8.15634202
_cell_length_c   11.91085497
_cell_angle_alpha   71.92879150
_cell_angle_beta   73.62642482
_cell_angle_gamma   66.16529616
_symmetry_Int_Tables_number   1
_chemical_formula_structural   Cu2NiC4
_chemical_formula_sum   'Cu16 Ni8 C32'
_cell_volume   659.10226530
_cell_formula_units_Z   8
loop_
 _symmetry_equiv_pos_site_id
 _symmetry_equiv_pos_as_xyz
  1  'x, y, z'
loop_
 _atom_site_type_symbol
 _atom_site_label
 _atom_site_symmetry_multiplicity
 _atom_site_fract_x
 _atom_site_fract_y
 _atom_site_fract_z
 _atom_site_occupancy
  C  C0  1  0.72024500  0.46642700  0.94346900  1
  C  C1  1  0.27975500  0.53357300  0.05653100  1
  C  C2  1  0.63651100  0.64523200  0.00667900  1
  C  C3  1  0.36348900  0.35476800  0.99332100  1
  C  C4  1  0.24113700  0.52246600  0.62947200  1
  C  C5  1  0.75886300  0.47753400  0.37052800  1
  C  C6  1  0.12621900  0.40608000  0.74247900  1
  C  C7  1  0.87378100  0.59392000  0.25752100  1
  C  C8  1  0.81868600  0.94240000  0.92035700  1
  C  C9  1  0.18131400  0.05760000  0.07964300  1
  C  C10  1  0.71946100  0.89604500  0.51342300  1
  C  C11  1  0.28053900  0.10395500  0.48657700  1
  C  C12  1  0.92985100  0.06071500  0.80942200  1
  C  C13  1  0.07014900  0.93928500  0.19057800  1
  C  C14  1  0.63645400  0.07982000  0.57096200  1
  C  C15  1  0.36354600  0.92018000  0.42903800  1
  C  C16  1  0.72031400  0.06735000  0.80222500  1
  C  C17  1  0.27968600  0.93265000  0.19777500  1
  C  C18  1  0.68216200  0.10497200  0.42299100  1
  C  C19  1  0.31783800  0.89502800  0.57700900  1
  C  C20  1  0.68309700  0.43368400  0.09239000  1
  C  C21  1  0.31690300  0.56631600  0.90761000  1
  C  C22  1  0.03397000  0.52555100  0.62070100  1
  C  C23  1  0.96603000  0.47444900  0.37929900  1
  C  C24  1  0.00000000  0.50000000  0.00000000  1
  C  C25  1  0.00000000  0.00000000  0.50000000  1
  C  C26  1  0.97734600  0.75576000  0.75200200  1
  C  C27  1  0.02265400  0.24424000  0.24799800  1
  Ni  Ni28  1  0.72770800  0.51214700  0.01258000  1
  Ni  Ni29  1  0.27229200  0.48785300  0.98742000  1
  Ni  Ni30  1  0.11070100  0.52528600  0.67717700  1
  Ni  Ni31  1  0.88929900  0.47471400  0.32282300  1
  Ni  Ni32  1  0.84596800  0.98334900  0.82867500  1
  Ni  Ni33  1  0.15403200  0.01665100  0.17132500  1
  Ni  Ni34  1  0.72773300  0.02313000  0.50131000  1
  Ni  Ni35  1  0.27226700  0.97687000  0.49869000  1
  C  C36  1  0.67222800  0.96574300  0.15977600  1
  C  C37  1  0.32777200  0.03425700  0.84022400  1
  C  C38  1  0.35774000  0.49985200  0.33597000  1
  C  C39  1  0.64226000  0.50014800  0.66403000  1
  Cu  Cu40  1  0.55393100  0.38499300  0.30469900  1
  Cu  Cu41  1  0.44606900  0.61500700  0.69530100  1
  Cu  Cu42  1  0.59103900  0.86425100  0.12106500  1
  Cu  Cu43  1  0.40896100  0.13574900  0.87893500  1
  Cu  Cu44  1  0.25633500  0.38717800  0.42817200  1
  Cu  Cu45  1  0.74366500  0.61282200  0.57182800  1
  Cu  Cu46  1  0.27018400  0.57678100  0.22938400  1
  Cu  Cu47  1  0.72981600  0.42321900  0.77061600  1
  Cu  Cu48  1  0.34861400  0.64857300  0.38356500  1
  Cu  Cu49  1  0.65138600  0.35142700  0.61643500  1
  Cu  Cu50  1  0.61758800  0.15680200  0.09322400  1
  Cu  Cu51  1  0.38241200  0.84319800  0.90677600  1
  Cu  Cu52  1  0.60876200  0.95546800  0.28858100  1
  Cu  Cu53  1  0.39123800  0.04453200  0.71141900  1
  Cu  Cu54  1  0.87783200  0.87948800  0.13474100  1
  Cu  Cu55  1  0.12216800  0.12051200  0.86525900  1
