# generated using pymatgen
data_CuNiC2
_symmetry_space_group_name_H-M   'P 1'
_cell_length_a   10.58526470
_cell_length_b   10.58526470
_cell_length_c   10.58526531
_cell_angle_alpha   21.70469489
_cell_angle_beta   21.70469489
_cell_angle_gamma   21.70469758
_symmetry_Int_Tables_number   1
_chemical_formula_structural   CuNiC2
_chemical_formula_sum   'Cu2 Ni2 C4'
_cell_volume   142.16222279
_cell_formula_units_Z   2
loop_
 _symmetry_equiv_pos_site_id
 _symmetry_equiv_pos_as_xyz
  1  'x, y, z'
loop_
 _atom_site_type_symbol
 _atom_site_label
 _atom_site_symmetry_multiplicity
 _atom_site_fract_x
 _atom_site_fract_y
 _atom_site_fract_z
 _atom_site_occupancy
  C  C0  1  0.61896400  0.61896400  0.61896400  1
  C  C1  1  0.38103600  0.38103600  0.38103600  1
  Ni  Ni2  1  0.19609300  0.19609300  0.19609300  1
  Ni  Ni3  1  0.80390700  0.80390700  0.80390700  1
  Cu  Cu4  1  0.11369400  0.11369400  0.11369400  1
  Cu  Cu5  1  0.88630600  0.88630600  0.88630600  1
  C  C6  1  0.69501800  0.69501800  0.69501800  1
  C  C7  1  0.30498200  0.30498200  0.30498200  1
