# generated using pymatgen
data_Cu4Ni2C9
_symmetry_space_group_name_H-M   'P 1'
_cell_length_a   6.10096900
_cell_length_b   7.79249100
_cell_length_c   10.72154100
_cell_angle_alpha   90.00000000
_cell_angle_beta   90.00000000
_cell_angle_gamma   90.00000000
_symmetry_Int_Tables_number   1
_chemical_formula_structural   Cu4Ni2C9
_chemical_formula_sum   'Cu16 Ni8 C36'
_cell_volume   509.72077921
_cell_formula_units_Z   4
loop_
 _symmetry_equiv_pos_site_id
 _symmetry_equiv_pos_as_xyz
  1  'x, y, z'
loop_
 _atom_site_type_symbol
 _atom_site_label
 _atom_site_symmetry_multiplicity
 _atom_site_fract_x
 _atom_site_fract_y
 _atom_site_fract_z
 _atom_site_occupancy
  C  C0  1  0.38709200  0.89007500  0.31826600  1
  C  C1  1  0.88709200  0.10992500  0.68173400  1
  C  C2  1  0.11290800  0.39007500  0.18173400  1
  C  C3  1  0.61290800  0.60992500  0.81826600  1
  C  C4  1  0.61290800  0.10992500  0.68173400  1
  C  C5  1  0.11290800  0.89007500  0.31826600  1
  C  C6  1  0.88709200  0.60992500  0.81826600  1
  C  C7  1  0.38709200  0.39007500  0.18173400  1
  C  C8  1  0.75000000  0.00666100  0.79495400  1
  C  C9  1  0.25000000  0.99333900  0.20504600  1
  C  C10  1  0.75000000  0.50666100  0.70504600  1
  C  C11  1  0.25000000  0.49333900  0.29495400  1
  C  C12  1  0.75000000  0.92423600  0.64826500  1
  C  C13  1  0.25000000  0.07576400  0.35173500  1
  C  C14  1  0.75000000  0.18726600  0.36896000  1
  C  C15  1  0.75000000  0.42423600  0.85173500  1
  C  C16  1  0.38838700  0.67518700  0.53929500  1
  C  C17  1  0.88838700  0.32481300  0.46070500  1
  C  C18  1  0.11161300  0.17518700  0.96070500  1
  C  C19  1  0.61161300  0.82481300  0.03929500  1
  C  C20  1  0.61161300  0.32481300  0.46070500  1
  C  C21  1  0.11161300  0.67518700  0.53929500  1
  C  C22  1  0.88838700  0.82481300  0.03929500  1
  C  C23  1  0.38838700  0.17518700  0.96070500  1
  C  C24  1  0.75000000  0.40156800  0.33662900  1
  C  C25  1  0.25000000  0.59843200  0.66337100  1
  C  C26  1  0.75000000  0.90156800  0.16337100  1
  C  C27  1  0.25000000  0.09843200  0.83662900  1
  C  C28  1  0.25000000  0.31273400  0.86896000  1
  C  C29  1  0.75000000  0.68726600  0.13104000  1
  C  C30  1  0.25000000  0.81273400  0.63104000  1
  C  C31  1  0.25000000  0.57576400  0.14826500  1
  C  C32  1  0.75000000  0.75747600  0.41947300  1
  C  C33  1  0.25000000  0.24252400  0.58052700  1
  C  C34  1  0.75000000  0.25747600  0.08052700  1
  C  C35  1  0.25000000  0.74252400  0.91947300  1
  Ni  Ni36  1  0.75000000  0.03700200  0.70188700  1
  Ni  Ni37  1  0.25000000  0.96299800  0.29811300  1
  Ni  Ni38  1  0.75000000  0.53700200  0.79811300  1
  Ni  Ni39  1  0.25000000  0.46299800  0.20188700  1
  Ni  Ni40  1  0.75000000  0.30976200  0.40565400  1
  Ni  Ni41  1  0.25000000  0.69023800  0.59434600  1
  Ni  Ni42  1  0.75000000  0.80976200  0.09434600  1
  Ni  Ni43  1  0.25000000  0.19023800  0.90565400  1
  Cu  Cu44  1  0.45155300  0.32422300  0.63302800  1
  Cu  Cu45  1  0.95155300  0.67577700  0.36697200  1
  Cu  Cu46  1  0.04844700  0.82422300  0.86697200  1
  Cu  Cu47  1  0.54844700  0.17577700  0.13302800  1
  Cu  Cu48  1  0.54844700  0.67577700  0.36697200  1
  Cu  Cu49  1  0.04844700  0.32422300  0.63302800  1
  Cu  Cu50  1  0.95155300  0.17577700  0.13302800  1
  Cu  Cu51  1  0.45155300  0.82422300  0.86697200  1
  Cu  Cu52  1  0.75000000  0.73257300  0.55852300  1
  Cu  Cu53  1  0.25000000  0.26742700  0.44147700  1
  Cu  Cu54  1  0.75000000  0.23257300  0.94147700  1
  Cu  Cu55  1  0.25000000  0.76742700  0.05852300  1
  Cu  Cu56  1  0.75000000  0.94316500  0.38748100  1
  Cu  Cu57  1  0.25000000  0.05683500  0.61251900  1
  Cu  Cu58  1  0.75000000  0.44316500  0.11251900  1
  Cu  Cu59  1  0.25000000  0.55683500  0.88748100  1
