# generated using pymatgen
data_Cu2Ni2C
_symmetry_space_group_name_H-M   'P 1'
_cell_length_a   4.09747500
_cell_length_b   9.57757080
_cell_length_c   12.46927700
_cell_angle_alpha   95.18564945
_cell_angle_beta   90.00000000
_cell_angle_gamma   90.00000000
_symmetry_Int_Tables_number   1
_chemical_formula_structural   Cu2Ni2C
_chemical_formula_sum   'Cu8 Ni8 C4'
_cell_volume   487.33967675
_cell_formula_units_Z   4
loop_
 _symmetry_equiv_pos_site_id
 _symmetry_equiv_pos_as_xyz
  1  'x, y, z'
loop_
 _atom_site_type_symbol
 _atom_site_label
 _atom_site_symmetry_multiplicity
 _atom_site_fract_x
 _atom_site_fract_y
 _atom_site_fract_z
 _atom_site_occupancy
  C  C0  1  0.00000000  0.20069600  0.27613600  1
  C  C1  1  0.00000000  0.79930400  0.72386400  1
  C  C2  1  0.50000000  0.50000000  0.50000000  1
  C  C3  1  0.50000000  0.00000000  0.00000000  1
  Ni  Ni4  1  0.50000000  0.39804800  0.05429800  1
  Ni  Ni5  1  0.50000000  0.60195200  0.94570200  1
  Ni  Ni6  1  0.50000000  0.89095000  0.43727400  1
  Ni  Ni7  1  0.50000000  0.10905000  0.56272600  1
  Ni  Ni8  1  0.00000000  0.80570100  0.17593400  1
  Ni  Ni9  1  0.00000000  0.19429900  0.82406600  1
  Ni  Ni10  1  0.00000000  0.60461700  0.28147100  1
  Ni  Ni11  1  0.00000000  0.39538300  0.71852900  1
  Cu  Cu12  1  0.00000000  0.26244500  0.53159600  1
  Cu  Cu13  1  0.00000000  0.73755500  0.46840400  1
  Cu  Cu14  1  0.50000000  0.95218600  0.24051800  1
  Cu  Cu15  1  0.50000000  0.04781400  0.75948200  1
  Cu  Cu16  1  0.00000000  0.23956100  0.02613700  1
  Cu  Cu17  1  0.00000000  0.76043900  0.97386300  1
  Cu  Cu18  1  0.50000000  0.44671700  0.25659000  1
  Cu  Cu19  1  0.50000000  0.55328300  0.74341000  1
