# generated using pymatgen
data_Cu4Ni6C19
_symmetry_space_group_name_H-M   'P 1'
_cell_length_a   7.97880896
_cell_length_b   7.97880896
_cell_length_c   10.66360318
_cell_angle_alpha   49.36718573
_cell_angle_beta   49.36718573
_cell_angle_gamma   42.13492456
_symmetry_Int_Tables_number   1
_chemical_formula_structural   Cu4Ni6C19
_chemical_formula_sum   'Cu4 Ni6 C19'
_cell_volume   326.19859957
_cell_formula_units_Z   1
loop_
 _symmetry_equiv_pos_site_id
 _symmetry_equiv_pos_as_xyz
  1  'x, y, z'
loop_
 _atom_site_type_symbol
 _atom_site_label
 _atom_site_symmetry_multiplicity
 _atom_site_fract_x
 _atom_site_fract_y
 _atom_site_fract_z
 _atom_site_occupancy
  Ni  Ni0  1  0.99259100  0.49698900  0.50478900  1
  Ni  Ni1  1  0.49698900  0.99259100  0.50478900  1
  Ni  Ni2  1  0.00221700  0.50019000  0.99698800  1
  Ni  Ni3  1  0.50019000  0.00221700  0.99698800  1
  Ni  Ni4  1  0.97219200  0.97219200  0.21312500  1
  Ni  Ni5  1  0.81529100  0.81529100  0.15888100  1
  C  C6  1  0.02793700  0.02793700  0.78349000  1
  C  C7  1  0.18757800  0.18757800  0.83773800  1
  Cu  Cu8  1  0.24090000  0.24090000  0.25788800  1
  Cu  Cu9  1  0.76319300  0.76319300  0.74232100  1
  Cu  Cu10  1  0.50242600  0.50242600  0.73454400  1
  Cu  Cu11  1  0.49637100  0.49637100  0.26165200  1
  C  C12  1  0.24178900  0.24178900  0.38499200  1
  C  C13  1  0.76066400  0.76066400  0.61442600  1
  C  C14  1  0.37278800  0.37278800  0.87365400  1
  C  C15  1  0.62482700  0.62482700  0.13259000  1
  C  C16  1  0.21254800  0.21254800  0.63912700  1
  C  C17  1  0.78629700  0.78629700  0.35850300  1
  C  C18  1  0.14118900  0.14118900  0.07372100  1
  C  C19  1  0.84925600  0.84925600  0.94966800  1
  C  C20  1  0.21913000  0.64299700  0.32524000  1
  C  C21  1  0.36730400  0.77279000  0.66281700  1
  C  C22  1  0.03192800  0.45348100  0.19058400  1
  C  C23  1  0.56139300  0.96676900  0.80996100  1
  C  C24  1  0.77279000  0.36730400  0.66281700  1
  C  C25  1  0.64299700  0.21913000  0.32524000  1
  C  C26  1  0.96676900  0.56139300  0.80996100  1
  C  C27  1  0.45348100  0.03192800  0.19058400  1
  C  C28  1  0.97897300  0.97897300  0.03892200  1
