# generated using pymatgen
data_CuNi2C
_symmetry_space_group_name_H-M   'P 1'
_cell_length_a   4.39651200
_cell_length_b   5.49704940
_cell_length_c   6.62556400
_cell_angle_alpha   90.00000000
_cell_angle_beta   90.00000000
_cell_angle_gamma   113.57176732
_symmetry_Int_Tables_number   1
_chemical_formula_structural   CuNi2C
_chemical_formula_sum   'Cu2 Ni4 C2'
_cell_volume   146.76469780
_cell_formula_units_Z   2
loop_
 _symmetry_equiv_pos_site_id
 _symmetry_equiv_pos_as_xyz
  1  'x, y, z'
loop_
 _atom_site_type_symbol
 _atom_site_label
 _atom_site_symmetry_multiplicity
 _atom_site_fract_x
 _atom_site_fract_y
 _atom_site_fract_z
 _atom_site_occupancy
  C  C0  1  0.08697100  0.17394200  0.75000000  1
  C  C1  1  0.91302900  0.82605800  0.25000000  1
  Ni  Ni2  1  0.37199100  0.74398200  0.94780900  1
  Ni  Ni3  1  0.62800900  0.25601800  0.05219100  1
  Ni  Ni4  1  0.62800900  0.25601800  0.44780900  1
  Ni  Ni5  1  0.37199100  0.74398200  0.55219100  1
  Cu  Cu6  1  0.79935200  0.59870400  0.75000000  1
  Cu  Cu7  1  0.20064800  0.40129600  0.25000000  1
