# generated using pymatgen
data_Cu4Ni3C7
_symmetry_space_group_name_H-M   'P 1'
_cell_length_a   6.74972843
_cell_length_b   7.70722528
_cell_length_c   10.71897300
_cell_angle_alpha   90.00000000
_cell_angle_beta   90.00000000
_cell_angle_gamma   99.89736055
_symmetry_Int_Tables_number   1
_chemical_formula_structural   Cu4Ni3C7
_chemical_formula_sum   'Cu16 Ni12 C28'
_cell_volume   549.32005122
_cell_formula_units_Z   4
loop_
 _symmetry_equiv_pos_site_id
 _symmetry_equiv_pos_as_xyz
  1  'x, y, z'
loop_
 _atom_site_type_symbol
 _atom_site_label
 _atom_site_symmetry_multiplicity
 _atom_site_fract_x
 _atom_site_fract_y
 _atom_site_fract_z
 _atom_site_occupancy
  C  C0  1  0.74206700  0.45963300  0.54501700  1
  C  C1  1  0.25793300  0.04036700  0.04501700  1
  C  C2  1  0.25793300  0.54036700  0.45498300  1
  C  C3  1  0.74206700  0.95963300  0.95498300  1
  C  C4  1  0.60336200  0.39032100  0.11906300  1
  C  C5  1  0.39663800  0.10967900  0.61906300  1
  C  C6  1  0.39663800  0.60967900  0.88093700  1
  C  C7  1  0.60336200  0.89032100  0.38093700  1
  C  C8  1  0.82496200  0.38404800  0.08412900  1
  C  C9  1  0.17503800  0.11595200  0.58412900  1
  C  C10  1  0.17503800  0.61595200  0.91587100  1
  C  C11  1  0.82496200  0.88404800  0.41587100  1
  C  C12  1  0.76403100  0.34724700  0.29304100  1
  C  C13  1  0.23596900  0.15275300  0.79304100  1
  C  C14  1  0.23596900  0.65275300  0.70695900  1
  C  C15  1  0.76403100  0.84724700  0.20695900  1
  C  C16  1  0.76100200  0.16621700  0.37459500  1
  C  C17  1  0.23899800  0.33378300  0.87459500  1
  C  C18  1  0.23899800  0.83378300  0.62540500  1
  C  C19  1  0.76100200  0.66621700  0.12540500  1
  C  C20  1  0.73247000  0.56830900  0.79906100  1
  C  C21  1  0.26753000  0.93169100  0.29906100  1
  C  C22  1  0.26753000  0.43169100  0.20093900  1
  C  C23  1  0.73247000  0.06830900  0.70093900  1
  C  C24  1  0.76183800  0.36556600  0.80348500  1
  C  C25  1  0.23816200  0.13443400  0.30348500  1
  C  C26  1  0.23816200  0.63443400  0.19651500  1
  C  C27  1  0.76183800  0.86556600  0.69651500  1
  Ni  Ni28  1  0.74396700  0.44247200  0.14066300  1
  Ni  Ni29  1  0.25603300  0.05752800  0.64066300  1
  Ni  Ni30  1  0.25603300  0.55752800  0.85933700  1
  Ni  Ni31  1  0.74396700  0.94247200  0.35933700  1
  Ni  Ni32  1  0.75608300  0.29521300  0.37817400  1
  Ni  Ni33  1  0.24391700  0.20478700  0.87817400  1
  Ni  Ni34  1  0.24391700  0.70478700  0.62182600  1
  Ni  Ni35  1  0.75608300  0.79521300  0.12182600  1
  Ni  Ni36  1  0.77206500  0.47167100  0.74888500  1
  Ni  Ni37  1  0.22793500  0.02832900  0.24888500  1
  Ni  Ni38  1  0.22793500  0.52832900  0.25111500  1
  Ni  Ni39  1  0.77206500  0.97167100  0.75111500  1
  Cu  Cu40  1  0.02803800  0.39246600  0.57633000  1
  Cu  Cu41  1  0.97196200  0.10753400  0.07633000  1
  Cu  Cu42  1  0.97196200  0.60753400  0.42367000  1
  Cu  Cu43  1  0.02803800  0.89246600  0.92367000  1
  Cu  Cu44  1  0.43282600  0.44256800  0.59669400  1
  Cu  Cu45  1  0.56717400  0.05743200  0.09669400  1
  Cu  Cu46  1  0.56717400  0.55743200  0.40330600  1
  Cu  Cu47  1  0.43282600  0.94256800  0.90330600  1
  Cu  Cu48  1  0.76173900  0.71563600  0.59478000  1
  Cu  Cu49  1  0.23826100  0.78436400  0.09478000  1
  Cu  Cu50  1  0.23826100  0.28436400  0.40522000  1
  Cu  Cu51  1  0.76173900  0.21563600  0.90522000  1
  Cu  Cu52  1  0.65421100  0.20171600  0.60230700  1
  Cu  Cu53  1  0.34578900  0.29828400  0.10230700  1
  Cu  Cu54  1  0.34578900  0.79828400  0.39769300  1
  Cu  Cu55  1  0.65421100  0.70171600  0.89769300  1
