# generated using pymatgen
data_Cu8NiC16
_symmetry_space_group_name_H-M   'P 1'
_cell_length_a   5.17318023
_cell_length_b   5.17482882
_cell_length_c   11.60459846
_cell_angle_alpha   90.64518617
_cell_angle_beta   89.40149404
_cell_angle_gamma   102.09013924
_symmetry_Int_Tables_number   1
_chemical_formula_structural   Cu8NiC16
_chemical_formula_sum   'Cu8 Ni1 C16'
_cell_volume   303.73855830
_cell_formula_units_Z   1
loop_
 _symmetry_equiv_pos_site_id
 _symmetry_equiv_pos_as_xyz
  1  'x, y, z'
loop_
 _atom_site_type_symbol
 _atom_site_label
 _atom_site_symmetry_multiplicity
 _atom_site_fract_x
 _atom_site_fract_y
 _atom_site_fract_z
 _atom_site_occupancy
  Ni  Ni0  1  0.69909400  0.29422800  0.25612500  1
  Cu  Cu1  1  0.00579200  0.98972200  0.99750400  1
  Cu  Cu2  1  0.03085400  0.96383300  0.25135400  1
  Cu  Cu3  1  0.02907100  0.02153600  0.50318600  1
  Cu  Cu4  1  0.00307900  0.98395600  0.74850600  1
  Cu  Cu5  1  0.41936700  0.57907400  0.11863100  1
  Cu  Cu6  1  0.58088300  0.39375400  0.63281300  1
  Cu  Cu7  1  0.42560300  0.56989900  0.86841300  1
  Cu  Cu8  1  0.40854400  0.57606800  0.38499400  1
  C  C9  1  0.18121100  0.81328100  0.12757700  1
  C  C10  1  0.16568400  0.85615200  0.61380800  1
  C  C11  1  0.17330500  0.81952900  0.87257900  1
  C  C12  1  0.18484500  0.81657900  0.37548300  1
  C  C13  1  0.27507000  0.34082400  0.99340500  1
  C  C14  1  0.32162300  0.31104100  0.24962100  1
  C  C15  1  0.34175700  0.31049700  0.50058200  1
  C  C16  1  0.30993600  0.30473100  0.75302400  1
  C  C17  1  0.65649400  0.71883100  0.99321400  1
  C  C18  1  0.68453000  0.67324400  0.25411000  1
  C  C19  1  0.68688000  0.67759400  0.74876500  1
  C  C20  1  0.86487100  0.12511000  0.13853800  1
  C  C21  1  0.87344300  0.13832600  0.37292200  1
  C  C22  1  0.83303100  0.16996100  0.62212000  1
  C  C23  1  0.70709800  0.68628200  0.50043500  1
  C  C24  1  0.83237700  0.15762100  0.87229000  1
