# generated using pymatgen
data_Cu4NiC16
_symmetry_space_group_name_H-M   'P 1'
_cell_length_a   13.17270957
_cell_length_b   4.31374884
_cell_length_c   6.18811098
_cell_angle_alpha   87.25945256
_cell_angle_beta   108.94423867
_cell_angle_gamma   93.11934756
_symmetry_Int_Tables_number   1
_chemical_formula_structural   Cu4NiC16
_chemical_formula_sum   'Cu4 Ni1 C16'
_cell_volume   331.92358485
_cell_formula_units_Z   1
loop_
 _symmetry_equiv_pos_site_id
 _symmetry_equiv_pos_as_xyz
  1  'x, y, z'
loop_
 _atom_site_type_symbol
 _atom_site_label
 _atom_site_symmetry_multiplicity
 _atom_site_fract_x
 _atom_site_fract_y
 _atom_site_fract_z
 _atom_site_occupancy
  Ni  Ni0  1  0.33087500  0.26107900  0.81118900  1
  Cu  Cu1  1  0.04402000  0.19049500  0.77690900  1
  Cu  Cu2  1  0.49070300  0.72231900  0.80561800  1
  Cu  Cu3  1  0.52945100  0.22679900  0.10628500  1
  Cu  Cu4  1  0.92438800  0.82462600  0.23966200  1
  C  C5  1  0.16199400  0.35350200  0.37645200  1
  C  C6  1  0.28768300  0.88310700  0.24925400  1
  C  C7  1  0.69603900  0.11802500  0.67715100  1
  C  C8  1  0.84806500  0.64452700  0.67851100  1
  C  C9  1  0.05693800  0.21055700  0.23947500  1
  C  C10  1  0.18220900  0.45278000  0.62090300  1
  C  C11  1  0.18851000  0.62842500  0.21820000  1
  C  C12  1  0.26255600  0.12114300  0.42547800  1
  C  C13  1  0.25868900  0.04451600  0.01628300  1
  C  C14  1  0.39338800  0.75134700  0.36727800  1
  C  C15  1  0.61242300  0.27109500  0.48441200  1
  C  C16  1  0.67171600  0.95180700  0.87350600  1
  C  C17  1  0.75714100  0.88624400  0.55916900  1
  C  C18  1  0.79354500  0.37442100  0.79521800  1
  C  C19  1  0.88370600  0.50935200  0.49415800  1
  C  C20  1  0.93707400  0.79605600  0.87238800  1
