# generated using pymatgen
data_Cu6Ni4C5
_symmetry_space_group_name_H-M   'P 1'
_cell_length_a   9.62589162
_cell_length_b   9.62589162
_cell_length_c   12.77386900
_cell_angle_alpha   90.00000000
_cell_angle_beta   90.00000000
_cell_angle_gamma   103.96616597
_symmetry_Int_Tables_number   1
_chemical_formula_structural   Cu6Ni4C5
_chemical_formula_sum   'Cu24 Ni16 C20'
_cell_volume   1148.60941988
_cell_formula_units_Z   4
loop_
 _symmetry_equiv_pos_site_id
 _symmetry_equiv_pos_as_xyz
  1  'x, y, z'
loop_
 _atom_site_type_symbol
 _atom_site_label
 _atom_site_symmetry_multiplicity
 _atom_site_fract_x
 _atom_site_fract_y
 _atom_site_fract_z
 _atom_site_occupancy
  C  C0  1  0.23955800  0.23955800  0.29182400  1
  C  C1  1  0.76044200  0.76044200  0.70817600  1
  C  C2  1  0.26044200  0.26044200  0.79182400  1
  C  C3  1  0.73955800  0.73955800  0.20817600  1
  C  C4  1  0.18413400  0.50021900  0.03245600  1
  C  C5  1  0.81586600  0.49978100  0.96754400  1
  C  C6  1  0.31586600  0.99978100  0.53245600  1
  C  C7  1  0.00021900  0.68413400  0.46754400  1
  C  C8  1  0.68413400  0.00021900  0.46754400  1
  C  C9  1  0.99978100  0.31586600  0.53245600  1
  C  C10  1  0.49978100  0.81586600  0.96754400  1
  C  C11  1  0.50021900  0.18413400  0.03245600  1
  C  C12  1  0.86279600  0.17452500  0.15840900  1
  C  C13  1  0.13720400  0.82547500  0.84159100  1
  C  C14  1  0.63720400  0.32547500  0.65840900  1
  C  C15  1  0.67452500  0.36279600  0.34159100  1
  C  C16  1  0.36279600  0.67452500  0.34159100  1
  C  C17  1  0.32547500  0.63720400  0.65840900  1
  C  C18  1  0.82547500  0.13720400  0.84159100  1
  C  C19  1  0.17452500  0.86279600  0.15840900  1
  Ni  Ni20  1  0.13536100  0.13536100  0.02706600  1
  Ni  Ni21  1  0.86463900  0.86463900  0.97293400  1
  Ni  Ni22  1  0.36463900  0.36463900  0.52706600  1
  Ni  Ni23  1  0.63536100  0.63536100  0.47293400  1
  Ni  Ni24  1  0.02823900  0.45986200  0.22120900  1
  Ni  Ni25  1  0.97176100  0.54013800  0.77879100  1
  Ni  Ni26  1  0.47176100  0.04013800  0.72120900  1
  Ni  Ni27  1  0.95986200  0.52823900  0.27879100  1
  Ni  Ni28  1  0.52823900  0.95986200  0.27879100  1
  Ni  Ni29  1  0.04013800  0.47176100  0.72120900  1
  Ni  Ni30  1  0.54013800  0.97176100  0.77879100  1
  Ni  Ni31  1  0.45986200  0.02823900  0.22120900  1
  Ni  Ni32  1  0.48660500  0.48660500  0.12988900  1
  Ni  Ni33  1  0.51339500  0.51339500  0.87011100  1
  Ni  Ni34  1  0.01339500  0.01339500  0.62988900  1
  Ni  Ni35  1  0.98660500  0.98660500  0.37011100  1
  Cu  Cu36  1  0.38609200  0.38609200  0.08770500  1
  Cu  Cu37  1  0.61390800  0.61390800  0.91229500  1
  Cu  Cu38  1  0.11390800  0.11390800  0.58770500  1
  Cu  Cu39  1  0.88609200  0.88609200  0.41229500  1
  Cu  Cu40  1  0.08833300  0.08833300  0.11997200  1
  Cu  Cu41  1  0.91166700  0.91166700  0.88002800  1
  Cu  Cu42  1  0.41166700  0.41166700  0.61997200  1
  Cu  Cu43  1  0.58833300  0.58833300  0.38002800  1
  Cu  Cu44  1  0.91733300  0.76748300  0.01786500  1
  Cu  Cu45  1  0.08266700  0.23251700  0.98213500  1
  Cu  Cu46  1  0.58266700  0.73251700  0.51786500  1
  Cu  Cu47  1  0.26748300  0.41733300  0.48213500  1
  Cu  Cu48  1  0.41733300  0.26748300  0.48213500  1
  Cu  Cu49  1  0.73251700  0.58266700  0.51786500  1
  Cu  Cu50  1  0.23251700  0.08266700  0.98213500  1
  Cu  Cu51  1  0.76748300  0.91733300  0.01786500  1
  Cu  Cu52  1  0.96107100  0.11056000  0.34966000  1
  Cu  Cu53  1  0.03892900  0.88944000  0.65034000  1
  Cu  Cu54  1  0.53892900  0.38944000  0.84966000  1
  Cu  Cu55  1  0.61056000  0.46107100  0.15034000  1
  Cu  Cu56  1  0.46107100  0.61056000  0.15034000  1
  Cu  Cu57  1  0.38944000  0.53892900  0.84966000  1
  Cu  Cu58  1  0.88944000  0.03892900  0.65034000  1
  Cu  Cu59  1  0.11056000  0.96107100  0.34966000  1
