# generated using pymatgen
data_CuNiC12
_symmetry_space_group_name_H-M   'P 1'
_cell_length_a   5.89466300
_cell_length_b   8.57325400
_cell_length_c   7.35508654
_cell_angle_alpha   90.00000000
_cell_angle_beta   99.98811624
_cell_angle_gamma   90.00000000
_symmetry_Int_Tables_number   1
_chemical_formula_structural   CuNiC12
_chemical_formula_sum   'Cu2 Ni2 C24'
_cell_volume   366.06633545
_cell_formula_units_Z   2
loop_
 _symmetry_equiv_pos_site_id
 _symmetry_equiv_pos_as_xyz
  1  'x, y, z'
loop_
 _atom_site_type_symbol
 _atom_site_label
 _atom_site_symmetry_multiplicity
 _atom_site_fract_x
 _atom_site_fract_y
 _atom_site_fract_z
 _atom_site_occupancy
  Ni  Ni0  1  0.00000000  0.00000000  0.00000000  1
  Ni  Ni1  1  0.00000000  0.50000000  0.50000000  1
  Cu  Cu2  1  0.50000000  0.00000000  0.50000000  1
  Cu  Cu3  1  0.50000000  0.50000000  0.00000000  1
  C  C4  1  0.87966700  0.17781700  0.89790900  1
  C  C5  1  0.87966700  0.32218300  0.39790900  1
  C  C6  1  0.12033300  0.82218300  0.10209100  1
  C  C7  1  0.12033300  0.67781700  0.60209100  1
  C  C8  1  0.04739000  0.97043000  0.76773800  1
  C  C9  1  0.04739000  0.52957000  0.26773800  1
  C  C10  1  0.95261000  0.02957000  0.23226200  1
  C  C11  1  0.95261000  0.47043000  0.73226200  1
  C  C12  1  0.72299800  0.90401600  0.96695500  1
  C  C13  1  0.72299800  0.59598400  0.46695500  1
  C  C14  1  0.27700200  0.09598400  0.03304500  1
  C  C15  1  0.27700200  0.40401600  0.53304500  1
  C  C16  1  0.44710900  0.95553600  0.71766800  1
  C  C17  1  0.44710900  0.54446400  0.21766800  1
  C  C18  1  0.55289100  0.04446400  0.28233200  1
  C  C19  1  0.55289100  0.45553600  0.78233200  1
  C  C20  1  0.68038400  0.14716700  0.59179100  1
  C  C21  1  0.68038400  0.35283300  0.09179100  1
  C  C22  1  0.31961600  0.85283300  0.40820900  1
  C  C23  1  0.31961600  0.64716700  0.90820900  1
  C  C24  1  0.72909000  0.87292100  0.53180900  1
  C  C25  1  0.72909000  0.62707900  0.03180900  1
  C  C26  1  0.27091000  0.12707900  0.46819100  1
  C  C27  1  0.27091000  0.37292100  0.96819100  1
