# generated using pymatgen
data_Cu8NiC40
_symmetry_space_group_name_H-M   'P 1'
_cell_length_a   5.54853763
_cell_length_b   9.94597584
_cell_length_c   16.90155083
_cell_angle_alpha   91.36986385
_cell_angle_beta   83.50639454
_cell_angle_gamma   71.37874892
_symmetry_Int_Tables_number   1
_chemical_formula_structural   Cu8NiC40
_chemical_formula_sum   'Cu8 Ni1 C40'
_cell_volume   876.43798397
_cell_formula_units_Z   1
loop_
 _symmetry_equiv_pos_site_id
 _symmetry_equiv_pos_as_xyz
  1  'x, y, z'
loop_
 _atom_site_type_symbol
 _atom_site_label
 _atom_site_symmetry_multiplicity
 _atom_site_fract_x
 _atom_site_fract_y
 _atom_site_fract_z
 _atom_site_occupancy
  Ni  Ni0  1  0.07033396  0.55620510  0.66692571  1
  Cu  Cu1  1  0.20208782  0.20620812  0.00572990  1
  Cu  Cu2  1  0.33923000  0.34075086  0.48719588  1
  Cu  Cu3  1  0.80792591  0.83478252  0.00421056  1
  Cu  Cu4  1  0.44740836  0.51787116  0.99628782  1
  Cu  Cu5  1  0.74729858  0.70904637  0.54544056  1
  Cu  Cu6  1  0.57170993  0.74753426  0.27330532  1
  Cu  Cu7  1  0.42579840  0.22988385  0.75213716  1
  Cu  Cu8  1  0.07559127  0.98833302  0.48728378  1
  C  C9  1  0.99456691  0.50049979  0.86828627  1
  C  C10  1  0.71804018  0.35612606  0.60475476  1
  C  C11  1  0.94037292  0.51445267  0.11456154  1
  C  C12  1  0.28825619  0.87536258  0.09971021  1
  C  C13  1  0.57246618  0.01679584  0.36523818  1
  C  C14  1  0.47641799  0.00915598  0.62304359  1
  C  C15  1  0.22709906  0.61946871  0.41115167  1
  C  C16  1  0.73240532  0.14141401  0.91187442  1
  C  C17  1  0.79974144  0.44682280  0.05682553  1
  C  C18  1  0.55751329  0.04408463  0.92330475  1
  C  C19  1  0.74013309  0.94589748  0.56730239  1
  C  C20  1  0.75872704  0.26476463  0.52456257  1
  C  C21  1  0.21873732  0.40662750  0.09998035  1
  C  C22  1  0.74788969  0.26391829  0.67782053  1
  C  C23  1  0.58465600  0.26732255  0.97645565  1
  C  C24  1  0.00660664  0.93760145  0.08600297  1
  C  C25  1  0.11761290  0.75251944  0.47486976  1
  C  C26  1  0.43753317  0.46395592  0.61264211  1
  C  C27  1  0.95908333  0.66123646  0.08683586  1
  C  C28  1  0.58868085  0.98204064  0.27521748  1
  C  C29  1  0.43084989  0.98765480  0.08376574  1
  C  C30  1  0.92258437  0.43208549  0.60089501  1
  C  C31  1  0.06730484  0.61581318  0.91496141  1
  C  C32  1  0.15107596  0.34844334  0.89491580  1
  C  C33  1  0.08350133  0.49793029  0.77748698  1
  C  C34  1  0.44420640  0.75368254  0.03214710  1
  C  C35  1  0.34168336  0.16581551  0.60648686  1
  C  C36  1  0.52958592  0.00444310  0.71197153  1
  C  C37  1  0.02987135  0.53822468  0.42765568  1
  C  C38  1  0.32508423  0.90815911  0.60456269  1
  C  C39  1  0.00296028  0.06873759  0.93331750  1
  C  C40  1  0.31213991  0.81639138  0.18255861  1
  C  C41  1  0.48610181  0.51468074  0.42978136  1
  C  C42  1  0.36117834  0.15952246  0.39839836  1
  C  C43  1  0.80822373  0.53412315  0.20000063  1
  C  C44  1  0.83501966  0.01523111  0.38817750  1
  C  C45  1  0.70294848  0.52717948  0.88365439  1
  C  C46  1  0.74152635  0.19076079  0.82657410  1
  C  C47  1  0.24370263  0.67522537  0.32699051  1
  C  C48  1  0.47890943  0.89521321  0.40566998  1
