# generated using pymatgen
data_CuNi14C17
_symmetry_space_group_name_H-M   'P 1'
_cell_length_a   8.85329538
_cell_length_b   9.14066310
_cell_length_c   4.62126278
_cell_angle_alpha   90.00000000
_cell_angle_beta   90.00000000
_cell_angle_gamma   90.00000000
_symmetry_Int_Tables_number   1
_chemical_formula_structural   CuNi14C17
_chemical_formula_sum   'Cu1 Ni14 C17'
_cell_volume   373.97564608
_cell_formula_units_Z   1
loop_
 _symmetry_equiv_pos_site_id
 _symmetry_equiv_pos_as_xyz
  1  'x, y, z'
loop_
 _atom_site_type_symbol
 _atom_site_label
 _atom_site_symmetry_multiplicity
 _atom_site_fract_x
 _atom_site_fract_y
 _atom_site_fract_z
 _atom_site_occupancy
  C  C0  1  -0.00000000  -0.00000000  -0.00000000  1
  Ni  Ni1  1  0.50000000  -0.00000000  -0.00000000  1
  Ni  Ni2  1  0.50000000  0.50000000  -0.00000000  1
  Ni  Ni3  1  0.00000000  0.24923257  0.50000000  1
  Ni  Ni4  1  -0.00000000  0.75076743  0.50000000  1
  Ni  Ni5  1  0.50000000  0.24985114  0.50000000  1
  Ni  Ni6  1  0.50000000  0.75014886  0.50000000  1
  Ni  Ni7  1  0.26687221  -0.00000000  0.50000000  1
  Ni  Ni8  1  0.26553830  0.50000000  0.50000000  1
  Ni  Ni9  1  0.73312779  -0.00000000  0.50000000  1
  Ni  Ni10  1  0.73446170  0.50000000  0.50000000  1
  Ni  Ni11  1  0.26750411  0.24946305  0.00000000  1
  Ni  Ni12  1  0.26750411  0.75053695  0.00000000  1
  Ni  Ni13  1  0.73249589  0.24946305  -0.00000000  1
  Ni  Ni14  1  0.73249589  0.75053695  -0.00000000  1
  Cu  Cu15  1  -0.00000000  0.50000000  -0.00000000  1
  C  C16  1  0.28221050  -0.00000000  -0.00000000  1
  C  C17  1  0.27082781  0.50000000  0.00000000  1
  C  C18  1  0.71778950  -0.00000000  -0.00000000  1
  C  C19  1  0.72917219  0.50000000  -0.00000000  1
  C  C20  1  0.25013698  0.25104105  0.50000000  1
  C  C21  1  0.25013698  0.74895895  0.50000000  1
  C  C22  1  0.74986302  0.25104105  0.50000000  1
  C  C23  1  0.74986302  0.74895895  0.50000000  1
  C  C24  1  -0.00000000  -0.00000000  0.50000000  1
  C  C25  1  -0.00000000  0.50000000  0.50000000  1
  C  C26  1  0.50000000  -0.00000000  0.50000000  1
  C  C27  1  0.50000000  0.50000000  0.50000000  1
  C  C28  1  0.00000000  0.25933533  -0.00000000  1
  C  C29  1  0.00000000  0.74066467  0.00000000  1
  C  C30  1  0.50000000  0.25553783  0.00000000  1
  C  C31  1  0.50000000  0.74446217  -0.00000000  1
