# generated using pymatgen
data_Cu2Ni10C
_symmetry_space_group_name_H-M   'P 1'
_cell_length_a   4.68697200
_cell_length_b   6.55968944
_cell_length_c   6.55968944
_cell_angle_alpha   95.68096268
_cell_angle_beta   110.93175971
_cell_angle_gamma   69.06824029
_symmetry_Int_Tables_number   1
_chemical_formula_structural   Cu2Ni10C
_chemical_formula_sum   'Cu2 Ni10 C1'
_cell_volume   175.84279610
_cell_formula_units_Z   1
loop_
 _symmetry_equiv_pos_site_id
 _symmetry_equiv_pos_as_xyz
  1  'x, y, z'
loop_
 _atom_site_type_symbol
 _atom_site_label
 _atom_site_symmetry_multiplicity
 _atom_site_fract_x
 _atom_site_fract_y
 _atom_site_fract_z
 _atom_site_occupancy
  C  C0  1  0.00000000  0.00000000  0.00000000  1
  Ni  Ni1  1  0.72467800  0.77532200  0.22467800  1
  Ni  Ni2  1  0.27532200  0.22467800  0.77532200  1
  Ni  Ni3  1  0.50000000  0.76526700  0.76526700  1
  Ni  Ni4  1  0.50000000  0.23473300  0.23473300  1
  Ni  Ni5  1  0.50000000  0.00000000  0.50000000  1
  Ni  Ni6  1  0.00000000  0.00000000  0.50000000  1
  Ni  Ni7  1  0.50000000  0.50000000  0.00000000  1
  Ni  Ni8  1  0.00000000  0.50000000  0.00000000  1
  Ni  Ni9  1  0.63983000  0.36017000  0.63983000  1
  Ni  Ni10  1  0.36017000  0.63983000  0.36017000  1
  Cu  Cu11  1  0.00000000  0.35899300  0.35899300  1
  Cu  Cu12  1  0.00000000  0.64100700  0.64100700  1
