# generated using pymatgen
data_Cu2(NiC7)3
_symmetry_space_group_name_H-M   'P 1'
_cell_length_a   8.23294415
_cell_length_b   8.23294415
_cell_length_c   16.24451627
_cell_angle_alpha   71.12830582
_cell_angle_beta   71.12830582
_cell_angle_gamma   39.59571918
_symmetry_Int_Tables_number   1
_chemical_formula_structural   Cu2(NiC7)3
_chemical_formula_sum   'Cu4 Ni6 C42'
_cell_volume   659.01755236
_cell_formula_units_Z   2
loop_
 _symmetry_equiv_pos_site_id
 _symmetry_equiv_pos_as_xyz
  1  'x, y, z'
loop_
 _atom_site_type_symbol
 _atom_site_label
 _atom_site_symmetry_multiplicity
 _atom_site_fract_x
 _atom_site_fract_y
 _atom_site_fract_z
 _atom_site_occupancy
  C  C0  1  0.42034000  0.85062100  0.02731000  1
  C  C1  1  0.37388500  0.88302200  0.37936300  1
  C  C2  1  0.41591200  0.86064600  0.71228300  1
  C  C3  1  0.14802800  0.58365400  0.11859700  1
  C  C4  1  0.10909800  0.62894500  0.46602600  1
  C  C5  1  0.14859500  0.57531300  0.80446000  1
  C  C6  1  0.57531300  0.14859500  0.30446000  1
  C  C7  1  0.58365400  0.14802800  0.61859700  1
  C  C8  1  0.62894500  0.10909800  0.96602600  1
  C  C9  1  0.86064600  0.41591200  0.21228300  1
  C  C10  1  0.85062100  0.42034000  0.52731000  1
  C  C11  1  0.88302200  0.37388500  0.87936300  1
  Ni  Ni12  1  0.50015300  0.99592800  0.16415900  1
  Ni  Ni13  1  0.47929600  0.01394800  0.49952500  1
  Ni  Ni14  1  0.52179400  0.98970300  0.82685800  1
  Ni  Ni15  1  0.98970300  0.52179400  0.32685800  1
  Ni  Ni16  1  0.99592800  0.50015300  0.66415900  1
  Ni  Ni17  1  0.01394800  0.47929600  0.99952500  1
  Cu  Cu18  1  0.83280000  0.16316900  0.10364100  1
  Cu  Cu19  1  0.82792400  0.17389000  0.75857000  1
  Cu  Cu20  1  0.17389000  0.82792400  0.25857000  1
  Cu  Cu21  1  0.16316900  0.83280000  0.60364100  1
  C  C22  1  0.87194100  0.12756500  0.21442700  1
  C  C23  1  0.87617300  0.12446200  0.56571700  1
  C  C24  1  0.84734800  0.14993900  0.86592500  1
  C  C25  1  0.12446200  0.87617300  0.06571700  1
  C  C26  1  0.14993900  0.84734800  0.36592500  1
  C  C27  1  0.12756500  0.87194100  0.71442700  1
  C  C28  1  0.42594800  0.79870400  0.20252700  1
  C  C29  1  0.41316800  0.79135900  0.53783300  1
  C  C30  1  0.46139100  0.80414800  0.86329000  1
  C  C31  1  0.58483000  0.19270200  0.10956200  1
  C  C32  1  0.54080200  0.19779100  0.45956100  1
  C  C33  1  0.57782800  0.21222800  0.76705300  1
  C  C34  1  0.79135900  0.41316800  0.03783300  1
  C  C35  1  0.80414800  0.46139100  0.36329000  1
  C  C36  1  0.79870400  0.42594800  0.70252700  1
  C  C37  1  0.21222800  0.57782800  0.26705300  1
  C  C38  1  0.19270200  0.58483000  0.60956200  1
  C  C39  1  0.19779100  0.54080200  0.95956100  1
  C  C40  1  0.76724800  0.75166600  0.07790100  1
  C  C41  1  0.76964300  0.77494400  0.40736200  1
  C  C42  1  0.77996400  0.77358400  0.73539800  1
  C  C43  1  0.22254400  0.22372100  0.09173300  1
  C  C44  1  0.22385400  0.24254600  0.41878600  1
  C  C45  1  0.22643100  0.24539700  0.75309600  1
  C  C46  1  0.24539700  0.22643100  0.25309600  1
  C  C47  1  0.22372100  0.22254400  0.59173300  1
  C  C48  1  0.24254600  0.22385400  0.91878600  1
  C  C49  1  0.77358400  0.77996400  0.23539800  1
  C  C50  1  0.75166600  0.76724800  0.57790100  1
  C  C51  1  0.77494400  0.76964300  0.90736200  1
