# generated using pymatgen
data_Cu6Ni3C
_symmetry_space_group_name_H-M   'P 1'
_cell_length_a   8.17237700
_cell_length_b   5.02725587
_cell_length_c   9.82232761
_cell_angle_alpha   80.17101806
_cell_angle_beta   90.00000000
_cell_angle_gamma   90.00000000
_symmetry_Int_Tables_number   1
_chemical_formula_structural   Cu6Ni3C
_chemical_formula_sum   'Cu12 Ni6 C2'
_cell_volume   397.62330823
_cell_formula_units_Z   2
loop_
 _symmetry_equiv_pos_site_id
 _symmetry_equiv_pos_as_xyz
  1  'x, y, z'
loop_
 _atom_site_type_symbol
 _atom_site_label
 _atom_site_symmetry_multiplicity
 _atom_site_fract_x
 _atom_site_fract_y
 _atom_site_fract_z
 _atom_site_occupancy
  C  C0  1  0.29471100  0.25000000  0.75000000  1
  C  C1  1  0.70528900  0.75000000  0.25000000  1
  Ni  Ni2  1  0.16743600  0.70837400  0.44411000  1
  Ni  Ni3  1  0.83256400  0.29162600  0.55589000  1
  Ni  Ni4  1  0.16743600  0.79162600  0.05589000  1
  Ni  Ni5  1  0.83256400  0.20837400  0.94411000  1
  Ni  Ni6  1  0.58090200  0.75000000  0.75000000  1
  Ni  Ni7  1  0.41909800  0.25000000  0.25000000  1
  Cu  Cu8  1  0.07314600  0.87156800  0.72022300  1
  Cu  Cu9  1  0.92685400  0.12843200  0.27977700  1
  Cu  Cu10  1  0.07314600  0.62843200  0.77977700  1
  Cu  Cu11  1  0.92685400  0.37156800  0.22022300  1
  Cu  Cu12  1  0.46915400  0.51383600  0.82611600  1
  Cu  Cu13  1  0.53084600  0.48616400  0.17388400  1
  Cu  Cu14  1  0.46915400  0.98616400  0.67388400  1
  Cu  Cu15  1  0.53084600  0.01383600  0.32611600  1
  Cu  Cu16  1  0.25180500  0.03158300  0.94597300  1
  Cu  Cu17  1  0.74819500  0.96841700  0.05402700  1
  Cu  Cu18  1  0.25180500  0.46841700  0.55402700  1
  Cu  Cu19  1  0.74819500  0.53158300  0.44597300  1
