# generated using pymatgen
data_CuNi2C11
_symmetry_space_group_name_H-M   'P 1'
_cell_length_a   5.10102295
_cell_length_b   7.72448288
_cell_length_c   10.49028039
_cell_angle_alpha   91.98233365
_cell_angle_beta   99.51130507
_cell_angle_gamma   109.22967372
_symmetry_Int_Tables_number   1
_chemical_formula_structural   CuNi2C11
_chemical_formula_sum   'Cu2 Ni4 C22'
_cell_volume   383.15598166
_cell_formula_units_Z   2
loop_
 _symmetry_equiv_pos_site_id
 _symmetry_equiv_pos_as_xyz
  1  'x, y, z'
loop_
 _atom_site_type_symbol
 _atom_site_label
 _atom_site_symmetry_multiplicity
 _atom_site_fract_x
 _atom_site_fract_y
 _atom_site_fract_z
 _atom_site_occupancy
  Ni  Ni0  1  0.39906800  0.80405800  0.49899200  1
  Ni  Ni1  1  0.60093200  0.19594200  0.50100800  1
  Ni  Ni2  1  0.80172100  0.60409100  0.50566200  1
  Ni  Ni3  1  0.19827900  0.39590900  0.49433800  1
  Cu  Cu4  1  0.18715900  0.76560000  0.04927000  1
  Cu  Cu5  1  0.81284100  0.23440000  0.95073000  1
  C  C6  1  0.89670200  0.96216500  0.26111700  1
  C  C7  1  0.10329800  0.03783500  0.73888300  1
  C  C8  1  0.49854100  0.38967000  0.17992900  1
  C  C9  1  0.50145900  0.61033000  0.82007100  1
  C  C10  1  0.44921400  0.67530700  0.07044100  1
  C  C11  1  0.55078600  0.32469300  0.92955900  1
  C  C12  1  0.94580600  0.65216500  0.12963200  1
  C  C13  1  0.05419400  0.34783500  0.87036800  1
  C  C14  1  0.04883800  0.73828900  0.88825100  1
  C  C15  1  0.95116200  0.26171100  0.11174900  1
  C  C16  1  0.30609400  0.98461900  0.10946500  1
  C  C17  1  0.69390600  0.01538100  0.89053500  1
  C  C18  1  0.17350300  0.61332300  0.59617200  1
  C  C19  1  0.82649700  0.38667700  0.40382800  1
  C  C20  1  0.56005300  0.41029700  0.59780300  1
  C  C21  1  0.43994700  0.58970300  0.40219700  1
  C  C22  1  0.57759900  0.98658000  0.39583600  1
  C  C23  1  0.42240100  0.01342000  0.60416400  1
  C  C24  1  0.73868700  0.78542000  0.60938600  1
  C  C25  1  0.26131300  0.21458000  0.39061400  1
  C  C26  1  0.02501400  0.76692200  0.40618500  1
  C  C27  1  0.97498600  0.23307800  0.59381500  1
