# generated using pymatgen
data_Cu6NiC17
_symmetry_space_group_name_H-M   'P 1'
_cell_length_a   15.91133300
_cell_length_b   8.61300400
_cell_length_c   12.28286494
_cell_angle_alpha   47.86903982
_cell_angle_beta   90.00000000
_cell_angle_gamma   90.00000000
_symmetry_Int_Tables_number   1
_chemical_formula_structural   Cu6NiC17
_chemical_formula_sum   'Cu24 Ni4 C68'
_cell_volume   1248.35612194
_cell_formula_units_Z   4
loop_
 _symmetry_equiv_pos_site_id
 _symmetry_equiv_pos_as_xyz
  1  'x, y, z'
loop_
 _atom_site_type_symbol
 _atom_site_label
 _atom_site_symmetry_multiplicity
 _atom_site_fract_x
 _atom_site_fract_y
 _atom_site_fract_z
 _atom_site_occupancy
  Ni  Ni0  1  0.60369800  0.88040700  0.43993200  1
  Ni  Ni1  1  0.39630200  0.11959300  0.56006800  1
  Ni  Ni2  1  0.10369800  0.11959300  0.06006800  1
  Ni  Ni3  1  0.89630200  0.88040700  0.93993200  1
  Cu  Cu4  1  0.82201400  0.55214600  0.30624000  1
  Cu  Cu5  1  0.17798600  0.44785400  0.69376000  1
  Cu  Cu6  1  0.32201400  0.44785400  0.19376000  1
  Cu  Cu7  1  0.67798600  0.55214600  0.80624000  1
  Cu  Cu8  1  0.32520200  0.98577500  0.05433500  1
  Cu  Cu9  1  0.67479800  0.01422500  0.94566500  1
  Cu  Cu10  1  0.82520200  0.01422500  0.44566500  1
  Cu  Cu11  1  0.17479800  0.98577500  0.55433500  1
  Cu  Cu12  1  0.35633500  0.84828800  0.42407300  1
  Cu  Cu13  1  0.64366500  0.15171200  0.57592700  1
  Cu  Cu14  1  0.85633500  0.15171200  0.07592700  1
  Cu  Cu15  1  0.14366500  0.84828800  0.92407300  1
  Cu  Cu16  1  0.51377300  0.66485200  0.28321300  1
  Cu  Cu17  1  0.48622700  0.33514800  0.71678700  1
  Cu  Cu18  1  0.01377300  0.33514800  0.21678700  1
  Cu  Cu19  1  0.98622700  0.66485200  0.78321300  1
  Cu  Cu20  1  0.50429500  0.23750100  0.06214600  1
  Cu  Cu21  1  0.49570500  0.76249900  0.93785400  1
  Cu  Cu22  1  0.00429500  0.76249900  0.43785400  1
  Cu  Cu23  1  0.99570500  0.23750100  0.56214600  1
  Cu  Cu24  1  0.66574300  0.41140300  0.16657800  1
  Cu  Cu25  1  0.33425700  0.58859700  0.83342200  1
  Cu  Cu26  1  0.16574300  0.58859700  0.33342200  1
  Cu  Cu27  1  0.83425700  0.41140300  0.66657800  1
  C  C28  1  0.82690300  0.54421500  0.02693000  1
  C  C29  1  0.17309700  0.45578500  0.97307000  1
  C  C30  1  0.32690300  0.45578500  0.47307000  1
  C  C31  1  0.67309700  0.54421500  0.52693000  1
  C  C32  1  0.99928100  0.79199300  0.14448300  1
  C  C33  1  0.00071900  0.20800700  0.85551700  1
  C  C34  1  0.49928100  0.20800700  0.35551700  1
  C  C35  1  0.50071900  0.79199300  0.64448300  1
  C  C36  1  0.69306700  0.95837400  0.22128300  1
  C  C37  1  0.30693300  0.04162600  0.77871700  1
  C  C38  1  0.19306700  0.04162600  0.27871700  1
  C  C39  1  0.80693300  0.95837400  0.72128300  1
  C  C40  1  0.75048300  0.88414500  0.17827500  1
  C  C41  1  0.24951700  0.11585500  0.82172500  1
  C  C42  1  0.25048300  0.11585500  0.32172500  1
  C  C43  1  0.74951700  0.88414500  0.67827500  1
  C  C44  1  0.46736200  0.69760500  0.59527200  1
  C  C45  1  0.53263800  0.30239500  0.40472800  1
  C  C46  1  0.96736200  0.30239500  0.90472800  1
  C  C47  1  0.03263800  0.69760500  0.09527200  1
  C  C48  1  0.42096300  0.93428000  0.22047100  1
  C  C49  1  0.57903700  0.06572000  0.77952900  1
  C  C50  1  0.92096300  0.06572000  0.27952900  1
  C  C51  1  0.07903700  0.93428000  0.72047100  1
  C  C52  1  0.91576600  0.85233900  0.11778100  1
  C  C53  1  0.08423400  0.14766100  0.88221900  1
  C  C54  1  0.41576600  0.14766100  0.38221900  1
  C  C55  1  0.58423400  0.85233900  0.61778100  1
  C  C56  1  0.91091900  0.52482900  0.00981500  1
  C  C57  1  0.08908100  0.47517100  0.99018500  1
  C  C58  1  0.41091900  0.47517100  0.49018500  1
  C  C59  1  0.58908100  0.52482900  0.50981500  1
  C  C60  1  0.79639700  0.64076700  0.07442400  1
  C  C61  1  0.20360300  0.35923300  0.92557600  1
  C  C62  1  0.29639700  0.35923300  0.42557600  1
  C  C63  1  0.70360300  0.64076700  0.57442400  1
  C  C64  1  0.44958700  0.82373300  0.71868100  1
  C  C65  1  0.55041300  0.17626700  0.28131900  1
  C  C66  1  0.94958700  0.17626700  0.78131900  1
  C  C67  1  0.05041300  0.82373300  0.21868100  1
  C  C68  1  0.59815400  0.70216900  0.10545900  1
  C  C69  1  0.40184600  0.29783100  0.89454100  1
  C  C70  1  0.09815400  0.29783100  0.39454100  1
  C  C71  1  0.90184600  0.70216900  0.60545900  1
  C  C72  1  0.91065000  0.52708000  0.46409600  1
  C  C73  1  0.08935000  0.47292000  0.53590400  1
  C  C74  1  0.41065000  0.47292000  0.03590400  1
  C  C75  1  0.58935000  0.52708000  0.96409600  1
  C  C76  1  0.41429300  0.71423600  0.12353900  1
  C  C77  1  0.58570700  0.28576400  0.87646100  1
  C  C78  1  0.91429300  0.28576400  0.37646100  1
  C  C79  1  0.08570700  0.71423600  0.62353900  1
  C  C80  1  0.23215500  0.72375400  0.12140200  1
  C  C81  1  0.76784500  0.27624600  0.87859800  1
  C  C82  1  0.73215500  0.27624600  0.37859800  1
  C  C83  1  0.26784500  0.72375400  0.62140200  1
  C  C84  1  0.22460100  0.94741600  0.22972000  1
  C  C85  1  0.77539900  0.05258400  0.77028000  1
  C  C86  1  0.72460100  0.05258400  0.27028000  1
  C  C87  1  0.27539900  0.94741600  0.72972000  1
  C  C88  1  0.60842400  0.94803500  0.20120500  1
  C  C89  1  0.39157600  0.05196500  0.79879500  1
  C  C90  1  0.10842400  0.05196500  0.29879500  1
  C  C91  1  0.89157600  0.94803500  0.70120500  1
  C  C92  1  0.76859100  0.44850000  0.00390000  1
  C  C93  1  0.23140900  0.55150000  0.99610000  1
  C  C94  1  0.26859100  0.55150000  0.49610000  1
  C  C95  1  0.73140900  0.44850000  0.50390000  1
