# generated using pymatgen
data_Cu22Ni2C7
_symmetry_space_group_name_H-M   'P 1'
_cell_length_a   7.63415597
_cell_length_b   7.63415597
_cell_length_c   15.25012500
_cell_angle_alpha   90.00000000
_cell_angle_beta   90.00000000
_cell_angle_gamma   119.99999976
_symmetry_Int_Tables_number   1
_chemical_formula_structural   Cu22Ni2C7
_chemical_formula_sum   'Cu44 Ni4 C14'
_cell_volume   769.70816509
_cell_formula_units_Z   2
loop_
 _symmetry_equiv_pos_site_id
 _symmetry_equiv_pos_as_xyz
  1  'x, y, z'
loop_
 _atom_site_type_symbol
 _atom_site_label
 _atom_site_symmetry_multiplicity
 _atom_site_fract_x
 _atom_site_fract_y
 _atom_site_fract_z
 _atom_site_occupancy
  C  C0  1  0.82702700  0.17297300  0.60960200  1
  C  C1  1  0.34594600  0.17297300  0.60960200  1
  C  C2  1  0.82702700  0.65405400  0.60960200  1
  C  C3  1  0.17865100  0.82134900  0.38727700  1
  C  C4  1  0.64269800  0.82134900  0.38727700  1
  C  C5  1  0.17865100  0.35730200  0.38727700  1
  C  C6  1  0.17297300  0.82702700  0.10960200  1
  C  C7  1  0.65405400  0.82702700  0.10960200  1
  C  C8  1  0.17297300  0.34594600  0.10960200  1
  C  C9  1  0.82134900  0.17865100  0.88727700  1
  C  C10  1  0.35730200  0.17865100  0.88727700  1
  C  C11  1  0.82134900  0.64269800  0.88727700  1
  C  C12  1  0.66666700  0.33333300  0.24293700  1
  C  C13  1  0.33333300  0.66666700  0.74293700  1
  Ni  Ni14  1  0.66666700  0.33333300  0.59000100  1
  Ni  Ni15  1  0.33333300  0.66666700  0.41081800  1
  Ni  Ni16  1  0.33333300  0.66666700  0.09000100  1
  Ni  Ni17  1  0.66666700  0.33333300  0.91081800  1
  Cu  Cu18  1  0.32974800  0.99836800  0.49850400  1
  Cu  Cu19  1  0.66862100  0.67025200  0.49850400  1
  Cu  Cu20  1  0.00163200  0.33137900  0.49850400  1
  Cu  Cu21  1  0.66862100  0.99836800  0.49850400  1
  Cu  Cu22  1  0.00163200  0.67025200  0.49850400  1
  Cu  Cu23  1  0.32974800  0.33137900  0.49850400  1
  Cu  Cu24  1  0.67025200  0.00163200  0.99850400  1
  Cu  Cu25  1  0.33137900  0.32974800  0.99850400  1
  Cu  Cu26  1  0.99836800  0.66862100  0.99850400  1
  Cu  Cu27  1  0.33137900  0.00163200  0.99850400  1
  Cu  Cu28  1  0.99836800  0.32974800  0.99850400  1
  Cu  Cu29  1  0.67025200  0.66862100  0.99850400  1
  Cu  Cu30  1  0.87653300  0.12346700  0.16054200  1
  Cu  Cu31  1  0.24693500  0.12346700  0.16054200  1
  Cu  Cu32  1  0.87653300  0.75306500  0.16054200  1
  Cu  Cu33  1  0.11309500  0.88690500  0.85320200  1
  Cu  Cu34  1  0.77381000  0.88690500  0.85320200  1
  Cu  Cu35  1  0.11309500  0.22619000  0.85320200  1
  Cu  Cu36  1  0.12346700  0.87653300  0.66054200  1
  Cu  Cu37  1  0.75306500  0.87653300  0.66054200  1
  Cu  Cu38  1  0.12346700  0.24693500  0.66054200  1
  Cu  Cu39  1  0.88690500  0.11309500  0.35320200  1
  Cu  Cu40  1  0.22619000  0.11309500  0.35320200  1
  Cu  Cu41  1  0.88690500  0.77381000  0.35320200  1
  Cu  Cu42  1  0.80450900  0.19549100  0.74967900  1
  Cu  Cu43  1  0.39098300  0.19549100  0.74967900  1
  Cu  Cu44  1  0.80450900  0.60901700  0.74967900  1
  Cu  Cu45  1  0.19549100  0.80450900  0.24967900  1
  Cu  Cu46  1  0.60901700  0.80450900  0.24967900  1
  Cu  Cu47  1  0.19549100  0.39098300  0.24967900  1
  Cu  Cu48  1  0.49329200  0.50670800  0.64683800  1
  Cu  Cu49  1  0.01341700  0.50670800  0.64683800  1
  Cu  Cu50  1  0.49329200  0.98658300  0.64683800  1
  Cu  Cu51  1  0.50742500  0.49257500  0.35042900  1
  Cu  Cu52  1  0.98515000  0.49257500  0.35042900  1
  Cu  Cu53  1  0.50742500  0.01485000  0.35042900  1
  Cu  Cu54  1  0.50670800  0.49329200  0.14683800  1
  Cu  Cu55  1  0.98658300  0.49329200  0.14683800  1
  Cu  Cu56  1  0.50670800  0.01341700  0.14683800  1
  Cu  Cu57  1  0.49257500  0.50742500  0.85042900  1
  Cu  Cu58  1  0.01485000  0.50742500  0.85042900  1
  Cu  Cu59  1  0.49257500  0.98515000  0.85042900  1
  Cu  Cu60  1  0.00000000  0.00000000  0.53909500  1
  Cu  Cu61  1  0.00000000  0.00000000  0.03909500  1
