# generated using pymatgen
data_CuNiC8
_symmetry_space_group_name_H-M   'P 1'
_cell_length_a   5.23208223
_cell_length_b   5.33566350
_cell_length_c   7.89186282
_cell_angle_alpha   89.97057012
_cell_angle_beta   89.82267791
_cell_angle_gamma   90.10514984
_symmetry_Int_Tables_number   1
_chemical_formula_structural   CuNiC8
_chemical_formula_sum   'Cu2 Ni2 C16'
_cell_volume   220.31276000
_cell_formula_units_Z   2
loop_
 _symmetry_equiv_pos_site_id
 _symmetry_equiv_pos_as_xyz
  1  'x, y, z'
loop_
 _atom_site_type_symbol
 _atom_site_label
 _atom_site_symmetry_multiplicity
 _atom_site_fract_x
 _atom_site_fract_y
 _atom_site_fract_z
 _atom_site_occupancy
  C  C0  1  0.00215100  0.03944700  0.27244100  1
  C  C1  1  0.49938300  0.53981100  0.22799300  1
  C  C2  1  0.99798700  0.96045900  0.72765600  1
  C  C3  1  0.50056900  0.46007300  0.77201500  1
  Ni  Ni4  1  0.99982100  0.49993900  0.49983500  1
  Ni  Ni5  1  0.49999300  0.99996600  0.00020100  1
  Cu  Cu6  1  0.99996100  0.50005700  0.99997200  1
  Cu  Cu7  1  0.50001200  0.99997500  0.50004800  1
  C  C8  1  0.65876900  0.29946000  0.40441800  1
  C  C9  1  0.84177000  0.79825000  0.09655100  1
  C  C10  1  0.34126300  0.70041800  0.59549100  1
  C  C11  1  0.15829500  0.20177000  0.90349700  1
  C  C12  1  0.18044300  0.17392800  0.54522000  1
  C  C13  1  0.31979800  0.67454100  0.95405500  1
  C  C14  1  0.81950200  0.82624800  0.45470200  1
  C  C15  1  0.68020100  0.32574000  0.04592900  1
  C  C16  1  0.12916100  0.40221700  0.22481900  1
  C  C17  1  0.37173100  0.90254900  0.27491500  1
  C  C18  1  0.62831400  0.09740600  0.72508800  1
  C  C19  1  0.87088100  0.59774800  0.77515200  1
