# generated using pymatgen
data_Cu(NiC2)2
_symmetry_space_group_name_H-M   'P 1'
_cell_length_a   4.99737300
_cell_length_b   5.10975300
_cell_length_c   10.43236100
_cell_angle_alpha   90.00000000
_cell_angle_beta   90.00000000
_cell_angle_gamma   90.00000000
_symmetry_Int_Tables_number   1
_chemical_formula_structural   Cu(NiC2)2
_chemical_formula_sum   'Cu4 Ni8 C16'
_cell_volume   266.39390265
_cell_formula_units_Z   4
loop_
 _symmetry_equiv_pos_site_id
 _symmetry_equiv_pos_as_xyz
  1  'x, y, z'
loop_
 _atom_site_type_symbol
 _atom_site_label
 _atom_site_symmetry_multiplicity
 _atom_site_fract_x
 _atom_site_fract_y
 _atom_site_fract_z
 _atom_site_occupancy
  Ni  Ni0  1  0.49634900  0.05547400  0.16336000  1
  Ni  Ni1  1  0.99634900  0.44452600  0.83664000  1
  Ni  Ni2  1  0.50365100  0.55547400  0.33664000  1
  Ni  Ni3  1  0.00365100  0.94452600  0.66336000  1
  Ni  Ni4  1  0.50365100  0.94452600  0.83664000  1
  Ni  Ni5  1  0.00365100  0.55547400  0.16336000  1
  Ni  Ni6  1  0.49634900  0.44452600  0.66336000  1
  Ni  Ni7  1  0.99634900  0.05547400  0.33664000  1
  Cu  Cu8  1  0.50000000  0.00000000  0.50000000  1
  Cu  Cu9  1  0.00000000  0.50000000  0.50000000  1
  Cu  Cu10  1  0.50000000  0.50000000  0.00000000  1
  Cu  Cu11  1  0.00000000  0.00000000  0.00000000  1
  C  C12  1  0.70120200  0.28759900  0.45096100  1
  C  C13  1  0.20120200  0.21240100  0.54903900  1
  C  C14  1  0.29879800  0.78759900  0.04903900  1
  C  C15  1  0.79879800  0.71240100  0.95096100  1
  C  C16  1  0.29879800  0.71240100  0.54903900  1
  C  C17  1  0.79879800  0.78759900  0.45096100  1
  C  C18  1  0.70120200  0.21240100  0.95096100  1
  C  C19  1  0.20120200  0.28759900  0.04903900  1
  C  C20  1  0.38537900  0.95535600  0.34160500  1
  C  C21  1  0.88537900  0.54464400  0.65839500  1
  C  C22  1  0.61462100  0.45535600  0.15839500  1
  C  C23  1  0.11462100  0.04464400  0.84160500  1
  C  C24  1  0.61462100  0.04464400  0.65839500  1
  C  C25  1  0.11462100  0.45535600  0.34160500  1
  C  C26  1  0.38537900  0.54464400  0.84160500  1
  C  C27  1  0.88537900  0.95535600  0.15839500  1
