# generated using pymatgen
data_Cu6Ni2C
_symmetry_space_group_name_H-M   'P 1'
_cell_length_a   8.33566233
_cell_length_b   8.33566233
_cell_length_c   25.94349385
_cell_angle_alpha   90.00000000
_cell_angle_beta   90.00000000
_cell_angle_gamma   120.00000453
_symmetry_Int_Tables_number   1
_chemical_formula_structural   Cu6Ni2C
_chemical_formula_sum   'Cu72 Ni24 C12'
_cell_volume   1561.13083400
_cell_formula_units_Z   12
loop_
 _symmetry_equiv_pos_site_id
 _symmetry_equiv_pos_as_xyz
  1  'x, y, z'
loop_
 _atom_site_type_symbol
 _atom_site_label
 _atom_site_symmetry_multiplicity
 _atom_site_fract_x
 _atom_site_fract_y
 _atom_site_fract_z
 _atom_site_occupancy
  C  C0  1  -0.00000000  0.00000000  0.50000000  1
  C  C1  1  -0.00000000  0.00000000  0.83333300  1
  C  C2  1  -0.00000000  0.00000000  0.16666700  1
  C  C3  1  -0.00000000  0.00000000  0.00000000  1
  C  C4  1  -0.00000000  0.00000000  0.33333300  1
  C  C5  1  -0.00000000  0.00000000  0.66666700  1
  C  C6  1  0.50000000  0.50000000  0.50000000  1
  C  C7  1  -0.00000000  0.50000000  0.83333300  1
  C  C8  1  0.50000000  0.00000000  0.16666700  1
  C  C9  1  0.50000000  0.50000000  0.00000000  1
  C  C10  1  -0.00000000  0.50000000  0.33333300  1
  C  C11  1  0.50000000  0.00000000  0.66666700  1
  Ni  Ni12  1  0.80065887  0.19734824  0.75203120  1
  Ni  Ni13  1  0.39668938  0.19934113  0.08536420  1
  Ni  Ni14  1  0.19934113  0.80265176  0.75203120  1
  Ni  Ni15  1  0.60331062  0.80265176  0.58130180  1
  Ni  Ni16  1  0.80265176  0.60331062  0.41869820  1
  Ni  Ni17  1  0.60331062  0.80065887  0.08536420  1
  Ni  Ni18  1  0.19734824  0.80065887  0.24796880  1
  Ni  Ni19  1  0.39668938  0.19734824  0.58130180  1
  Ni  Ni20  1  0.19734824  0.39668938  0.41869820  1
  Ni  Ni21  1  0.80265176  0.19934113  0.24796880  1
  Ni  Ni22  1  0.19934113  0.39668938  0.91463580  1
  Ni  Ni23  1  0.80065887  0.60331062  0.91463580  1
  Ni  Ni24  1  0.70029139  0.31261534  0.75039642  1
  Ni  Ni25  1  0.61232395  0.29970861  0.08372942  1
  Ni  Ni26  1  0.29970861  0.68738466  0.75039642  1
  Ni  Ni27  1  0.38767605  0.68738466  0.58293658  1
  Ni  Ni28  1  0.68738466  0.38767605  0.41706342  1
  Ni  Ni29  1  0.38767605  0.70029139  0.08372942  1
  Ni  Ni30  1  0.31261534  0.70029139  0.24960358  1
  Ni  Ni31  1  0.61232395  0.31261534  0.58293658  1
  Ni  Ni32  1  0.31261534  0.61232395  0.41706342  1
  Ni  Ni33  1  0.68738466  0.29970861  0.24960358  1
  Ni  Ni34  1  0.29970861  0.61232395  0.91627058  1
  Ni  Ni35  1  0.70029139  0.38767605  0.91627058  1
  Cu  Cu36  1  0.83292484  0.99076426  0.91784126  1
  Cu  Cu37  1  0.15783942  0.16707516  0.25117426  1
  Cu  Cu38  1  0.16707516  0.00923574  0.91784126  1
  Cu  Cu39  1  0.84216058  0.00923574  0.41549174  1
  Cu  Cu40  1  0.00923574  0.84216058  0.58450826  1
  Cu  Cu41  1  0.84216058  0.83292484  0.25117426  1
  Cu  Cu42  1  0.99076426  0.83292484  0.08215874  1
  Cu  Cu43  1  0.15783942  0.99076426  0.41549174  1
  Cu  Cu44  1  0.99076426  0.15783942  0.58450826  1
  Cu  Cu45  1  0.00923574  0.16707516  0.08215874  1
  Cu  Cu46  1  0.16707516  0.15783942  0.74882574  1
  Cu  Cu47  1  0.83292484  0.84216058  0.74882574  1
  Cu  Cu48  1  0.50000000  0.50000000  0.82002791  1
  Cu  Cu49  1  -0.00000000  0.50000000  0.15336091  1
  Cu  Cu50  1  -0.00000000  0.50000000  0.51330509  1
  Cu  Cu51  1  0.50000000  0.00000000  0.48669491  1
  Cu  Cu52  1  0.50000000  0.50000000  0.17997209  1
  Cu  Cu53  1  0.50000000  0.00000000  0.84663909  1
  Cu  Cu54  1  0.43109474  0.69738713  0.94659053  1
  Cu  Cu55  1  0.26629239  0.56890526  0.27992353  1
  Cu  Cu56  1  0.56890526  0.30261287  0.94659053  1
  Cu  Cu57  1  0.73370761  0.30261287  0.38674247  1
  Cu  Cu58  1  0.30261287  0.73370761  0.61325753  1
  Cu  Cu59  1  0.73370761  0.43109474  0.27992353  1
  Cu  Cu60  1  0.69738713  0.43109474  0.05340947  1
  Cu  Cu61  1  0.26629239  0.69738713  0.38674247  1
  Cu  Cu62  1  0.69738713  0.26629239  0.61325753  1
  Cu  Cu63  1  0.30261287  0.56890526  0.05340947  1
  Cu  Cu64  1  0.56890526  0.26629239  0.72007647  1
  Cu  Cu65  1  0.43109474  0.73370761  0.72007647  1
  Cu  Cu66  1  0.76897654  0.31962299  0.88494393  1
  Cu  Cu67  1  0.55064645  0.23102346  0.21827693  1
  Cu  Cu68  1  0.23102346  0.68037701  0.88494393  1
  Cu  Cu69  1  0.44935355  0.68037701  0.44838907  1
  Cu  Cu70  1  0.68037701  0.44935355  0.55161093  1
  Cu  Cu71  1  0.44935355  0.76897654  0.21827693  1
  Cu  Cu72  1  0.31962299  0.76897654  0.11505607  1
  Cu  Cu73  1  0.55064645  0.31962299  0.44838907  1
  Cu  Cu74  1  0.31962299  0.55064645  0.55161093  1
  Cu  Cu75  1  0.68037701  0.23102346  0.11505607  1
  Cu  Cu76  1  0.23102346  0.55064645  0.78172307  1
  Cu  Cu77  1  0.76897654  0.44935355  0.78172307  1
  Cu  Cu78  1  0.50000000  0.50000000  0.68263129  1
  Cu  Cu79  1  -0.00000000  0.50000000  0.01596429  1
  Cu  Cu80  1  -0.00000000  0.50000000  0.65070171  1
  Cu  Cu81  1  0.50000000  0.00000000  0.34929829  1
  Cu  Cu82  1  0.50000000  0.50000000  0.31736871  1
  Cu  Cu83  1  0.50000000  0.00000000  0.98403571  1
  Cu  Cu84  1  0.90957624  0.23430512  0.79039980  1
  Cu  Cu85  1  0.32472888  0.09042376  0.12373280  1
  Cu  Cu86  1  0.09042376  0.76569488  0.79039980  1
  Cu  Cu87  1  0.67527112  0.76569488  0.54293320  1
  Cu  Cu88  1  0.76569488  0.67527112  0.45706680  1
  Cu  Cu89  1  0.67527112  0.90957624  0.12373280  1
  Cu  Cu90  1  0.23430512  0.90957624  0.20960020  1
  Cu  Cu91  1  0.32472888  0.23430512  0.54293320  1
  Cu  Cu92  1  0.23430512  0.32472888  0.45706680  1
  Cu  Cu93  1  0.76569488  0.09042376  0.20960020  1
  Cu  Cu94  1  0.09042376  0.32472888  0.87626720  1
  Cu  Cu95  1  0.90957624  0.67527112  0.87626720  1
  Cu  Cu96  1  0.77256541  0.08343695  0.71709585  1
  Cu  Cu97  1  0.31087154  0.22743460  0.05042885  1
  Cu  Cu98  1  0.22743459  0.91656305  0.71709585  1
  Cu  Cu99  1  0.68912846  0.91656305  0.61623715  1
  Cu  Cu100  1  0.91656305  0.68912846  0.38376285  1
  Cu  Cu101  1  0.68912846  0.77256540  0.05042885  1
  Cu  Cu102  1  0.08343695  0.77256541  0.28290415  1
  Cu  Cu103  1  0.31087154  0.08343695  0.61623715  1
  Cu  Cu104  1  0.08343695  0.31087154  0.38376285  1
  Cu  Cu105  1  0.91656305  0.22743459  0.28290415  1
  Cu  Cu106  1  0.22743460  0.31087154  0.94957115  1
  Cu  Cu107  1  0.77256540  0.68912846  0.94957115  1
