# generated using pymatgen
data_Cu(NiC6)4
_symmetry_space_group_name_H-M   'P 1'
_cell_length_a   7.33482500
_cell_length_b   9.03135968
_cell_length_c   12.62703576
_cell_angle_alpha   84.77435938
_cell_angle_beta   89.16895073
_cell_angle_gamma   86.03812993
_symmetry_Int_Tables_number   1
_chemical_formula_structural   Cu(NiC6)4
_chemical_formula_sum   'Cu2 Ni8 C48'
_cell_volume   830.96278062
_cell_formula_units_Z   2
loop_
 _symmetry_equiv_pos_site_id
 _symmetry_equiv_pos_as_xyz
  1  'x, y, z'
loop_
 _atom_site_type_symbol
 _atom_site_label
 _atom_site_symmetry_multiplicity
 _atom_site_fract_x
 _atom_site_fract_y
 _atom_site_fract_z
 _atom_site_occupancy
  C  C0  1  0.17842400  0.99504100  0.75727300  1
  C  C1  1  0.82157600  0.00495900  0.24272700  1
  C  C2  1  0.20768100  0.48996900  0.65975900  1
  C  C3  1  0.79231900  0.51003100  0.34024100  1
  C  C4  1  0.30022500  0.75372700  0.27585900  1
  C  C5  1  0.69977500  0.24627300  0.72414100  1
  C  C6  1  0.18338900  0.23771400  0.46134100  1
  C  C7  1  0.81661100  0.76228600  0.53865900  1
  C  C8  1  0.31158600  0.58279000  0.90407800  1
  C  C9  1  0.68841400  0.41721000  0.09592200  1
  C  C10  1  0.42209100  0.42653100  0.89753100  1
  C  C11  1  0.57790900  0.57346900  0.10246900  1
  C  C12  1  0.18039600  0.38900700  0.97521400  1
  C  C13  1  0.81960400  0.61099300  0.02478600  1
  C  C14  1  0.10959900  0.33556400  0.10485000  1
  C  C15  1  0.89040100  0.66443600  0.89515000  1
  C  C16  1  0.15427200  0.20664300  0.01034000  1
  C  C17  1  0.84572800  0.79335700  0.98966000  1
  Ni  Ni18  1  0.25108200  0.95729300  0.04616400  1
  Ni  Ni19  1  0.74891800  0.04270700  0.95383600  1
  Ni  Ni20  1  0.32002700  0.80151400  0.01293100  1
  Ni  Ni21  1  0.67997300  0.19848600  0.98706900  1
  Ni  Ni22  1  0.28393500  0.80851700  0.52768000  1
  Ni  Ni23  1  0.71606500  0.19148300  0.47232000  1
  Ni  Ni24  1  0.23906500  0.96703000  0.47165200  1
  Ni  Ni25  1  0.76093500  0.03297000  0.52834800  1
  Cu  Cu26  1  0.27744500  0.33338300  0.29534000  1
  Cu  Cu27  1  0.72255500  0.66661700  0.70466000  1
  C  C28  1  0.05481300  0.72825700  0.27159100  1
  C  C29  1  0.94518700  0.27174300  0.72840900  1
  C  C30  1  0.54392600  0.78511400  0.27947000  1
  C  C31  1  0.45607400  0.21488600  0.72053000  1
  C  C32  1  0.23118400  0.96660200  0.14589500  1
  C  C33  1  0.76881600  0.03339800  0.85410500  1
  C  C34  1  0.36015300  0.70597400  0.09227100  1
  C  C35  1  0.63984700  0.29402600  0.90772900  1
  C  C36  1  0.21798700  0.06200000  0.97427300  1
  C  C37  1  0.78201300  0.93800000  0.02572700  1
  C  C38  1  0.32957400  0.77823500  0.91693200  1
  C  C39  1  0.67042600  0.22176500  0.08306800  1
  C  C40  1  0.23341100  0.97244200  0.36981200  1
  C  C41  1  0.76658900  0.02755800  0.63018800  1
  C  C42  1  0.30225300  0.70588400  0.46292400  1
  C  C43  1  0.69774700  0.29411600  0.53707600  1
  C  C44  1  0.29733500  0.78800900  0.62633300  1
  C  C45  1  0.70266500  0.21199100  0.37366700  1
  C  C46  1  0.21136500  0.07549900  0.52654800  1
  C  C47  1  0.78863500  0.92450100  0.47345200  1
  C  C48  1  0.16941400  0.34334600  0.42371800  1
  C  C49  1  0.83058600  0.65665400  0.57628200  1
  C  C50  1  0.09033900  0.36437700  0.21735700  1
  C  C51  1  0.90966100  0.63562300  0.78264300  1
  C  C52  1  0.37260100  0.50334900  0.28800200  1
  C  C53  1  0.62739900  0.49665100  0.71199800  1
  C  C54  1  0.29782300  0.47593700  0.89308000  1
  C  C55  1  0.70217700  0.52406300  0.10692000  1
  C  C56  1  0.10629900  0.31652100  0.02406500  1
  C  C57  1  0.89370100  0.68347900  0.97593500  1
