# generated using pymatgen
data_CuNiC8
_symmetry_space_group_name_H-M   'P 1'
_cell_length_a   8.48948072
_cell_length_b   8.48023825
_cell_length_c   8.49084909
_cell_angle_alpha   90.00000000
_cell_angle_beta   90.00000000
_cell_angle_gamma   90.00000000
_symmetry_Int_Tables_number   1
_chemical_formula_structural   CuNiC8
_chemical_formula_sum   'Cu4 Ni4 C32'
_cell_volume   611.28016275
_cell_formula_units_Z   4
loop_
 _symmetry_equiv_pos_site_id
 _symmetry_equiv_pos_as_xyz
  1  'x, y, z'
loop_
 _atom_site_type_symbol
 _atom_site_label
 _atom_site_symmetry_multiplicity
 _atom_site_fract_x
 _atom_site_fract_y
 _atom_site_fract_z
 _atom_site_occupancy
  Ni  Ni0  1  0.00000000  0.50000000  0.50000000  1
  Ni  Ni1  1  0.50000000  -0.00000000  0.50000000  1
  Ni  Ni2  1  0.50000000  0.50000000  -0.00000000  1
  Ni  Ni3  1  0.50000000  -0.00000000  -0.00000000  1
  Cu  Cu4  1  0.00000000  0.50000000  -0.00000000  1
  Cu  Cu5  1  -0.00000000  -0.00000000  0.50000000  1
  Cu  Cu6  1  -0.00000000  -0.00000000  -0.00000000  1
  Cu  Cu7  1  0.50000000  0.50000000  0.50000000  1
  C  C8  1  0.24779170  0.24968614  0.25001555  1
  C  C9  1  0.75220830  0.75031386  0.25001555  1
  C  C10  1  0.75220830  0.24968614  0.74998445  1
  C  C11  1  0.24779170  0.75031386  0.74998445  1
  C  C12  1  0.75254314  0.75026013  0.74980863  1
  C  C13  1  0.24745686  0.24973987  0.74980863  1
  C  C14  1  0.24745686  0.75026013  0.25019137  1
  C  C15  1  0.75254314  0.24973987  0.25019137  1
  C  C16  1  0.99291176  0.19388295  0.29612966  1
  C  C17  1  0.00708824  0.80611705  0.29612966  1
  C  C18  1  0.00708824  0.19388295  0.70387034  1
  C  C19  1  0.99291176  0.80611705  0.70387034  1
  C  C20  1  0.28504894  0.99277616  0.19972349  1
  C  C21  1  0.28504894  0.00722384  0.80027651  1
  C  C22  1  0.71495106  0.00722384  0.19972349  1
  C  C23  1  0.71495106  0.99277616  0.80027651  1
  C  C24  1  0.19208285  0.29364044  0.99201508  1
  C  C25  1  0.80791715  0.29364044  0.00798492  1
  C  C26  1  0.19208285  0.70635956  0.00798492  1
  C  C27  1  0.80791715  0.70635956  0.99201508  1
  C  C28  1  0.50758350  0.29478161  0.21317776  1
  C  C29  1  0.49241650  0.70521839  0.21317776  1
  C  C30  1  0.49241650  0.29478161  0.78682224  1
  C  C31  1  0.50758350  0.70521839  0.78682224  1
  C  C32  1  0.21317204  0.50682961  0.29710164  1
  C  C33  1  0.21317204  0.49317039  0.70289836  1
  C  C34  1  0.78682796  0.49317039  0.29710164  1
  C  C35  1  0.78682796  0.50682961  0.70289836  1
  C  C36  1  0.29781424  0.21569729  0.50676590  1
  C  C37  1  0.70218576  0.21569729  0.49323410  1
  C  C38  1  0.29781424  0.78430271  0.49323410  1
  C  C39  1  0.70218576  0.78430271  0.50676590  1
