# generated using pymatgen
data_Cu5Ni2C25
_symmetry_space_group_name_H-M   'P 1'
_cell_length_a   5.91936458
_cell_length_b   5.91936458
_cell_length_c   10.13557140
_cell_angle_alpha   72.97903302
_cell_angle_beta   72.97903302
_cell_angle_gamma   59.03370932
_symmetry_Int_Tables_number   1
_chemical_formula_structural   Cu5Ni2C25
_chemical_formula_sum   'Cu5 Ni2 C25'
_cell_volume   286.77555484
_cell_formula_units_Z   1
loop_
 _symmetry_equiv_pos_site_id
 _symmetry_equiv_pos_as_xyz
  1  'x, y, z'
loop_
 _atom_site_type_symbol
 _atom_site_label
 _atom_site_symmetry_multiplicity
 _atom_site_fract_x
 _atom_site_fract_y
 _atom_site_fract_z
 _atom_site_occupancy
  C  C0  1  0.00000000  0.50000000  0.00000000  1
  C  C1  1  0.50000000  0.00000000  0.00000000  1
  C  C2  1  0.25533200  0.25533300  0.74342700  1
  C  C3  1  0.75006800  0.75006800  0.74511600  1
  C  C4  1  0.50000000  0.00000000  0.50000000  1
  C  C5  1  0.00000000  0.50000000  0.50000000  1
  C  C6  1  0.74466800  0.74466800  0.25657300  1
  C  C7  1  0.24993200  0.24993200  0.25488400  1
  C  C8  1  0.50000000  0.50000000  0.50000000  1
  Ni  Ni9  1  0.00000000  0.00000000  0.00000000  1
  Ni  Ni10  1  0.00000000  0.00000000  0.50000000  1
  Cu  Cu11  1  0.50000000  0.50000000  0.00000000  1
  Cu  Cu12  1  0.25626000  0.74427000  0.74383600  1
  Cu  Cu13  1  0.74427000  0.25626000  0.74383600  1
  Cu  Cu14  1  0.74374000  0.25573000  0.25616400  1
  Cu  Cu15  1  0.25573000  0.74374000  0.25616400  1
  C  C16  1  0.12411600  0.64828900  0.11666400  1
  C  C17  1  0.64828900  0.12411600  0.11666400  1
  C  C18  1  0.38331100  0.38331100  0.87758800  1
  C  C19  1  0.89444700  0.89444700  0.87306500  1
  C  C20  1  0.65151900  0.11993100  0.62233400  1
  C  C21  1  0.11993100  0.65151900  0.62233400  1
  C  C22  1  0.88463000  0.88463000  0.38182800  1
  C  C23  1  0.38730100  0.38730100  0.35833100  1
  C  C24  1  0.87588400  0.35171100  0.88333600  1
  C  C25  1  0.35171100  0.87588400  0.88333600  1
  C  C26  1  0.11537000  0.11537000  0.61817200  1
  C  C27  1  0.61269900  0.61269900  0.64166900  1
  C  C28  1  0.34848100  0.88006900  0.37766600  1
  C  C29  1  0.88006900  0.34848100  0.37766600  1
  C  C30  1  0.61668900  0.61668900  0.12241200  1
  C  C31  1  0.10555300  0.10555300  0.12693500  1
