# generated using pymatgen
data_Cu3(NiC)4
_symmetry_space_group_name_H-M   'P 1'
_cell_length_a   4.62873300
_cell_length_b   10.39347800
_cell_length_c   22.90977900
_cell_angle_alpha   90.00000000
_cell_angle_beta   90.00000000
_cell_angle_gamma   90.00000000
_symmetry_Int_Tables_number   1
_chemical_formula_structural   Cu3(NiC)4
_chemical_formula_sum   'Cu12 Ni16 C16'
_cell_volume   1102.15818676
_cell_formula_units_Z   4
loop_
 _symmetry_equiv_pos_site_id
 _symmetry_equiv_pos_as_xyz
  1  'x, y, z'
loop_
 _atom_site_type_symbol
 _atom_site_label
 _atom_site_symmetry_multiplicity
 _atom_site_fract_x
 _atom_site_fract_y
 _atom_site_fract_z
 _atom_site_occupancy
  C  C0  1  0.24972300  0.36119400  0.79932700  1
  C  C1  1  0.24972300  0.86119400  0.70067300  1
  C  C2  1  0.74972300  0.63880600  0.20067300  1
  C  C3  1  0.74972300  0.13880600  0.29932700  1
  Ni  Ni4  1  0.74962600  0.41773200  0.90675000  1
  Ni  Ni5  1  0.74962600  0.91773200  0.59325000  1
  Ni  Ni6  1  0.24962600  0.58226800  0.09325000  1
  Ni  Ni7  1  0.24962600  0.08226800  0.40675000  1
  Ni  Ni8  1  0.75062100  0.53000300  0.86216800  1
  Ni  Ni9  1  0.75062100  0.03000300  0.63783200  1
  Ni  Ni10  1  0.25062100  0.46999700  0.13783200  1
  Ni  Ni11  1  0.25062100  0.96999700  0.36216800  1
  Ni  Ni12  1  0.75332800  0.35488400  0.00747800  1
  Ni  Ni13  1  0.75332800  0.85488400  0.49252200  1
  Ni  Ni14  1  0.25332800  0.64511600  0.99252200  1
  Ni  Ni15  1  0.25332800  0.14511600  0.50747800  1
  Ni  Ni16  1  0.57231300  0.48111000  0.99631100  1
  Ni  Ni17  1  0.07231300  0.51889000  0.00368900  1
  Ni  Ni18  1  0.07231300  0.01889000  0.49631100  1
  Ni  Ni19  1  0.57231300  0.98111000  0.50368900  1
  C  C20  1  0.75002000  0.95787300  0.90510000  1
  C  C21  1  0.75002000  0.45787300  0.59490000  1
  C  C22  1  0.25002000  0.04212700  0.09490000  1
  C  C23  1  0.25002000  0.54212700  0.40510000  1
  Cu  Cu24  1  0.74855600  0.84314300  0.04853300  1
  Cu  Cu25  1  0.74855600  0.34314300  0.45146700  1
  Cu  Cu26  1  0.24855600  0.15685700  0.95146700  1
  Cu  Cu27  1  0.24855600  0.65685700  0.54853300  1
  Cu  Cu28  1  0.24893000  0.75169000  0.86942000  1
  Cu  Cu29  1  0.24893000  0.25169000  0.63058000  1
  Cu  Cu30  1  0.74893000  0.24831000  0.13058000  1
  Cu  Cu31  1  0.74893000  0.74831000  0.36942000  1
  Cu  Cu32  1  0.74992100  0.08332700  0.78383600  1
  Cu  Cu33  1  0.74992100  0.58332700  0.71616400  1
  Cu  Cu34  1  0.24992100  0.91667300  0.21616400  1
  Cu  Cu35  1  0.24992100  0.41667300  0.28383600  1
  C  C36  1  0.74913600  0.43586600  0.86418500  1
  C  C37  1  0.74913600  0.93586600  0.63581500  1
  C  C38  1  0.24913600  0.56413400  0.13581500  1
  C  C39  1  0.24913600  0.06413400  0.36418500  1
  C  C40  1  0.75652600  0.43597200  0.98578000  1
  C  C41  1  0.75652600  0.93597200  0.51422000  1
  C  C42  1  0.25652600  0.56402800  0.01422000  1
  C  C43  1  0.25652600  0.06402800  0.48578000  1
