# generated using pymatgen
data_Cu(Ni3C)2
_symmetry_space_group_name_H-M   'P 1'
_cell_length_a   8.38310300
_cell_length_b   13.72993700
_cell_length_c   17.15349738
_cell_angle_alpha   68.22154061
_cell_angle_beta   90.00000000
_cell_angle_gamma   90.00000000
_symmetry_Int_Tables_number   1
_chemical_formula_structural   Cu(Ni3C)2
_chemical_formula_sum   'Cu8 Ni48 C16'
_cell_volume   1833.43946628
_cell_formula_units_Z   8
loop_
 _symmetry_equiv_pos_site_id
 _symmetry_equiv_pos_as_xyz
  1  'x, y, z'
loop_
 _atom_site_type_symbol
 _atom_site_label
 _atom_site_symmetry_multiplicity
 _atom_site_fract_x
 _atom_site_fract_y
 _atom_site_fract_z
 _atom_site_occupancy
  C  C0  1  0.71571500  0.97482800  0.82908200  1
  C  C1  1  0.28428500  0.02517200  0.17091800  1
  C  C2  1  0.21571500  0.52517200  0.17091800  1
  C  C3  1  0.78428500  0.47482800  0.82908200  1
  C  C4  1  0.19544900  0.47766600  0.35112400  1
  C  C5  1  0.80455100  0.52233400  0.64887600  1
  C  C6  1  0.69544900  0.02233400  0.64887600  1
  C  C7  1  0.30455100  0.97766600  0.35112400  1
  C  C8  1  0.29128500  0.91135800  0.74055700  1
  C  C9  1  0.70871500  0.08864200  0.25944300  1
  C  C10  1  0.79128500  0.58864200  0.25944300  1
  C  C11  1  0.20871500  0.41135800  0.74055700  1
  C  C12  1  0.05108100  0.91068100  0.87609200  1
  C  C13  1  0.94891900  0.08931900  0.12390800  1
  C  C14  1  0.55108100  0.58931900  0.12390800  1
  C  C15  1  0.44891900  0.41068100  0.87609200  1
  Ni  Ni16  1  0.25408600  0.14888300  0.61257400  1
  Ni  Ni17  1  0.74591400  0.85111700  0.38742600  1
  Ni  Ni18  1  0.75408600  0.35111700  0.38742600  1
  Ni  Ni19  1  0.24591400  0.64888300  0.61257400  1
  Ni  Ni20  1  0.32796000  0.18890700  0.39057000  1
  Ni  Ni21  1  0.67204000  0.81109300  0.60943000  1
  Ni  Ni22  1  0.82796000  0.31109300  0.60943000  1
  Ni  Ni23  1  0.17204000  0.68890700  0.39057000  1
  Ni  Ni24  1  0.86867900  0.89851100  0.86572200  1
  Ni  Ni25  1  0.13132100  0.10148900  0.13427800  1
  Ni  Ni26  1  0.36867900  0.60148900  0.13427800  1
  Ni  Ni27  1  0.63132100  0.39851100  0.86572200  1
  Ni  Ni28  1  0.14367900  0.93340100  0.78951200  1
  Ni  Ni29  1  0.85632100  0.06659900  0.21048800  1
  Ni  Ni30  1  0.64367900  0.56659900  0.21048800  1
  Ni  Ni31  1  0.35632100  0.43340100  0.78951200  1
  Ni  Ni32  1  0.14354900  0.17873700  0.57530500  1
  Ni  Ni33  1  0.85645100  0.82126300  0.42469500  1
  Ni  Ni34  1  0.64354900  0.32126300  0.42469500  1
  Ni  Ni35  1  0.35645100  0.67873700  0.57530500  1
  Ni  Ni36  1  0.70113700  0.28547100  0.62094500  1
  Ni  Ni37  1  0.29886300  0.71452900  0.37905500  1
  Ni  Ni38  1  0.20113700  0.21452900  0.37905500  1
  Ni  Ni39  1  0.79886300  0.78547100  0.62094500  1
  Ni  Ni40  1  0.21809200  0.42228900  0.44413200  1
  Ni  Ni41  1  0.78190800  0.57771100  0.55586800  1
  Ni  Ni42  1  0.71809200  0.07771100  0.55586800  1
  Ni  Ni43  1  0.28190800  0.92228900  0.44413200  1
  Ni  Ni44  1  0.15490300  0.16405800  0.85422200  1
  Ni  Ni45  1  0.84509700  0.83594200  0.14577800  1
  Ni  Ni46  1  0.65490300  0.33594200  0.14577800  1
  Ni  Ni47  1  0.34509700  0.66405800  0.85422200  1
  Ni  Ni48  1  0.14170300  0.89546600  0.95941500  1
  Ni  Ni49  1  0.85829700  0.10453400  0.04058500  1
  Ni  Ni50  1  0.64170300  0.60453400  0.04058500  1
  Ni  Ni51  1  0.35829700  0.39546600  0.95941500  1
  Ni  Ni52  1  0.66047300  0.95288300  0.74169200  1
  Ni  Ni53  1  0.33952700  0.04711700  0.25830800  1
  Ni  Ni54  1  0.16047300  0.54711700  0.25830800  1
  Ni  Ni55  1  0.83952700  0.45288300  0.74169200  1
  Ni  Ni56  1  0.56246900  0.91482700  0.89434000  1
  Ni  Ni57  1  0.43753100  0.08517300  0.10566000  1
  Ni  Ni58  1  0.06246900  0.58517300  0.10566000  1
  Ni  Ni59  1  0.93753100  0.41482700  0.89434000  1
  Ni  Ni60  1  0.26621500  0.17511300  0.88551100  1
  Ni  Ni61  1  0.73378500  0.82488700  0.11448900  1
  Ni  Ni62  1  0.76621500  0.32488700  0.11448900  1
  Ni  Ni63  1  0.23378500  0.67511300  0.88551100  1
  Cu  Cu64  1  0.26600500  0.89191800  0.66189100  1
  Cu  Cu65  1  0.73399500  0.10808200  0.33810900  1
  Cu  Cu66  1  0.76600500  0.60808200  0.33810900  1
  Cu  Cu67  1  0.23399500  0.39191800  0.66189100  1
  Cu  Cu68  1  0.72935300  0.08747500  0.81693400  1
  Cu  Cu69  1  0.27064700  0.91252500  0.18306600  1
  Cu  Cu70  1  0.22935300  0.41252500  0.18306600  1
  Cu  Cu71  1  0.77064700  0.58747500  0.81693400  1
