# generated using pymatgen
data_Cu(NiC3)2
_symmetry_space_group_name_H-M   'P 1'
_cell_length_a   5.59737223
_cell_length_b   5.68354273
_cell_length_c   11.86717800
_cell_angle_alpha   90.00000000
_cell_angle_beta   90.00000000
_cell_angle_gamma   101.83636552
_symmetry_Int_Tables_number   1
_chemical_formula_structural   Cu(NiC3)2
_chemical_formula_sum   'Cu4 Ni8 C24'
_cell_volume   369.50213975
_cell_formula_units_Z   4
loop_
 _symmetry_equiv_pos_site_id
 _symmetry_equiv_pos_as_xyz
  1  'x, y, z'
loop_
 _atom_site_type_symbol
 _atom_site_label
 _atom_site_symmetry_multiplicity
 _atom_site_fract_x
 _atom_site_fract_y
 _atom_site_fract_z
 _atom_site_occupancy
  C  C0  1  0.31170200  0.20712900  0.57654800  1
  C  C1  1  0.18829800  0.29287100  0.07654800  1
  C  C2  1  0.65216500  0.76681100  0.45035000  1
  C  C3  1  0.84783500  0.73318900  0.95035000  1
  Ni  Ni4  1  0.39770900  0.11327400  0.86897000  1
  Ni  Ni5  1  0.10229100  0.38672600  0.36897000  1
  Ni  Ni6  1  0.62831100  0.90423900  0.14800100  1
  Ni  Ni7  1  0.87168900  0.59576100  0.64800100  1
  Ni  Ni8  1  0.38741500  0.13410200  0.28921700  1
  Ni  Ni9  1  0.11258500  0.36589800  0.78921700  1
  Ni  Ni10  1  0.64296600  0.89297300  0.72771800  1
  Ni  Ni11  1  0.85703400  0.60702700  0.22771800  1
  Cu  Cu12  1  0.42313900  0.46133300  0.90049900  1
  Cu  Cu13  1  0.07686100  0.03866700  0.40049900  1
  Cu  Cu14  1  0.37246500  0.81809400  0.02221200  1
  Cu  Cu15  1  0.12753500  0.68190600  0.52221200  1
  C  C16  1  0.47297200  0.07351500  0.18628600  1
  C  C17  1  0.02702800  0.42648500  0.68628600  1
  C  C18  1  0.57993400  0.97668600  0.83238800  1
  C  C19  1  0.92006600  0.52331400  0.33238800  1
  C  C20  1  0.47233700  0.72170000  0.06832800  1
  C  C21  1  0.02766300  0.77830000  0.56832800  1
  C  C22  1  0.52946700  0.35175300  0.92496800  1
  C  C23  1  0.97053300  0.14824700  0.42496800  1
  C  C24  1  0.41344800  0.04193200  0.39259500  1
  C  C25  1  0.08655200  0.45806800  0.89259500  1
  C  C26  1  0.56701600  0.94825800  0.62490000  1
  C  C27  1  0.93298400  0.55174200  0.12489900  1
  C  C28  1  0.26088000  0.19389200  0.77282400  1
  C  C29  1  0.23912000  0.30610800  0.27282400  1
  C  C30  1  0.69693200  0.76468100  0.24495400  1
  C  C31  1  0.80306800  0.73531900  0.74495400  1
  C  C32  1  0.27115000  0.51642100  0.45010100  1
  C  C33  1  0.22885000  0.98357900  0.95010100  1
  C  C34  1  0.66056800  0.47829500  0.58614200  1
  C  C35  1  0.83943200  0.02170500  0.08614200  1
