# generated using pymatgen
data_Cu3Ni3C5
_symmetry_space_group_name_H-M   'P 1'
_cell_length_a   10.03669400
_cell_length_b   11.23346500
_cell_length_c   21.25392169
_cell_angle_alpha   90.00000000
_cell_angle_beta   109.54272019
_cell_angle_gamma   90.00000000
_symmetry_Int_Tables_number   1
_chemical_formula_structural   Cu3Ni3C5
_chemical_formula_sum   'Cu24 Ni24 C40'
_cell_volume   2258.26676804
_cell_formula_units_Z   8
loop_
 _symmetry_equiv_pos_site_id
 _symmetry_equiv_pos_as_xyz
  1  'x, y, z'
loop_
 _atom_site_type_symbol
 _atom_site_label
 _atom_site_symmetry_multiplicity
 _atom_site_fract_x
 _atom_site_fract_y
 _atom_site_fract_z
 _atom_site_occupancy
  C  C0  1  0.46845800  0.78354700  0.42547900  1
  C  C1  1  0.53154200  0.28354700  0.07452100  1
  C  C2  1  0.53154200  0.21645300  0.57452100  1
  C  C3  1  0.46845800  0.71645300  0.92547900  1
  C  C4  1  0.91677300  0.74552400  0.32990200  1
  C  C5  1  0.08322700  0.24552400  0.17009800  1
  C  C6  1  0.08322700  0.25447600  0.67009800  1
  C  C7  1  0.91677300  0.75447600  0.82990200  1
  C  C8  1  0.97507900  0.76750600  0.09195100  1
  C  C9  1  0.02492100  0.26750500  0.40804900  1
  C  C10  1  0.02492100  0.23249400  0.90804900  1
  C  C11  1  0.97507900  0.73249400  0.59195100  1
  C  C12  1  0.41736900  0.72677500  0.13317100  1
  C  C13  1  0.58263100  0.22677500  0.36682900  1
  C  C14  1  0.58263100  0.27322500  0.86682900  1
  C  C15  1  0.41736900  0.77322500  0.63317100  1
  Ni  Ni16  1  0.19221300  0.84972300  0.23703800  1
  Ni  Ni17  1  0.80778700  0.34972300  0.26296200  1
  Ni  Ni18  1  0.80778700  0.15027700  0.76296200  1
  Ni  Ni19  1  0.19221300  0.65027700  0.73703800  1
  Ni  Ni20  1  0.19332800  0.50842100  0.04705800  1
  Ni  Ni21  1  0.80667200  0.00842100  0.45294200  1
  Ni  Ni22  1  0.80667200  0.49157900  0.95294200  1
  Ni  Ni23  1  0.19332800  0.99157900  0.54705800  1
  Ni  Ni24  1  0.69033000  0.88910600  0.14693800  1
  Ni  Ni25  1  0.30967000  0.38910600  0.35306200  1
  Ni  Ni26  1  0.30967000  0.11089400  0.85306200  1
  Ni  Ni27  1  0.69033000  0.61089400  0.64693800  1
  Ni  Ni28  1  0.55342100  0.98736000  0.28192700  1
  Ni  Ni29  1  0.44657900  0.48736000  0.21807300  1
  Ni  Ni30  1  0.44657900  0.01264000  0.71807300  1
  Ni  Ni31  1  0.55342100  0.51264000  0.78192700  1
  Ni  Ni32  1  0.18505200  0.50826100  0.47485900  1
  Ni  Ni33  1  0.81494800  0.00826100  0.02514100  1
  Ni  Ni34  1  0.81494800  0.49173900  0.52514100  1
  Ni  Ni35  1  0.18505200  0.99173900  0.97485900  1
  Ni  Ni36  1  0.75371700  0.58298600  0.11166100  1
  Ni  Ni37  1  0.24628300  0.08298600  0.38833900  1
  Ni  Ni38  1  0.24628300  0.41701400  0.88833900  1
  Ni  Ni39  1  0.75371700  0.91701400  0.61166100  1
  Cu  Cu40  1  0.18428000  0.89750800  0.16200800  1
  Cu  Cu41  1  0.81572000  0.39750800  0.33799200  1
  Cu  Cu42  1  0.81572000  0.10249200  0.83799200  1
  Cu  Cu43  1  0.18428000  0.60249200  0.66200800  1
  Cu  Cu44  1  0.20521700  0.65306200  0.03282500  1
  Cu  Cu45  1  0.79478300  0.15306200  0.46717500  1
  Cu  Cu46  1  0.79478300  0.34693800  0.96717500  1
  Cu  Cu47  1  0.20521700  0.84693800  0.53282500  1
  Cu  Cu48  1  0.52514600  0.90305400  0.09517800  1
  Cu  Cu49  1  0.47485400  0.40305400  0.40482200  1
  Cu  Cu50  1  0.47485400  0.09694600  0.90482200  1
  Cu  Cu51  1  0.52514600  0.59694600  0.59517800  1
  Cu  Cu52  1  0.49512000  0.62596100  0.24333000  1
  Cu  Cu53  1  0.50488000  0.12596100  0.25667000  1
  Cu  Cu54  1  0.50488000  0.37403900  0.75667000  1
  Cu  Cu55  1  0.49512000  0.87403900  0.74333000  1
  Cu  Cu56  1  0.82656200  0.62193200  0.49007800  1
  Cu  Cu57  1  0.17343800  0.12193200  0.00992200  1
  Cu  Cu58  1  0.17343800  0.37806800  0.50992200  1
  Cu  Cu59  1  0.82656200  0.87806800  0.99007800  1
  Cu  Cu60  1  0.92815800  0.58576000  0.14770100  1
  Cu  Cu61  1  0.07184200  0.08576000  0.35229900  1
  Cu  Cu62  1  0.07184200  0.41424000  0.85229900  1
  Cu  Cu63  1  0.92815800  0.91424000  0.64770100  1
  C  C64  1  0.20096200  0.81864500  0.29120700  1
  C  C65  1  0.79903800  0.31864500  0.20879300  1
  C  C66  1  0.79903800  0.18135500  0.70879300  1
  C  C67  1  0.20096200  0.68135500  0.79120700  1
  C  C68  1  0.82198900  0.90529300  0.44747100  1
  C  C69  1  0.17801100  0.40529300  0.05252900  1
  C  C70  1  0.17801100  0.09470700  0.55252900  1
  C  C71  1  0.82198900  0.59470700  0.94747100  1
  C  C72  1  0.80982400  0.88359700  0.18142700  1
  C  C73  1  0.19017600  0.38359700  0.31857300  1
  C  C74  1  0.19017600  0.11640300  0.81857300  1
  C  C75  1  0.80982400  0.61640300  0.68142700  1
  C  C76  1  0.58441600  0.88694900  0.29535900  1
  C  C77  1  0.41558400  0.38694900  0.20464100  1
  C  C78  1  0.41558400  0.11305100  0.70464100  1
  C  C79  1  0.58441600  0.61305100  0.79535900  1
  C  C80  1  0.19885400  0.60182800  0.45252700  1
  C  C81  1  0.80114600  0.10182800  0.04747300  1
  C  C82  1  0.80114600  0.39817200  0.54747300  1
  C  C83  1  0.19885400  0.89817200  0.95252700  1
  C  C84  1  0.62968400  0.57449700  0.08848600  1
  C  C85  1  0.37031600  0.07449700  0.41151400  1
  C  C86  1  0.37031600  0.42550300  0.91151400  1
  C  C87  1  0.62968400  0.92550300  0.58848600  1
