# generated using pymatgen
data_Cu4NiC11
_symmetry_space_group_name_H-M   'P 1'
_cell_length_a   7.42830500
_cell_length_b   7.42830500
_cell_length_c   15.13223000
_cell_angle_alpha   90.00000000
_cell_angle_beta   90.00000000
_cell_angle_gamma   90.00000000
_symmetry_Int_Tables_number   1
_chemical_formula_structural   Cu4NiC11
_chemical_formula_sum   'Cu16 Ni4 C44'
_cell_volume   834.99214133
_cell_formula_units_Z   4
loop_
 _symmetry_equiv_pos_site_id
 _symmetry_equiv_pos_as_xyz
  1  'x, y, z'
loop_
 _atom_site_type_symbol
 _atom_site_label
 _atom_site_symmetry_multiplicity
 _atom_site_fract_x
 _atom_site_fract_y
 _atom_site_fract_z
 _atom_site_occupancy
  Ni  Ni0  1  0.50000000  0.50000000  0.50000000  1
  Ni  Ni1  1  0.00000000  0.00000000  0.50000000  1
  Ni  Ni2  1  0.00000000  0.00000000  0.00000000  1
  Ni  Ni3  1  0.50000000  0.50000000  0.00000000  1
  Cu  Cu4  1  0.14535900  0.23642000  0.64805400  1
  Cu  Cu5  1  0.85464100  0.76358000  0.64805400  1
  Cu  Cu6  1  0.23642000  0.14535900  0.85194600  1
  Cu  Cu7  1  0.73642000  0.35464100  0.64805400  1
  Cu  Cu8  1  0.26358000  0.64535900  0.64805400  1
  Cu  Cu9  1  0.35464100  0.73642000  0.85194600  1
  Cu  Cu10  1  0.64535900  0.26358000  0.85194600  1
  Cu  Cu11  1  0.76358000  0.85464100  0.85194600  1
  Cu  Cu12  1  0.35464100  0.26358000  0.35194600  1
  Cu  Cu13  1  0.64535900  0.73642000  0.35194600  1
  Cu  Cu14  1  0.26358000  0.35464100  0.14805400  1
  Cu  Cu15  1  0.76358000  0.14535900  0.35194600  1
  Cu  Cu16  1  0.23642000  0.85464100  0.35194600  1
  Cu  Cu17  1  0.14535900  0.76358000  0.14805400  1
  Cu  Cu18  1  0.85464100  0.23642000  0.14805400  1
  Cu  Cu19  1  0.73642000  0.64535900  0.14805400  1
  C  C20  1  0.50000000  0.00000000  0.57230400  1
  C  C21  1  0.00000000  0.50000000  0.92769600  1
  C  C22  1  0.00000000  0.50000000  0.42769600  1
  C  C23  1  0.50000000  0.00000000  0.07230400  1
  C  C24  1  0.21474200  0.08937300  0.57572100  1
  C  C25  1  0.78525800  0.91062700  0.57572100  1
  C  C26  1  0.08937300  0.21474200  0.92427900  1
  C  C27  1  0.58937300  0.28525800  0.57572100  1
  C  C28  1  0.41062700  0.71474200  0.57572100  1
  C  C29  1  0.28525800  0.58937300  0.92427900  1
  C  C30  1  0.71474200  0.41062700  0.92427900  1
  C  C31  1  0.91062700  0.78525800  0.92427900  1
  C  C32  1  0.28525800  0.41062700  0.42427900  1
  C  C33  1  0.71474200  0.58937300  0.42427900  1
  C  C34  1  0.41062700  0.28525800  0.07572100  1
  C  C35  1  0.91062700  0.21474200  0.42427900  1
  C  C36  1  0.08937300  0.78525800  0.42427900  1
  C  C37  1  0.21474200  0.91062700  0.07572100  1
  C  C38  1  0.78525800  0.08937300  0.07572100  1
  C  C39  1  0.25754100  0.07018600  0.36829200  1
  C  C40  1  0.58937300  0.71474200  0.07572100  1
  C  C41  1  0.75754100  0.57018600  0.63170800  1
  C  C42  1  0.42981400  0.24245900  0.86829200  1
  C  C43  1  0.92981400  0.25754100  0.63170800  1
  C  C44  1  0.07018600  0.74245900  0.63170800  1
  C  C45  1  0.25754100  0.92981400  0.86829200  1
  C  C46  1  0.74245900  0.07018600  0.86829200  1
  C  C47  1  0.57018600  0.75754100  0.86829200  1
  C  C48  1  0.67616400  0.67616400  0.25000000  1
  C  C49  1  0.82383600  0.17616400  0.25000000  1
  C  C50  1  0.17616400  0.82383600  0.25000000  1
  C  C51  1  0.32383600  0.32383600  0.25000000  1
  C  C52  1  0.82383600  0.82383600  0.75000000  1
  C  C53  1  0.67616400  0.32383600  0.75000000  1
  C  C54  1  0.32383600  0.67616400  0.75000000  1
  C  C55  1  0.17616400  0.17616400  0.75000000  1
  C  C56  1  0.92981400  0.74245900  0.13170800  1
  C  C57  1  0.75754100  0.42981400  0.13170800  1
  C  C58  1  0.24245900  0.57018600  0.13170800  1
  C  C59  1  0.42981400  0.75754100  0.36829200  1
  C  C60  1  0.57018600  0.24245900  0.36829200  1
  C  C61  1  0.07018600  0.25754100  0.13170800  1
  C  C62  1  0.74245900  0.92981400  0.36829200  1
  C  C63  1  0.24245900  0.42981400  0.63170800  1
