# generated using pymatgen
data_CuNiC29
_symmetry_space_group_name_H-M   'P 1'
_cell_length_a   4.28158800
_cell_length_b   8.53176100
_cell_length_c   8.62417100
_cell_angle_alpha   90.00000000
_cell_angle_beta   90.00000000
_cell_angle_gamma   90.00000000
_symmetry_Int_Tables_number   1
_chemical_formula_structural   CuNiC29
_chemical_formula_sum   'Cu1 Ni1 C29'
_cell_volume   315.03652964
_cell_formula_units_Z   1
loop_
 _symmetry_equiv_pos_site_id
 _symmetry_equiv_pos_as_xyz
  1  'x, y, z'
loop_
 _atom_site_type_symbol
 _atom_site_label
 _atom_site_symmetry_multiplicity
 _atom_site_fract_x
 _atom_site_fract_y
 _atom_site_fract_z
 _atom_site_occupancy
  Ni  Ni0  1  0.00000000  0.49644200  0.50000000  1
  Cu  Cu1  1  0.00000000  0.02243300  0.00000000  1
  C  C2  1  0.00000000  0.00200200  0.50000000  1
  C  C3  1  0.00000000  0.47777000  0.00000000  1
  C  C4  1  0.50000000  0.99889300  0.24520400  1
  C  C5  1  0.50000000  0.99889300  0.75479600  1
  C  C6  1  0.50000000  0.50123000  0.25271900  1
  C  C7  1  0.50000000  0.50123000  0.74728100  1
  C  C8  1  0.50000000  0.75432300  0.00000000  1
  C  C9  1  0.50000000  0.74804600  0.50000000  1
  C  C10  1  0.50000000  0.23892100  0.00000000  1
  C  C11  1  0.50000000  0.25219000  0.50000000  1
  C  C12  1  0.00000000  0.75162000  0.27327800  1
  C  C13  1  0.00000000  0.75162000  0.72672200  1
  C  C14  1  0.00000000  0.24434400  0.25064300  1
  C  C15  1  0.00000000  0.24434400  0.74935700  1
  C  C16  1  0.00000000  0.76282400  0.50000000  1
  C  C17  1  0.00000000  0.24831300  0.00000000  1
  C  C18  1  0.00000000  0.23658800  0.50000000  1
  C  C19  1  0.50000000  0.75033400  0.24114400  1
  C  C20  1  0.50000000  0.75033400  0.75885600  1
  C  C21  1  0.50000000  0.25111400  0.24683400  1
  C  C22  1  0.50000000  0.25111400  0.75316600  1
  C  C23  1  0.50000000  0.98868000  0.00000000  1
  C  C24  1  0.50000000  0.99693300  0.50000000  1
  C  C25  1  0.50000000  0.51286600  0.00000000  1
  C  C26  1  0.50000000  0.50346300  0.50000000  1
  C  C27  1  0.00000000  0.99242700  0.24800600  1
  C  C28  1  0.00000000  0.99242700  0.75199400  1
  C  C29  1  0.00000000  0.51414100  0.22774300  1
  C  C30  1  0.00000000  0.51414100  0.77225700  1
