# generated using pymatgen
data_CuNiC16
_symmetry_space_group_name_H-M   'P 1'
_cell_length_a   6.00883600
_cell_length_b   9.85915300
_cell_length_c   14.63546588
_cell_angle_alpha   89.83473401
_cell_angle_beta   90.00000000
_cell_angle_gamma   90.00000000
_symmetry_Int_Tables_number   1
_chemical_formula_structural   CuNiC16
_chemical_formula_sum   'Cu4 Ni4 C64'
_cell_volume   867.03115294
_cell_formula_units_Z   4
loop_
 _symmetry_equiv_pos_site_id
 _symmetry_equiv_pos_as_xyz
  1  'x, y, z'
loop_
 _atom_site_type_symbol
 _atom_site_label
 _atom_site_symmetry_multiplicity
 _atom_site_fract_x
 _atom_site_fract_y
 _atom_site_fract_z
 _atom_site_occupancy
  Ni  Ni0  1  0.00000000  0.21447200  0.14702800  1
  Ni  Ni1  1  0.50000000  0.28191600  0.97883700  1
  Ni  Ni2  1  0.50000000  0.28375200  0.64514200  1
  Ni  Ni3  1  0.50000000  0.28568600  0.31083100  1
  Cu  Cu4  1  0.00000000  0.22209800  0.82033100  1
  Cu  Cu5  1  0.00000000  0.22182400  0.48739800  1
  Cu  Cu6  1  0.00000000  0.72757900  0.34470600  1
  Cu  Cu7  1  0.00000000  0.72856100  0.01051000  1
  C  C8  1  0.00000000  0.73050600  0.67536200  1
  C  C9  1  0.50000000  0.77384300  0.51100600  1
  C  C10  1  0.50000000  0.77073800  0.84046600  1
  C  C11  1  0.50000000  0.77264200  0.17654000  1
  C  C12  1  0.50000000  0.09916600  0.80630600  1
  C  C13  1  0.50000000  0.09954000  0.47359900  1
  C  C14  1  0.50000000  0.09795300  0.13977200  1
  C  C15  1  0.00000000  0.40099800  0.97271900  1
  C  C16  1  0.00000000  0.40476600  0.63930600  1
  C  C17  1  0.00000000  0.40175000  0.30528900  1
  C  C18  1  0.50000000  0.60034000  0.69443700  1
  C  C19  1  0.50000000  0.60100900  0.36126200  1
  C  C20  1  0.50000000  0.60009100  0.02681000  1
  C  C21  1  0.00000000  0.89887600  0.86130300  1
  C  C22  1  0.00000000  0.90101900  0.53100600  1
  C  C23  1  0.00000000  0.90200400  0.19568600  1
  C  C24  1  0.00000000  0.05023500  0.88303900  1
  C  C25  1  0.00000000  0.05454600  0.21926100  1
  C  C26  1  0.00000000  0.05217400  0.55405900  1
  C  C27  1  0.50000000  0.11770700  0.91131200  1
  C  C28  1  0.50000000  0.11879000  0.57857600  1
  C  C29  1  0.50000000  0.11907300  0.24380700  1
  C  C30  1  0.29728000  0.17023900  0.75974600  1
  C  C31  1  0.70272000  0.17023900  0.75974600  1
  C  C32  1  0.29936300  0.16812300  0.09080700  1
  C  C33  1  0.70063700  0.16812300  0.09080700  1
  C  C34  1  0.29672300  0.16892200  0.42695800  1
  C  C35  1  0.70327700  0.16892200  0.42695800  1
  C  C36  1  0.80210100  0.32617000  0.92319100  1
  C  C37  1  0.19789900  0.32617000  0.92319100  1
  C  C38  1  0.19801500  0.33026000  0.58947000  1
  C  C39  1  0.80198500  0.33026000  0.58947000  1
  C  C40  1  0.79944700  0.32858700  0.25720200  1
  C  C41  1  0.20055300  0.32858700  0.25720200  1
  C  C42  1  0.00000000  0.38110400  0.74209500  1
  C  C43  1  0.00000000  0.37972200  0.40883200  1
  C  C44  1  0.00000000  0.37884800  0.07646500  1
  C  C45  1  0.50000000  0.44688100  0.71499200  1
  C  C46  1  0.50000000  0.44826400  0.38228900  1
  C  C47  1  0.50000000  0.44692900  0.04830200  1
  C  C48  1  0.00000000  0.55207900  0.95096000  1
  C  C49  1  0.00000000  0.55750700  0.61724500  1
  C  C50  1  0.00000000  0.55386100  0.28290900  1
  C  C51  1  0.50000000  0.62212300  0.92254400  1
  C  C52  1  0.50000000  0.62249200  0.58977500  1
  C  C53  1  0.50000000  0.62433400  0.25659000  1
  C  C54  1  0.29930200  0.67067600  0.74358500  1
  C  C55  1  0.70069800  0.67067600  0.74358500  1
  C  C56  1  0.29836400  0.67267800  0.40900800  1
  C  C57  1  0.70163600  0.67267800  0.40900800  1
  C  C58  1  0.29837000  0.67190500  0.07501400  1
  C  C59  1  0.70163000  0.67190500  0.07501400  1
  C  C60  1  0.79920000  0.82696900  0.57968200  1
  C  C61  1  0.20080000  0.82696900  0.57968200  1
  C  C62  1  0.80053500  0.82582200  0.90997100  1
  C  C63  1  0.19946500  0.82582200  0.90997100  1
  C  C64  1  0.80042100  0.82932700  0.24482600  1
  C  C65  1  0.19957900  0.82932700  0.24482600  1
  C  C66  1  0.00000000  0.87762600  0.75671700  1
  C  C67  1  0.00000000  0.88020100  0.42761800  1
  C  C68  1  0.00000000  0.88321500  0.09197300  1
  C  C69  1  0.50000000  0.94444400  0.78759400  1
  C  C70  1  0.50000000  0.94327300  0.12101300  1
  C  C71  1  0.50000000  0.94416800  0.45568600  1
