# generated using pymatgen
data_Cu2Ni
_symmetry_space_group_name_H-M   'P 1'
_cell_length_a   2.95838000
_cell_length_b   2.95838000
_cell_length_c   4.80225519
_cell_angle_alpha   107.93993885
_cell_angle_beta   107.93993885
_cell_angle_gamma   90.00000000
_symmetry_Int_Tables_number   1
_chemical_formula_structural   Cu2Ni
_chemical_formula_sum   'Cu2 Ni1'
_cell_volume   37.83223572
_cell_formula_units_Z   1
loop_
 _symmetry_equiv_pos_site_id
 _symmetry_equiv_pos_as_xyz
  1  'x, y, z'
loop_
 _atom_site_type_symbol
 _atom_site_label
 _atom_site_symmetry_multiplicity
 _atom_site_fract_x
 _atom_site_fract_y
 _atom_site_fract_z
 _atom_site_occupancy
  Ni  Ni0  1  0.00000000  0.00000000  0.00000000  1
  Cu  Cu1  1  0.31567100  0.31567100  0.63134200  1
  Cu  Cu2  1  0.68432900  0.68432900  0.36865800  1
