# generated using pymatgen
data_Cu6Ni8C
_symmetry_space_group_name_H-M   'P 1'
_cell_length_a   12.91377939
_cell_length_b   12.91842327
_cell_length_c   5.73710917
_cell_angle_alpha   90.02906198
_cell_angle_beta   89.98546633
_cell_angle_gamma   120.01189892
_symmetry_Int_Tables_number   1
_chemical_formula_structural   Cu6Ni8C
_chemical_formula_sum   'Cu18 Ni24 C3'
_cell_volume   828.77086991
_cell_formula_units_Z   3
loop_
 _symmetry_equiv_pos_site_id
 _symmetry_equiv_pos_as_xyz
  1  'x, y, z'
loop_
 _atom_site_type_symbol
 _atom_site_label
 _atom_site_symmetry_multiplicity
 _atom_site_fract_x
 _atom_site_fract_y
 _atom_site_fract_z
 _atom_site_occupancy
  C  C0  1  0.00000000  0.00005600  0.14955900  1
  C  C1  1  0.33333000  0.66663100  0.89193200  1
  C  C2  1  0.66667000  0.33330200  0.89193200  1
  Ni  Ni3  1  0.00000000  0.65999300  0.22615900  1
  Ni  Ni4  1  0.65962000  0.00006800  0.22586900  1
  Ni  Ni5  1  0.34038000  0.34044700  0.22586900  1
  Ni  Ni6  1  0.00000000  0.76402300  0.29274200  1
  Ni  Ni7  1  0.76397000  0.00018500  0.29291000  1
  Ni  Ni8  1  0.23603000  0.23621500  0.29291000  1
  Ni  Ni9  1  0.10684300  0.66236200  0.16749500  1
  Ni  Ni10  1  0.55551700  0.89333000  0.16734000  1
  Ni  Ni11  1  0.33771000  0.44460200  0.16726900  1
  Ni  Ni12  1  0.89315700  0.55551900  0.16749500  1
  Ni  Ni13  1  0.66229000  0.10689300  0.16726900  1
  Ni  Ni14  1  0.44448300  0.33781300  0.16734000  1
  Ni  Ni15  1  0.68216800  0.68194600  0.73858100  1
  Ni  Ni16  1  0.00000000  0.31775800  0.73873600  1
  Ni  Ni17  1  0.31783200  0.99977700  0.73858100  1
  Ni  Ni18  1  0.78131200  0.78123500  0.83945700  1
  Ni  Ni19  1  0.00000000  0.21862000  0.83954700  1
  Ni  Ni20  1  0.21868800  0.99992500  0.83945700  1
  Ni  Ni21  1  0.57492100  0.68303800  0.70933600  1
  Ni  Ni22  1  0.10823300  0.42492800  0.70956600  1
  Ni  Ni23  1  0.31685200  0.89171700  0.70964900  1
  Ni  Ni24  1  0.42507900  0.10811600  0.70933600  1
  Ni  Ni25  1  0.68314900  0.57486500  0.70964900  1
  Ni  Ni26  1  0.89176700  0.31669500  0.70956600  1
  Cu  Cu27  1  0.00000000  0.85250500  0.34006500  1
  Cu  Cu28  1  0.85244500  0.00013900  0.34041700  1
  Cu  Cu29  1  0.14755500  0.14769500  0.34041700  1
  Cu  Cu30  1  0.19228000  0.65985600  0.10857900  1
  Cu  Cu31  1  0.46771100  0.80784000  0.10842600  1
  Cu  Cu32  1  0.34015200  0.53240700  0.10826400  1
  Cu  Cu33  1  0.80772000  0.46757500  0.10857900  1
  Cu  Cu34  1  0.65984800  0.19225500  0.10826400  1
  Cu  Cu35  1  0.53228900  0.34013000  0.10842600  1
  Cu  Cu36  1  0.86252400  0.86254000  0.92939600  1
  Cu  Cu37  1  0.00000000  0.13743200  0.92946600  1
  Cu  Cu38  1  0.13747600  0.00001600  0.92939600  1
  Cu  Cu39  1  0.48462900  0.68345600  0.69265300  1
  Cu  Cu40  1  0.19885100  0.51524000  0.69284000  1
  Cu  Cu41  1  0.31648400  0.80106200  0.69316400  1
  Cu  Cu42  1  0.51537100  0.19882700  0.69265300  1
  Cu  Cu43  1  0.68351600  0.48457800  0.69316400  1
  Cu  Cu44  1  0.80114900  0.31638900  0.69284000  1
