# generated using pymatgen
data_CuNi2C5
_symmetry_space_group_name_H-M   'P 1'
_cell_length_a   6.75753981
_cell_length_b   6.75753981
_cell_length_c   6.75753981
_cell_angle_alpha   66.01542902
_cell_angle_beta   72.73721393
_cell_angle_gamma   107.26278607
_symmetry_Int_Tables_number   1
_chemical_formula_structural   CuNi2C5
_chemical_formula_sum   'Cu1 Ni2 C5'
_cell_volume   236.42939686
_cell_formula_units_Z   1
loop_
 _symmetry_equiv_pos_site_id
 _symmetry_equiv_pos_as_xyz
  1  'x, y, z'
loop_
 _atom_site_type_symbol
 _atom_site_label
 _atom_site_symmetry_multiplicity
 _atom_site_fract_x
 _atom_site_fract_y
 _atom_site_fract_z
 _atom_site_occupancy
  C  C0  1  0.50000000  0.25000000  0.25000000  1
  Ni  Ni1  1  0.00000000  0.25000000  0.75000000  1
  Ni  Ni2  1  0.00000000  0.75000000  0.25000000  1
  Cu  Cu3  1  0.50000000  0.75000000  0.75000000  1
  C  C4  1  0.50000000  0.34299200  0.78907500  1
  C  C5  1  0.50000000  0.71092500  0.15700800  1
  C  C6  1  0.13206700  0.78907500  0.71092500  1
  C  C7  1  0.86793300  0.15700800  0.34299200  1
