# generated using pymatgen
data_Cu6Ni3C5
_symmetry_space_group_name_H-M   'P 1'
_cell_length_a   7.27916855
_cell_length_b   7.27916855
_cell_length_c   7.24645147
_cell_angle_alpha   85.00532138
_cell_angle_beta   85.00532138
_cell_angle_gamma   78.58852433
_symmetry_Int_Tables_number   1
_chemical_formula_structural   Cu6Ni3C5
_chemical_formula_sum   'Cu12 Ni6 C10'
_cell_volume   373.98301107
_cell_formula_units_Z   2
loop_
 _symmetry_equiv_pos_site_id
 _symmetry_equiv_pos_as_xyz
  1  'x, y, z'
loop_
 _atom_site_type_symbol
 _atom_site_label
 _atom_site_symmetry_multiplicity
 _atom_site_fract_x
 _atom_site_fract_y
 _atom_site_fract_z
 _atom_site_occupancy
  C  C0  1  0.60076900  0.39923100  0.75000000  1
  C  C1  1  0.39923100  0.60076900  0.25000000  1
  C  C2  1  0.50000000  0.00000000  0.50000000  1
  C  C3  1  0.00000000  0.50000000  0.00000000  1
  C  C4  1  0.06312100  0.21121300  0.51554200  1
  C  C5  1  0.78878700  0.93687900  0.98445800  1
  C  C6  1  0.93687900  0.78878700  0.48445800  1
  C  C7  1  0.21121300  0.06312100  0.01554200  1
  C  C8  1  0.12725500  0.87274500  0.75000000  1
  C  C9  1  0.87274500  0.12725500  0.25000000  1
  Ni  Ni10  1  0.24803700  0.75196300  0.75000000  1
  Ni  Ni11  1  0.75196300  0.24803700  0.25000000  1
  Ni  Ni12  1  0.12134200  0.25611000  0.63704400  1
  Ni  Ni13  1  0.74389000  0.87865800  0.86295600  1
  Ni  Ni14  1  0.87865800  0.74389000  0.36295600  1
  Ni  Ni15  1  0.25611000  0.12134200  0.13704400  1
  Cu  Cu16  1  0.37771200  0.75362300  0.62124400  1
  Cu  Cu17  1  0.24637700  0.62228800  0.87875600  1
  Cu  Cu18  1  0.62228800  0.24637700  0.37875600  1
  Cu  Cu19  1  0.75362300  0.37771200  0.12124400  1
  Cu  Cu20  1  0.29789600  0.21227300  0.64747400  1
  Cu  Cu21  1  0.78772700  0.70210400  0.85252600  1
  Cu  Cu22  1  0.70210400  0.78772700  0.35252600  1
  Cu  Cu23  1  0.21227300  0.29789600  0.14747400  1
  Cu  Cu24  1  0.65391500  0.99594700  0.74837100  1
  Cu  Cu25  1  0.00405300  0.34608500  0.75162900  1
  Cu  Cu26  1  0.34608500  0.00405300  0.25162900  1
  Cu  Cu27  1  0.99594700  0.65391500  0.24837100  1
