# generated using pymatgen
data_Cu8(Ni8C)3
_symmetry_space_group_name_H-M   'P 1'
_cell_length_a   12.80788700
_cell_length_b   7.75496900
_cell_length_c   15.99016000
_cell_angle_alpha   90.00000000
_cell_angle_beta   90.00000000
_cell_angle_gamma   90.00000000
_symmetry_Int_Tables_number   1
_chemical_formula_structural   Cu8(Ni8C)3
_chemical_formula_sum   'Cu32 Ni96 C12'
_cell_volume   1588.21891054
_cell_formula_units_Z   4
loop_
 _symmetry_equiv_pos_site_id
 _symmetry_equiv_pos_as_xyz
  1  'x, y, z'
loop_
 _atom_site_type_symbol
 _atom_site_label
 _atom_site_symmetry_multiplicity
 _atom_site_fract_x
 _atom_site_fract_y
 _atom_site_fract_z
 _atom_site_occupancy
  C  C0  1  0.73593200  0.25000000  0.64079900  1
  C  C1  1  0.23593200  0.25000000  0.85920100  1
  C  C2  1  0.26406800  0.75000000  0.35920100  1
  C  C3  1  0.76406800  0.75000000  0.14079900  1
  Ni  Ni4  1  0.52606600  0.06849300  0.61630500  1
  Ni  Ni5  1  0.02606600  0.43150700  0.88369500  1
  Ni  Ni6  1  0.47393400  0.56849300  0.38369500  1
  Ni  Ni7  1  0.97393400  0.93150700  0.11630500  1
  Ni  Ni8  1  0.47393400  0.93150700  0.38369500  1
  Ni  Ni9  1  0.97393400  0.56849300  0.11630500  1
  Ni  Ni10  1  0.52606600  0.43150700  0.61630500  1
  Ni  Ni11  1  0.02606600  0.06849300  0.88369500  1
  Ni  Ni12  1  0.60999800  0.92711200  0.58179100  1
  Ni  Ni13  1  0.10999800  0.57288800  0.91820900  1
  Ni  Ni14  1  0.39000200  0.42711200  0.41820900  1
  Ni  Ni15  1  0.89000200  0.07288800  0.08179100  1
  Ni  Ni16  1  0.39000200  0.07288800  0.41820900  1
  Ni  Ni17  1  0.89000200  0.42711200  0.08179100  1
  Ni  Ni18  1  0.60999800  0.57288800  0.58179100  1
  Ni  Ni19  1  0.10999800  0.92711200  0.91820900  1
  Ni  Ni20  1  0.58310800  0.93668100  0.68253900  1
  Ni  Ni21  1  0.08310800  0.56331900  0.81746100  1
  Ni  Ni22  1  0.41689200  0.43668100  0.31746100  1
  Ni  Ni23  1  0.91689200  0.06331900  0.18253900  1
  Ni  Ni24  1  0.41689200  0.06331900  0.31746100  1
  Ni  Ni25  1  0.91689200  0.43668100  0.18253900  1
  Ni  Ni26  1  0.58310800  0.56331900  0.68253900  1
  Ni  Ni27  1  0.08310800  0.93668100  0.81746100  1
  Ni  Ni28  1  0.88159700  0.95326700  0.72619100  1
  Ni  Ni29  1  0.38159700  0.54673300  0.77380900  1
  Ni  Ni30  1  0.11840300  0.45326700  0.27380900  1
  Ni  Ni31  1  0.61840300  0.04673300  0.22619100  1
  Ni  Ni32  1  0.11840300  0.04673300  0.27380900  1
  Ni  Ni33  1  0.61840300  0.45326700  0.22619100  1
  Ni  Ni34  1  0.88159700  0.54673300  0.72619100  1
  Ni  Ni35  1  0.38159700  0.95326700  0.77380900  1
  Ni  Ni36  1  0.83877500  0.08300200  0.80039200  1
  Ni  Ni37  1  0.33877500  0.41699800  0.69960800  1
  Ni  Ni38  1  0.16122500  0.58300200  0.19960800  1
  Ni  Ni39  1  0.66122500  0.91699800  0.30039200  1
  Ni  Ni40  1  0.16122500  0.91699800  0.19960800  1
  Ni  Ni41  1  0.66122500  0.58300200  0.30039200  1
  Ni  Ni42  1  0.83877500  0.41699800  0.80039200  1
  Ni  Ni43  1  0.33877500  0.08300200  0.69960800  1
  Ni  Ni44  1  0.75988100  0.94284100  0.75788600  1
  Ni  Ni45  1  0.25988100  0.55715900  0.74211400  1
  Ni  Ni46  1  0.24011900  0.44284100  0.24211400  1
  Ni  Ni47  1  0.74011900  0.05715900  0.25788600  1
  Ni  Ni48  1  0.24011900  0.05715900  0.24211400  1
  Ni  Ni49  1  0.74011900  0.44284100  0.25788600  1
  Ni  Ni50  1  0.75988100  0.55715900  0.75788600  1
  Ni  Ni51  1  0.25988100  0.94284100  0.74211400  1
  Ni  Ni52  1  0.80653900  0.94242000  0.52917600  1
  Ni  Ni53  1  0.30653900  0.55758000  0.97082400  1
  Ni  Ni54  1  0.19346100  0.44242000  0.47082400  1
  Ni  Ni55  1  0.69346100  0.05758000  0.02917600  1
  Ni  Ni56  1  0.19346100  0.05758000  0.47082400  1
  Ni  Ni57  1  0.69346100  0.44242000  0.02917600  1
  Ni  Ni58  1  0.80653900  0.55758000  0.52917600  1
  Ni  Ni59  1  0.30653900  0.94242000  0.97082400  1
  Ni  Ni60  1  0.88304300  0.09662200  0.49717300  1
  Ni  Ni61  1  0.38304300  0.40337800  0.00282700  1
  Ni  Ni62  1  0.11695700  0.59662200  0.50282700  1
  Ni  Ni63  1  0.61695700  0.90337800  0.99717300  1
  Ni  Ni64  1  0.11695700  0.90337800  0.50282700  1
  Ni  Ni65  1  0.61695700  0.59662200  0.99717300  1
  Ni  Ni66  1  0.88304300  0.40337800  0.49717300  1
  Ni  Ni67  1  0.38304300  0.09662200  0.00282700  1
  Ni  Ni68  1  0.91570900  0.98056000  0.57909900  1
  Ni  Ni69  1  0.41570900  0.51944000  0.92090100  1
  Ni  Ni70  1  0.08429100  0.48056000  0.42090100  1
  Ni  Ni71  1  0.58429100  0.01944000  0.07909900  1
  Ni  Ni72  1  0.08429100  0.01944000  0.42090100  1
  Ni  Ni73  1  0.58429100  0.48056000  0.07909900  1
  Ni  Ni74  1  0.91570900  0.51944000  0.57909900  1
  Ni  Ni75  1  0.41570900  0.98056000  0.92090100  1
  Ni  Ni76  1  0.68206800  0.14413800  0.45164200  1
  Ni  Ni77  1  0.18206800  0.35586200  0.04835800  1
  Ni  Ni78  1  0.31793200  0.64413800  0.54835800  1
  Ni  Ni79  1  0.81793200  0.85586200  0.95164200  1
  Ni  Ni80  1  0.31793200  0.85586200  0.54835800  1
  Ni  Ni81  1  0.81793200  0.64413800  0.95164200  1
  Ni  Ni82  1  0.68206800  0.35586200  0.45164200  1
  Ni  Ni83  1  0.18206800  0.14413800  0.04835800  1
  Ni  Ni84  1  0.57997100  0.25000000  0.48498400  1
  Ni  Ni85  1  0.07997100  0.25000000  0.01501600  1
  Ni  Ni86  1  0.42002900  0.75000000  0.51501600  1
  Ni  Ni87  1  0.92002900  0.75000000  0.98498400  1
  Ni  Ni88  1  0.58150200  0.14386100  0.79872700  1
  Ni  Ni89  1  0.08150200  0.35613900  0.70127300  1
  Ni  Ni90  1  0.41849800  0.64386100  0.20127300  1
  Ni  Ni91  1  0.91849800  0.85613900  0.29872700  1
  Ni  Ni92  1  0.41849800  0.85613900  0.20127300  1
  Ni  Ni93  1  0.91849800  0.64386100  0.29872700  1
  Ni  Ni94  1  0.58150200  0.35613900  0.79872700  1
  Ni  Ni95  1  0.08150200  0.14386100  0.70127300  1
  Ni  Ni96  1  0.67928600  0.25000000  0.83871100  1
  Ni  Ni97  1  0.17928600  0.25000000  0.66128900  1
  Ni  Ni98  1  0.32071400  0.75000000  0.16128900  1
  Ni  Ni99  1  0.82071400  0.75000000  0.33871100  1
  C  C100  1  0.35256800  0.25000000  0.55511600  1
  C  C101  1  0.85256800  0.25000000  0.94488400  1
  C  C102  1  0.64743200  0.75000000  0.44488400  1
  C  C103  1  0.14743200  0.75000000  0.05511600  1
  C  C104  1  0.94182800  0.25000000  0.32919200  1
  C  C105  1  0.44182800  0.25000000  0.17080800  1
  C  C106  1  0.05817200  0.75000000  0.67080800  1
  C  C107  1  0.55817200  0.75000000  0.82919200  1
  Cu  Cu108  1  0.59599700  0.01113700  0.63025800  1
  Cu  Cu109  1  0.09599700  0.48886300  0.86974200  1
  Cu  Cu110  1  0.40400300  0.51113700  0.36974200  1
  Cu  Cu111  1  0.90400300  0.98886300  0.13025800  1
  Cu  Cu112  1  0.40400300  0.98886300  0.36974200  1
  Cu  Cu113  1  0.90400300  0.51113700  0.13025800  1
  Cu  Cu114  1  0.59599700  0.48886300  0.63025800  1
  Cu  Cu115  1  0.09599700  0.01113700  0.86974200  1
  Cu  Cu116  1  0.81931900  0.02710900  0.74408400  1
  Cu  Cu117  1  0.31931900  0.47289100  0.75591600  1
  Cu  Cu118  1  0.18068100  0.52710900  0.25591600  1
  Cu  Cu119  1  0.68068100  0.97289100  0.24408400  1
  Cu  Cu120  1  0.18068100  0.97289100  0.25591600  1
  Cu  Cu121  1  0.68068100  0.52710900  0.24408400  1
  Cu  Cu122  1  0.81931900  0.47289100  0.74408400  1
  Cu  Cu123  1  0.31931900  0.02710900  0.75591600  1
  Cu  Cu124  1  0.85408900  0.03981200  0.55033400  1
  Cu  Cu125  1  0.35408900  0.46018800  0.94966600  1
  Cu  Cu126  1  0.14591100  0.53981200  0.44966600  1
  Cu  Cu127  1  0.64591100  0.96018800  0.05033400  1
  Cu  Cu128  1  0.14591100  0.96018800  0.44966600  1
  Cu  Cu129  1  0.64591100  0.53981200  0.05033400  1
  Cu  Cu130  1  0.85408900  0.46018800  0.55033400  1
  Cu  Cu131  1  0.35408900  0.03981200  0.94966600  1
  Cu  Cu132  1  0.65991600  0.25000000  0.48543900  1
  Cu  Cu133  1  0.15991600  0.25000000  0.01456100  1
  Cu  Cu134  1  0.34008400  0.75000000  0.51456100  1
  Cu  Cu135  1  0.84008400  0.75000000  0.98543900  1
  Cu  Cu136  1  0.62768000  0.25000000  0.78975200  1
  Cu  Cu137  1  0.12768000  0.25000000  0.71024800  1
  Cu  Cu138  1  0.37232000  0.75000000  0.21024800  1
  Cu  Cu139  1  0.87232000  0.75000000  0.28975200  1
