# generated using pymatgen
data_CuNi3
_symmetry_space_group_name_H-M   'P 1'
_cell_length_a   9.33708146
_cell_length_b   9.33708146
_cell_length_c   6.59959000
_cell_angle_alpha   90.00000000
_cell_angle_beta   90.00000000
_cell_angle_gamma   138.78866043
_symmetry_Int_Tables_number   1
_chemical_formula_structural   CuNi3
_chemical_formula_sum   'Cu4 Ni12'
_cell_volume   379.06887661
_cell_formula_units_Z   4
loop_
 _symmetry_equiv_pos_site_id
 _symmetry_equiv_pos_as_xyz
  1  'x, y, z'
loop_
 _atom_site_type_symbol
 _atom_site_label
 _atom_site_symmetry_multiplicity
 _atom_site_fract_x
 _atom_site_fract_y
 _atom_site_fract_z
 _atom_site_occupancy
  Ni  Ni0  1  0.16018400  0.16018400  0.33785700  1
  Ni  Ni1  1  0.66018400  0.66018400  0.16214300  1
  Ni  Ni2  1  0.33981600  0.33981600  0.83785700  1
  Ni  Ni3  1  0.83981600  0.83981600  0.66214300  1
  Ni  Ni4  1  0.16172500  0.49712700  0.17026200  1
  Ni  Ni5  1  0.99712700  0.66172500  0.32973800  1
  Ni  Ni6  1  0.33827500  0.00287300  0.67026200  1
  Ni  Ni7  1  0.50287300  0.83827500  0.82973800  1
  Ni  Ni8  1  0.83827500  0.50287300  0.82973800  1
  Ni  Ni9  1  0.00287300  0.33827500  0.67026200  1
  Ni  Ni10  1  0.66172500  0.99712700  0.32973800  1
  Ni  Ni11  1  0.49712700  0.16172500  0.17026200  1
  Cu  Cu12  1  0.91483600  0.08516400  0.00000000  1
  Cu  Cu13  1  0.58516400  0.41483600  0.50000000  1
  Cu  Cu14  1  0.08516400  0.91483600  0.00000000  1
  Cu  Cu15  1  0.41483600  0.58516400  0.50000000  1
