# generated using pymatgen
data_CuNiC6
_symmetry_space_group_name_H-M   'P 1'
_cell_length_a   4.15904300
_cell_length_b   10.71371900
_cell_length_c   11.04657300
_cell_angle_alpha   90.00000000
_cell_angle_beta   100.85069825
_cell_angle_gamma   90.00000000
_symmetry_Int_Tables_number   1
_chemical_formula_structural   CuNiC6
_chemical_formula_sum   'Cu2 Ni2 C12'
_cell_volume   483.42182484
_cell_formula_units_Z   2
loop_
 _symmetry_equiv_pos_site_id
 _symmetry_equiv_pos_as_xyz
  1  'x, y, z'
loop_
 _atom_site_type_symbol
 _atom_site_label
 _atom_site_symmetry_multiplicity
 _atom_site_fract_x
 _atom_site_fract_y
 _atom_site_fract_z
 _atom_site_occupancy
  C  C0  1  0.15863300  0.75000000  0.31726600  1
  C  C1  1  0.84136700  0.25000000  0.68273400  1
  Ni  Ni2  1  0.00000000  0.50000000  0.00000000  1
  Ni  Ni3  1  0.00000000  0.00000000  0.00000000  1
  Cu  Cu4  1  0.38327700  0.75000000  0.76655300  1
  Cu  Cu5  1  0.61672300  0.25000000  0.23344700  1
  C  C6  1  0.80476400  0.63856300  0.60952700  1
  C  C7  1  0.19523600  0.36143700  0.39047300  1
  C  C8  1  0.80476400  0.86143700  0.60952700  1
  C  C9  1  0.19523600  0.13856300  0.39047300  1
  C  C10  1  0.58283600  0.51364000  0.16567300  1
  C  C11  1  0.41716400  0.48636000  0.83432700  1
  C  C12  1  0.58283600  0.98636000  0.16567300  1
  C  C13  1  0.41716400  0.01364000  0.83432700  1
  C  C14  1  0.97862600  0.75000000  0.95725300  1
  C  C15  1  0.02137400  0.25000000  0.04274700  1
