# generated using pymatgen
data_Cu5Ni2C21
_symmetry_space_group_name_H-M   'P 1'
_cell_length_a   10.66902400
_cell_length_b   11.22475500
_cell_length_c   14.91938141
_cell_angle_alpha   62.36368039
_cell_angle_beta   90.00000000
_cell_angle_gamma   90.00000000
_symmetry_Int_Tables_number   1
_chemical_formula_structural   Cu5Ni2C21
_chemical_formula_sum   'Cu20 Ni8 C84'
_cell_volume   1582.85759989
_cell_formula_units_Z   4
loop_
 _symmetry_equiv_pos_site_id
 _symmetry_equiv_pos_as_xyz
  1  'x, y, z'
loop_
 _atom_site_type_symbol
 _atom_site_label
 _atom_site_symmetry_multiplicity
 _atom_site_fract_x
 _atom_site_fract_y
 _atom_site_fract_z
 _atom_site_occupancy
  C  C0  1  0.91025100  0.30349900  0.06353300  1
  C  C1  1  0.41025100  0.69650100  0.43646700  1
  C  C2  1  0.08974900  0.69650100  0.93646700  1
  C  C3  1  0.58974900  0.30349900  0.56353300  1
  C  C4  1  0.81402500  0.10903300  0.33951900  1
  C  C5  1  0.31402500  0.89096700  0.16048100  1
  C  C6  1  0.18597500  0.89096700  0.66048100  1
  C  C7  1  0.68597500  0.10903300  0.83951900  1
  C  C8  1  0.67632800  0.02817000  0.38340700  1
  C  C9  1  0.17632800  0.97183000  0.11659300  1
  C  C10  1  0.32367200  0.97183000  0.61659300  1
  C  C11  1  0.82367200  0.02817000  0.88340700  1
  C  C12  1  0.01158900  0.45699100  0.77883000  1
  C  C13  1  0.51158900  0.54300900  0.72117000  1
  C  C14  1  0.98841100  0.54300900  0.22117000  1
  C  C15  1  0.48841100  0.45699100  0.27883000  1
  C  C16  1  0.13990700  0.54268400  0.71579900  1
  C  C17  1  0.63990700  0.45731600  0.78420100  1
  C  C18  1  0.86009300  0.45731600  0.28420100  1
  C  C19  1  0.36009300  0.54268400  0.21579900  1
  C  C20  1  0.77486000  0.95336900  0.27588600  1
  C  C21  1  0.27486000  0.04663100  0.22411400  1
  C  C22  1  0.22514000  0.04663100  0.72411400  1
  C  C23  1  0.72514000  0.95336900  0.77588600  1
  C  C24  1  0.76229300  0.82041700  0.40348900  1
  C  C25  1  0.26229300  0.17958300  0.09651100  1
  C  C26  1  0.23770700  0.17958300  0.59651100  1
  C  C27  1  0.73770700  0.82041700  0.90348900  1
  C  C28  1  0.90980600  0.90580100  0.35639800  1
  C  C29  1  0.40980600  0.09419900  0.14360200  1
  C  C30  1  0.09019400  0.09419900  0.64360200  1
  C  C31  1  0.59019400  0.90580100  0.85639800  1
  C  C32  1  0.78611400  0.05444700  0.51531700  1
  C  C33  1  0.28611400  0.94555300  0.98468300  1
  C  C34  1  0.21388600  0.94555300  0.48468300  1
  C  C35  1  0.71388600  0.05444700  0.01531700  1
  C  C36  1  0.91469200  0.96309600  0.49846400  1
  C  C37  1  0.41469200  0.03690400  0.00153600  1
  C  C38  1  0.08530800  0.03690400  0.50153600  1
  C  C39  1  0.58530800  0.96309600  0.99846400  1
  C  C40  1  0.76775400  0.88152000  0.54413800  1
  C  C41  1  0.26775400  0.11848000  0.95586200  1
  C  C42  1  0.23224600  0.11848000  0.45586200  1
  C  C43  1  0.73224600  0.88152000  0.04413800  1
  C  C44  1  0.95791400  0.62628500  0.61225100  1
  C  C45  1  0.45791400  0.37371500  0.88774900  1
  C  C46  1  0.04208600  0.37371500  0.38774900  1
  C  C47  1  0.54208600  0.62628500  0.11225100  1
  C  C48  1  0.92933100  0.45975600  0.62768000  1
  C  C49  1  0.42933100  0.54024400  0.87232000  1
  C  C50  1  0.07066900  0.54024400  0.37232000  1
  C  C51  1  0.57066900  0.45975600  0.12768000  1
  C  C52  1  0.06722300  0.55230400  0.56153800  1
  C  C53  1  0.56722300  0.44769600  0.93846200  1
  C  C54  1  0.93277700  0.44769600  0.43846200  1
  C  C55  1  0.43277700  0.55230400  0.06153800  1
  C  C56  1  0.18575300  0.30644600  0.81213600  1
  C  C57  1  0.68575300  0.69355400  0.68786400  1
  C  C58  1  0.81424700  0.69355400  0.18786400  1
  C  C59  1  0.31424700  0.30644600  0.31213600  1
  C  C60  1  0.20117200  0.36376900  0.67904600  1
  C  C61  1  0.70117200  0.63623100  0.82095400  1
  C  C62  1  0.79882800  0.63623100  0.32095400  1
  C  C63  1  0.29882800  0.36376900  0.17904600  1
  C  C64  1  0.06265400  0.27267000  0.74525200  1
  C  C65  1  0.56265400  0.72733000  0.75474800  1
  C  C66  1  0.93734600  0.72733000  0.25474800  1
  C  C67  1  0.43734600  0.27267000  0.24525200  1
  C  C68  1  0.80778300  0.91636700  0.35368500  1
  C  C69  1  0.30778300  0.08363300  0.14631500  1
  C  C70  1  0.19221700  0.08363300  0.64631500  1
  C  C71  1  0.69221700  0.91636700  0.85368500  1
  C  C72  1  0.81327900  0.97691700  0.49400800  1
  C  C73  1  0.31327900  0.02308300  0.00599200  1
  C  C74  1  0.18672100  0.02308300  0.50599200  1
  C  C75  1  0.68672100  0.97691700  0.99400800  1
  C  C76  1  0.00120300  0.53210100  0.62301800  1
  C  C77  1  0.50120300  0.46789900  0.87698200  1
  C  C78  1  0.99879700  0.46789900  0.37698200  1
  C  C79  1  0.49879700  0.53210100  0.12301800  1
  C  C80  1  0.13500000  0.34452600  0.74044500  1
  C  C81  1  0.63500000  0.65547400  0.75955500  1
  C  C82  1  0.86500000  0.65547400  0.25955500  1
  C  C83  1  0.36500000  0.34452600  0.24044500  1
  Ni  Ni84  1  0.77297700  0.01703200  0.38834400  1
  Ni  Ni85  1  0.27297700  0.98296800  0.11165600  1
  Ni  Ni86  1  0.22702300  0.98296800  0.61165600  1
  Ni  Ni87  1  0.72702300  0.01703200  0.88834400  1
  Ni  Ni88  1  0.07277900  0.47359900  0.71977900  1
  Ni  Ni89  1  0.57277900  0.52640100  0.78022100  1
  Ni  Ni90  1  0.92722100  0.52640100  0.28022100  1
  Ni  Ni91  1  0.42722100  0.47359900  0.21977900  1
  Cu  Cu92  1  0.85483300  0.57471100  0.02854600  1
  Cu  Cu93  1  0.35483300  0.42528900  0.47145400  1
  Cu  Cu94  1  0.14516700  0.42528900  0.97145400  1
  Cu  Cu95  1  0.64516700  0.57471100  0.52854600  1
  Cu  Cu96  1  0.97906100  0.24196700  0.25690300  1
  Cu  Cu97  1  0.47906100  0.75803300  0.24309700  1
  Cu  Cu98  1  0.02093900  0.75803300  0.74309700  1
  Cu  Cu99  1  0.52093900  0.24196700  0.75690300  1
  Cu  Cu100  1  0.98026700  0.05984400  0.09949900  1
  Cu  Cu101  1  0.48026700  0.94015600  0.40050100  1
  Cu  Cu102  1  0.01973300  0.94015600  0.90050100  1
  Cu  Cu103  1  0.51973300  0.05984400  0.59949900  1
  Cu  Cu104  1  0.68291300  0.22419100  0.13166800  1
  Cu  Cu105  1  0.18291300  0.77580900  0.36833200  1
  Cu  Cu106  1  0.31708700  0.77580900  0.86833200  1
  Cu  Cu107  1  0.81708700  0.22419100  0.63166800  1
  Cu  Cu108  1  0.83275100  0.35028400  0.87182400  1
  Cu  Cu109  1  0.33275100  0.64971600  0.62817600  1
  Cu  Cu110  1  0.16724900  0.64971600  0.12817600  1
  Cu  Cu111  1  0.66724900  0.35028400  0.37182400  1
