# generated using pymatgen
data_Cu4NiC15
_symmetry_space_group_name_H-M   'P 1'
_cell_length_a   6.79042581
_cell_length_b   14.02699687
_cell_length_c   6.79078691
_cell_angle_alpha   82.88741308
_cell_angle_beta   73.70809863
_cell_angle_gamma   102.97828389
_symmetry_Int_Tables_number   1
_chemical_formula_structural   Cu4NiC15
_chemical_formula_sum   'Cu8 Ni2 C30'
_cell_volume   592.79422067
_cell_formula_units_Z   2
loop_
 _symmetry_equiv_pos_site_id
 _symmetry_equiv_pos_as_xyz
  1  'x, y, z'
loop_
 _atom_site_type_symbol
 _atom_site_label
 _atom_site_symmetry_multiplicity
 _atom_site_fract_x
 _atom_site_fract_y
 _atom_site_fract_z
 _atom_site_occupancy
  Ni  Ni0  1  0.49995900  0.00001000  0.99994800  1
  Ni  Ni1  1  0.99999200  0.00001200  0.49999800  1
  Cu  Cu2  1  0.39970400  0.20414000  0.69559500  1
  Cu  Cu3  1  0.89973100  0.20415900  0.19558300  1
  Cu  Cu4  1  0.10042600  0.79566600  0.80474900  1
  Cu  Cu5  1  0.60038500  0.79564800  0.30476200  1
  Cu  Cu6  1  0.80133700  0.40229500  0.89914100  1
  Cu  Cu7  1  0.30141400  0.40230300  0.39902600  1
  Cu  Cu8  1  0.69849400  0.59792100  0.60055700  1
  Cu  Cu9  1  0.19847400  0.59791300  0.10060900  1
  C  C10  1  0.50005000  0.00008000  0.49982100  1
  C  C11  1  0.10047300  0.79303300  0.30736600  1
  C  C12  1  0.90032000  0.20700700  0.69338200  1
  C  C13  1  0.80054500  0.40091800  0.39968400  1
  C  C14  1  0.69874600  0.59899400  0.09969700  1
  C  C15  1  0.00007900  0.00005800  0.99985300  1
  C  C16  1  0.60050700  0.79302600  0.80739600  1
  C  C17  1  0.40034900  0.20704800  0.19339100  1
  C  C18  1  0.30045200  0.40085400  0.89944300  1
  C  C19  1  0.19878900  0.59896000  0.59986600  1
  C  C20  1  0.49999100  0.49989700  0.00007800  1
  C  C21  1  0.00000500  0.49985600  0.50018500  1
  C  C22  1  0.24994000  0.99998600  0.75000900  1
  C  C23  1  0.74993800  0.99998800  0.25000700  1
  C  C24  1  0.80398000  0.89010400  0.91385300  1
  C  C25  1  0.30397400  0.89009100  0.41384100  1
  C  C26  1  0.19590200  0.11001000  0.08597900  1
  C  C27  1  0.69587100  0.10999600  0.58592500  1
  C  C28  1  0.39982100  0.69636800  0.70343900  1
  C  C29  1  0.89982500  0.69638600  0.20342900  1
  C  C30  1  0.60027900  0.30365600  0.29664300  1
  C  C31  1  0.10024700  0.30362100  0.79661100  1
  C  C32  1  0.84806200  0.79233600  0.55564700  1
  C  C33  1  0.34805000  0.79233300  0.05565900  1
  C  C34  1  0.65207100  0.20777500  0.94439000  1
  C  C35  1  0.15207200  0.20776600  0.44442900  1
  C  C36  1  0.55031500  0.40080000  0.64951500  1
  C  C37  1  0.05032800  0.40077700  0.14955200  1
  C  C38  1  0.94956200  0.59910000  0.85047200  1
  C  C39  1  0.44954300  0.59911000  0.35046900  1
