# generated using pymatgen
data_Cu10Ni10C33
_symmetry_space_group_name_H-M   'P 1'
_cell_length_a   7.32796101
_cell_length_b   7.32796101
_cell_length_c   13.40568137
_cell_angle_alpha   82.62130266
_cell_angle_beta   82.62130266
_cell_angle_gamma   70.11970416
_symmetry_Int_Tables_number   1
_chemical_formula_structural   Cu10Ni10C33
_chemical_formula_sum   'Cu10 Ni10 C33'
_cell_volume   668.58707689
_cell_formula_units_Z   1
loop_
 _symmetry_equiv_pos_site_id
 _symmetry_equiv_pos_as_xyz
  1  'x, y, z'
loop_
 _atom_site_type_symbol
 _atom_site_label
 _atom_site_symmetry_multiplicity
 _atom_site_fract_x
 _atom_site_fract_y
 _atom_site_fract_z
 _atom_site_occupancy
  C  C0  1  0.45266600  0.02981500  0.75560500  1
  C  C1  1  0.54733400  0.97018500  0.24439500  1
  C  C2  1  0.97018500  0.54733400  0.24439500  1
  C  C3  1  0.02981500  0.45266600  0.75560500  1
  C  C4  1  0.38543600  0.95097900  0.60738000  1
  C  C5  1  0.61456400  0.04902100  0.39262000  1
  C  C6  1  0.04902100  0.61456400  0.39262000  1
  C  C7  1  0.95097900  0.38543600  0.60738000  1
  C  C8  1  0.59521100  0.40077400  0.83609200  1
  C  C9  1  0.40478900  0.59922600  0.16390800  1
  C  C10  1  0.59922600  0.40478900  0.16390800  1
  C  C11  1  0.40077400  0.59521100  0.83609200  1
  C  C12  1  0.47799300  0.88223100  0.86041500  1
  C  C13  1  0.52200700  0.11776900  0.13958500  1
  C  C14  1  0.11776900  0.52200700  0.13958500  1
  C  C15  1  0.88223100  0.47799300  0.86041500  1
  C  C16  1  0.65742600  0.95947000  0.81014600  1
  C  C17  1  0.34257400  0.04053000  0.18985400  1
  C  C18  1  0.04053000  0.34257400  0.18985400  1
  C  C19  1  0.95947000  0.65742600  0.81014600  1
  C  C20  1  0.32180200  0.75299800  0.62774700  1
  C  C21  1  0.67819800  0.24700200  0.37225300  1
  C  C22  1  0.24700200  0.67819800  0.37225300  1
  C  C23  1  0.75299800  0.32180200  0.62774700  1
  C  C24  1  0.45015200  0.45015200  0.74308500  1
  C  C25  1  0.54984800  0.54984800  0.25691500  1
  C  C26  1  0.48329700  0.77294600  0.53309700  1
  C  C27  1  0.51670300  0.22705400  0.46690300  1
  C  C28  1  0.22705400  0.51670300  0.46690300  1
  C  C29  1  0.77294600  0.48329700  0.53309700  1
  C  C30  1  0.67486200  0.67486200  0.70035700  1
  C  C31  1  0.32513800  0.32513800  0.29964400  1
  C  C32  1  0.00000000  0.00000000  0.00000000  1
  Ni  Ni33  1  0.54962100  0.91197300  0.79249000  1
  Ni  Ni34  1  0.45037900  0.08802700  0.20751000  1
  Ni  Ni35  1  0.08802700  0.45037900  0.20751000  1
  Ni  Ni36  1  0.91197300  0.54962100  0.79249000  1
  Ni  Ni37  1  0.51221200  0.51221200  0.78931700  1
  Ni  Ni38  1  0.48778800  0.48778800  0.21068300  1
  Ni  Ni39  1  0.43810700  0.80189600  0.60736900  1
  Ni  Ni40  1  0.56189300  0.19810400  0.39263100  1
  Ni  Ni41  1  0.19810400  0.56189300  0.39263100  1
  Ni  Ni42  1  0.80189600  0.43810700  0.60736900  1
  Cu  Cu43  1  0.99878200  0.99878200  0.82436100  1
  Cu  Cu44  1  0.00121800  0.00121800  0.17563900  1
  Cu  Cu45  1  0.14837300  0.14837300  0.39974800  1
  Cu  Cu46  1  0.85162700  0.85162700  0.60025200  1
  Cu  Cu47  1  0.19847000  0.19847000  0.97466400  1
  Cu  Cu48  1  0.80153000  0.80153000  0.02533600  1
  Cu  Cu49  1  0.27747900  0.72252100  0.00000000  1
  Cu  Cu50  1  0.72252100  0.27747900  0.00000000  1
  Cu  Cu51  1  0.33052500  0.33052500  0.62904100  1
  Cu  Cu52  1  0.66947500  0.66947500  0.37095900  1
