# generated using pymatgen
data_Cu3Ni4C3
_symmetry_space_group_name_H-M   'P 1'
_cell_length_a   8.17395276
_cell_length_b   8.17395276
_cell_length_c   8.97184896
_cell_angle_alpha   88.27055969
_cell_angle_beta   112.09645530
_cell_angle_gamma   56.35896913
_symmetry_Int_Tables_number   1
_chemical_formula_structural   Cu3Ni4C3
_chemical_formula_sum   'Cu6 Ni8 C6'
_cell_volume   439.72417799
_cell_formula_units_Z   2
loop_
 _symmetry_equiv_pos_site_id
 _symmetry_equiv_pos_as_xyz
  1  'x, y, z'
loop_
 _atom_site_type_symbol
 _atom_site_label
 _atom_site_symmetry_multiplicity
 _atom_site_fract_x
 _atom_site_fract_y
 _atom_site_fract_z
 _atom_site_occupancy
  C  C0  1  0.34053500  0.84596000  0.49457500  1
  C  C1  1  0.65946500  0.15404000  0.50542500  1
  C  C2  1  0.50000000  0.00000000  0.00000000  1
  C  C3  1  0.00000000  0.50000000  0.00000000  1
  C  C4  1  0.00000000  0.00000000  0.00000000  1
  C  C5  1  0.50000000  0.50000000  0.00000000  1
  Ni  Ni6  1  0.72469300  0.92851800  0.79617500  1
  Ni  Ni7  1  0.70563000  0.39883900  0.80003900  1
  Ni  Ni8  1  0.19887800  0.90559100  0.80003900  1
  Ni  Ni9  1  0.27530700  0.07148200  0.20382500  1
  Ni  Ni10  1  0.29437000  0.60116100  0.19996100  1
  Ni  Ni11  1  0.80112200  0.09440900  0.19996100  1
  Ni  Ni12  1  0.25029800  0.40170900  0.84858900  1
  Ni  Ni13  1  0.74970200  0.59829100  0.15141100  1
  Cu  Cu14  1  0.12123700  0.63568600  0.48555100  1
  Cu  Cu15  1  0.03914300  0.27924200  0.47491200  1
  Cu  Cu16  1  0.75415400  0.56423100  0.47491200  1
  Cu  Cu17  1  0.87876300  0.36431400  0.51444900  1
  Cu  Cu18  1  0.96085700  0.72075800  0.52508800  1
  Cu  Cu19  1  0.24584600  0.43576900  0.52508800  1
