# generated using pymatgen
data_CuNi14C17
_symmetry_space_group_name_H-M   'P 1'
_cell_length_a   8.65707500
_cell_length_b   8.65707500
_cell_length_c   4.33074300
_cell_angle_alpha   90.00000000
_cell_angle_beta   90.00000000
_cell_angle_gamma   90.00000000
_symmetry_Int_Tables_number   1
_chemical_formula_structural   CuNi14C17
_chemical_formula_sum   'Cu1 Ni14 C17'
_cell_volume   324.56730701
_cell_formula_units_Z   1
loop_
 _symmetry_equiv_pos_site_id
 _symmetry_equiv_pos_as_xyz
  1  'x, y, z'
loop_
 _atom_site_type_symbol
 _atom_site_label
 _atom_site_symmetry_multiplicity
 _atom_site_fract_x
 _atom_site_fract_y
 _atom_site_fract_z
 _atom_site_occupancy
  C  C0  1  0.00000000  0.00000000  0.00000000  1
  Ni  Ni1  1  0.50000000  0.00000000  0.00000000  1
  Ni  Ni2  1  0.00000000  0.50000000  0.00000000  1
  Ni  Ni3  1  0.26490400  0.00000000  0.50000000  1
  Ni  Ni4  1  0.73509600  0.00000000  0.50000000  1
  Ni  Ni5  1  0.25749900  0.50000000  0.50000000  1
  Ni  Ni6  1  0.74250100  0.50000000  0.50000000  1
  Ni  Ni7  1  0.00000000  0.26490400  0.50000000  1
  Ni  Ni8  1  0.50000000  0.25749900  0.50000000  1
  Ni  Ni9  1  0.00000000  0.73509600  0.50000000  1
  Ni  Ni10  1  0.50000000  0.74250100  0.50000000  1
  Ni  Ni11  1  0.26178600  0.26178600  0.00000000  1
  Ni  Ni12  1  0.73821400  0.26178600  0.00000000  1
  Ni  Ni13  1  0.26178600  0.73821400  0.00000000  1
  Ni  Ni14  1  0.73821400  0.73821400  0.00000000  1
  Cu  Cu15  1  0.50000000  0.50000000  0.00000000  1
  C  C16  1  0.00000000  0.25787600  0.00000000  1
  C  C17  1  0.50000000  0.23681800  0.00000000  1
  C  C18  1  0.00000000  0.74212400  0.00000000  1
  C  C19  1  0.50000000  0.76318200  0.00000000  1
  C  C20  1  0.24883900  0.24883900  0.50000000  1
  C  C21  1  0.75116100  0.24883900  0.50000000  1
  C  C22  1  0.24883900  0.75116100  0.50000000  1
  C  C23  1  0.75116100  0.75116100  0.50000000  1
  C  C24  1  0.00000000  0.00000000  0.50000000  1
  C  C25  1  0.50000000  0.00000000  0.50000000  1
  C  C26  1  0.00000000  0.50000000  0.50000000  1
  C  C27  1  0.50000000  0.50000000  0.50000000  1
  C  C28  1  0.25787600  0.00000000  0.00000000  1
  C  C29  1  0.74212400  0.00000000  0.00000000  1
  C  C30  1  0.23681800  0.50000000  0.00000000  1
  C  C31  1  0.76318200  0.50000000  0.00000000  1
