# generated using pymatgen
data_Cu16(NiC15)3
_symmetry_space_group_name_H-M   'P 1'
_cell_length_a   8.90551074
_cell_length_b   8.90551074
_cell_length_c   12.96278600
_cell_angle_alpha   90.00000000
_cell_angle_beta   90.00000000
_cell_angle_gamma   90.83714138
_symmetry_Int_Tables_number   1
_chemical_formula_structural   Cu16(NiC15)3
_chemical_formula_sum   'Cu16 Ni3 C45'
_cell_volume   1027.94447709
_cell_formula_units_Z   1
loop_
 _symmetry_equiv_pos_site_id
 _symmetry_equiv_pos_as_xyz
  1  'x, y, z'
loop_
 _atom_site_type_symbol
 _atom_site_label
 _atom_site_symmetry_multiplicity
 _atom_site_fract_x
 _atom_site_fract_y
 _atom_site_fract_z
 _atom_site_occupancy
  C  C0  1  0.50000000  0.50000000  0.25071200  1
  C  C1  1  0.00000000  0.00000000  0.25061000  1
  C  C2  1  0.00000000  0.00000000  0.74939000  1
  C  C3  1  0.50000000  0.50000000  0.74928800  1
  C  C4  1  0.50000000  0.50000000  0.00000000  1
  Ni  Ni5  1  0.00000000  0.00000000  0.00000000  1
  Ni  Ni6  1  0.00000000  0.00000000  0.50000000  1
  Ni  Ni7  1  0.50000000  0.50000000  0.50000000  1
  Cu  Cu8  1  0.71316900  0.81761000  0.86719200  1
  Cu  Cu9  1  0.21260600  0.68425900  0.86634700  1
  Cu  Cu10  1  0.78739400  0.31574100  0.86634700  1
  Cu  Cu11  1  0.28683100  0.18239000  0.86719200  1
  Cu  Cu12  1  0.68199600  0.78654700  0.36779800  1
  Cu  Cu13  1  0.18170900  0.71447500  0.36802300  1
  Cu  Cu14  1  0.81829100  0.28552500  0.36802300  1
  Cu  Cu15  1  0.31800400  0.21345300  0.36779800  1
  Cu  Cu16  1  0.78654700  0.68199600  0.63220200  1
  Cu  Cu17  1  0.28552500  0.81829100  0.63197700  1
  Cu  Cu18  1  0.71447500  0.18170900  0.63197700  1
  Cu  Cu19  1  0.21345300  0.31800400  0.63220200  1
  Cu  Cu20  1  0.81761000  0.71316900  0.13280800  1
  Cu  Cu21  1  0.31574100  0.78739400  0.13365300  1
  Cu  Cu22  1  0.68425900  0.21260600  0.13365300  1
  Cu  Cu23  1  0.18239000  0.28683100  0.13280800  1
  C  C24  1  0.72858000  0.62652900  0.79836600  1
  C  C25  1  0.22762000  0.87516700  0.79710300  1
  C  C26  1  0.77238000  0.12483300  0.79710300  1
  C  C27  1  0.27142000  0.37347100  0.79836600  1
  C  C28  1  0.87247700  0.77042700  0.29784500  1
  C  C29  1  0.37260900  0.73203200  0.29924100  1
  C  C30  1  0.62739100  0.26796800  0.29924100  1
  C  C31  1  0.12752300  0.22957300  0.29784500  1
  C  C32  1  0.77042700  0.87247700  0.70215500  1
  C  C33  1  0.26796800  0.62739100  0.70075900  1
  C  C34  1  0.73203200  0.37260900  0.70075900  1
  C  C35  1  0.22957300  0.12752300  0.70215500  1
  C  C36  1  0.62652900  0.72858000  0.20163400  1
  C  C37  1  0.12483300  0.77238000  0.20289700  1
  C  C38  1  0.87516700  0.22762000  0.20289700  1
  C  C39  1  0.37347100  0.27142000  0.20163400  1
  C  C40  1  0.57920500  0.35478400  0.88250400  1
  C  C41  1  0.07762600  0.13786000  0.88836200  1
  C  C42  1  0.92237400  0.86214000  0.88836200  1
  C  C43  1  0.42079500  0.64521600  0.88250400  1
  C  C44  1  0.13734600  0.92315500  0.38811000  1
  C  C45  1  0.63668800  0.57724900  0.38783000  1
  C  C46  1  0.36331200  0.42275100  0.38783000  1
  C  C47  1  0.86265400  0.07684500  0.38811000  1
  C  C48  1  0.92315500  0.13734600  0.61189000  1
  C  C49  1  0.42275100  0.36331200  0.61217000  1
  C  C50  1  0.57724900  0.63668800  0.61217000  1
  C  C51  1  0.07684500  0.86265400  0.61189000  1
  C  C52  1  0.35478400  0.57920500  0.11749600  1
  C  C53  1  0.86214000  0.92237400  0.11163800  1
  C  C54  1  0.13786000  0.07762600  0.11163800  1
  C  C55  1  0.64521600  0.42079500  0.11749600  1
  C  C56  1  0.20149800  0.79850200  0.00000000  1
  C  C57  1  0.69666500  0.69666500  0.00000000  1
  C  C58  1  0.30333500  0.30333500  0.00000000  1
  C  C59  1  0.79850200  0.20149800  0.00000000  1
  C  C60  1  0.70184000  0.29816000  0.50000000  1
  C  C61  1  0.20109200  0.20109200  0.50000000  1
  C  C62  1  0.79890800  0.79890800  0.50000000  1
  C  C63  1  0.29816000  0.70184000  0.50000000  1
