# generated using pymatgen
data_CuNiC9
_symmetry_space_group_name_H-M   'P 1'
_cell_length_a   7.34366009
_cell_length_b   7.34366009
_cell_length_c   7.34366009
_cell_angle_alpha   121.05602312
_cell_angle_beta   118.82548962
_cell_angle_gamma   90.11347825
_symmetry_Int_Tables_number   1
_chemical_formula_structural   CuNiC9
_chemical_formula_sum   'Cu2 Ni2 C18'
_cell_volume   280.15943233
_cell_formula_units_Z   2
loop_
 _symmetry_equiv_pos_site_id
 _symmetry_equiv_pos_as_xyz
  1  'x, y, z'
loop_
 _atom_site_type_symbol
 _atom_site_label
 _atom_site_symmetry_multiplicity
 _atom_site_fract_x
 _atom_site_fract_y
 _atom_site_fract_z
 _atom_site_occupancy
  Ni  Ni0  1  0.00000000  0.50000000  0.00000000  1
  Ni  Ni1  1  0.00000000  0.00000000  0.50000000  1
  Cu  Cu2  1  0.00000000  0.50000000  0.50000000  1
  Cu  Cu3  1  0.50000000  0.50000000  0.00000000  1
  C  C4  1  0.50000000  0.00000000  0.00000000  1
  C  C5  1  0.50000000  0.50000000  0.50000000  1
  C  C6  1  0.50000000  0.00000000  0.50000000  1
  C  C7  1  0.00000000  0.00000000  0.00000000  1
  C  C8  1  0.82183400  0.07183400  0.75000000  1
  C  C9  1  0.41839600  0.66839600  0.75000000  1
  C  C10  1  0.82541800  0.66846900  0.73835700  1
  C  C11  1  0.43011200  0.08706100  0.76164300  1
  C  C12  1  0.82541800  0.08706100  0.15694900  1
  C  C13  1  0.43011200  0.66846900  0.34305100  1
  C  C14  1  0.17816600  0.92816600  0.25000000  1
  C  C15  1  0.58160400  0.33160400  0.25000000  1
  C  C16  1  0.17458200  0.33153100  0.26164300  1
  C  C17  1  0.56988800  0.91293900  0.23835700  1
  C  C18  1  0.17458200  0.91293900  0.84305100  1
  C  C19  1  0.56988800  0.33153100  0.65694900  1
  C  C20  1  0.86860700  0.61860700  0.25000000  1
  C  C21  1  0.13139300  0.38139300  0.75000000  1
