# generated using pymatgen
data_CuNi7C5
_symmetry_space_group_name_H-M   'P 1'
_cell_length_a   16.49647900
_cell_length_b   7.85346500
_cell_length_c   10.11692925
_cell_angle_alpha   87.56615980
_cell_angle_beta   90.00000000
_cell_angle_gamma   90.00000000
_symmetry_Int_Tables_number   1
_chemical_formula_structural   CuNi7C5
_chemical_formula_sum   'Cu4 Ni28 C20'
_cell_volume   1309.51157047
_cell_formula_units_Z   4
loop_
 _symmetry_equiv_pos_site_id
 _symmetry_equiv_pos_as_xyz
  1  'x, y, z'
loop_
 _atom_site_type_symbol
 _atom_site_label
 _atom_site_symmetry_multiplicity
 _atom_site_fract_x
 _atom_site_fract_y
 _atom_site_fract_z
 _atom_site_occupancy
  C  C0  1  0.54223300  0.96725400  0.67632700  1
  C  C1  1  0.04223300  0.03274600  0.82367300  1
  C  C2  1  0.45776700  0.03274600  0.32367300  1
  C  C3  1  0.95776700  0.96725400  0.17632700  1
  C  C4  1  0.63263500  0.36272600  0.73638000  1
  C  C5  1  0.13263500  0.63727400  0.76362000  1
  C  C6  1  0.36736500  0.63727400  0.26362000  1
  C  C7  1  0.86736500  0.36272600  0.23638000  1
  Ni  Ni8  1  0.72779200  0.19084500  0.75048300  1
  Ni  Ni9  1  0.22779200  0.80915500  0.74951700  1
  Ni  Ni10  1  0.27220800  0.80915500  0.24951700  1
  Ni  Ni11  1  0.77220800  0.19084500  0.25048300  1
  Ni  Ni12  1  0.69852400  0.22015000  0.87088600  1
  Ni  Ni13  1  0.19852400  0.77985000  0.62911400  1
  Ni  Ni14  1  0.30147600  0.77985000  0.12911400  1
  Ni  Ni15  1  0.80147600  0.22015000  0.37088600  1
  Ni  Ni16  1  0.66137700  0.34614900  0.93234700  1
  Ni  Ni17  1  0.16137700  0.65385100  0.56765300  1
  Ni  Ni18  1  0.33862300  0.65385100  0.06765300  1
  Ni  Ni19  1  0.83862300  0.34614900  0.43234700  1
  Ni  Ni20  1  0.46863000  0.26454500  0.74905600  1
  Ni  Ni21  1  0.96863000  0.73545500  0.75094400  1
  Ni  Ni22  1  0.53137000  0.73545500  0.25094400  1
  Ni  Ni23  1  0.03137000  0.26454500  0.24905600  1
  Ni  Ni24  1  0.38394400  0.22642800  0.72930400  1
  Ni  Ni25  1  0.88394400  0.77357200  0.77069600  1
  Ni  Ni26  1  0.61605600  0.77357200  0.27069600  1
  Ni  Ni27  1  0.11605600  0.22642800  0.22930400  1
  Ni  Ni28  1  0.41516000  0.41009200  0.74486800  1
  Ni  Ni29  1  0.91516000  0.58990800  0.75513200  1
  Ni  Ni30  1  0.58484000  0.58990800  0.25513200  1
  Ni  Ni31  1  0.08484000  0.41009200  0.24486800  1
  Ni  Ni32  1  0.33130300  0.37267100  0.72164100  1
  Ni  Ni33  1  0.83130300  0.62732900  0.77835900  1
  Ni  Ni34  1  0.66869700  0.62732900  0.27835900  1
  Ni  Ni35  1  0.16869700  0.37267100  0.22164100  1
  Cu  Cu36  1  0.54051500  0.20656600  0.75067000  1
  Cu  Cu37  1  0.04051500  0.79343400  0.74933000  1
  Cu  Cu38  1  0.45948500  0.79343400  0.24933000  1
  Cu  Cu39  1  0.95948500  0.20656600  0.25067000  1
  C  C40  1  0.66449200  0.86260700  0.66554300  1
  C  C41  1  0.16449200  0.13739300  0.83445700  1
  C  C42  1  0.33550800  0.13739300  0.33445700  1
  C  C43  1  0.83550800  0.86260700  0.16554300  1
  C  C44  1  0.49380300  0.83180300  0.85470400  1
  C  C45  1  0.99380300  0.16819700  0.64529600  1
  C  C46  1  0.50619700  0.16819700  0.14529600  1
  C  C47  1  0.00619700  0.83180300  0.35470400  1
  C  C48  1  0.44100700  0.85159000  0.54200900  1
  C  C49  1  0.94100700  0.14841000  0.95799100  1
  C  C50  1  0.55899300  0.14841000  0.45799100  1
  C  C51  1  0.05899300  0.85159000  0.04200900  1
