# generated using pymatgen
data_CuNiC6
_symmetry_space_group_name_H-M   'P 1'
_cell_length_a   9.15663249
_cell_length_b   9.15663249
_cell_length_c   8.96400834
_cell_angle_alpha   89.48770462
_cell_angle_beta   89.48770462
_cell_angle_gamma   88.32955647
_symmetry_Int_Tables_number   1
_chemical_formula_structural   CuNiC6
_chemical_formula_sum   'Cu6 Ni6 C36'
_cell_volume   751.19982850
_cell_formula_units_Z   6
loop_
 _symmetry_equiv_pos_site_id
 _symmetry_equiv_pos_as_xyz
  1  'x, y, z'
loop_
 _atom_site_type_symbol
 _atom_site_label
 _atom_site_symmetry_multiplicity
 _atom_site_fract_x
 _atom_site_fract_y
 _atom_site_fract_z
 _atom_site_occupancy
  C  C0  1  0.70454200  0.21050200  0.31396400  1
  C  C1  1  0.21050200  0.70454200  0.81396400  1
  C  C2  1  0.26313900  0.76114500  0.29457500  1
  C  C3  1  0.76114500  0.26313900  0.79457500  1
  Ni  Ni4  1  0.99826400  0.00604500  0.26972800  1
  Ni  Ni5  1  0.48743800  0.25304600  0.01218000  1
  Ni  Ni6  1  0.74845300  0.51357200  0.51614500  1
  Ni  Ni7  1  0.51357200  0.74845300  0.01614500  1
  Ni  Ni8  1  0.25304600  0.48743800  0.51218000  1
  Ni  Ni9  1  0.00604500  0.99826400  0.76972800  1
  Cu  Cu10  1  0.50494900  0.50150000  0.26391900  1
  Cu  Cu11  1  0.00343700  0.24931700  0.52329600  1
  Cu  Cu12  1  0.75032700  0.99855200  0.01572300  1
  Cu  Cu13  1  0.99855200  0.75032700  0.51572300  1
  Cu  Cu14  1  0.24931700  0.00343700  0.02329600  1
  Cu  Cu15  1  0.50150000  0.50494900  0.76391900  1
  C  C16  1  0.94196500  0.14953500  0.38869100  1
  C  C17  1  0.64548700  0.14390700  0.05975500  1
  C  C18  1  0.63649300  0.44675500  0.37560700  1
  C  C19  1  0.06023500  0.84510000  0.36991600  1
  C  C20  1  0.35494900  0.85807400  0.08593400  1
  C  C21  1  0.35460700  0.55879900  0.35770700  1
  C  C22  1  0.96464400  0.85043800  0.65916900  1
  C  C23  1  0.64999200  0.86669100  0.96633800  1
  C  C24  1  0.64323500  0.55537800  0.67159300  1
  C  C25  1  0.04750200  0.15354600  0.66829700  1
  C  C26  1  0.35379400  0.13164100  0.96734100  1
  C  C27  1  0.36420300  0.45806600  0.66468400  1
  C  C28  1  0.45806600  0.36420300  0.16468400  1
  C  C29  1  0.15354600  0.04750200  0.16829700  1
  C  C30  1  0.13164100  0.35379400  0.46734100  1
  C  C31  1  0.55879900  0.35460700  0.85770700  1
  C  C32  1  0.84510000  0.06023500  0.86991600  1
  C  C33  1  0.85807400  0.35494900  0.58593400  1
  C  C34  1  0.44675500  0.63649300  0.87560700  1
  C  C35  1  0.14953500  0.94196500  0.88869100  1
  C  C36  1  0.14390700  0.64548700  0.55975500  1
  C  C37  1  0.55537800  0.64323500  0.17159300  1
  C  C38  1  0.85043800  0.96464400  0.15916900  1
  C  C39  1  0.86669100  0.64999200  0.46633800  1
  C  C40  1  0.81262700  0.31680000  0.01318700  1
  C  C41  1  0.18712600  0.68125900  0.09372800  1
  C  C42  1  0.95154600  0.54068500  0.87143900  1
  C  C43  1  0.06138200  0.45931100  0.87248400  1
  C  C44  1  0.45931100  0.06138200  0.37248400  1
  C  C45  1  0.68125900  0.18712600  0.59372800  1
  C  C46  1  0.31680000  0.81262700  0.51318700  1
  C  C47  1  0.54068500  0.95154600  0.37143900  1
