# generated using pymatgen
data_Cu5NiC4
_symmetry_space_group_name_H-M   'P 1'
_cell_length_a   8.16720523
_cell_length_b   8.16720523
_cell_length_c   8.58663500
_cell_angle_alpha   90.00000000
_cell_angle_beta   90.00000000
_cell_angle_gamma   95.82597556
_symmetry_Int_Tables_number   1
_chemical_formula_structural   Cu5NiC4
_chemical_formula_sum   'Cu10 Ni2 C8'
_cell_volume   569.79798016
_cell_formula_units_Z   2
loop_
 _symmetry_equiv_pos_site_id
 _symmetry_equiv_pos_as_xyz
  1  'x, y, z'
loop_
 _atom_site_type_symbol
 _atom_site_label
 _atom_site_symmetry_multiplicity
 _atom_site_fract_x
 _atom_site_fract_y
 _atom_site_fract_z
 _atom_site_occupancy
  C  C0  1  0.68324900  0.82282700  0.91947600  1
  C  C1  1  0.17717300  0.31675100  0.91947600  1
  C  C2  1  0.31675100  0.17717300  0.41947600  1
  C  C3  1  0.82282700  0.68324900  0.41947600  1
  C  C4  1  0.21984700  0.78015300  0.53875500  1
  C  C5  1  0.78015300  0.21984700  0.03875500  1
  C  C6  1  0.75853100  0.24146900  0.66500200  1
  C  C7  1  0.24146900  0.75853100  0.16500200  1
  Ni  Ni8  1  0.05514500  0.94485500  0.75992700  1
  Ni  Ni9  1  0.94485500  0.05514500  0.25992700  1
  Cu  Cu10  1  0.60802200  0.09828500  0.88242700  1
  Cu  Cu11  1  0.90171500  0.39197800  0.88242700  1
  Cu  Cu12  1  0.39197800  0.90171500  0.38242700  1
  Cu  Cu13  1  0.09828500  0.60802200  0.38242700  1
  Cu  Cu14  1  0.97347100  0.02652900  0.85560400  1
  Cu  Cu15  1  0.02652900  0.97347100  0.35560400  1
  Cu  Cu16  1  0.20073000  0.00530700  0.70985300  1
  Cu  Cu17  1  0.99469300  0.79927000  0.70985300  1
  Cu  Cu18  1  0.79927000  0.99469300  0.20985300  1
  Cu  Cu19  1  0.00530700  0.20073000  0.20985300  1
