# generated using pymatgen
data_CuNi7C68
_symmetry_space_group_name_H-M   'P 1'
_cell_length_a   8.67775600
_cell_length_b   8.79782305
_cell_length_c   12.20509669
_cell_angle_alpha   90.26566298
_cell_angle_beta   90.10215051
_cell_angle_gamma   90.05498500
_symmetry_Int_Tables_number   1
_chemical_formula_structural   CuNi7C68
_chemical_formula_sum   'Cu1 Ni7 C68'
_cell_volume   931.79058868
_cell_formula_units_Z   1
loop_
 _symmetry_equiv_pos_site_id
 _symmetry_equiv_pos_as_xyz
  1  'x, y, z'
loop_
 _atom_site_type_symbol
 _atom_site_label
 _atom_site_symmetry_multiplicity
 _atom_site_fract_x
 _atom_site_fract_y
 _atom_site_fract_z
 _atom_site_occupancy
  C  C0  1  0.21733400  0.72256300  0.18072100  1
  C  C1  1  0.21933300  0.77898100  0.81993100  1
  C  C2  1  0.28143900  0.22229100  0.31731500  1
  C  C3  1  0.28109800  0.27714300  0.68401800  1
  C  C4  1  0.71550900  0.72647800  0.31499300  1
  C  C5  1  0.71750700  0.78997300  0.68365200  1
  C  C6  1  0.78611100  0.22205900  0.17958000  1
  C  C7  1  0.78777900  0.27375900  0.82839200  1
  Ni  Ni8  1  0.24738100  0.96100200  0.61363000  1
  Ni  Ni9  1  0.24861400  0.54253000  0.38336500  1
  Ni  Ni10  1  0.25141900  0.04161500  0.11252900  1
  Ni  Ni11  1  0.25264400  0.45701300  0.89105900  1
  Ni  Ni12  1  0.74958400  0.54024500  0.11162900  1
  Ni  Ni13  1  0.74641200  0.96221300  0.89167700  1
  Ni  Ni14  1  0.74964500  0.03645900  0.38409800  1
  C  C15  1  0.04402800  0.24479300  0.49646600  1
  C  C16  1  0.10421000  0.39365400  0.14744000  1
  C  C17  1  0.10595700  0.10623200  0.85239100  1
  C  C18  1  0.38893300  0.60386200  0.64555200  1
  C  C19  1  0.39361400  0.89459100  0.35434400  1
  C  C20  1  0.46100300  0.74960700  0.00020300  1
  C  C21  1  0.54003000  0.25059500  0.00103000  1
  C  C22  1  0.60355500  0.39209000  0.34962000  1
  C  C23  1  0.60196600  0.10344500  0.64381200  1
  C  C24  1  0.89820900  0.61181200  0.85322900  1
  C  C25  1  0.89529700  0.89243700  0.14739100  1
  C  C26  1  0.96384400  0.75223900  0.49701700  1
  Cu  Cu27  1  0.75304100  0.46160300  0.61378700  1
  C  C28  1  0.05522200  0.63795200  0.43130200  1
  C  C29  1  0.05238100  0.85377700  0.57486000  1
  C  C30  1  0.07331500  0.89489100  0.15637900  1
  C  C31  1  0.07280000  0.60454700  0.83967800  1
  C  C32  1  0.14216800  0.16561100  0.58317300  1
  C  C33  1  0.14612400  0.34009900  0.42197900  1
  C  C34  1  0.15367900  0.43412900  0.03060100  1
  C  C35  1  0.15603800  0.06603500  0.96903100  1
  C  C36  1  0.16210000  0.23361700  0.18051400  1
  C  C37  1  0.16229200  0.26727300  0.81950200  1
  C  C38  1  0.17454800  0.51481100  0.22631500  1
  C  C39  1  0.17447000  0.98529200  0.77282900  1
  C  C40  1  0.32591800  0.01486100  0.27527900  1
  C  C41  1  0.32797000  0.48398600  0.72474000  1
  C  C42  1  0.34683100  0.76633600  0.68047800  1
  C  C43  1  0.33608900  0.73373700  0.32053600  1
  C  C44  1  0.34962100  0.56712400  0.52743300  1
  C  C45  1  0.34275500  0.93420200  0.47164700  1
  C  C46  1  0.35120600  0.83683400  0.07923200  1
  C  C47  1  0.35109200  0.66203300  0.92118300  1
  C  C48  1  0.42738200  0.11179500  0.65700300  1
  C  C49  1  0.42804500  0.39323800  0.34880700  1
  C  C50  1  0.44372400  0.14210500  0.07019400  1
  C  C51  1  0.44552600  0.35809400  0.92906800  1
  C  C52  1  0.55734500  0.64232100  0.07103600  1
  C  C53  1  0.55673900  0.85663500  0.92897500  1
  C  C54  1  0.57667400  0.59241500  0.65410600  1
  C  C55  1  0.57207000  0.89500900  0.34532400  1
  C  C56  1  0.64802900  0.33834500  0.08106100  1
  C  C57  1  0.64888500  0.16380300  0.92088700  1
  C  C58  1  0.65491100  0.07054800  0.52808600  1
  C  C59  1  0.65964700  0.42947600  0.47476100  1
  C  C60  1  0.66576000  0.23440500  0.32163000  1
  C  C61  1  0.66475600  0.27439300  0.67370600  1
  C  C62  1  0.67621100  0.51745300  0.28114100  1
  C  C63  1  0.67668600  0.99396500  0.72504500  1
  C  C64  1  0.82626700  0.01334900  0.22671200  1
  C  C65  1  0.82809600  0.48695400  0.76580300  1
  C  C66  1  0.83694200  0.73205800  0.17976500  1
  C  C67  1  0.83413600  0.76612000  0.81689700  1
  C  C68  1  0.84055800  0.55938600  0.96379400  1
  C  C69  1  0.84477700  0.93230300  0.03078200  1
  C  C70  1  0.84980800  0.65341100  0.57762200  1
  C  C71  1  0.84690300  0.83367000  0.42396900  1
  C  C72  1  0.92734400  0.10432100  0.84353100  1
  C  C73  1  0.92592700  0.39659400  0.15653000  1
  C  C74  1  0.94015400  0.14142100  0.43061500  1
  C  C75  1  0.93458600  0.35798000  0.56758900  1
