# generated using pymatgen
data_CuNiC9
_symmetry_space_group_name_H-M   'P 1'
_cell_length_a   8.55202100
_cell_length_b   7.10686500
_cell_length_c   9.18248644
_cell_angle_alpha   66.77359800
_cell_angle_beta   90.00000000
_cell_angle_gamma   90.00000000
_symmetry_Int_Tables_number   1
_chemical_formula_structural   CuNiC9
_chemical_formula_sum   'Cu4 Ni4 C36'
_cell_volume   512.86227737
_cell_formula_units_Z   4
loop_
 _symmetry_equiv_pos_site_id
 _symmetry_equiv_pos_as_xyz
  1  'x, y, z'
loop_
 _atom_site_type_symbol
 _atom_site_label
 _atom_site_symmetry_multiplicity
 _atom_site_fract_x
 _atom_site_fract_y
 _atom_site_fract_z
 _atom_site_occupancy
  Ni  Ni0  1  0.94147400  0.69794800  0.18170000  1
  Ni  Ni1  1  0.44147400  0.30205200  0.31830000  1
  Ni  Ni2  1  0.55852600  0.69794800  0.68170000  1
  Ni  Ni3  1  0.05852600  0.30205200  0.81830000  1
  Cu  Cu4  1  0.07381200  0.23665400  0.39011300  1
  Cu  Cu5  1  0.92618800  0.76334600  0.60988700  1
  Cu  Cu6  1  0.57381200  0.76334600  0.10988700  1
  Cu  Cu7  1  0.42618800  0.23665400  0.89011300  1
  C  C8  1  0.73397400  0.06098900  0.75749800  1
  C  C9  1  0.22368300  0.53162900  0.03147400  1
  C  C10  1  0.76602600  0.06098900  0.25749800  1
  C  C11  1  0.27631700  0.53162900  0.53147400  1
  C  C12  1  0.23397400  0.93901100  0.74250200  1
  C  C13  1  0.72368300  0.46837100  0.46852600  1
  C  C14  1  0.77631700  0.46837100  0.96852600  1
  C  C15  1  0.26602600  0.93901100  0.24250200  1
  C  C16  1  0.17516700  0.74946900  0.90017700  1
  C  C17  1  0.61112500  0.11390400  0.30985700  1
  C  C18  1  0.88887500  0.11390400  0.80985700  1
  C  C19  1  0.38453200  0.54408800  0.10256300  1
  C  C20  1  0.82483300  0.25053100  0.09982300  1
  C  C21  1  0.10052600  0.97371900  0.62212200  1
  C  C22  1  0.61546800  0.45591200  0.89743700  1
  C  C23  1  0.09070900  0.48995600  0.15279300  1
  C  C24  1  0.27378400  0.37867900  0.45052900  1
  C  C25  1  0.89947400  0.02628100  0.37787800  1
  C  C26  1  0.39947400  0.97371900  0.12212200  1
  C  C27  1  0.76245000  0.88203600  0.20223700  1
  C  C28  1  0.26245000  0.11796400  0.29776300  1
  C  C29  1  0.32483300  0.74946900  0.40017700  1
  C  C30  1  0.60052600  0.02628100  0.87787800  1
  C  C31  1  0.11112500  0.88609600  0.19014300  1
  C  C32  1  0.23755000  0.11796400  0.79776300  1
  C  C33  1  0.90929100  0.51004400  0.84720700  1
  C  C34  1  0.22621600  0.37867900  0.95052900  1
  C  C35  1  0.77378400  0.62132100  0.04947100  1
  C  C36  1  0.88453200  0.45591200  0.39743700  1
  C  C37  1  0.40929100  0.48995600  0.65279300  1
  C  C38  1  0.59070900  0.51004400  0.34720700  1
  C  C39  1  0.38887500  0.88609600  0.69014300  1
  C  C40  1  0.73755000  0.88203600  0.70223700  1
  C  C41  1  0.11546800  0.54408800  0.60256300  1
  C  C42  1  0.72621600  0.62132100  0.54947100  1
  C  C43  1  0.67516700  0.25053100  0.59982300  1
