# generated using pymatgen
data_Cu4Ni2C15
_symmetry_space_group_name_H-M   'P 1'
_cell_length_a   5.41887100
_cell_length_b   7.99159957
_cell_length_c   12.87680247
_cell_angle_alpha   90.19229106
_cell_angle_beta   93.55514976
_cell_angle_gamma   90.21367313
_symmetry_Int_Tables_number   1
_chemical_formula_structural   Cu4Ni2C15
_chemical_formula_sum   'Cu8 Ni4 C30'
_cell_volume   556.55509512
_cell_formula_units_Z   2
loop_
 _symmetry_equiv_pos_site_id
 _symmetry_equiv_pos_as_xyz
  1  'x, y, z'
loop_
 _atom_site_type_symbol
 _atom_site_label
 _atom_site_symmetry_multiplicity
 _atom_site_fract_x
 _atom_site_fract_y
 _atom_site_fract_z
 _atom_site_occupancy
  C  C0  1  0.70507700  0.68441500  0.73067900  1
  C  C1  1  0.29492300  0.31558500  0.26932100  1
  Ni  Ni2  1  0.27421900  0.35905800  0.61935900  1
  Ni  Ni3  1  0.23415100  0.86048300  0.87880400  1
  Ni  Ni4  1  0.72578100  0.64094200  0.38064100  1
  Ni  Ni5  1  0.76584900  0.13951700  0.12119600  1
  Cu  Cu6  1  0.81472000  0.30330700  0.48743600  1
  Cu  Cu7  1  0.69025700  0.80096700  0.01158400  1
  Cu  Cu8  1  0.18528000  0.69669300  0.51256400  1
  Cu  Cu9  1  0.30974300  0.19903300  0.98841600  1
  Cu  Cu10  1  0.26471400  0.97030200  0.66731500  1
  Cu  Cu11  1  0.22950500  0.47386700  0.83014700  1
  Cu  Cu12  1  0.73528600  0.02969800  0.33268500  1
  Cu  Cu13  1  0.77049500  0.52613300  0.16985300  1
  C  C14  1  0.70028300  0.32428000  0.58906200  1
  C  C15  1  0.80388900  0.79801600  0.90783500  1
  C  C16  1  0.29971700  0.67572000  0.41093800  1
  C  C17  1  0.19611100  0.20198400  0.09216500  1
  C  C18  1  0.59451300  0.16378000  0.99267600  1
  C  C19  1  0.89876100  0.66317000  0.51337600  1
  C  C20  1  0.40548700  0.83622000  0.00732400  1
  C  C21  1  0.10123900  0.33683000  0.48662400  1
  C  C22  1  0.96279300  0.47962900  0.79397700  1
  C  C23  1  0.52945900  0.94349200  0.70429300  1
  C  C24  1  0.03720700  0.52037100  0.20602300  1
  C  C25  1  0.47054100  0.05650800  0.29570700  1
  C  C26  1  0.27262600  0.38655600  0.94126100  1
  C  C27  1  0.21697700  0.88798900  0.55253900  1
  C  C28  1  0.72737400  0.61344400  0.05873900  1
  C  C29  1  0.78302300  0.11201100  0.44746100  1
  C  C30  1  0.64536400  0.34989900  0.15589200  1
  C  C31  1  0.83496100  0.85109400  0.34436100  1
  C  C32  1  0.35463600  0.65010100  0.84410800  1
  C  C33  1  0.16503900  0.14890600  0.65563900  1
  C  C34  1  0.68385200  0.40468600  0.39510100  1
  C  C35  1  0.81685900  0.91136200  0.09835800  1
  C  C36  1  0.31614800  0.59531400  0.60489900  1
  C  C37  1  0.18314100  0.08863800  0.90164200  1
  C  C38  1  0.91811000  0.12228800  0.26180500  1
  C  C39  1  0.59082100  0.61427500  0.24259100  1
  C  C40  1  0.08189000  0.87771200  0.73819500  1
  C  C41  1  0.40917900  0.38572500  0.75740900  1
