# generated using pymatgen
data_CuNi4C19
_symmetry_space_group_name_H-M   'P 1'
_cell_length_a   2.88815100
_cell_length_b   7.91730551
_cell_length_c   19.60815976
_cell_angle_alpha   80.86159286
_cell_angle_beta   89.99884109
_cell_angle_gamma   100.50854329
_symmetry_Int_Tables_number   1
_chemical_formula_structural   CuNi4C19
_chemical_formula_sum   'Cu2 Ni8 C38'
_cell_volume   435.05786421
_cell_formula_units_Z   2
loop_
 _symmetry_equiv_pos_site_id
 _symmetry_equiv_pos_as_xyz
  1  'x, y, z'
loop_
 _atom_site_type_symbol
 _atom_site_label
 _atom_site_symmetry_multiplicity
 _atom_site_fract_x
 _atom_site_fract_y
 _atom_site_fract_z
 _atom_site_occupancy
  C  C0  1  0.66606600  0.33207900  0.99979400  1
  C  C1  1  0.66793000  0.33583500  0.49938300  1
  C  C2  1  0.41760100  0.83532000  0.12638100  1
  C  C3  1  0.42123100  0.84232600  0.62649600  1
  C  C4  1  0.91516400  0.83032200  0.37552700  1
  C  C5  1  0.91264400  0.82512900  0.87335100  1
  C  C6  1  0.24017200  0.48031200  0.37790800  1
  C  C7  1  0.23834100  0.47673800  0.88038100  1
  C  C8  1  0.10093400  0.20201600  0.11937200  1
  C  C9  1  0.09537800  0.19050500  0.61976000  1
  C  C10  1  0.74408200  0.48810600  0.12246700  1
  C  C11  1  0.75155200  0.50302700  0.62332900  1
  C  C12  1  0.58532800  0.17049600  0.37590100  1
  C  C13  1  0.58184300  0.16362300  0.87714400  1
  Ni  Ni14  1  0.00436000  0.00853400  0.99845800  1
  Ni  Ni15  1  0.32912300  0.65843200  0.50231600  1
  Ni  Ni16  1  0.83063000  0.66181800  0.75218800  1
  Ni  Ni17  1  0.50281800  0.00492400  0.74777900  1
  Ni  Ni18  1  0.00612900  0.01177700  0.49765800  1
  Ni  Ni19  1  0.32869400  0.65733700  0.00165100  1
  Ni  Ni20  1  0.82911500  0.65771600  0.25435800  1
  Ni  Ni21  1  0.50282000  0.00770600  0.24842900  1
  Cu  Cu22  1  0.16672100  0.33329300  0.75006100  1
  Cu  Cu23  1  0.16626100  0.33270700  0.24647100  1
  C  C24  1  0.53381400  0.06770900  0.05593900  1
  C  C25  1  0.53698800  0.07371300  0.55457800  1
  C  C26  1  0.79907400  0.59810700  0.44522700  1
  C  C27  1  0.79765600  0.59524300  0.94461600  1
  C  C28  1  0.36476100  0.72922500  0.31014800  1
  C  C29  1  0.36481200  0.72995500  0.81045300  1
  C  C30  1  0.94985000  0.90001900  0.19909300  1
  C  C31  1  0.96887800  0.93726000  0.68934500  1
  C  C32  1  0.22334800  0.44663000  0.05731800  1
  C  C33  1  0.22364500  0.44726900  0.55799500  1
  C  C34  1  0.11130500  0.22240800  0.44119000  1
  C  C35  1  0.11002000  0.22004100  0.94259000  1
  C  C36  1  0.87735500  0.75469400  0.05337400  1
  C  C37  1  0.87891600  0.75779000  0.55334900  1
  C  C38  1  0.45639000  0.91260100  0.44649800  1
  C  C39  1  0.45543000  0.91085500  0.94677400  1
  C  C40  1  0.71497800  0.42989800  0.30762100  1
  C  C41  1  0.69757000  0.39490500  0.80805300  1
  C  C42  1  0.62563000  0.25148600  0.18435700  1
  C  C43  1  0.63595100  0.27181500  0.69200400  1
  C  C44  1  0.03440800  0.07034800  0.30756900  1
  C  C45  1  0.03418300  0.06781500  0.80668900  1
  C  C46  1  0.30079300  0.60117700  0.19536600  1
  C  C47  1  0.29930900  0.59896000  0.69329100  1
