# generated using pymatgen
data_Cu8NiC16
_symmetry_space_group_name_H-M   'P 1'
_cell_length_a   4.87152175
_cell_length_b   10.48973494
_cell_length_c   5.71665727
_cell_angle_alpha   84.25731916
_cell_angle_beta   90.71927727
_cell_angle_gamma   90.40987826
_symmetry_Int_Tables_number   1
_chemical_formula_structural   Cu8NiC16
_chemical_formula_sum   'Cu8 Ni1 C16'
_cell_volume   290.63263905
_cell_formula_units_Z   1
loop_
 _symmetry_equiv_pos_site_id
 _symmetry_equiv_pos_as_xyz
  1  'x, y, z'
loop_
 _atom_site_type_symbol
 _atom_site_label
 _atom_site_symmetry_multiplicity
 _atom_site_fract_x
 _atom_site_fract_y
 _atom_site_fract_z
 _atom_site_occupancy
  Ni  Ni0  1  0.00030961  0.12107348  0.61644325  1
  Cu  Cu1  1  0.48336099  0.27458761  0.72382931  1
  Cu  Cu2  1  0.51028305  0.97846215  0.52003724  1
  Cu  Cu3  1  0.51624442  0.73147688  0.26693327  1
  Cu  Cu4  1  0.48147288  0.51939464  0.98862590  1
  Cu  Cu5  1  0.99153388  0.24745702  0.19548252  1
  Cu  Cu6  1  0.00935867  0.76156441  0.74951883  1
  Cu  Cu7  1  0.97699040  0.48596123  0.49431969  1
  Cu  Cu8  1  0.01327714  0.00206136  0.04267060  1
  C  C9  1  0.82939331  0.30560270  0.53022311  1
  C  C10  1  0.84214932  0.06792685  0.31618739  1
  C  C11  1  0.68904465  0.80248505  0.53490035  1
  C  C12  1  0.69749559  0.55780531  0.27240614  1
  C  C13  1  0.31163117  0.43593470  0.70937404  1
  C  C14  1  0.30536734  0.68181778  0.97828302  1
  C  C15  1  0.15221209  0.93680518  0.72903120  1
  C  C16  1  0.18229105  0.17423593  0.91548299  1
  C  C17  1  0.81916771  0.57378441  0.77705236  1
  C  C18  1  0.81057260  0.82327699  0.04443278  1
  C  C19  1  0.67389285  0.07750157  0.80716731  1
  C  C20  1  0.66455306  0.33494580  0.01576228  1
  C  C21  1  0.32725054  0.91334799  0.22616260  1
  C  C22  1  0.33120590  0.17830528  0.43956397  1
  C  C23  1  0.18560775  0.66907942  0.47196106  1
  C  C24  1  0.18144504  0.42635628  0.20557779  1
