# generated using pymatgen
data_Cu7NiC17
_symmetry_space_group_name_H-M   'P 1'
_cell_length_a   5.67328854
_cell_length_b   7.16422111
_cell_length_c   7.72599055
_cell_angle_alpha   90.00000000
_cell_angle_beta   90.00000000
_cell_angle_gamma   90.00000000
_symmetry_Int_Tables_number   1
_chemical_formula_structural   Cu7NiC17
_chemical_formula_sum   'Cu7 Ni1 C17'
_cell_volume   314.02051805
_cell_formula_units_Z   1
loop_
 _symmetry_equiv_pos_site_id
 _symmetry_equiv_pos_as_xyz
  1  'x, y, z'
loop_
 _atom_site_type_symbol
 _atom_site_label
 _atom_site_symmetry_multiplicity
 _atom_site_fract_x
 _atom_site_fract_y
 _atom_site_fract_z
 _atom_site_occupancy
  Ni  Ni0  1  0.02397783  0.00000000  0.00000000  1
  C  C1  1  0.37044045  0.50000000  0.00000000  1
  Cu  Cu2  1  0.52106868  0.23213343  0.28364683  1
  Cu  Cu3  1  0.97033564  0.00000000  0.50000000  1
  Cu  Cu4  1  0.52106868  0.23213343  0.71635317  1
  Cu  Cu5  1  0.88692030  0.50000000  0.00000000  1
  Cu  Cu6  1  0.52106868  0.76786657  0.28364683  1
  Cu  Cu7  1  0.03108787  0.50000000  0.50000000  1
  Cu  Cu8  1  0.52106868  0.76786657  0.71635317  1
  C  C9  1  0.13455995  0.29596733  0.00000000  1
  C  C10  1  0.32088909  0.00000000  0.21938293  1
  C  C11  1  0.80048130  0.00000000  0.25875393  1
  C  C12  1  0.61296023  0.28325341  0.00000000  1
  C  C13  1  0.23054814  0.23160795  0.50000000  1
  C  C14  1  0.32088909  0.00000000  0.78061707  1
  C  C15  1  0.80048130  0.00000000  0.74124607  1
  C  C16  1  0.74790331  0.26079219  0.50000000  1
  C  C17  1  0.13455995  0.70403267  0.00000000  1
  C  C18  1  0.37034508  0.50000000  0.27443629  1
  C  C19  1  0.84879448  0.50000000  0.26775795  1
  C  C20  1  0.61296023  0.71674659  0.00000000  1
  C  C21  1  0.23054814  0.76839205  0.50000000  1
  C  C22  1  0.37034508  0.50000000  0.72556371  1
  C  C23  1  0.84879448  0.50000000  0.73224205  1
  C  C24  1  0.74790331  0.73920781  0.50000000  1
