# generated using pymatgen
data_Cu2Ni2C15
_symmetry_space_group_name_H-M   'P 1'
_cell_length_a   7.10981100
_cell_length_b   8.88506927
_cell_length_c   10.46521627
_cell_angle_alpha   106.91992412
_cell_angle_beta   105.22539853
_cell_angle_gamma   103.91422462
_symmetry_Int_Tables_number   1
_chemical_formula_structural   Cu2Ni2C15
_chemical_formula_sum   'Cu4 Ni4 C30'
_cell_volume   573.19580744
_cell_formula_units_Z   2
loop_
 _symmetry_equiv_pos_site_id
 _symmetry_equiv_pos_as_xyz
  1  'x, y, z'
loop_
 _atom_site_type_symbol
 _atom_site_label
 _atom_site_symmetry_multiplicity
 _atom_site_fract_x
 _atom_site_fract_y
 _atom_site_fract_z
 _atom_site_occupancy
  Ni  Ni0  1  0.87251800  0.45925900  0.10418300  1
  Ni  Ni1  1  0.12683000  0.54070200  0.89453900  1
  Ni  Ni2  1  0.46364100  0.29945400  0.48032900  1
  Ni  Ni3  1  0.53717500  0.70159100  0.52124200  1
  Cu  Cu4  1  0.81800400  0.82946600  0.33021200  1
  Cu  Cu5  1  0.18227700  0.16997900  0.67109200  1
  Cu  Cu6  1  0.49720800  0.99993700  0.99885800  1
  Cu  Cu7  1  0.99279700  0.02558600  0.05685400  1
  C  C8  1  0.28675900  0.83555800  0.23849300  1
  C  C9  1  0.71338400  0.16400500  0.76155800  1
  C  C10  1  0.90764300  0.24877000  0.36629100  1
  C  C11  1  0.09296200  0.75226800  0.63446900  1
  C  C12  1  0.61972000  0.59219200  0.83415700  1
  C  C13  1  0.38075600  0.40850300  0.16624500  1
  C  C14  1  0.33378000  0.05368300  0.32328800  1
  C  C15  1  0.66454900  0.94683100  0.67539200  1
  C  C16  1  0.03281100  0.72337700  0.22888000  1
  C  C17  1  0.96654300  0.27640500  0.77053300  1
  C  C18  1  0.17517900  0.47793300  0.08179100  1
  C  C19  1  0.82470400  0.52234400  0.91854900  1
  C  C20  1  0.74973700  0.31149000  0.46427200  1
  C  C21  1  0.24996900  0.68818200  0.53582800  1
  C  C22  1  0.61707300  0.50329100  0.14612300  1
  C  C23  1  0.38340100  0.49625500  0.85369400  1
  C  C24  1  0.28299300  0.79396200  0.05702500  1
  C  C25  1  0.71863200  0.20590500  0.94420100  1
  C  C26  1  0.94088100  0.36406400  0.25455700  1
  C  C27  1  0.05968200  0.63541500  0.74517100  1
  C  C28  1  0.30255300  0.18695700  0.07499700  1
  C  C29  1  0.69455400  0.81245100  0.92728900  1
  C  C30  1  0.84152100  0.73222000  0.51490400  1
  C  C31  1  0.15792400  0.26797400  0.48498200  1
  C  C32  1  0.77327500  0.03304600  0.24460700  1
  C  C33  1  0.22996400  0.96672400  0.75367700  1
  C  C34  1  0.47717900  0.77183500  0.34292800  1
  C  C35  1  0.52320900  0.22804000  0.65680700  1
  C  C36  1  0.42322800  0.44399600  0.35279000  1
  C  C37  1  0.57648700  0.55575200  0.64709300  1
