# generated using pymatgen
data_Cu3NiC2
_symmetry_space_group_name_H-M   'P 1'
_cell_length_a   8.28246254
_cell_length_b   8.28246254
_cell_length_c   8.28246254
_cell_angle_alpha   136.86858780
_cell_angle_beta   130.97029254
_cell_angle_gamma   67.32799785
_symmetry_Int_Tables_number   1
_chemical_formula_structural   Cu3NiC2
_chemical_formula_sum   'Cu6 Ni2 C4'
_cell_volume   288.49033858
_cell_formula_units_Z   2
loop_
 _symmetry_equiv_pos_site_id
 _symmetry_equiv_pos_as_xyz
  1  'x, y, z'
loop_
 _atom_site_type_symbol
 _atom_site_label
 _atom_site_symmetry_multiplicity
 _atom_site_fract_x
 _atom_site_fract_y
 _atom_site_fract_z
 _atom_site_occupancy
  C  C0  1  0.91888000  0.59352600  0.32535400  1
  C  C1  1  0.08112000  0.40647400  0.67464600  1
  C  C2  1  0.73182800  0.90647400  0.82535400  1
  C  C3  1  0.26817200  0.09352600  0.17464600  1
  Ni  Ni4  1  0.00000000  0.25000000  0.25000000  1
  Ni  Ni5  1  0.00000000  0.75000000  0.75000000  1
  Cu  Cu6  1  0.50000000  0.25000000  0.75000000  1
  Cu  Cu7  1  0.50000000  0.75000000  0.25000000  1
  Cu  Cu8  1  0.98494400  0.80115600  0.18378800  1
  Cu  Cu9  1  0.01505600  0.19884400  0.81621200  1
  Cu  Cu10  1  0.38263200  0.69884400  0.68378800  1
  Cu  Cu11  1  0.61736800  0.30115600  0.31621200  1
