# generated using pymatgen
data_Cu2NiC3
_symmetry_space_group_name_H-M   'P 1'
_cell_length_a   5.69037087
_cell_length_b   5.69037087
_cell_length_c   6.56604864
_cell_angle_alpha   74.30719535
_cell_angle_beta   74.30719535
_cell_angle_gamma   72.00766494
_symmetry_Int_Tables_number   1
_chemical_formula_structural   Cu2NiC3
_chemical_formula_sum   'Cu4 Ni2 C6'
_cell_volume   190.57622486
_cell_formula_units_Z   2
loop_
 _symmetry_equiv_pos_site_id
 _symmetry_equiv_pos_as_xyz
  1  'x, y, z'
loop_
 _atom_site_type_symbol
 _atom_site_label
 _atom_site_symmetry_multiplicity
 _atom_site_fract_x
 _atom_site_fract_y
 _atom_site_fract_z
 _atom_site_occupancy
  C  C0  1  0.86146200  0.65567100  0.16208200  1
  C  C1  1  0.34432900  0.13853800  0.33791800  1
  C  C2  1  0.13853800  0.34432900  0.83791800  1
  C  C3  1  0.65567100  0.86146200  0.66208200  1
  C  C4  1  0.11527100  0.88472900  0.75000000  1
  C  C5  1  0.88472900  0.11527100  0.25000000  1
  Ni  Ni6  1  0.63076300  0.36923700  0.75000000  1
  Ni  Ni7  1  0.36923700  0.63076300  0.25000000  1
  Cu  Cu8  1  0.95868100  0.73109900  0.81962100  1
  Cu  Cu9  1  0.26890100  0.04131900  0.68037900  1
  Cu  Cu10  1  0.04131900  0.26890100  0.18037900  1
  Cu  Cu11  1  0.73109900  0.95868100  0.31962100  1
