# generated using pymatgen
data_Cu2Ni2C9
_symmetry_space_group_name_H-M   'P 1'
_cell_length_a   11.61773600
_cell_length_b   12.75088631
_cell_length_c   14.35956716
_cell_angle_alpha   115.86885043
_cell_angle_beta   101.56515976
_cell_angle_gamma   96.05271420
_symmetry_Int_Tables_number   1
_chemical_formula_structural   Cu2Ni2C9
_chemical_formula_sum   'Cu24 Ni24 C108'
_cell_volume   1829.70803165
_cell_formula_units_Z   12
loop_
 _symmetry_equiv_pos_site_id
 _symmetry_equiv_pos_as_xyz
  1  'x, y, z'
loop_
 _atom_site_type_symbol
 _atom_site_label
 _atom_site_symmetry_multiplicity
 _atom_site_fract_x
 _atom_site_fract_y
 _atom_site_fract_z
 _atom_site_occupancy
  C  C0  1  0.72909900  0.28479400  0.77431600  1
  C  C1  1  0.27090100  0.71520600  0.22568400  1
  C  C2  1  0.79338700  0.21718000  0.22994400  1
  C  C3  1  0.20661300  0.78282000  0.77005600  1
  C  C4  1  0.59065200  0.15395400  0.58614800  1
  C  C5  1  0.40934800  0.84604600  0.41385200  1
  C  C6  1  0.65800500  0.27927300  0.58731900  1
  C  C7  1  0.34199500  0.72072700  0.41268100  1
  C  C8  1  0.90260700  0.28389100  0.68601900  1
  C  C9  1  0.09739300  0.71610900  0.31398100  1
  C  C10  1  0.83813900  0.14228300  0.64489800  1
  C  C11  1  0.16186100  0.85771700  0.35510200  1
  C  C12  1  0.69019200  0.35323400  0.36792300  1
  C  C13  1  0.30980800  0.64676600  0.63207700  1
  C  C14  1  0.63107700  0.20674000  0.32596600  1
  C  C15  1  0.36892300  0.79326000  0.67403400  1
  C  C16  1  0.87431200  0.26270500  0.42699700  1
  C  C17  1  0.12568800  0.73729500  0.57300300  1
  C  C18  1  0.95480200  0.36053200  0.39814300  1
  C  C19  1  0.04519800  0.63946800  0.60185700  1
  C  C20  1  0.27421000  0.50473900  0.86750400  1
  C  C21  1  0.72579000  0.49526100  0.13249600  1
  C  C22  1  0.36401700  0.41482300  0.90536100  1
  C  C23  1  0.63598300  0.58517700  0.09463900  1
  C  C24  1  0.43559100  0.55212900  0.91426600  1
  C  C25  1  0.56440900  0.44787100  0.08573400  1
  C  C26  1  0.37229400  0.32260400  0.53771700  1
  C  C27  1  0.62770600  0.67739600  0.46228300  1
  C  C28  1  0.46318600  0.22795400  0.46956100  1
  C  C29  1  0.53681400  0.77204600  0.53043900  1
  C  C30  1  0.35225800  0.17057800  0.51598300  1
  C  C31  1  0.64774200  0.82942200  0.48401700  1
  C  C32  1  0.10049400  0.12503700  0.79001600  1
  C  C33  1  0.89950600  0.87496300  0.20998400  1
  C  C34  1  0.02432800  0.10436400  0.66103700  1
  C  C35  1  0.97567200  0.89563600  0.33896300  1
  C  C36  1  0.13372600  0.23926500  0.75173400  1
  C  C37  1  0.86627400  0.76073500  0.24826600  1
  C  C38  1  0.16957700  0.38132700  0.16762600  1
  C  C39  1  0.83042300  0.61867300  0.83237400  1
  C  C40  1  0.07167600  0.46274500  0.12673000  1
  C  C41  1  0.92832400  0.53725500  0.87327000  1
  C  C42  1  0.01058200  0.32246600  0.11909500  1
  C  C43  1  0.98941800  0.67753400  0.88090500  1
  C  C44  1  0.34045300  0.14172300  0.85919800  1
  C  C45  1  0.65954700  0.85827700  0.14080200  1
  C  C46  1  0.50017400  0.20069000  0.90539300  1
  C  C47  1  0.49982600  0.79931000  0.09460700  1
  C  C48  1  0.43994700  0.05524800  0.88752600  1
  C  C49  1  0.56005300  0.94475200  0.11247400  1
  C  C50  1  0.42282900  0.37333300  0.24104000  1
  C  C51  1  0.57717100  0.62666700  0.75896000  1
  C  C52  1  0.39195000  0.25297100  0.27171300  1
  C  C53  1  0.60805000  0.74702900  0.72828700  1
  C  C54  1  0.50510200  0.38439000  0.36494500  1
  C  C55  1  0.49489800  0.61561000  0.63505500  1
  C  C56  1  0.12547100  0.14890500  0.45815300  1
  C  C57  1  0.87452900  0.85109500  0.54184700  1
  C  C58  1  0.15676900  0.30806700  0.50305800  1
  C  C59  1  0.84323100  0.69193300  0.49694200  1
  C  C60  1  0.03046200  0.23871200  0.52513000  1
  C  C61  1  0.96953800  0.76128800  0.47487000  1
  C  C62  1  0.23735700  0.97721000  0.13500400  1
  C  C63  1  0.76264300  0.02279000  0.86499600  1
  C  C64  1  0.07590900  0.94117100  0.08247400  1
  C  C65  1  0.92409100  0.05882900  0.91752600  1
  C  C66  1  0.16156100  0.07983500  0.10480100  1
  C  C67  1  0.83843900  0.92016500  0.89519900  1
  C  C68  1  0.35960500  0.47493300  0.86945200  1
  C  C69  1  0.64039500  0.52506700  0.13054800  1
  C  C70  1  0.49186300  0.35400900  0.73180300  1
  C  C71  1  0.50813700  0.64599100  0.26819700  1
  C  C72  1  0.41780500  0.25006600  0.53344500  1
  C  C73  1  0.58219500  0.74993400  0.46655500  1
  C  C74  1  0.06267700  0.17067100  0.74567400  1
  C  C75  1  0.93732300  0.82932900  0.25432600  1
  C  C76  1  0.97460100  0.28460100  0.89276800  1
  C  C77  1  0.02539900  0.71539900  0.10723200  1
  C  C78  1  0.08610100  0.37370700  0.11089300  1
  C  C79  1  0.91389900  0.62629300  0.88910700  1
  C  C80  1  0.42578200  0.14591000  0.91151600  1
  C  C81  1  0.57421800  0.85409000  0.08848400  1
  C  C82  1  0.54324600  0.21663300  0.12484500  1
  C  C83  1  0.45675400  0.78336700  0.87515500  1
  C  C84  1  0.46261900  0.32296500  0.27955800  1
  C  C85  1  0.53738100  0.67703500  0.72044200  1
  C  C86  1  0.08613200  0.22668600  0.46946200  1
  C  C87  1  0.91386800  0.77331400  0.53053800  1
  C  C88  1  0.02756700  0.14286000  0.27093600  1
  C  C89  1  0.97243300  0.85714000  0.72906400  1
  C  C90  1  0.15554800  0.01327300  0.13344900  1
  C  C91  1  0.84445200  0.98672700  0.86655100  1
  C  C92  1  0.35461200  0.39731900  0.72951700  1
  C  C93  1  0.64538800  0.60268100  0.27048300  1
  C  C94  1  0.59806300  0.39296000  0.84810700  1
  C  C95  1  0.40193700  0.60704000  0.15189300  1
  C  C96  1  0.86239600  0.34677100  0.93809900  1
  C  C97  1  0.13760400  0.65322900  0.06190100  1
  C  C98  1  0.10929800  0.29605100  0.97974700  1
  C  C99  1  0.89070200  0.70394900  0.02025300  1
  C  C100  1  0.40660400  0.21295700  0.04499200  1
  C  C101  1  0.59339600  0.78704300  0.95500800  1
  C  C102  1  0.65151700  0.15464900  0.07138000  1
  C  C103  1  0.34848300  0.84535100  0.92862000  1
  C  C104  1  0.93076900  0.12060000  0.15507100  1
  C  C105  1  0.06923100  0.87940000  0.84492900  1
  C  C106  1  0.15509000  0.08249700  0.27232500  1
  C  C107  1  0.84491000  0.91750300  0.72767500  1
  Ni  Ni108  1  0.50840600  0.28891900  0.63517700  1
  Ni  Ni109  1  0.49159400  0.71108100  0.36482300  1
  Ni  Ni110  1  0.61602600  0.24633300  0.62912600  1
  Ni  Ni111  1  0.38397400  0.75366700  0.37087400  1
  Ni  Ni112  1  0.86829500  0.22671700  0.71264600  1
  Ni  Ni113  1  0.13170500  0.77328300  0.28735400  1
  Ni  Ni114  1  0.96643200  0.22316600  0.78746800  1
  Ni  Ni115  1  0.03356800  0.77683400  0.21253200  1
  Ni  Ni116  1  0.55792300  0.01199400  0.69145200  1
  Ni  Ni117  1  0.44207700  0.98800600  0.30854800  1
  Ni  Ni118  1  0.55556800  0.27141000  0.23104400  1
  Ni  Ni119  1  0.44443200  0.72859000  0.76895600  1
  Ni  Ni120  1  0.65867100  0.26705700  0.30033700  1
  Ni  Ni121  1  0.34132900  0.73294300  0.69966300  1
  Ni  Ni122  1  0.91665200  0.27134100  0.37260400  1
  Ni  Ni123  1  0.08334800  0.72865900  0.62739600  1
  Ni  Ni124  1  0.00906400  0.20657500  0.36703500  1
  Ni  Ni125  1  0.99093600  0.79342500  0.63296500  1
  Ni  Ni126  1  0.93200400  0.50510200  0.30305600  1
  Ni  Ni127  1  0.06799600  0.49489800  0.69694400  1
  Ni  Ni128  1  0.72463600  0.51248200  0.55851800  1
  Ni  Ni129  1  0.27536400  0.48751800  0.44148200  1
  Ni  Ni130  1  0.78526700  0.07259800  0.44407900  1
  Ni  Ni131  1  0.21473300  0.92740200  0.55592100  1
  Cu  Cu132  1  0.84305900  0.41749000  0.24152700  1
  Cu  Cu133  1  0.15694100  0.58251000  0.75847300  1
  Cu  Cu134  1  0.00214100  0.50598200  0.38304600  1
  Cu  Cu135  1  0.99785900  0.49401800  0.61695400  1
  Cu  Cu136  1  0.94867700  0.59211300  0.28233300  1
  Cu  Cu137  1  0.05132300  0.40788700  0.71766700  1
  Cu  Cu138  1  0.64846900  0.09604800  0.75955400  1
  Cu  Cu139  1  0.35153100  0.90395200  0.24044600  1
  Cu  Cu140  1  0.50112200  0.01580800  0.60866900  1
  Cu  Cu141  1  0.49887800  0.98419200  0.39133100  1
  Cu  Cu142  1  0.52802200  0.92504800  0.70874100  1
  Cu  Cu143  1  0.47197800  0.07495200  0.29125900  1
  Cu  Cu144  1  0.65756700  0.42746700  0.55893200  1
  Cu  Cu145  1  0.34243300  0.57253300  0.44106800  1
  Cu  Cu146  1  0.76783200  0.61065400  0.64217000  1
  Cu  Cu147  1  0.23216800  0.38934600  0.35783000  1
  Cu  Cu148  1  0.74655100  0.49789700  0.46978400  1
  Cu  Cu149  1  0.25344900  0.50210300  0.53021600  1
  Cu  Cu150  1  0.78797000  0.18532400  0.48831900  1
  Cu  Cu151  1  0.21203000  0.81467600  0.51168100  1
  Cu  Cu152  1  0.79493300  0.02120300  0.50321100  1
  Cu  Cu153  1  0.20506700  0.97879700  0.49678900  1
  Cu  Cu154  1  0.77509900  0.01573700  0.34519000  1
  Cu  Cu155  1  0.22490100  0.98426300  0.65481000  1
