# generated using pymatgen
data_Cu(NiC4)2
_symmetry_space_group_name_H-M   'P 1'
_cell_length_a   14.68363500
_cell_length_b   6.84555400
_cell_length_c   11.38884257
_cell_angle_alpha   80.09210183
_cell_angle_beta   90.00000000
_cell_angle_gamma   90.00000000
_symmetry_Int_Tables_number   1
_chemical_formula_structural   Cu(NiC4)2
_chemical_formula_sum   'Cu8 Ni16 C64'
_cell_volume   1127.70562960
_cell_formula_units_Z   8
loop_
 _symmetry_equiv_pos_site_id
 _symmetry_equiv_pos_as_xyz
  1  'x, y, z'
loop_
 _atom_site_type_symbol
 _atom_site_label
 _atom_site_symmetry_multiplicity
 _atom_site_fract_x
 _atom_site_fract_y
 _atom_site_fract_z
 _atom_site_occupancy
  C  C0  1  0.50796600  0.92054900  0.73117300  1
  C  C1  1  0.87088400  0.67505300  0.97086300  1
  C  C2  1  0.37088400  0.32494700  0.52913700  1
  C  C3  1  0.12911600  0.32494700  0.02913700  1
  C  C4  1  0.62911600  0.67505300  0.47086300  1
  C  C5  1  0.99203400  0.92054900  0.23117300  1
  C  C6  1  0.49203400  0.07945100  0.26882700  1
  C  C7  1  0.00796600  0.07945100  0.76882700  1
  Ni  Ni8  1  0.87146600  0.16071800  0.98051700  1
  Ni  Ni9  1  0.01270200  0.58604100  0.68520400  1
  Ni  Ni10  1  0.48729800  0.58604100  0.18520400  1
  Ni  Ni11  1  0.98729800  0.41395900  0.31479600  1
  Ni  Ni12  1  0.70448300  0.49426300  0.79460100  1
  Ni  Ni13  1  0.20448300  0.50573700  0.70539900  1
  Ni  Ni14  1  0.29551700  0.50573700  0.20539900  1
  Ni  Ni15  1  0.79551700  0.49426300  0.29460100  1
  Ni  Ni16  1  0.51270200  0.41395900  0.81479600  1
  Ni  Ni17  1  0.13653300  0.13006600  0.48412900  1
  Ni  Ni18  1  0.63653300  0.86993400  0.01587100  1
  Ni  Ni19  1  0.86346700  0.86993400  0.51587100  1
  Ni  Ni20  1  0.37146600  0.83928200  0.51948300  1
  Ni  Ni21  1  0.62853400  0.16071800  0.48051700  1
  Ni  Ni22  1  0.12853400  0.83928200  0.01948300  1
  Ni  Ni23  1  0.36346700  0.13006600  0.98412900  1
  Cu  Cu24  1  0.67587000  0.36324500  0.07459100  1
  Cu  Cu25  1  0.17587000  0.63675500  0.42540900  1
  Cu  Cu26  1  0.32413000  0.63675500  0.92540900  1
  Cu  Cu27  1  0.82413000  0.36324500  0.57459100  1
  Cu  Cu28  1  0.75343900  0.00123100  0.24635300  1
  Cu  Cu29  1  0.25343900  0.99876900  0.25364700  1
  Cu  Cu30  1  0.24656100  0.99876900  0.75364700  1
  Cu  Cu31  1  0.74656100  0.00123100  0.74635300  1
  C  C32  1  0.98147400  0.24144600  0.96185800  1
  C  C33  1  0.48147400  0.75855400  0.53814200  1
  C  C34  1  0.01852600  0.75855400  0.03814200  1
  C  C35  1  0.51852600  0.24144600  0.46185800  1
  C  C36  1  0.85638800  0.01226100  0.87073400  1
  C  C37  1  0.35638800  0.98773900  0.62926600  1
  C  C38  1  0.14361200  0.98773900  0.12926600  1
  C  C39  1  0.64361200  0.01226100  0.37073400  1
  C  C40  1  0.85884800  0.00533000  0.11772800  1
  C  C41  1  0.35884800  0.99467000  0.38227200  1
  C  C42  1  0.14115200  0.99467000  0.88227200  1
  C  C43  1  0.64115200  0.00533000  0.61772800  1
  C  C44  1  0.28670000  0.32285700  0.95516200  1
  C  C45  1  0.78670000  0.67714300  0.54483800  1
  C  C46  1  0.71330000  0.67714300  0.04483800  1
  C  C47  1  0.21330000  0.32285700  0.45516200  1
  C  C48  1  0.36399400  0.03530700  0.13580600  1
  C  C49  1  0.86399400  0.96469300  0.36419400  1
  C  C50  1  0.63600600  0.96469300  0.86419400  1
  C  C51  1  0.13600600  0.03530700  0.63580600  1
  C  C52  1  0.34135800  0.95020400  0.89361900  1
  C  C53  1  0.44088300  0.60872900  0.82345500  1
  C  C54  1  0.84135800  0.04979600  0.60638100  1
  C  C55  1  0.15864200  0.95020400  0.39361900  1
  C  C56  1  0.47935600  0.27955400  0.70978600  1
  C  C57  1  0.97935600  0.72044600  0.79021400  1
  C  C58  1  0.52064400  0.72044600  0.29021400  1
  C  C59  1  0.02064400  0.27955400  0.20978600  1
  C  C60  1  0.47258700  0.23304500  0.94820600  1
  C  C61  1  0.97258700  0.76695500  0.55179400  1
  C  C62  1  0.52741300  0.76695500  0.05179400  1
  C  C63  1  0.02741300  0.23304500  0.44820600  1
  C  C64  1  0.89519400  0.57401800  0.20758700  1
  C  C65  1  0.39519400  0.42598200  0.29241300  1
  C  C66  1  0.10480600  0.42598200  0.79241300  1
  C  C67  1  0.60480600  0.57401800  0.70758700  1
  C  C68  1  0.75080300  0.30988000  0.22380000  1
  C  C69  1  0.25080300  0.69012000  0.27620000  1
  C  C70  1  0.24919700  0.69012000  0.77620000  1
  C  C71  1  0.74919700  0.30988000  0.72380000  1
  C  C72  1  0.70416100  0.36586500  0.46222500  1
  C  C73  1  0.20416100  0.63413500  0.03777500  1
  C  C74  1  0.29583900  0.63413500  0.53777500  1
  C  C75  1  0.79583900  0.36586500  0.96222500  1
  C  C76  1  0.73040500  0.70149600  0.29286900  1
  C  C77  1  0.23040500  0.29850400  0.20713100  1
  C  C78  1  0.26959500  0.29850400  0.70713100  1
  C  C79  1  0.76959500  0.70149600  0.79286900  1
  C  C80  1  0.87786000  0.40266500  0.41152700  1
  C  C81  1  0.37786000  0.59733500  0.08847300  1
  C  C82  1  0.12214000  0.59733500  0.58847300  1
  C  C83  1  0.62214000  0.40266500  0.91152700  1
  C  C84  1  0.05911700  0.60872900  0.32345500  1
  C  C85  1  0.55911700  0.39127100  0.17654500  1
  C  C86  1  0.94088300  0.39127100  0.67654500  1
  C  C87  1  0.65864200  0.04979600  0.10638100  1
