# generated using pymatgen
data_CuNiC
_symmetry_space_group_name_H-M   'P 1'
_cell_length_a   4.93843821
_cell_length_b   4.93843821
_cell_length_c   7.61661000
_cell_angle_alpha   90.00000000
_cell_angle_beta   90.00000000
_cell_angle_gamma   120.00000275
_symmetry_Int_Tables_number   1
_chemical_formula_structural   CuNiC
_chemical_formula_sum   'Cu2 Ni2 C2'
_cell_volume   160.86871246
_cell_formula_units_Z   2
loop_
 _symmetry_equiv_pos_site_id
 _symmetry_equiv_pos_as_xyz
  1  'x, y, z'
loop_
 _atom_site_type_symbol
 _atom_site_label
 _atom_site_symmetry_multiplicity
 _atom_site_fract_x
 _atom_site_fract_y
 _atom_site_fract_z
 _atom_site_occupancy
  C  C0  1  0.00000000  0.00000000  0.99934300  1
  C  C1  1  0.00000000  0.00000000  0.49934300  1
  Ni  Ni2  1  0.66666700  0.33333300  0.69568500  1
  Ni  Ni3  1  0.33333300  0.66666700  0.19568500  1
  Cu  Cu4  1  0.33333300  0.66666700  0.77787200  1
  Cu  Cu5  1  0.66666700  0.33333300  0.27787200  1
