# generated using pymatgen
data_Cu3NiC10
_symmetry_space_group_name_H-M   'P 1'
_cell_length_a   6.76451127
_cell_length_b   6.76451127
_cell_length_c   5.38033400
_cell_angle_alpha   90.00000000
_cell_angle_beta   90.00000000
_cell_angle_gamma   132.91539428
_symmetry_Int_Tables_number   1
_chemical_formula_structural   Cu3NiC10
_chemical_formula_sum   'Cu3 Ni1 C10'
_cell_volume   180.30455024
_cell_formula_units_Z   1
loop_
 _symmetry_equiv_pos_site_id
 _symmetry_equiv_pos_as_xyz
  1  'x, y, z'
loop_
 _atom_site_type_symbol
 _atom_site_label
 _atom_site_symmetry_multiplicity
 _atom_site_fract_x
 _atom_site_fract_y
 _atom_site_fract_z
 _atom_site_occupancy
  Ni  Ni0  1  0.35816200  0.64183800  0.00000000  1
  Cu  Cu1  1  0.86077000  0.13923000  0.50000000  1
  Cu  Cu2  1  0.14054100  0.85945900  0.50000000  1
  Cu  Cu3  1  0.63982000  0.36018000  0.00000000  1
  C  C4  1  0.49713300  0.50286700  0.50000000  1
  C  C5  1  0.99932300  0.00067700  0.00000000  1
  C  C6  1  0.67320400  0.32679600  0.50000000  1
  C  C7  1  0.16177100  0.83822900  0.00000000  1
  C  C8  1  0.82837500  0.17162500  0.00000000  1
  C  C9  1  0.32720800  0.67279200  0.50000000  1
  C  C10  1  0.24986300  0.24301600  0.25345200  1
  C  C11  1  0.75698400  0.75013700  0.74654800  1
  C  C12  1  0.24986300  0.24301600  0.74654800  1
  C  C13  1  0.75698400  0.75013700  0.25345200  1
