# generated using pymatgen
data_CuNiC2
_symmetry_space_group_name_H-M   'P 1'
_cell_length_a   6.40605072
_cell_length_b   7.87924500
_cell_length_c   7.92804409
_cell_angle_alpha   90.00000000
_cell_angle_beta   113.83113531
_cell_angle_gamma   90.00000000
_symmetry_Int_Tables_number   1
_chemical_formula_structural   CuNiC2
_chemical_formula_sum   'Cu2 Ni2 C4'
_cell_volume   366.04865783
_cell_formula_units_Z   2
loop_
 _symmetry_equiv_pos_site_id
 _symmetry_equiv_pos_as_xyz
  1  'x, y, z'
loop_
 _atom_site_type_symbol
 _atom_site_label
 _atom_site_symmetry_multiplicity
 _atom_site_fract_x
 _atom_site_fract_y
 _atom_site_fract_z
 _atom_site_occupancy
  C  C0  1  0.75829800  0.25000000  0.51723000  1
  C  C1  1  0.24128800  0.75000000  0.48259000  1
  C  C2  1  0.88920900  0.25000000  0.77866700  1
  C  C3  1  0.11082000  0.75000000  0.22173100  1
  Ni  Ni4  1  0.39591000  0.75000000  0.79154100  1
  Ni  Ni5  1  0.60398700  0.25000000  0.20791600  1
  Cu  Cu6  1  0.96870000  0.25000000  0.93707900  1
  Cu  Cu7  1  0.03178700  0.75000000  0.06324500  1
