# generated using pymatgen
data_CuNi2C7
_symmetry_space_group_name_H-M   'P 1'
_cell_length_a   5.45187600
_cell_length_b   5.72796795
_cell_length_c   7.14975114
_cell_angle_alpha   109.57944309
_cell_angle_beta   91.72125162
_cell_angle_gamma   109.40744147
_symmetry_Int_Tables_number   1
_chemical_formula_structural   CuNi2C7
_chemical_formula_sum   'Cu1 Ni2 C7'
_cell_volume   195.88301088
_cell_formula_units_Z   1
loop_
 _symmetry_equiv_pos_site_id
 _symmetry_equiv_pos_as_xyz
  1  'x, y, z'
loop_
 _atom_site_type_symbol
 _atom_site_label
 _atom_site_symmetry_multiplicity
 _atom_site_fract_x
 _atom_site_fract_y
 _atom_site_fract_z
 _atom_site_occupancy
  Ni  Ni0  1  0.43520600  0.63983900  0.99766600  1
  Ni  Ni1  1  0.74808900  0.49275400  0.32085200  1
  Cu  Cu2  1  0.49979400  0.10108200  0.61186300  1
  C  C3  1  0.01019600  0.01065900  0.95023900  1
  C  C4  1  0.77073700  0.93994700  0.11837600  1
  C  C5  1  0.16099500  0.96451900  0.68347100  1
  C  C6  1  0.20068100  0.82821400  0.00333000  1
  C  C7  1  0.21072000  0.35554500  0.08822600  1
  C  C8  1  0.58103300  0.46131900  0.76483500  1
  C  C9  1  0.72388400  0.02974400  0.77785800  1
