# generated using pymatgen
data_Cu2Ni
_symmetry_space_group_name_H-M   'P 1'
_cell_length_a   4.24371600
_cell_length_b   8.71604101
_cell_length_c   10.06440150
_cell_angle_alpha   81.76887962
_cell_angle_beta   77.82911834
_cell_angle_gamma   75.91016941
_symmetry_Int_Tables_number   1
_chemical_formula_structural   Cu2Ni
_chemical_formula_sum   'Cu8 Ni4'
_cell_volume   351.29112045
_cell_formula_units_Z   4
loop_
 _symmetry_equiv_pos_site_id
 _symmetry_equiv_pos_as_xyz
  1  'x, y, z'
loop_
 _atom_site_type_symbol
 _atom_site_label
 _atom_site_symmetry_multiplicity
 _atom_site_fract_x
 _atom_site_fract_y
 _atom_site_fract_z
 _atom_site_occupancy
  Ni  Ni0  1  0.69862800  0.69466400  0.90808000  1
  Ni  Ni1  1  0.30137200  0.30533600  0.09192000  1
  Ni  Ni2  1  0.38774100  0.82747100  0.39704700  1
  Ni  Ni3  1  0.61225900  0.17252900  0.60295300  1
  Cu  Cu4  1  0.03749700  0.86787800  0.05712800  1
  Cu  Cu5  1  0.96250300  0.13212200  0.94287200  1
  Cu  Cu6  1  0.91509300  0.62753300  0.54228100  1
  Cu  Cu7  1  0.08490700  0.37246700  0.45771900  1
  Cu  Cu8  1  0.65573200  0.52662000  0.16191600  1
  Cu  Cu9  1  0.34426800  0.47338000  0.83808400  1
  Cu  Cu10  1  0.20959300  0.92505600  0.65575800  1
  Cu  Cu11  1  0.79040700  0.07494400  0.34424200  1
