# generated using pymatgen
data_CuNiC
_symmetry_space_group_name_H-M   'P 1'
_cell_length_a   4.60283900
_cell_length_b   7.34507900
_cell_length_c   7.78470400
_cell_angle_alpha   90.00000000
_cell_angle_beta   90.00000000
_cell_angle_gamma   90.00000000
_symmetry_Int_Tables_number   1
_chemical_formula_structural   CuNiC
_chemical_formula_sum   'Cu4 Ni4 C4'
_cell_volume   263.18695495
_cell_formula_units_Z   4
loop_
 _symmetry_equiv_pos_site_id
 _symmetry_equiv_pos_as_xyz
  1  'x, y, z'
loop_
 _atom_site_type_symbol
 _atom_site_label
 _atom_site_symmetry_multiplicity
 _atom_site_fract_x
 _atom_site_fract_y
 _atom_site_fract_z
 _atom_site_occupancy
  C  C0  1  0.75000000  0.49407600  0.79950700  1
  C  C1  1  0.25000000  0.00592400  0.29950700  1
  C  C2  1  0.75000000  0.99407600  0.70049300  1
  C  C3  1  0.25000000  0.50592400  0.20049300  1
  Ni  Ni4  1  0.25000000  0.18039800  0.92054400  1
  Ni  Ni5  1  0.75000000  0.31960200  0.42054400  1
  Ni  Ni6  1  0.25000000  0.68039800  0.57945600  1
  Ni  Ni7  1  0.75000000  0.81960200  0.07945600  1
  Cu  Cu8  1  0.25000000  0.79311500  0.90658800  1
  Cu  Cu9  1  0.75000000  0.20688500  0.09341200  1
  Cu  Cu10  1  0.25000000  0.29311500  0.59341200  1
  Cu  Cu11  1  0.75000000  0.70688500  0.40658800  1
