# generated using pymatgen
data_Cu11Ni2C
_symmetry_space_group_name_H-M   'P 1'
_cell_length_a   7.07106532
_cell_length_b   7.07106532
_cell_length_c   11.98610800
_cell_angle_alpha   90.00000000
_cell_angle_beta   90.00000000
_cell_angle_gamma   119.99999362
_symmetry_Int_Tables_number   1
_chemical_formula_structural   Cu11Ni2C
_chemical_formula_sum   'Cu22 Ni4 C2'
_cell_volume   519.01336827
_cell_formula_units_Z   2
loop_
 _symmetry_equiv_pos_site_id
 _symmetry_equiv_pos_as_xyz
  1  'x, y, z'
loop_
 _atom_site_type_symbol
 _atom_site_label
 _atom_site_symmetry_multiplicity
 _atom_site_fract_x
 _atom_site_fract_y
 _atom_site_fract_z
 _atom_site_occupancy
  C  C0  1  0.00000000  0.00000000  0.50000000  1
  C  C1  1  0.00000000  0.00000000  0.00000000  1
  Ni  Ni2  1  0.66666700  0.33333300  0.53186200  1
  Ni  Ni3  1  0.33333300  0.66666700  0.03186200  1
  Ni  Ni4  1  0.33333300  0.66666700  0.46813800  1
  Ni  Ni5  1  0.66666700  0.33333300  0.96813800  1
  Cu  Cu6  1  0.66666700  0.33333300  0.39571900  1
  Cu  Cu7  1  0.33333300  0.66666700  0.89571900  1
  Cu  Cu8  1  0.33333300  0.66666700  0.60428100  1
  Cu  Cu9  1  0.66666700  0.33333300  0.10428100  1
  Cu  Cu10  1  0.73678700  0.57783800  0.58236000  1
  Cu  Cu11  1  0.42216200  0.15894800  0.58236000  1
  Cu  Cu12  1  0.84105200  0.26321300  0.58236000  1
  Cu  Cu13  1  0.26321300  0.42216200  0.08236000  1
  Cu  Cu14  1  0.57783800  0.84105200  0.08236000  1
  Cu  Cu15  1  0.15894800  0.73678700  0.08236000  1
  Cu  Cu16  1  0.26321300  0.42216200  0.41764000  1
  Cu  Cu17  1  0.57783800  0.84105200  0.41764000  1
  Cu  Cu18  1  0.15894800  0.73678700  0.41764000  1
  Cu  Cu19  1  0.73678700  0.57783800  0.91764000  1
  Cu  Cu20  1  0.42216200  0.15894800  0.91764000  1
  Cu  Cu21  1  0.84105200  0.26321300  0.91764000  1
  Cu  Cu22  1  0.04981600  0.91401900  0.75000000  1
  Cu  Cu23  1  0.08598100  0.13579700  0.75000000  1
  Cu  Cu24  1  0.86420300  0.95018400  0.75000000  1
  Cu  Cu25  1  0.95018400  0.08598100  0.25000000  1
  Cu  Cu26  1  0.91401900  0.86420300  0.25000000  1
  Cu  Cu27  1  0.13579700  0.04981600  0.25000000  1
