# generated using pymatgen
data_CuNi2C17
_symmetry_space_group_name_H-M   'P 1'
_cell_length_a   8.87606107
_cell_length_b   8.87606107
_cell_length_c   8.87606107
_cell_angle_alpha   143.04778763
_cell_angle_beta   143.04778763
_cell_angle_gamma   53.25359295
_symmetry_Int_Tables_number   1
_chemical_formula_structural   CuNi2C17
_chemical_formula_sum   'Cu1 Ni2 C17'
_cell_volume   251.13143055
_cell_formula_units_Z   1
loop_
 _symmetry_equiv_pos_site_id
 _symmetry_equiv_pos_as_xyz
  1  'x, y, z'
loop_
 _atom_site_type_symbol
 _atom_site_label
 _atom_site_symmetry_multiplicity
 _atom_site_fract_x
 _atom_site_fract_y
 _atom_site_fract_z
 _atom_site_occupancy
  Ni  Ni0  1  0.24746700  0.24746700  0.00000000  1
  Ni  Ni1  1  0.75253300  0.75253300  0.00000000  1
  Cu  Cu2  1  0.00000000  0.00000000  0.00000000  1
  C  C3  1  0.50000000  0.50000000  0.00000000  1
  C  C4  1  0.87838900  0.37838900  0.50000000  1
  C  C5  1  0.12161100  0.62161100  0.50000000  1
  C  C6  1  0.37838900  0.87838900  0.50000000  1
  C  C7  1  0.62161100  0.12161100  0.50000000  1
  C  C8  1  0.62417900  0.62417900  0.48689300  1
  C  C9  1  0.86271400  0.86271400  0.48689300  1
  C  C10  1  0.13728600  0.13728600  0.51310700  1
  C  C11  1  0.37582100  0.37582100  0.51310700  1
  C  C12  1  0.62417900  0.13728600  0.00000000  1
  C  C13  1  0.86271400  0.37582100  0.00000000  1
  C  C14  1  0.13728600  0.62417900  0.00000000  1
  C  C15  1  0.37582100  0.86271400  0.00000000  1
  C  C16  1  0.75000000  0.25000000  0.50000000  1
  C  C17  1  0.00000000  0.50000000  0.50000000  1
  C  C18  1  0.25000000  0.75000000  0.50000000  1
  C  C19  1  0.50000000  0.00000000  0.50000000  1
