# generated using pymatgen
data_CuNiC16
_symmetry_space_group_name_H-M   'P 1'
_cell_length_a   16.09154180
_cell_length_b   18.83697948
_cell_length_c   6.99792139
_cell_angle_alpha   90.00000000
_cell_angle_beta   90.00000000
_cell_angle_gamma   90.00000000
_symmetry_Int_Tables_number   1
_chemical_formula_structural   CuNiC16
_chemical_formula_sum   'Cu8 Ni8 C128'
_cell_volume   2121.18223878
_cell_formula_units_Z   8
loop_
 _symmetry_equiv_pos_site_id
 _symmetry_equiv_pos_as_xyz
  1  'x, y, z'
loop_
 _atom_site_type_symbol
 _atom_site_label
 _atom_site_symmetry_multiplicity
 _atom_site_fract_x
 _atom_site_fract_y
 _atom_site_fract_z
 _atom_site_occupancy
  C  C0  1  0.51002296  0.25162760  0.27734723  1
  C  C1  1  0.01002296  0.24837240  0.72265277  1
  C  C2  1  0.48997704  0.75162760  0.22265277  1
  C  C3  1  0.98997704  0.74837240  0.77734723  1
  C  C4  1  0.48997704  0.74837240  0.72265277  1
  C  C5  1  0.98997704  0.75162760  0.27734723  1
  C  C6  1  0.51002296  0.24837240  0.77734723  1
  C  C7  1  0.01002296  0.25162760  0.22265277  1
  Ni  Ni8  1  0.65008022  0.50565367  0.75617714  1
  Ni  Ni9  1  0.15008022  0.99434633  0.24382286  1
  Ni  Ni10  1  0.34991978  0.00565367  0.74382286  1
  Ni  Ni11  1  0.84991978  0.49434633  0.25617714  1
  Ni  Ni12  1  0.34991978  0.49434633  0.24382286  1
  Ni  Ni13  1  0.84991978  0.00565367  0.75617714  1
  Ni  Ni14  1  0.65008022  0.99434633  0.25617714  1
  Ni  Ni15  1  0.15008022  0.50565367  0.74382286  1
  Cu  Cu16  1  0.76191955  0.25051027  0.24686289  1
  Cu  Cu17  1  0.26191955  0.24948973  0.75313711  1
  Cu  Cu18  1  0.23808045  0.75051027  0.25313711  1
  Cu  Cu19  1  0.73808045  0.74948973  0.74686289  1
  Cu  Cu20  1  0.23808045  0.74948973  0.75313711  1
  Cu  Cu21  1  0.73808045  0.75051027  0.24686289  1
  Cu  Cu22  1  0.76191955  0.24948973  0.74686289  1
  Cu  Cu23  1  0.26191955  0.25051027  0.25313711  1
  C  C24  1  0.88730408  0.34895643  0.01137257  1
  C  C25  1  0.38730408  0.15104357  0.98862743  1
  C  C26  1  0.11269592  0.84895643  0.48862743  1
  C  C27  1  0.61269592  0.65104357  0.51137257  1
  C  C28  1  0.11269592  0.65104357  0.98862743  1
  C  C29  1  0.61269592  0.84895643  0.01137257  1
  C  C30  1  0.88730408  0.15104357  0.51137257  1
  C  C31  1  0.38730408  0.34895643  0.48862743  1
  C  C32  1  0.63542037  0.34653527  0.97650953  1
  C  C33  1  0.13542037  0.15346473  0.02349047  1
  C  C34  1  0.36457963  0.84653527  0.52349047  1
  C  C35  1  0.86457963  0.65346473  0.47650953  1
  C  C36  1  0.36457963  0.65346473  0.02349047  1
  C  C37  1  0.86457963  0.84653527  0.97650953  1
  C  C38  1  0.63542037  0.15346473  0.47650953  1
  C  C39  1  0.13542037  0.34653527  0.52349047  1
  C  C40  1  0.82822499  0.33387055  0.84221403  1
  C  C41  1  0.32822499  0.16612945  0.15778597  1
  C  C42  1  0.17177501  0.83387055  0.65778597  1
  C  C43  1  0.67177501  0.66612945  0.34221403  1
  C  C44  1  0.17177501  0.66612945  0.15778597  1
  C  C45  1  0.67177501  0.83387055  0.84221403  1
  C  C46  1  0.82822499  0.16612945  0.34221403  1
  C  C47  1  0.32822499  0.33387055  0.65778597  1
  C  C48  1  0.86888238  0.30063065  0.19031539  1
  C  C49  1  0.36888238  0.19936935  0.80968461  1
  C  C50  1  0.13111762  0.80063065  0.30968461  1
  C  C51  1  0.63111762  0.69936935  0.69031539  1
  C  C52  1  0.13111762  0.69936935  0.80968461  1
  C  C53  1  0.63111762  0.80063065  0.19031539  1
  C  C54  1  0.86888238  0.19936935  0.69031539  1
  C  C55  1  0.36888238  0.30063065  0.30968461  1
  C  C56  1  0.97841592  0.32924454  0.96088762  1
  C  C57  1  0.47841592  0.17075546  0.03911238  1
  C  C58  1  0.02158408  0.82924454  0.53911238  1
  C  C59  1  0.52158408  0.67075546  0.46088762  1
  C  C60  1  0.02158408  0.67075546  0.03911238  1
  C  C61  1  0.52158408  0.82924454  0.96088762  1
  C  C62  1  0.97841592  0.17075546  0.46088762  1
  C  C63  1  0.47841592  0.32924454  0.53911238  1
  C  C64  1  0.87996832  0.42760264  0.07006848  1
  C  C65  1  0.37996832  0.07239736  0.92993152  1
  C  C66  1  0.12003168  0.92760264  0.42993152  1
  C  C67  1  0.62003168  0.57239736  0.57006848  1
  C  C68  1  0.12003168  0.57239736  0.92993152  1
  C  C69  1  0.62003168  0.92760264  0.07006848  1
  C  C70  1  0.87996832  0.07239736  0.57006848  1
  C  C71  1  0.37996832  0.42760264  0.42993152  1
  C  C72  1  0.65245648  0.29505448  0.80429497  1
  C  C73  1  0.15245648  0.20494552  0.19570503  1
  C  C74  1  0.34754352  0.79505448  0.69570503  1
  C  C75  1  0.84754352  0.70494552  0.30429497  1
  C  C76  1  0.34754352  0.70494552  0.19570503  1
  C  C77  1  0.84754352  0.79505448  0.80429497  1
  C  C78  1  0.65245648  0.20494552  0.30429497  1
  C  C79  1  0.15245648  0.29505448  0.69570503  1
  C  C80  1  0.69500788  0.33466221  0.14618486  1
  C  C81  1  0.19500788  0.16533779  0.85381514  1
  C  C82  1  0.30499212  0.83466221  0.35381514  1
  C  C83  1  0.80499212  0.66533779  0.64618486  1
  C  C84  1  0.30499212  0.66533779  0.85381514  1
  C  C85  1  0.80499212  0.83466221  0.14618486  1
  C  C86  1  0.69500788  0.16533779  0.64618486  1
  C  C87  1  0.19500788  0.33466221  0.35381514  1
  C  C88  1  0.54440330  0.32837193  0.03238928  1
  C  C89  1  0.04440330  0.17162807  0.96761072  1
  C  C90  1  0.45559670  0.82837193  0.46761072  1
  C  C91  1  0.95559670  0.67162807  0.53238928  1
  C  C92  1  0.45559670  0.67162807  0.96761072  1
  C  C93  1  0.95559670  0.82837193  0.03238928  1
  C  C94  1  0.54440330  0.17162807  0.53238928  1
  C  C95  1  0.04440330  0.32837193  0.46761072  1
  C  C96  1  0.64326174  0.42375993  0.90656560  1
  C  C97  1  0.14326174  0.07624007  0.09343440  1
  C  C98  1  0.35673826  0.92375993  0.59343440  1
  C  C99  1  0.85673826  0.57624007  0.40656560  1
  C  C100  1  0.35673826  0.57624007  0.09343440  1
  C  C101  1  0.85673826  0.92375993  0.90656560  1
  C  C102  1  0.64326174  0.07624007  0.40656560  1
  C  C103  1  0.14326174  0.42375993  0.59343440  1
  C  C104  1  0.76280088  0.28849797  0.49707654  1
  C  C105  1  0.26280088  0.21150203  0.50292346  1
  C  C106  1  0.23719912  0.78849797  0.00292346  1
  C  C107  1  0.73719912  0.71150203  0.99707654  1
  C  C108  1  0.23719912  0.71150203  0.50292346  1
  C  C109  1  0.73719912  0.78849797  0.49707654  1
  C  C110  1  0.76280088  0.21150203  0.99707654  1
  C  C111  1  0.26280088  0.28849797  0.00292346  1
  C  C112  1  0.78298169  0.53636036  0.83508466  1
  C  C113  1  0.28298169  0.96363964  0.16491534  1
  C  C114  1  0.21701831  0.03636036  0.66491534  1
  C  C115  1  0.71701831  0.46363964  0.33508466  1
  C  C116  1  0.21701831  0.46363964  0.16491534  1
  C  C117  1  0.71701831  0.03636036  0.83508466  1
  C  C118  1  0.78298169  0.96363964  0.33508466  1
  C  C119  1  0.28298169  0.53636036  0.66491534  1
  C  C120  1  0.46529760  0.47447499  0.90605447  1
  C  C121  1  0.96529760  0.02552501  0.09394553  1
  C  C122  1  0.53470240  0.97447499  0.59394553  1
  C  C123  1  0.03470240  0.52552501  0.40605447  1
  C  C124  1  0.53470240  0.52552501  0.09394553  1
  C  C125  1  0.03470240  0.97447499  0.90605447  1
  C  C126  1  0.46529760  0.02552501  0.40605447  1
  C  C127  1  0.96529760  0.47447499  0.59394553  1
  C  C128  1  0.68223418  0.43732777  0.47710553  1
  C  C129  1  0.18223418  0.06267223  0.52289447  1
  C  C130  1  0.31776582  0.93732777  0.02289447  1
  C  C131  1  0.81776582  0.56267223  0.97710553  1
  C  C132  1  0.31776582  0.56267223  0.52289447  1
  C  C133  1  0.81776582  0.93732777  0.47710553  1
  C  C134  1  0.68223418  0.06267223  0.97710553  1
  C  C135  1  0.18223418  0.43732777  0.02289447  1
  C  C136  1  0.59185354  0.55801820  0.01313244  1
  C  C137  1  0.09185354  0.94198180  0.98686756  1
  C  C138  1  0.40814646  0.05801820  0.48686756  1
  C  C139  1  0.90814646  0.44198180  0.51313244  1
  C  C140  1  0.40814646  0.44198180  0.98686756  1
  C  C141  1  0.90814646  0.05801820  0.01313244  1
  C  C142  1  0.59185354  0.94198180  0.51313244  1
  C  C143  1  0.09185354  0.55801820  0.48686756  1
