# generated using pymatgen
data_Cu2NiC
_symmetry_space_group_name_H-M   'P 1'
_cell_length_a   10.69013700
_cell_length_b   3.94790000
_cell_length_c   6.54284353
_cell_angle_alpha   72.69633366
_cell_angle_beta   90.00000000
_cell_angle_gamma   90.00000000
_symmetry_Int_Tables_number   1
_chemical_formula_structural   Cu2NiC
_chemical_formula_sum   'Cu8 Ni4 C4'
_cell_volume   263.63427458
_cell_formula_units_Z   4
loop_
 _symmetry_equiv_pos_site_id
 _symmetry_equiv_pos_as_xyz
  1  'x, y, z'
loop_
 _atom_site_type_symbol
 _atom_site_label
 _atom_site_symmetry_multiplicity
 _atom_site_fract_x
 _atom_site_fract_y
 _atom_site_fract_z
 _atom_site_occupancy
  Ni  Ni0  1  0.44973400  0.88363600  0.55403200  1
  Ni  Ni1  1  0.55026600  0.11636400  0.44596800  1
  Ni  Ni2  1  0.94973400  0.11636400  0.94596800  1
  Ni  Ni3  1  0.05026600  0.88363600  0.05403200  1
  C  C4  1  0.11594300  0.17254500  0.70094100  1
  C  C5  1  0.88405700  0.82745500  0.29905900  1
  C  C6  1  0.61594300  0.82745500  0.79905900  1
  C  C7  1  0.38405700  0.17254500  0.20094100  1
  Cu  Cu8  1  0.47553900  0.70105900  0.75873500  1
  Cu  Cu9  1  0.52446100  0.29894100  0.24126500  1
  Cu  Cu10  1  0.97553900  0.29894100  0.74126500  1
  Cu  Cu11  1  0.02446100  0.70105900  0.25873500  1
  Cu  Cu12  1  0.15166600  0.89118600  0.92980600  1
  Cu  Cu13  1  0.84833400  0.10881400  0.07019400  1
  Cu  Cu14  1  0.65166600  0.10881400  0.57019400  1
  Cu  Cu15  1  0.34833400  0.89118600  0.42980600  1
