# generated using pymatgen
data_CuNiC5
_symmetry_space_group_name_H-M   'P 1'
_cell_length_a   5.74698193
_cell_length_b   5.74698193
_cell_length_c   5.74698204
_cell_angle_alpha   59.34764315
_cell_angle_beta   59.34764315
_cell_angle_gamma   59.34764609
_symmetry_Int_Tables_number   1
_chemical_formula_structural   CuNiC5
_chemical_formula_sum   'Cu1 Ni1 C5'
_cell_volume   132.22296259
_cell_formula_units_Z   1
loop_
 _symmetry_equiv_pos_site_id
 _symmetry_equiv_pos_as_xyz
  1  'x, y, z'
loop_
 _atom_site_type_symbol
 _atom_site_label
 _atom_site_symmetry_multiplicity
 _atom_site_fract_x
 _atom_site_fract_y
 _atom_site_fract_z
 _atom_site_occupancy
  C  C0  1  0.99430900  0.99430900  0.50472600  1
  C  C1  1  0.50472600  0.99430900  0.99430900  1
  C  C2  1  0.99430900  0.50472600  0.99430900  1
  C  C3  1  0.00004200  0.00004200  0.00004200  1
  C  C4  1  0.50098900  0.50098900  0.50098900  1
  Ni  Ni5  1  0.27691300  0.27691300  0.27691300  1
  Cu  Cu6  1  0.72871100  0.72871100  0.72871100  1
