# generated using pymatgen
data_CuNi7C30
_symmetry_space_group_name_H-M   'P 1'
_cell_length_a   10.85382982
_cell_length_b   15.51676190
_cell_length_c   10.84971955
_cell_angle_alpha   89.78114460
_cell_angle_beta   90.87360241
_cell_angle_gamma   90.31848660
_symmetry_Int_Tables_number   1
_chemical_formula_structural   CuNi7C30
_chemical_formula_sum   'Cu4 Ni28 C120'
_cell_volume   1827.01617741
_cell_formula_units_Z   4
loop_
 _symmetry_equiv_pos_site_id
 _symmetry_equiv_pos_as_xyz
  1  'x, y, z'
loop_
 _atom_site_type_symbol
 _atom_site_label
 _atom_site_symmetry_multiplicity
 _atom_site_fract_x
 _atom_site_fract_y
 _atom_site_fract_z
 _atom_site_occupancy
  C  C0  1  0.00173796  0.10682677  0.50517694  1
  C  C1  1  0.99717439  0.11102111  0.00788633  1
  C  C2  1  0.01968287  0.62846189  0.49780978  1
  C  C3  1  0.01638207  0.62912249  0.99710537  1
  C  C4  1  0.53682565  0.12660442  0.48179343  1
  C  C5  1  0.54324531  0.12734944  0.98460832  1
  C  C6  1  0.52230578  0.62490689  0.50050210  1
  C  C7  1  0.52368869  0.62452851  0.99818443  1
  C  C8  1  0.49692020  0.39073088  0.00159543  1
  C  C9  1  0.49139771  0.39197880  0.50060945  1
  C  C10  1  0.49626441  0.85765609  0.00001693  1
  C  C11  1  0.49546135  0.85816795  0.50047569  1
  C  C12  1  0.96573699  0.38622495  0.00205120  1
  C  C13  1  0.96664542  0.38736723  0.50424122  1
  C  C14  1  0.96920136  0.87295511  0.00778871  1
  C  C15  1  0.97089216  0.87354896  0.50853832  1
  C  C16  1  0.23170953  0.39472734  0.25911265  1
  C  C17  1  0.23631790  0.39851854  0.75806798  1
  C  C18  1  0.22540793  0.87317165  0.25400416  1
  C  C19  1  0.22575834  0.87270982  0.75053238  1
  C  C20  1  0.73547535  0.38768436  0.25049412  1
  C  C21  1  0.73260935  0.38608561  0.75383963  1
  C  C22  1  0.73998419  0.86233244  0.25138647  1
  C  C23  1  0.74037794  0.86263088  0.75053158  1
  C  C24  1  0.22514791  0.11564343  0.24122236  1
  C  C25  1  0.22294149  0.11041808  0.72864679  1
  C  C26  1  0.26891893  0.63034627  0.26069812  1
  C  C27  1  0.26799889  0.63059931  0.75748862  1
  C  C28  1  0.78070728  0.11565678  0.25314100  1
  C  C29  1  0.78065886  0.12223912  0.75287867  1
  C  C30  1  0.77235333  0.62546382  0.25584885  1
  C  C31  1  0.77129435  0.62507123  0.75667062  1
  Ni  Ni32  1  0.99257809  0.99424312  0.75558006  1
  Ni  Ni33  1  0.00096939  0.50280880  0.25238329  1
  Ni  Ni34  1  0.00118492  0.50279655  0.75112859  1
  Ni  Ni35  1  0.50617669  0.98617072  0.23437175  1
  Ni  Ni36  1  0.50813099  0.98684308  0.73511557  1
  Ni  Ni37  1  0.49784098  0.50447538  0.25256668  1
  Ni  Ni38  1  0.49787932  0.50393335  0.75362434  1
  Ni  Ni39  1  0.24270830  0.99681985  0.50715039  1
  Ni  Ni40  1  0.24915413  0.51084494  0.00853035  1
  Ni  Ni41  1  0.25003585  0.50382008  0.50431290  1
  Ni  Ni42  1  0.74378548  0.99777905  0.99670940  1
  Ni  Ni43  1  0.74344667  0.99839944  0.49726967  1
  Ni  Ni44  1  0.75018510  0.50344615  0.00373447  1
  Ni  Ni45  1  0.74913285  0.50325232  0.50327551  1
  Ni  Ni46  1  0.26620173  0.24301993  0.44976264  1
  Ni  Ni47  1  0.25139232  0.75430579  0.00551630  1
  Ni  Ni48  1  0.25203147  0.75197337  0.50476450  1
  Ni  Ni49  1  0.75602491  0.24967820  0.00386108  1
  Ni  Ni50  1  0.74843389  0.25161111  0.50546815  1
  Ni  Ni51  1  0.75117161  0.74707120  0.00178163  1
  Ni  Ni52  1  0.75099946  0.74679856  0.50166743  1
  Ni  Ni53  1  0.99166799  0.25570205  0.75870531  1
  Ni  Ni54  1  0.00252132  0.75001029  0.25235091  1
  Ni  Ni55  1  0.00235091  0.74974961  0.75101760  1
  Ni  Ni56  1  0.52098252  0.25504727  0.25247033  1
  Ni  Ni57  1  0.51131260  0.25350598  0.75126443  1
  Ni  Ni58  1  0.50000622  0.74627139  0.25328857  1
  Ni  Ni59  1  0.49992566  0.74646503  0.75381654  1
  Cu  Cu60  1  0.99305557  0.99378105  0.25424187  1
  Cu  Cu61  1  0.23641938  0.99551351  0.01143925  1
  Cu  Cu62  1  0.26520863  0.23174040  0.94005307  1
  Cu  Cu63  1  0.99056011  0.25446274  0.26917217  1
  C  C64  1  0.10862225  0.77856152  0.10706784  1
  C  C65  1  0.10847890  0.77603033  0.60634436  1
  C  C66  1  0.58505215  0.25895954  0.09200807  1
  C  C67  1  0.56511878  0.25693135  0.58304553  1
  C  C68  1  0.61126542  0.76386214  0.11259991  1
  C  C69  1  0.61074729  0.76434221  0.61242620  1
  C  C70  1  0.40123181  0.19286363  0.34130735  1
  C  C71  1  0.39214073  0.18148866  0.85079320  1
  C  C72  1  0.39816323  0.72894751  0.39967846  1
  C  C73  1  0.39778705  0.72904449  0.90029316  1
  C  C74  1  0.92652298  0.23699492  0.41908160  1
  C  C75  1  0.91283879  0.23744320  0.92227565  1
  C  C76  1  0.89356110  0.72855482  0.39320011  1
  C  C77  1  0.89336697  0.73078033  0.89337597  1
  C  C78  1  0.16081488  0.25173440  0.28742859  1
  C  C79  1  0.17253048  0.24784562  0.80057746  1
  C  C80  1  0.14873235  0.73422804  0.35616846  1
  C  C81  1  0.14845075  0.73646238  0.85570013  1
  C  C82  1  0.65940506  0.22206953  0.34389763  1
  C  C83  1  0.65700184  0.22608175  0.85429227  1
  C  C84  1  0.64436712  0.72542397  0.35872870  1
  C  C85  1  0.64423391  0.72581733  0.85889989  1
  C  C86  1  0.35839047  0.77594741  0.14881955  1
  C  C87  1  0.35738176  0.77310707  0.64946503  1
  C  C88  1  0.86293378  0.27639477  0.15691152  1
  C  C89  1  0.84835033  0.27513517  0.65628480  1
  C  C90  1  0.86104163  0.76943438  0.14267544  1
  C  C91  1  0.86038851  0.76903621  0.64173968  1
  C  C92  1  0.35783793  0.48259628  0.14387275  1
  C  C93  1  0.35748592  0.48587487  0.64427116  1
  C  C94  1  0.34745932  0.99976238  0.16444480  1
  C  C95  1  0.34986481  0.99689073  0.66160682  1
  C  C96  1  0.85912613  0.48155640  0.14561660  1
  C  C97  1  0.85784409  0.48049831  0.64539790  1
  C  C98  1  0.84044694  0.97774492  0.14656202  1
  C  C99  1  0.84442107  0.97972763  0.64848873  1
  C  C100  1  0.14439280  0.01151376  0.36209734  1
  C  C101  1  0.14050040  0.01626793  0.86191995  1
  C  C102  1  0.14775403  0.52112023  0.35608578  1
  C  C103  1  0.14853090  0.51831899  0.85787847  1
  C  C104  1  0.62896531  0.02825444  0.34427615  1
  C  C105  1  0.63078110  0.03015955  0.84427428  1
  C  C106  1  0.64326108  0.52034256  0.35801429  1
  C  C107  1  0.64246998  0.51894774  0.85925085  1
  C  C108  1  0.39495840  0.51986776  0.39679440  1
  C  C109  1  0.39220584  0.51501224  0.89873512  1
  C  C110  1  0.88463290  0.01504841  0.39657024  1
  C  C111  1  0.88532726  0.01660449  0.89468626  1
  C  C112  1  0.89531943  0.52073094  0.39708018  1
  C  C113  1  0.89526563  0.51796236  0.89649642  1
  C  C114  1  0.10844616  0.47532990  0.10800138  1
  C  C115  1  0.10890832  0.47708601  0.60836500  1
  C  C116  1  0.09581268  0.98019021  0.10763889  1
  C  C117  1  0.09696807  0.98273245  0.61715712  1
  C  C118  1  0.60997994  0.48530537  0.11327624  1
  C  C119  1  0.60940686  0.48365796  0.61357043  1
  C  C120  1  0.58455648  0.99247732  0.07812553  1
  C  C121  1  0.58639975  0.99175736  0.57943886  1
  C  C122  1  0.00969239  0.38127808  0.29519240  1
  C  C123  1  0.01512518  0.37782874  0.78819982  1
  C  C124  1  0.00426039  0.87022398  0.29551194  1
  C  C125  1  0.00219533  0.87352965  0.79305530  1
  C  C126  1  0.49692743  0.37660601  0.28103962  1
  C  C127  1  0.48934649  0.37669679  0.78245933  1
  C  C128  1  0.51613445  0.86987092  0.28889863  1
  C  C129  1  0.51589871  0.87052399  0.78914939  1
  C  C130  1  0.48485544  0.62619534  0.21087885  1
  C  C131  1  0.48624050  0.62645503  0.71437718  1
  C  C132  1  0.99647894  0.12769162  0.22273260  1
  C  C133  1  0.99766775  0.13038014  0.71845804  1
  C  C134  1  0.99501394  0.62562462  0.21138700  1
  C  C135  1  0.99544170  0.62557794  0.71430856  1
  C  C136  1  0.22293316  0.13744371  0.03089448  1
  C  C137  1  0.23269293  0.12924926  0.52064698  1
  C  C138  1  0.23530970  0.63471060  0.04407046  1
  C  C139  1  0.23746829  0.62938302  0.54154370  1
  C  C140  1  0.75123322  0.12468787  0.04031492  1
  C  C141  1  0.74686091  0.12607251  0.53830211  1
  C  C142  1  0.74672579  0.62457570  0.03924777  1
  C  C143  1  0.74444856  0.62415612  0.54140771  1
  C  C144  1  0.27283029  0.36476556  0.47839517  1
  C  C145  1  0.28949056  0.33220949  0.00604394  1
  C  C146  1  0.28182001  0.88158813  0.46448731  1
  C  C147  1  0.28200773  0.88358336  0.96241099  1
  C  C148  1  0.74771096  0.37620979  0.46582517  1
  C  C149  1  0.74816309  0.37565075  0.96996532  1
  C  C150  1  0.74713750  0.87303189  0.46567635  1
  C  C151  1  0.74539985  0.87396272  0.96444810  1
