# generated using pymatgen
data_CuNiC21
_symmetry_space_group_name_H-M   'P 1'
_cell_length_a   21.64631499
_cell_length_b   21.64631499
_cell_length_c   5.47807934
_cell_angle_alpha   83.00569924
_cell_angle_beta   83.00569924
_cell_angle_gamma   14.66868789
_symmetry_Int_Tables_number   1
_chemical_formula_structural   CuNiC21
_chemical_formula_sum   'Cu2 Ni2 C42'
_cell_volume   645.07776256
_cell_formula_units_Z   2
loop_
 _symmetry_equiv_pos_site_id
 _symmetry_equiv_pos_as_xyz
  1  'x, y, z'
loop_
 _atom_site_type_symbol
 _atom_site_label
 _atom_site_symmetry_multiplicity
 _atom_site_fract_x
 _atom_site_fract_y
 _atom_site_fract_z
 _atom_site_occupancy
  C  C0  1  0.80694300  0.79753100  0.70039000  1
  C  C1  1  0.20246900  0.19305700  0.29961000  1
  Ni  Ni2  1  0.70617700  0.68948500  0.79550200  1
  Ni  Ni3  1  0.31051500  0.29382300  0.20449800  1
  C  C4  1  0.31717400  0.42284200  0.64888400  1
  C  C5  1  0.57715800  0.68282600  0.35111600  1
  C  C6  1  0.08052200  0.18034900  0.90372000  1
  C  C7  1  0.81965100  0.91947800  0.09628000  1
  C  C8  1  0.20755100  0.29135300  0.74677800  1
  C  C9  1  0.70864700  0.79244900  0.25322200  1
  C  C10  1  0.87563200  0.98511200  0.54155500  1
  C  C11  1  0.01488800  0.12436800  0.45844500  1
  C  C12  1  0.51756000  0.62210000  0.90747100  1
  C  C13  1  0.37790000  0.48244000  0.09252900  1
  Cu  Cu14  1  0.49437200  0.50562800  0.50000000  1
  Cu  Cu15  1  0.99436500  0.00563500  0.00000000  1
  C  C16  1  0.61972200  0.18115800  0.83661100  1
  C  C17  1  0.81884200  0.38027800  0.16338900  1
  C  C18  1  0.31885200  0.88022100  0.14457400  1
  C  C19  1  0.11977900  0.68114800  0.85542600  1
  C  C20  1  0.53982100  0.03724000  0.92818400  1
  C  C21  1  0.96276000  0.46017900  0.07181600  1
  C  C22  1  0.45900800  0.96380000  0.00184200  1
  C  C23  1  0.03620000  0.54099200  0.99815800  1
  C  C24  1  0.27791900  0.73910700  0.24498500  1
  C  C25  1  0.26089300  0.72208100  0.75501500  1
  C  C26  1  0.76076900  0.22211500  0.76141000  1
  C  C27  1  0.77788500  0.23923100  0.23859000  1
  C  C28  1  0.12162400  0.67767100  0.35682700  1
  C  C29  1  0.32232900  0.87837600  0.64317300  1
  C  C30  1  0.82098600  0.37977500  0.66151300  1
  C  C31  1  0.62022500  0.17901400  0.33848700  1
  C  C32  1  0.80404400  0.69550600  0.66829700  1
  C  C33  1  0.30449400  0.19595600  0.33170300  1
  C  C34  1  0.86580000  0.82119400  0.73030700  1
  C  C35  1  0.17880600  0.13420000  0.26969300  1
  C  C36  1  0.67728500  0.63247400  0.91328100  1
  C  C37  1  0.36752600  0.32271500  0.08671900  1
  C  C38  1  0.13004400  0.47407300  0.50502300  1
  C  C39  1  0.52592700  0.86995600  0.49497700  1
  C  C40  1  0.03129600  0.36534400  0.60113500  1
  C  C41  1  0.63465600  0.96870400  0.39886500  1
  C  C42  1  0.50268600  0.41122500  0.45789000  1
  C  C43  1  0.58877500  0.49731400  0.54211000  1
  C  C44  1  0.08782600  0.99830400  0.87485300  1
  C  C45  1  0.00169600  0.91217400  0.12514700  1
