# generated using pymatgen
data_CuNiC2
_symmetry_space_group_name_H-M   'P 1'
_cell_length_a   9.30174786
_cell_length_b   11.41101649
_cell_length_c   11.92138326
_cell_angle_alpha   61.87277544
_cell_angle_beta   66.29037890
_cell_angle_gamma   66.07092144
_symmetry_Int_Tables_number   1
_chemical_formula_structural   CuNiC2
_chemical_formula_sum   'Cu1 Ni1 C2'
_cell_volume   984.48835660
_cell_formula_units_Z   1
loop_
 _symmetry_equiv_pos_site_id
 _symmetry_equiv_pos_as_xyz
  1  'x, y, z'
loop_
 _atom_site_type_symbol
 _atom_site_label
 _atom_site_symmetry_multiplicity
 _atom_site_fract_x
 _atom_site_fract_y
 _atom_site_fract_z
 _atom_site_occupancy
  C  C0  1  0.75046000  0.00003500  0.00004900  1
  C  C1  1  0.24956300  0.99996500  0.99993800  1
  Ni  Ni2  1  0.99997700  0.99999400  0.99999900  1
  Cu  Cu3  1  0.50000200  0.00000700  0.00001400  1
