# generated using pymatgen
data_Cu2Ni2C41
_symmetry_space_group_name_H-M   'P 1'
_cell_length_a   5.40330701
_cell_length_b   7.98045405
_cell_length_c   12.04336419
_cell_angle_alpha   88.04270774
_cell_angle_beta   81.27847994
_cell_angle_gamma   82.90612546
_symmetry_Int_Tables_number   1
_chemical_formula_structural   Cu2Ni2C41
_chemical_formula_sum   'Cu2 Ni2 C41'
_cell_volume   509.32275304
_cell_formula_units_Z   1
loop_
 _symmetry_equiv_pos_site_id
 _symmetry_equiv_pos_as_xyz
  1  'x, y, z'
loop_
 _atom_site_type_symbol
 _atom_site_label
 _atom_site_symmetry_multiplicity
 _atom_site_fract_x
 _atom_site_fract_y
 _atom_site_fract_z
 _atom_site_occupancy
  C  C0  1  0.97289800  0.61070900  0.67106700  1
  C  C1  1  0.66717300  0.37001500  0.14250700  1
  C  C2  1  0.38495000  0.36737100  0.68222300  1
  C  C3  1  0.02791300  0.38773300  0.32929800  1
  C  C4  1  0.33432100  0.62834800  0.85784000  1
  C  C5  1  0.27112600  0.00403300  0.43910800  1
  C  C6  1  0.12349100  0.64804700  0.15309700  1
  C  C7  1  0.00050700  0.99918800  0.00016100  1
  C  C8  1  0.39160600  0.99642000  0.16910200  1
  C  C9  1  0.87732100  0.35028400  0.84724300  1
  C  C10  1  0.61581900  0.63105400  0.31816700  1
  C  C11  1  0.60941300  0.00191700  0.83119200  1
  C  C12  1  0.72967200  0.99446900  0.56118900  1
  Ni  Ni13  1  0.20505000  0.31594500  0.01520500  1
  Ni  Ni14  1  0.79609800  0.68238200  0.98511000  1
  Cu  Cu15  1  0.82317400  0.01204500  0.30580300  1
  Cu  Cu16  1  0.17776700  0.98631400  0.69450300  1
  C  C17  1  0.69562800  0.40226800  0.29498900  1
  C  C18  1  0.27046400  0.42849100  0.42077500  1
  C  C19  1  0.89616300  0.31892700  0.00278000  1
  C  C20  1  0.28204300  0.10961200  0.03197700  1
  C  C21  1  0.73030600  0.56999200  0.57961300  1
  C  C22  1  0.30512400  0.59617300  0.70538900  1
  C  C23  1  0.03286500  0.11854200  0.56811800  1
  C  C24  1  0.96794800  0.87989700  0.43222000  1
  C  C25  1  0.71899300  0.88873700  0.96835200  1
  C  C26  1  0.07649700  0.88581200  0.17650400  1
  C  C27  1  0.23621300  0.41126200  0.13074800  1
  C  C28  1  0.97729200  0.61751500  0.30010600  1
  C  C29  1  0.42011500  0.87685300  0.56441000  1
  C  C30  1  0.66978000  0.12905700  0.17622100  1
  C  C31  1  0.64309700  0.61423400  0.10195600  1
  C  C32  1  0.10494800  0.67942200  0.99753500  1
  C  C33  1  0.33129400  0.86935500  0.82406900  1
  C  C34  1  0.92441800  0.11251300  0.82381300  1
  C  C35  1  0.58071700  0.12161000  0.43585400  1
  C  C36  1  0.10455200  0.15164100  0.31954600  1
  C  C37  1  0.89628100  0.84679100  0.68077400  1
  C  C38  1  0.35816300  0.38404700  0.89838600  1
  C  C39  1  0.47367900  0.12769400  0.69772100  1
  C  C40  1  0.67775500  0.41372800  0.58387400  1
  C  C41  1  0.76470200  0.58711600  0.86960000  1
  C  C42  1  0.52715900  0.87074900  0.30258500  1
  C  C43  1  0.02352600  0.38089600  0.70024600  1
  C  C44  1  0.32300600  0.58471400  0.41652600  1
