# generated using pymatgen
data_CuNi2C7
_symmetry_space_group_name_H-M   'P 1'
_cell_length_a   5.92323551
_cell_length_b   5.92323551
_cell_length_c   5.92515694
_cell_angle_alpha   60.01223716
_cell_angle_beta   60.01223716
_cell_angle_gamma   60.00427230
_symmetry_Int_Tables_number   1
_chemical_formula_structural   CuNi2C7
_chemical_formula_sum   'Cu1 Ni2 C7'
_cell_volume   147.02703223
_cell_formula_units_Z   1
loop_
 _symmetry_equiv_pos_site_id
 _symmetry_equiv_pos_as_xyz
  1  'x, y, z'
loop_
 _atom_site_type_symbol
 _atom_site_label
 _atom_site_symmetry_multiplicity
 _atom_site_fract_x
 _atom_site_fract_y
 _atom_site_fract_z
 _atom_site_occupancy
  Ni  Ni0  1  0.74978700  0.74978700  0.74972200  1
  Ni  Ni1  1  0.25021300  0.25021300  0.25027800  1
  Cu  Cu2  1  0.00000000  0.00000000  0.00000000  1
  C  C3  1  0.50000000  0.50000000  0.50000000  1
  C  C4  1  0.26200900  0.26200900  0.74966700  1
  C  C5  1  0.73799100  0.73799100  0.25033300  1
  C  C6  1  0.74405200  0.26762100  0.73183100  1
  C  C7  1  0.25594800  0.73237900  0.26816900  1
  C  C8  1  0.73237900  0.25594800  0.26816900  1
  C  C9  1  0.26762100  0.74405200  0.73183100  1
