# generated using pymatgen
data_Cu(NiC11)2
_symmetry_space_group_name_H-M   'P 1'
_cell_length_a   13.05762633
_cell_length_b   13.05762633
_cell_length_c   9.92025545
_cell_angle_alpha   67.88427935
_cell_angle_beta   67.88427935
_cell_angle_gamma   76.49522331
_symmetry_Int_Tables_number   1
_chemical_formula_structural   Cu(NiC11)2
_chemical_formula_sum   'Cu2 Ni4 C44'
_cell_volume   1443.35827852
_cell_formula_units_Z   2
loop_
 _symmetry_equiv_pos_site_id
 _symmetry_equiv_pos_as_xyz
  1  'x, y, z'
loop_
 _atom_site_type_symbol
 _atom_site_label
 _atom_site_symmetry_multiplicity
 _atom_site_fract_x
 _atom_site_fract_y
 _atom_site_fract_z
 _atom_site_occupancy
  C  C0  1  0.35324700  0.97233400  0.17537000  1
  C  C1  1  0.64675300  0.02766600  0.82463000  1
  C  C2  1  0.02766600  0.64675300  0.32463000  1
  C  C3  1  0.97233400  0.35324700  0.67537000  1
  C  C4  1  0.57907000  0.01862200  0.17410600  1
  C  C5  1  0.42093000  0.98137800  0.82589400  1
  C  C6  1  0.98137800  0.42093000  0.32589400  1
  C  C7  1  0.01862200  0.57907000  0.67410600  1
  C  C8  1  0.56839700  0.81003900  0.06120400  1
  C  C9  1  0.43160300  0.18996100  0.93879600  1
  C  C10  1  0.18996100  0.43160300  0.43879600  1
  C  C11  1  0.81003900  0.56839700  0.56120400  1
  C  C12  1  0.96959900  0.99294100  0.19922500  1
  C  C13  1  0.03040100  0.00705900  0.80077500  1
  C  C14  1  0.00705900  0.03040100  0.30077500  1
  C  C15  1  0.99294100  0.96959900  0.69922500  1
  Ni  Ni16  1  0.67555000  0.32445000  0.25000000  1
  Ni  Ni17  1  0.32445000  0.67555000  0.75000000  1
  Ni  Ni18  1  0.50000000  0.50000000  0.00000000  1
  Ni  Ni19  1  0.50000000  0.50000000  0.50000000  1
  C  C20  1  0.73359000  0.89693600  0.03475500  1
  C  C21  1  0.26641000  0.10306400  0.96524500  1
  C  C22  1  0.10306400  0.26641000  0.46524500  1
  C  C23  1  0.89693600  0.73359000  0.53475500  1
  C  C24  1  0.39254700  0.13645300  0.22655700  1
  C  C25  1  0.60745300  0.86354700  0.77344300  1
  C  C26  1  0.86354700  0.60745300  0.27344300  1
  C  C27  1  0.13645300  0.39254700  0.72655700  1
  C  C28  1  0.48636300  0.83995000  0.32568300  1
  C  C29  1  0.51363700  0.16005000  0.67431700  1
  C  C30  1  0.16005000  0.51363700  0.17431700  1
  C  C31  1  0.83995000  0.48636300  0.82568300  1
  C  C32  1  0.36855300  0.81286200  0.06781100  1
  C  C33  1  0.63144700  0.18713800  0.93218900  1
  C  C34  1  0.18713800  0.63144700  0.43218900  1
  C  C35  1  0.81286200  0.36855300  0.56781100  1
  C  C36  1  0.66126400  0.03867400  0.33461400  1
  C  C37  1  0.33873600  0.96132600  0.66538600  1
  C  C38  1  0.96132600  0.33873600  0.16538600  1
  C  C39  1  0.03867400  0.66126400  0.83461400  1
  C  C40  1  0.62991000  0.61835500  0.12789700  1
  C  C41  1  0.37009000  0.38164500  0.87210300  1
  C  C42  1  0.38164500  0.37009000  0.37210300  1
  C  C43  1  0.61835500  0.62991000  0.62789700  1
  C  C44  1  0.81804100  0.05904500  0.62048000  1
  C  C45  1  0.18195900  0.94095500  0.37952000  1
  C  C46  1  0.94095500  0.18195900  0.87952000  1
  C  C47  1  0.05904500  0.81804100  0.12048000  1
  Cu  Cu48  1  0.95122100  0.04877900  0.25000000  1
  Cu  Cu49  1  0.04877900  0.95122100  0.75000000  1
