# generated using pymatgen
data_Cu5Ni6
_symmetry_space_group_name_H-M   'P 1'
_cell_length_a   15.53393393
_cell_length_b   15.53393393
_cell_length_c   7.02591244
_cell_angle_alpha   88.68592278
_cell_angle_beta   88.68592278
_cell_angle_gamma   14.67867175
_symmetry_Int_Tables_number   1
_chemical_formula_structural   Cu5Ni6
_chemical_formula_sum   'Cu10 Ni12'
_cell_volume   429.48941087
_cell_formula_units_Z   2
loop_
 _symmetry_equiv_pos_site_id
 _symmetry_equiv_pos_as_xyz
  1  'x, y, z'
loop_
 _atom_site_type_symbol
 _atom_site_label
 _atom_site_symmetry_multiplicity
 _atom_site_fract_x
 _atom_site_fract_y
 _atom_site_fract_z
 _atom_site_occupancy
  Ni  Ni0  1  0.72108900  0.72108900  0.95047300  1
  Ni  Ni1  1  0.99392200  0.99392200  0.51732300  1
  Ni  Ni2  1  0.56564800  0.56564800  0.69856100  1
  Ni  Ni3  1  0.41935400  0.41935400  0.32936900  1
  Ni  Ni4  1  0.83642800  0.83642800  0.38596600  1
  Ni  Ni5  1  0.15837000  0.15837000  0.70831100  1
  Ni  Ni6  1  0.52846600  0.52846600  0.20775800  1
  Ni  Ni7  1  0.45699400  0.45699400  0.83291300  1
  Ni  Ni8  1  0.27695800  0.27695800  0.71811300  1
  Ni  Ni9  1  0.17361600  0.17361600  0.22305400  1
  Ni  Ni10  1  0.72470600  0.72470600  0.48522200  1
  Ni  Ni11  1  0.27265400  0.27265400  0.21507400  1
  Cu  Cu12  1  0.96604600  0.96604600  0.14337300  1
  Cu  Cu13  1  0.01929600  0.01929600  0.89363400  1
  Cu  Cu14  1  0.63221700  0.63221700  0.98957700  1
  Cu  Cu15  1  0.34972600  0.34972600  0.01612900  1
  Cu  Cu16  1  0.90818000  0.90818000  0.64445000  1
  Cu  Cu17  1  0.08421100  0.08421100  0.40070300  1
  Cu  Cu18  1  0.63376300  0.63376300  0.43232200  1
  Cu  Cu19  1  0.36125700  0.36125700  0.65062200  1
  Cu  Cu20  1  0.89470700  0.89470700  0.00682700  1
  Cu  Cu21  1  0.08793000  0.08793000  0.04654700  1
