# generated using pymatgen
data_Cu(NiC25)2
_symmetry_space_group_name_H-M   'P 1'
_cell_length_a   8.65495600
_cell_length_b   8.59957300
_cell_length_c   17.46180164
_cell_angle_alpha   87.19431997
_cell_angle_beta   90.00000000
_cell_angle_gamma   90.00000000
_symmetry_Int_Tables_number   1
_chemical_formula_structural   Cu(NiC25)2
_chemical_formula_sum   'Cu2 Ni4 C100'
_cell_volume   1298.10522145
_cell_formula_units_Z   2
loop_
 _symmetry_equiv_pos_site_id
 _symmetry_equiv_pos_as_xyz
  1  'x, y, z'
loop_
 _atom_site_type_symbol
 _atom_site_label
 _atom_site_symmetry_multiplicity
 _atom_site_fract_x
 _atom_site_fract_y
 _atom_site_fract_z
 _atom_site_occupancy
  C  C0  1  0.46061300  0.50140200  0.80462900  1
  C  C1  1  0.96061300  0.49859800  0.69537100  1
  C  C2  1  0.53938700  0.49859800  0.19537100  1
  C  C3  1  0.03938700  0.50140200  0.30462900  1
  Ni  Ni4  1  0.26106200  0.22573700  0.61851300  1
  Ni  Ni5  1  0.76106200  0.77426300  0.88148700  1
  Ni  Ni6  1  0.73893800  0.77426300  0.38148700  1
  Ni  Ni7  1  0.23893800  0.22573700  0.11851300  1
  Cu  Cu8  1  0.00000000  0.00000000  0.00000000  1
  Cu  Cu9  1  0.50000000  0.00000000  0.50000000  1
  C  C10  1  0.65097100  0.17151300  0.91773600  1
  C  C11  1  0.15097100  0.82848700  0.58226400  1
  C  C12  1  0.34902900  0.82848700  0.08226400  1
  C  C13  1  0.84902900  0.17151300  0.41773600  1
  C  C14  1  0.62101200  0.17766800  0.05787000  1
  C  C15  1  0.12101200  0.82233200  0.44213000  1
  C  C16  1  0.37898800  0.82233200  0.94213000  1
  C  C17  1  0.87898800  0.17766800  0.55787000  1
  C  C18  1  0.39663100  0.22269700  0.97450800  1
  C  C19  1  0.89663100  0.77730300  0.52549200  1
  C  C20  1  0.60336900  0.77730300  0.02549200  1
  C  C21  1  0.10336900  0.22269700  0.47450800  1
  C  C22  1  0.14205200  0.33026900  0.91458800  1
  C  C23  1  0.64205200  0.66973100  0.58541200  1
  C  C24  1  0.85794800  0.66973100  0.08541200  1
  C  C25  1  0.35794800  0.33026900  0.41458800  1
  C  C26  1  0.86081500  0.37559500  0.90757900  1
  C  C27  1  0.36081500  0.62440500  0.59242100  1
  C  C28  1  0.13918500  0.62440500  0.09242100  1
  C  C29  1  0.63918500  0.37559500  0.40757900  1
  C  C30  1  0.03978100  0.59616300  0.89525800  1
  C  C31  1  0.53978100  0.40383700  0.60474200  1
  C  C32  1  0.96021900  0.40383700  0.10474200  1
  C  C33  1  0.46021900  0.59616300  0.39525800  1
  C  C34  1  0.19024600  0.95370200  0.71104800  1
  C  C35  1  0.69024600  0.04629800  0.78895200  1
  C  C36  1  0.80975400  0.04629800  0.28895200  1
  C  C37  1  0.30975400  0.95370200  0.21104800  1
  C  C38  1  0.16579700  0.85102100  0.84425900  1
  C  C39  1  0.66579700  0.14897900  0.65574100  1
  C  C40  1  0.83420300  0.14897900  0.15574100  1
  C  C41  1  0.33420300  0.85102100  0.34425900  1
  C  C42  1  0.17295400  0.13438000  0.81460400  1
  C  C43  1  0.67295400  0.86562000  0.68539600  1
  C  C44  1  0.82704600  0.86562000  0.18539600  1
  C  C45  1  0.32704600  0.13438000  0.31460400  1
  C  C46  1  0.71396200  0.32827400  0.89807000  1
  C  C47  1  0.21396200  0.67172600  0.60193000  1
  C  C48  1  0.28603800  0.67172600  0.10193000  1
  C  C49  1  0.78603800  0.32827400  0.39807000  1
  C  C50  1  0.70716900  0.05228600  0.86680100  1
  C  C51  1  0.20716900  0.94771400  0.63319900  1
  C  C52  1  0.29283100  0.94771400  0.13319900  1
  C  C53  1  0.79283100  0.05228600  0.36680100  1
  C  C54  1  0.70176500  0.12156400  0.99700500  1
  C  C55  1  0.20176500  0.87843600  0.50299500  1
  C  C56  1  0.29823500  0.87843600  0.00299500  1
  C  C57  1  0.79823500  0.12156400  0.49700500  1
  C  C58  1  0.48067200  0.18723800  0.91212400  1
  C  C59  1  0.98067200  0.81276200  0.58787600  1
  C  C60  1  0.51932800  0.81276200  0.08787600  1
  C  C61  1  0.01932800  0.18723800  0.41212400  1
  C  C62  1  0.67776900  0.18998800  0.12961900  1
  C  C63  1  0.17776900  0.81001200  0.37038100  1
  C  C64  1  0.32223100  0.81001200  0.87038100  1
  C  C65  1  0.82223100  0.18998800  0.62961900  1
  C  C66  1  0.46800200  0.23057500  0.04661200  1
  C  C67  1  0.96800200  0.76942500  0.45338800  1
  C  C68  1  0.53199800  0.76942500  0.95338800  1
  C  C69  1  0.03199800  0.23057500  0.54661200  1
  C  C70  1  0.24018600  0.25348500  0.97445400  1
  C  C71  1  0.74018600  0.74651500  0.52554600  1
  C  C72  1  0.75981400  0.74651500  0.02554600  1
  C  C73  1  0.25981400  0.25348500  0.47445400  1
  C  C74  1  0.98066400  0.28301300  0.93426200  1
  C  C75  1  0.48066400  0.71698700  0.56573800  1
  C  C76  1  0.01933600  0.71698700  0.06573800  1
  C  C77  1  0.51933600  0.28301300  0.43426200  1
  C  C78  1  0.16151500  0.50182300  0.91384300  1
  C  C79  1  0.66151500  0.49817700  0.58615700  1
  C  C80  1  0.83848500  0.49817700  0.08615700  1
  C  C81  1  0.33848500  0.50182300  0.41384300  1
  C  C82  1  0.17754000  0.28493200  0.83547200  1
  C  C83  1  0.67754000  0.71506800  0.66452800  1
  C  C84  1  0.82246000  0.71506800  0.16452800  1
  C  C85  1  0.32246000  0.28493200  0.33547200  1
  C  C86  1  0.89148800  0.53214400  0.88494600  1
  C  C87  1  0.39148800  0.46785600  0.61505400  1
  C  C88  1  0.10851200  0.46785600  0.11505400  1
  C  C89  1  0.60851200  0.53214400  0.38494600  1
  C  C90  1  0.04370600  0.75493600  0.88306500  1
  C  C91  1  0.54370600  0.24506400  0.61693500  1
  C  C92  1  0.95629400  0.24506400  0.11693500  1
  C  C93  1  0.45629400  0.75493600  0.38306500  1
  C  C94  1  0.20956400  0.10534200  0.73844200  1
  C  C95  1  0.70956400  0.89465800  0.76155800  1
  C  C96  1  0.79043600  0.89465800  0.26155800  1
  C  C97  1  0.29043600  0.10534200  0.23844200  1
  C  C98  1  0.15948300  0.83084800  0.76067800  1
  C  C99  1  0.65948300  0.16915200  0.73932200  1
  C  C100  1  0.84051700  0.16915200  0.23932200  1
  C  C101  1  0.34051700  0.83084800  0.26067800  1
  C  C102  1  0.12831900  0.01333500  0.86371900  1
  C  C103  1  0.62831900  0.98666500  0.63628100  1
  C  C104  1  0.87168100  0.98666500  0.13628100  1
  C  C105  1  0.37168100  0.01333500  0.36371900  1
