# generated using pymatgen
data_Cu12Ni11C13
_symmetry_space_group_name_H-M   'P 1'
_cell_length_a   4.47128217
_cell_length_b   4.47128217
_cell_length_c   37.73431000
_cell_angle_alpha   90.00000000
_cell_angle_beta   90.00000000
_cell_angle_gamma   120.00000257
_symmetry_Int_Tables_number   1
_chemical_formula_structural   Cu12Ni11C13
_chemical_formula_sum   'Cu12 Ni11 C13'
_cell_volume   653.32787734
_cell_formula_units_Z   1
loop_
 _symmetry_equiv_pos_site_id
 _symmetry_equiv_pos_as_xyz
  1  'x, y, z'
loop_
 _atom_site_type_symbol
 _atom_site_label
 _atom_site_symmetry_multiplicity
 _atom_site_fract_x
 _atom_site_fract_y
 _atom_site_fract_z
 _atom_site_occupancy
  C  C0  1  0.00000000  0.00000000  0.74985700  1
  C  C1  1  0.00000000  0.00000000  0.50000000  1
  C  C2  1  0.00000000  0.00000000  0.25014300  1
  C  C3  1  0.00000000  0.00000000  0.00000000  1
  C  C4  1  0.66666700  0.33333300  0.00000000  1
  C  C5  1  0.00000000  0.00000000  0.66636100  1
  C  C6  1  0.00000000  0.00000000  0.41645900  1
  C  C7  1  0.00000000  0.00000000  0.16609400  1
  C  C8  1  0.00000000  0.00000000  0.91905700  1
  C  C9  1  0.00000000  0.00000000  0.83390600  1
  C  C10  1  0.00000000  0.00000000  0.58354100  1
  C  C11  1  0.00000000  0.00000000  0.33363900  1
  C  C12  1  0.00000000  0.00000000  0.08094300  1
  Ni  Ni13  1  0.33333300  0.66666700  0.82116600  1
  Ni  Ni14  1  0.33333300  0.66666700  0.57119700  1
  Ni  Ni15  1  0.33333300  0.66666700  0.32133600  1
  Ni  Ni16  1  0.33333300  0.66666700  0.06685000  1
  Ni  Ni17  1  0.33333300  0.66666700  0.67866400  1
  Ni  Ni18  1  0.33333300  0.66666700  0.42880300  1
  Ni  Ni19  1  0.33333300  0.66666700  0.17883400  1
  Ni  Ni20  1  0.33333300  0.66666700  0.93315000  1
  Ni  Ni21  1  0.66666700  0.33333300  0.74941200  1
  Ni  Ni22  1  0.66666700  0.33333300  0.50000000  1
  Ni  Ni23  1  0.66666700  0.33333300  0.25058800  1
  Cu  Cu24  1  0.66666700  0.33333300  0.84195400  1
  Cu  Cu25  1  0.66666700  0.33333300  0.59159000  1
  Cu  Cu26  1  0.66666700  0.33333300  0.34117000  1
  Cu  Cu27  1  0.66666700  0.33333300  0.09126600  1
  Cu  Cu28  1  0.66666700  0.33333300  0.65883000  1
  Cu  Cu29  1  0.66666700  0.33333300  0.40841000  1
  Cu  Cu30  1  0.66666700  0.33333300  0.15804600  1
  Cu  Cu31  1  0.66666700  0.33333300  0.90873400  1
  Cu  Cu32  1  0.33333300  0.66666700  0.75045500  1
  Cu  Cu33  1  0.33333300  0.66666700  0.50000000  1
  Cu  Cu34  1  0.33333300  0.66666700  0.24954500  1
  Cu  Cu35  1  0.33333300  0.66666700  0.00000000  1
