# generated using pymatgen
data_CuNiC2
_symmetry_space_group_name_H-M   'P 1'
_cell_length_a   7.04173437
_cell_length_b   7.04173437
_cell_length_c   7.04173488
_cell_angle_alpha   33.48949652
_cell_angle_beta   33.48949652
_cell_angle_gamma   33.48950506
_symmetry_Int_Tables_number   1
_chemical_formula_structural   CuNiC2
_chemical_formula_sum   'Cu1 Ni1 C2'
_cell_volume   94.68298356
_cell_formula_units_Z   1
loop_
 _symmetry_equiv_pos_site_id
 _symmetry_equiv_pos_as_xyz
  1  'x, y, z'
loop_
 _atom_site_type_symbol
 _atom_site_label
 _atom_site_symmetry_multiplicity
 _atom_site_fract_x
 _atom_site_fract_y
 _atom_site_fract_z
 _atom_site_occupancy
  C  C0  1  0.00187300  0.00187300  0.00187300  1
  C  C1  1  0.49839800  0.49839800  0.49839800  1
  Ni  Ni2  1  0.12545600  0.12545600  0.12545600  1
  Cu  Cu3  1  0.62427400  0.62427400  0.62427400  1
