# generated using pymatgen
data_CuNiC8
_symmetry_space_group_name_H-M   'P 1'
_cell_length_a   5.66612427
_cell_length_b   5.66736119
_cell_length_c   8.97986125
_cell_angle_alpha   71.47866614
_cell_angle_beta   71.48573088
_cell_angle_gamma   89.67163113
_symmetry_Int_Tables_number   1
_chemical_formula_structural   CuNiC8
_chemical_formula_sum   'Cu2 Ni2 C16'
_cell_volume   257.81877202
_cell_formula_units_Z   2
loop_
 _symmetry_equiv_pos_site_id
 _symmetry_equiv_pos_as_xyz
  1  'x, y, z'
loop_
 _atom_site_type_symbol
 _atom_site_label
 _atom_site_symmetry_multiplicity
 _atom_site_fract_x
 _atom_site_fract_y
 _atom_site_fract_z
 _atom_site_occupancy
  C  C0  1  0.38497800  0.88490800  0.23015700  1
  C  C1  1  0.88471000  0.38483000  0.23024600  1
  C  C2  1  0.11509300  0.61518000  0.76992300  1
  C  C3  1  0.61504200  0.11507400  0.76991900  1
  Ni  Ni4  1  0.50018000  0.50023400  0.99954200  1
  Ni  Ni5  1  0.00027200  0.00021800  0.99953400  1
  Cu  Cu6  1  0.25002400  0.25004400  0.49997100  1
  Cu  Cu7  1  0.74997900  0.74993900  0.50007600  1
  C  C8  1  0.37575100  0.37545700  0.24889900  1
  C  C9  1  0.87581100  0.87532300  0.24860500  1
  C  C10  1  0.12433100  0.12438300  0.75164900  1
  C  C11  1  0.62397500  0.62443500  0.75132500  1
  C  C12  1  0.76279300  0.23687000  0.00023900  1
  C  C13  1  0.23690600  0.76277400  0.00032800  1
  C  C14  1  0.25045500  0.25027900  0.99998400  1
  C  C15  1  0.74958200  0.74982300  0.99979300  1
  C  C16  1  0.51001900  0.99005400  0.49981600  1
  C  C17  1  0.99035900  0.51032700  0.49949700  1
  C  C18  1  0.00029700  0.00006000  0.50032300  1
  C  C19  1  0.49944300  0.49978600  0.50017300  1
