# generated using pymatgen
data_CuNi3
_symmetry_space_group_name_H-M   'P 1'
_cell_length_a   8.41051200
_cell_length_b   13.38011500
_cell_length_c   14.62198000
_cell_angle_alpha   90.00000000
_cell_angle_beta   90.00000000
_cell_angle_gamma   90.00000000
_symmetry_Int_Tables_number   1
_chemical_formula_structural   CuNi3
_chemical_formula_sum   'Cu16 Ni48'
_cell_volume   1645.46430834
_cell_formula_units_Z   16
loop_
 _symmetry_equiv_pos_site_id
 _symmetry_equiv_pos_as_xyz
  1  'x, y, z'
loop_
 _atom_site_type_symbol
 _atom_site_label
 _atom_site_symmetry_multiplicity
 _atom_site_fract_x
 _atom_site_fract_y
 _atom_site_fract_z
 _atom_site_occupancy
  Ni  Ni0  1  0.10582700  0.14586700  0.49174600  1
  Ni  Ni1  1  0.89417300  0.85413300  0.50825400  1
  Ni  Ni2  1  0.39417300  0.85413300  0.99174600  1
  Ni  Ni3  1  0.89417300  0.64586700  0.00825400  1
  Ni  Ni4  1  0.60582700  0.14586700  0.00825400  1
  Ni  Ni5  1  0.10582700  0.35413300  0.99174600  1
  Ni  Ni6  1  0.60582700  0.35413300  0.50825400  1
  Ni  Ni7  1  0.39417300  0.64586700  0.49174600  1
  Ni  Ni8  1  0.39057500  0.39779300  0.31174200  1
  Ni  Ni9  1  0.60942500  0.60220700  0.68825800  1
  Ni  Ni10  1  0.10942500  0.60220700  0.81174200  1
  Ni  Ni11  1  0.60942500  0.89779300  0.18825800  1
  Ni  Ni12  1  0.89057500  0.39779300  0.18825800  1
  Ni  Ni13  1  0.39057500  0.10220700  0.81174200  1
  Ni  Ni14  1  0.89057500  0.10220700  0.68825800  1
  Ni  Ni15  1  0.10942500  0.89779300  0.31174200  1
  Ni  Ni16  1  0.09906400  0.13056300  0.03606600  1
  Ni  Ni17  1  0.90093600  0.86943700  0.96393400  1
  Ni  Ni18  1  0.40093600  0.86943700  0.53606600  1
  Ni  Ni19  1  0.90093600  0.63056300  0.46393400  1
  Ni  Ni20  1  0.59906400  0.13056300  0.46393400  1
  Ni  Ni21  1  0.09906400  0.36943700  0.53606600  1
  Ni  Ni22  1  0.59906400  0.36943700  0.96393400  1
  Ni  Ni23  1  0.40093600  0.63056300  0.03606600  1
  Ni  Ni24  1  0.40064800  0.14296900  0.28826300  1
  Ni  Ni25  1  0.59935200  0.85703100  0.71173700  1
  Ni  Ni26  1  0.09935200  0.85703100  0.78826300  1
  Ni  Ni27  1  0.59935200  0.64296900  0.21173700  1
  Ni  Ni28  1  0.90064800  0.14296900  0.21173700  1
  Ni  Ni29  1  0.40064800  0.35703100  0.78826300  1
  Ni  Ni30  1  0.90064800  0.35703100  0.71173700  1
  Ni  Ni31  1  0.09935200  0.64296900  0.28826300  1
  Ni  Ni32  1  0.46245000  0.27869900  0.23150700  1
  Ni  Ni33  1  0.53755000  0.72130100  0.76849300  1
  Ni  Ni34  1  0.03755000  0.72130100  0.73150700  1
  Ni  Ni35  1  0.53755000  0.77869900  0.26849300  1
  Ni  Ni36  1  0.96245000  0.27869900  0.26849300  1
  Ni  Ni37  1  0.46245000  0.22130100  0.73150700  1
  Ni  Ni38  1  0.96245000  0.22130100  0.76849300  1
  Ni  Ni39  1  0.03755000  0.77869900  0.23150700  1
  Ni  Ni40  1  0.09383400  0.43011700  0.11477000  1
  Ni  Ni41  1  0.90616600  0.56988300  0.88523000  1
  Ni  Ni42  1  0.40616600  0.56988300  0.61477000  1
  Ni  Ni43  1  0.90616600  0.93011700  0.38523000  1
  Ni  Ni44  1  0.59383400  0.43011700  0.38523000  1
  Ni  Ni45  1  0.09383400  0.06988300  0.61477000  1
  Ni  Ni46  1  0.59383400  0.06988300  0.88523000  1
  Ni  Ni47  1  0.40616600  0.93011700  0.11477000  1
  Cu  Cu48  1  0.01640100  0.10337100  0.12871200  1
  Cu  Cu49  1  0.98359900  0.89662900  0.87128800  1
  Cu  Cu50  1  0.48359900  0.89662900  0.62871200  1
  Cu  Cu51  1  0.98359900  0.60337100  0.37128800  1
  Cu  Cu52  1  0.51640100  0.10337100  0.37128800  1
  Cu  Cu53  1  0.01640100  0.39662900  0.62871200  1
  Cu  Cu54  1  0.51640100  0.39662900  0.87128800  1
  Cu  Cu55  1  0.48359900  0.60337100  0.12871200  1
  Cu  Cu56  1  0.15123800  0.23457700  0.99895400  1
  Cu  Cu57  1  0.84876200  0.76542300  0.00104600  1
  Cu  Cu58  1  0.34876200  0.76542300  0.49895400  1
  Cu  Cu59  1  0.84876200  0.73457700  0.50104600  1
  Cu  Cu60  1  0.65123800  0.23457700  0.50104600  1
  Cu  Cu61  1  0.15123800  0.26542300  0.49895400  1
  Cu  Cu62  1  0.65123800  0.26542300  0.00104600  1
  Cu  Cu63  1  0.34876200  0.73457700  0.99895400  1
