# generated using pymatgen
data_Cu6Ni3C4
_symmetry_space_group_name_H-M   'P 1'
_cell_length_a   9.33143322
_cell_length_b   9.33143322
_cell_length_c   5.42113000
_cell_angle_alpha   90.00000000
_cell_angle_beta   90.00000000
_cell_angle_gamma   119.99999449
_symmetry_Int_Tables_number   1
_chemical_formula_structural   Cu6Ni3C4
_chemical_formula_sum   'Cu12 Ni6 C8'
_cell_volume   408.80592609
_cell_formula_units_Z   2
loop_
 _symmetry_equiv_pos_site_id
 _symmetry_equiv_pos_as_xyz
  1  'x, y, z'
loop_
 _atom_site_type_symbol
 _atom_site_label
 _atom_site_symmetry_multiplicity
 _atom_site_fract_x
 _atom_site_fract_y
 _atom_site_fract_z
 _atom_site_occupancy
  C  C0  1  0.90859200  0.58987500  0.75000000  1
  C  C1  1  0.09140800  0.41012500  0.25000000  1
  C  C2  1  0.68128300  0.09140800  0.75000000  1
  C  C3  1  0.31871700  0.90859200  0.25000000  1
  C  C4  1  0.41012500  0.31871700  0.75000000  1
  C  C5  1  0.58987500  0.68128300  0.25000000  1
  C  C6  1  0.33333300  0.66666700  0.75000000  1
  C  C7  1  0.66666700  0.33333300  0.25000000  1
  Ni  Ni8  1  0.76064300  0.81098300  0.75000000  1
  Ni  Ni9  1  0.23935700  0.18901700  0.25000000  1
  Ni  Ni10  1  0.05034000  0.23935700  0.75000000  1
  Ni  Ni11  1  0.94966000  0.76064300  0.25000000  1
  Ni  Ni12  1  0.18901700  0.94966000  0.75000000  1
  Ni  Ni13  1  0.81098300  0.05034000  0.25000000  1
  Cu  Cu14  1  0.48090800  0.84540700  0.98878900  1
  Cu  Cu15  1  0.51909200  0.15459300  0.01121100  1
  Cu  Cu16  1  0.36449800  0.51909200  0.98878900  1
  Cu  Cu17  1  0.51909200  0.15459300  0.48878900  1
  Cu  Cu18  1  0.63550200  0.48090800  0.01121100  1
  Cu  Cu19  1  0.48090800  0.84540700  0.51121100  1
  Cu  Cu20  1  0.15459300  0.63550200  0.98878900  1
  Cu  Cu21  1  0.63550200  0.48090800  0.48878900  1
  Cu  Cu22  1  0.84540700  0.36449800  0.01121100  1
  Cu  Cu23  1  0.36449800  0.51909200  0.51121100  1
  Cu  Cu24  1  0.84540700  0.36449800  0.48878900  1
  Cu  Cu25  1  0.15459300  0.63550200  0.51121100  1
