# generated using pymatgen
data_Cu2Ni2C19
_symmetry_space_group_name_H-M   'P 1'
_cell_length_a   6.87823679
_cell_length_b   6.87828045
_cell_length_c   8.12783711
_cell_angle_alpha   66.42579013
_cell_angle_beta   113.57448695
_cell_angle_gamma   119.29622786
_symmetry_Int_Tables_number   1
_chemical_formula_structural   Cu2Ni2C19
_chemical_formula_sum   'Cu2 Ni2 C19'
_cell_volume   297.15983108
_cell_formula_units_Z   1
loop_
 _symmetry_equiv_pos_site_id
 _symmetry_equiv_pos_as_xyz
  1  'x, y, z'
loop_
 _atom_site_type_symbol
 _atom_site_label
 _atom_site_symmetry_multiplicity
 _atom_site_fract_x
 _atom_site_fract_y
 _atom_site_fract_z
 _atom_site_occupancy
  C  C0  1  0.02882800  0.97116700  0.08579800  1
  C  C1  1  0.77192000  0.22807900  0.32194400  1
  C  C2  1  0.02295000  0.97704800  0.59548200  1
  C  C3  1  0.51419800  0.94164100  0.59372700  1
  C  C4  1  0.05835700  0.48579600  0.59372900  1
  Ni  Ni5  1  0.29416000  0.70584500  0.91664900  1
  Ni  Ni6  1  0.66354500  0.33645600  0.98703600  1
  Cu  Cu7  1  0.39242900  0.60757600  0.48955400  1
  Cu  Cu8  1  0.65329800  0.34669900  0.61457500  1
  C  C9  1  0.35756200  0.64245000  0.12247800  1
  C  C10  1  0.59873000  0.40127100  0.77951600  1
  C  C11  1  0.14251100  0.85749000  0.83053000  1
  C  C12  1  0.81295400  0.18704700  0.09372200  1
  C  C13  1  0.14646000  0.48871700  0.83036800  1
  C  C14  1  0.51128800  0.85354500  0.83036800  1
  C  C15  1  0.46565100  0.19373100  0.09268900  1
  C  C16  1  0.80627300  0.53434700  0.09269100  1
  C  C17  1  0.31434300  0.68565200  0.50091900  1
  C  C18  1  0.71290900  0.28709100  0.55789600  1
  C  C19  1  0.72480000  0.92882600  0.52801200  1
  C  C20  1  0.07117400  0.27519500  0.52801600  1
  C  C21  1  0.00078300  0.77453600  0.47625800  1
  C  C22  1  0.22545800  0.99921100  0.47625700  1
