# generated using pymatgen
data_Cu(Ni3C2)4
_symmetry_space_group_name_H-M   'P 1'
_cell_length_a   10.57936762
_cell_length_b   10.57936762
_cell_length_c   7.93673800
_cell_angle_alpha   90.00000000
_cell_angle_beta   90.00000000
_cell_angle_gamma   119.99999760
_symmetry_Int_Tables_number   1
_chemical_formula_structural   Cu(Ni3C2)4
_chemical_formula_sum   'Cu2 Ni24 C16'
_cell_volume   769.29357103
_cell_formula_units_Z   2
loop_
 _symmetry_equiv_pos_site_id
 _symmetry_equiv_pos_as_xyz
  1  'x, y, z'
loop_
 _atom_site_type_symbol
 _atom_site_label
 _atom_site_symmetry_multiplicity
 _atom_site_fract_x
 _atom_site_fract_y
 _atom_site_fract_z
 _atom_site_occupancy
  C  C0  1  0.33333300  0.66666700  0.99780800  1
  C  C1  1  0.66666700  0.33333300  0.00219200  1
  C  C2  1  0.66666700  0.33333300  0.49780800  1
  C  C3  1  0.33333300  0.66666700  0.50219200  1
  C  C4  1  0.24329200  0.25151600  0.25000000  1
  C  C5  1  0.75670800  0.74848400  0.75000000  1
  C  C6  1  0.74848400  0.99177600  0.25000000  1
  C  C7  1  0.25151600  0.00822400  0.75000000  1
  C  C8  1  0.00822400  0.75670800  0.25000000  1
  C  C9  1  0.99177600  0.24329200  0.75000000  1
  C  C10  1  0.39848800  0.02829900  0.25000000  1
  C  C11  1  0.60151200  0.97170100  0.75000000  1
  C  C12  1  0.97170100  0.37018900  0.25000000  1
  C  C13  1  0.02829900  0.62981100  0.75000000  1
  C  C14  1  0.62981100  0.60151200  0.25000000  1
  C  C15  1  0.37018900  0.39848800  0.75000000  1
  Ni  Ni16  1  0.15766900  0.48323500  0.25000000  1
  Ni  Ni17  1  0.84233100  0.51676500  0.75000000  1
  Ni  Ni18  1  0.51676500  0.67443400  0.25000000  1
  Ni  Ni19  1  0.48323500  0.32556600  0.75000000  1
  Ni  Ni20  1  0.32556600  0.84233100  0.25000000  1
  Ni  Ni21  1  0.67443400  0.15766900  0.75000000  1
  Ni  Ni22  1  0.58682200  0.12309900  0.25000000  1
  Ni  Ni23  1  0.41317800  0.87690100  0.75000000  1
  Ni  Ni24  1  0.87690100  0.46372300  0.25000000  1
  Ni  Ni25  1  0.12309900  0.53627700  0.75000000  1
  Ni  Ni26  1  0.53627700  0.41317800  0.25000000  1
  Ni  Ni27  1  0.46372300  0.58682200  0.75000000  1
  Ni  Ni28  1  0.34329500  0.08608900  0.07728100  1
  Ni  Ni29  1  0.65670500  0.91391100  0.92271900  1
  Ni  Ni30  1  0.91391100  0.25720700  0.07728100  1
  Ni  Ni31  1  0.65670500  0.91391100  0.57728100  1
  Ni  Ni32  1  0.08608900  0.74279300  0.92271900  1
  Ni  Ni33  1  0.34329500  0.08608900  0.42271900  1
  Ni  Ni34  1  0.74279300  0.65670500  0.07728100  1
  Ni  Ni35  1  0.08608900  0.74279300  0.57728100  1
  Ni  Ni36  1  0.25720700  0.34329500  0.92271900  1
  Ni  Ni37  1  0.91391100  0.25720700  0.42271900  1
  Ni  Ni38  1  0.25720700  0.34329500  0.57728100  1
  Ni  Ni39  1  0.74279300  0.65670500  0.42271900  1
  Cu  Cu40  1  0.00000000  0.00000000  0.25000000  1
  Cu  Cu41  1  0.00000000  0.00000000  0.75000000  1
