# generated using pymatgen
data_Cu2NiC11
_symmetry_space_group_name_H-M   'P 1'
_cell_length_a   4.99109900
_cell_length_b   5.88595257
_cell_length_c   8.96476553
_cell_angle_alpha   90.08281834
_cell_angle_beta   96.28001341
_cell_angle_gamma   105.62583105
_symmetry_Int_Tables_number   1
_chemical_formula_structural   Cu2NiC11
_chemical_formula_sum   'Cu4 Ni2 C22'
_cell_volume   251.97430981
_cell_formula_units_Z   2
loop_
 _symmetry_equiv_pos_site_id
 _symmetry_equiv_pos_as_xyz
  1  'x, y, z'
loop_
 _atom_site_type_symbol
 _atom_site_label
 _atom_site_symmetry_multiplicity
 _atom_site_fract_x
 _atom_site_fract_y
 _atom_site_fract_z
 _atom_site_occupancy
  C  C0  1  0.42171800  0.35967300  0.85492200  1
  C  C1  1  0.72228900  0.93045000  0.43006400  1
  C  C2  1  0.85177900  0.21619200  0.70264200  1
  C  C3  1  0.15404500  0.78462600  0.29172200  1
  C  C4  1  0.28592000  0.07552300  0.56052100  1
  C  C5  1  0.56612300  0.63917200  0.15208200  1
  C  C6  1  0.00399100  0.49982100  0.00887100  1
  C  C7  1  0.14458900  0.28671300  0.28847000  1
  Ni  Ni8  1  0.99830300  0.99970300  0.00414500  1
  Ni  Ni9  1  0.56954200  0.14372800  0.14747800  1
  Cu  Cu10  1  0.28684700  0.56859800  0.56498600  1
  Cu  Cu11  1  0.85473200  0.71580700  0.71124500  1
  Cu  Cu12  1  0.42927100  0.85855000  0.85733100  1
  Cu  Cu13  1  0.71334700  0.42331500  0.42089800  1
  C  C14  1  0.27803100  0.28843700  0.06749500  1
  C  C15  1  0.58350100  0.88488800  0.65029100  1
  C  C16  1  0.70735500  0.15532800  0.94072000  1
  C  C17  1  0.01344500  0.74157400  0.50712100  1
  C  C18  1  0.14389800  0.01908400  0.80560300  1
  C  C19  1  0.44529500  0.59729400  0.36646100  1
  C  C20  1  0.82609600  0.43722200  0.20659100  1
  C  C21  1  0.56711800  0.40861400  0.64112600  1
  C  C22  1  0.84644800  0.97181500  0.19273500  1
  C  C23  1  0.99297100  0.26863300  0.49957700  1
  C  C24  1  0.27946900  0.84402400  0.07338300  1
  C  C25  1  0.44844400  0.10943000  0.33974500  1
  C  C26  1  0.71663000  0.70685700  0.92495400  1
  C  C27  1  0.14880400  0.56492600  0.78882100  1
