# generated using pymatgen
data_Cu4Ni4C35
_symmetry_space_group_name_H-M   'P 1'
_cell_length_a   5.37404466
_cell_length_b   9.26713126
_cell_length_c   9.87883305
_cell_angle_alpha   110.00841260
_cell_angle_beta   91.24399776
_cell_angle_gamma   97.92019833
_symmetry_Int_Tables_number   1
_chemical_formula_structural   Cu4Ni4C35
_chemical_formula_sum   'Cu4 Ni4 C35'
_cell_volume   456.62561620
_cell_formula_units_Z   1
loop_
 _symmetry_equiv_pos_site_id
 _symmetry_equiv_pos_as_xyz
  1  'x, y, z'
loop_
 _atom_site_type_symbol
 _atom_site_label
 _atom_site_symmetry_multiplicity
 _atom_site_fract_x
 _atom_site_fract_y
 _atom_site_fract_z
 _atom_site_occupancy
  C  C0  1  0.12387100  0.26442100  0.41146400  1
  C  C1  1  0.87612900  0.73558000  0.58853600  1
  Ni  Ni2  1  0.51242400  0.07167700  0.15888300  1
  Ni  Ni3  1  0.48757600  0.92832300  0.84111700  1
  Ni  Ni4  1  0.50000000  0.00000000  0.50000000  1
  Ni  Ni5  1  0.50000000  0.50000000  0.00000000  1
  C  C6  1  0.00000000  0.00000000  0.00000000  1
  C  C7  1  0.24045000  0.63183900  0.28178700  1
  C  C8  1  0.75955000  0.36816100  0.71821300  1
  Cu  Cu9  1  0.69362000  0.42806400  0.26976000  1
  Cu  Cu10  1  0.30638000  0.57193600  0.73024000  1
  Cu  Cu11  1  0.22319200  0.17766600  0.76185300  1
  Cu  Cu12  1  0.77680800  0.82233400  0.23814700  1
  C  C13  1  0.23871600  0.93279600  0.27716400  1
  C  C14  1  0.76128400  0.06720400  0.72283600  1
  C  C15  1  0.05232300  0.40780300  0.03882300  1
  C  C16  1  0.94767700  0.59219700  0.96117700  1
  C  C17  1  0.69032100  0.41916300  0.11261500  1
  C  C18  1  0.30967900  0.58083700  0.88738500  1
  C  C19  1  0.53943600  0.69914400  0.16599200  1
  C  C20  1  0.46056400  0.30085600  0.83400800  1
  C  C21  1  0.21608500  0.46015900  0.08996600  1
  C  C22  1  0.78391500  0.53984100  0.91003400  1
  C  C23  1  0.71756500  0.19056600  0.54532200  1
  C  C24  1  0.28243500  0.80943400  0.45467800  1
  C  C25  1  0.04714000  0.48314900  0.64650400  1
  C  C26  1  0.95286000  0.51685100  0.35349600  1
  C  C27  1  0.21283400  0.03893000  0.82054700  1
  C  C28  1  0.78716600  0.96107000  0.17945300  1
  C  C29  1  0.30519200  0.91038800  0.00643700  1
  C  C30  1  0.69480800  0.08961200  0.99356300  1
  C  C31  1  0.68056900  0.26309400  0.28156100  1
  C  C32  1  0.31943100  0.73690600  0.71843900  1
  C  C33  1  0.01856800  0.75193000  0.19829500  1
  C  C34  1  0.98143200  0.24807000  0.80170500  1
  C  C35  1  0.48403200  0.51196500  0.35415200  1
  C  C36  1  0.51596800  0.48803500  0.64584800  1
  C  C37  1  0.22233400  0.15900300  0.13554400  1
  C  C38  1  0.77766600  0.84099700  0.86445600  1
  C  C39  1  0.37015400  0.02461000  0.32067100  1
  C  C40  1  0.62984600  0.97539000  0.67932900  1
  C  C41  1  0.24249200  0.11614700  0.59712700  1
  C  C42  1  0.75750800  0.88385300  0.40287300  1
