# generated using pymatgen
data_Cu(Ni6C5)2
_symmetry_space_group_name_H-M   'P 1'
_cell_length_a   5.74377800
_cell_length_b   5.74377800
_cell_length_c   37.97334700
_cell_angle_alpha   90.00000000
_cell_angle_beta   90.00000000
_cell_angle_gamma   90.00000000
_symmetry_Int_Tables_number   1
_chemical_formula_structural   Cu(Ni6C5)2
_chemical_formula_sum   'Cu4 Ni48 C40'
_cell_volume   1252.77814836
_cell_formula_units_Z   4
loop_
 _symmetry_equiv_pos_site_id
 _symmetry_equiv_pos_as_xyz
  1  'x, y, z'
loop_
 _atom_site_type_symbol
 _atom_site_label
 _atom_site_symmetry_multiplicity
 _atom_site_fract_x
 _atom_site_fract_y
 _atom_site_fract_z
 _atom_site_occupancy
  Ni  Ni0  1  0.35878900  0.22574900  0.18407200  1
  Ni  Ni1  1  0.64121100  0.77425100  0.68407200  1
  Ni  Ni2  1  0.27425100  0.85878900  0.43407200  1
  Ni  Ni3  1  0.14121100  0.72574900  0.06592800  1
  Ni  Ni4  1  0.72574900  0.14121100  0.93407200  1
  Ni  Ni5  1  0.85878900  0.27425100  0.56592800  1
  Ni  Ni6  1  0.22574900  0.35878900  0.81592800  1
  Ni  Ni7  1  0.77425100  0.64121100  0.31592800  1
  Ni  Ni8  1  0.41030000  0.06473600  0.21041400  1
  Ni  Ni9  1  0.58970000  0.93526400  0.71041400  1
  Ni  Ni10  1  0.43526400  0.91030000  0.46041400  1
  Ni  Ni11  1  0.08970000  0.56473600  0.03958600  1
  Ni  Ni12  1  0.56473600  0.08970000  0.96041400  1
  Ni  Ni13  1  0.91030000  0.43526400  0.53958600  1
  Ni  Ni14  1  0.06473600  0.41030000  0.78958600  1
  Ni  Ni15  1  0.93526400  0.58970000  0.28958600  1
  Ni  Ni16  1  0.15622200  0.20082500  0.16424000  1
  Ni  Ni17  1  0.84377800  0.79917500  0.66424000  1
  Ni  Ni18  1  0.29917500  0.65622200  0.41424000  1
  Ni  Ni19  1  0.34377800  0.70082500  0.08576000  1
  Ni  Ni20  1  0.70082500  0.34377800  0.91424000  1
  Ni  Ni21  1  0.65622200  0.29917500  0.58576000  1
  Ni  Ni22  1  0.20082500  0.15622200  0.83576000  1
  Ni  Ni23  1  0.79917500  0.84377800  0.33576000  1
  Ni  Ni24  1  0.00660800  0.01402300  0.17074000  1
  Ni  Ni25  1  0.99339200  0.98597700  0.67074000  1
  Ni  Ni26  1  0.48597700  0.50660800  0.42074000  1
  Ni  Ni27  1  0.49339200  0.51402300  0.07926000  1
  Ni  Ni28  1  0.51402300  0.49339200  0.92074000  1
  Ni  Ni29  1  0.50660800  0.48597700  0.57926000  1
  Ni  Ni30  1  0.01402300  0.00660800  0.82926000  1
  Ni  Ni31  1  0.98597700  0.99339200  0.32926000  1
  Ni  Ni32  1  0.43888200  0.35421800  0.05284300  1
  Ni  Ni33  1  0.56111800  0.64578200  0.55284300  1
  Ni  Ni34  1  0.14578200  0.93888200  0.30284300  1
  Ni  Ni35  1  0.06111800  0.85421800  0.19715700  1
  Ni  Ni36  1  0.85421800  0.06111800  0.80284300  1
  Ni  Ni37  1  0.93888200  0.14578200  0.69715700  1
  Ni  Ni38  1  0.35421800  0.43888200  0.94715700  1
  Ni  Ni39  1  0.64578200  0.56111800  0.44715700  1
  Ni  Ni40  1  0.23641200  0.37561800  0.03240900  1
  Ni  Ni41  1  0.76358800  0.62438200  0.53240900  1
  Ni  Ni42  1  0.12438200  0.73641200  0.28240900  1
  Ni  Ni43  1  0.26358800  0.87561800  0.21759100  1
  Ni  Ni44  1  0.87561800  0.26358800  0.78240900  1
  Ni  Ni45  1  0.73641200  0.12438200  0.71759100  1
  Ni  Ni46  1  0.37561800  0.23641200  0.96759100  1
  Ni  Ni47  1  0.62438200  0.76358800  0.46759100  1
  Cu  Cu48  1  0.16526800  0.16526800  0.00000000  1
  Cu  Cu49  1  0.83473200  0.83473200  0.50000000  1
  Cu  Cu50  1  0.33473200  0.66526800  0.25000000  1
  Cu  Cu51  1  0.66526800  0.33473200  0.75000000  1
  C  C52  1  0.40352300  0.10768600  0.47909400  1
  C  C53  1  0.59647700  0.89231400  0.97909400  1
  C  C54  1  0.39231400  0.90352300  0.72909400  1
  C  C55  1  0.09647700  0.60768600  0.77090600  1
  C  C56  1  0.60768600  0.09647700  0.22909400  1
  C  C57  1  0.90352300  0.39231400  0.27090600  1
  C  C58  1  0.10768600  0.40352300  0.52090600  1
  C  C59  1  0.89231400  0.59647700  0.02090600  1
  C  C60  1  0.32422900  0.08714600  0.29727300  1
  C  C61  1  0.67577100  0.91285400  0.79727300  1
  C  C62  1  0.41285400  0.82422900  0.54727300  1
  C  C63  1  0.17577100  0.58714600  0.95272700  1
  C  C64  1  0.58714600  0.17577100  0.04727300  1
  C  C65  1  0.82422900  0.41285400  0.45272700  1
  C  C66  1  0.08714600  0.32422900  0.70272700  1
  C  C67  1  0.91285400  0.67577100  0.20272700  1
  C  C68  1  0.10599100  0.35519500  0.13870200  1
  C  C69  1  0.89400900  0.64480500  0.63870200  1
  C  C70  1  0.14480500  0.60599100  0.38870200  1
  C  C71  1  0.39400900  0.85519500  0.11129800  1
  C  C72  1  0.85519500  0.39400900  0.88870200  1
  C  C73  1  0.60599100  0.14480500  0.61129800  1
  C  C74  1  0.35519500  0.10599100  0.86129800  1
  C  C75  1  0.64480500  0.89400900  0.36129800  1
  C  C76  1  0.01168100  0.18682400  0.34888600  1
  C  C77  1  0.98831900  0.81317600  0.84888600  1
  C  C78  1  0.31317600  0.51168100  0.59888600  1
  C  C79  1  0.48831900  0.68682400  0.90111400  1
  C  C80  1  0.68682400  0.48831900  0.09888600  1
  C  C81  1  0.51168100  0.31317600  0.40111400  1
  C  C82  1  0.18682400  0.01168100  0.65111400  1
  C  C83  1  0.81317600  0.98831900  0.15111400  1
  C  C84  1  0.09418300  0.00334400  0.42730400  1
  C  C85  1  0.90581700  0.99665600  0.92730400  1
  C  C86  1  0.49665600  0.59418300  0.67730400  1
  C  C87  1  0.40581700  0.50334400  0.82269600  1
  C  C88  1  0.50334400  0.40581700  0.17730400  1
  C  C89  1  0.59418300  0.49665600  0.32269600  1
  C  C90  1  0.00334400  0.09418300  0.57269600  1
  C  C91  1  0.99665600  0.90581700  0.07269600  1
