# generated using pymatgen
data_CuNiC8
_symmetry_space_group_name_H-M   'P 1'
_cell_length_a   5.57403400
_cell_length_b   9.55872892
_cell_length_c   9.56370016
_cell_angle_alpha   70.44035908
_cell_angle_beta   89.99993095
_cell_angle_gamma   90.00009784
_symmetry_Int_Tables_number   1
_chemical_formula_structural   CuNiC8
_chemical_formula_sum   'Cu4 Ni4 C32'
_cell_volume   480.15550323
_cell_formula_units_Z   4
loop_
 _symmetry_equiv_pos_site_id
 _symmetry_equiv_pos_as_xyz
  1  'x, y, z'
loop_
 _atom_site_type_symbol
 _atom_site_label
 _atom_site_symmetry_multiplicity
 _atom_site_fract_x
 _atom_site_fract_y
 _atom_site_fract_z
 _atom_site_occupancy
  Ni  Ni0  1  0.54089100  0.38077500  0.86926100  1
  Ni  Ni1  1  0.54090500  0.88077200  0.36927100  1
  Ni  Ni2  1  0.95910800  0.38077200  0.36926900  1
  Ni  Ni3  1  0.95910800  0.88075900  0.86926500  1
  Cu  Cu4  1  0.03216800  0.62073500  0.62850200  1
  Cu  Cu5  1  0.03218600  0.12073900  0.12851300  1
  Cu  Cu6  1  0.46781700  0.62072900  0.12851600  1
  Cu  Cu7  1  0.46781400  0.12074400  0.62851600  1
  C  C8  1  0.50066000  0.24920600  0.24926000  1
  C  C9  1  0.50065300  0.74920600  0.74926300  1
  C  C10  1  0.99934100  0.74920900  0.24925700  1
  C  C11  1  0.99933900  0.24920300  0.74926500  1
  C  C12  1  0.49995600  0.99997800  0.00034100  1
  C  C13  1  0.00004500  0.99997800  0.50033900  1
  C  C14  1  0.49995800  0.49997900  0.50034000  1
  C  C15  1  0.00004000  0.49997900  0.00033500  1
  C  C16  1  0.01754100  0.66955000  0.08477000  1
  C  C17  1  0.01754200  0.16955200  0.58476700  1
  C  C18  1  0.48246500  0.16955300  0.08476600  1
  C  C19  1  0.48246300  0.66954900  0.58476900  1
  C  C20  1  0.21022300  0.58722900  0.36922300  1
  C  C21  1  0.21021900  0.08722800  0.86922100  1
  C  C22  1  0.28977400  0.58723100  0.86922100  1
  C  C23  1  0.28978200  0.08723000  0.36922000  1
  C  C24  1  0.21888800  0.37765700  0.16781100  1
  C  C25  1  0.21888500  0.87765600  0.66780900  1
  C  C26  1  0.28111100  0.37765800  0.66780700  1
  C  C27  1  0.28111300  0.87765700  0.16781100  1
  C  C28  1  0.52110300  0.83396900  0.91239300  1
  C  C29  1  0.52110500  0.33397200  0.41239100  1
  C  C30  1  0.97889700  0.33397000  0.91239100  1
  C  C31  1  0.97889800  0.83397100  0.41238900  1
  C  C32  1  0.71542900  0.40969300  0.13246500  1
  C  C33  1  0.71542500  0.90969500  0.63246400  1
  C  C34  1  0.78457100  0.40969100  0.63246200  1
  C  C35  1  0.78457400  0.90969200  0.13246500  1
  C  C36  1  0.72058200  0.62120500  0.33597000  1
  C  C37  1  0.72057800  0.12120800  0.83596700  1
  C  C38  1  0.77942000  0.62120700  0.83596900  1
  C  C39  1  0.77942500  0.12120700  0.33596800  1
