# generated using pymatgen
data_Cu8Ni4C7
_symmetry_space_group_name_H-M   'P 1'
_cell_length_a   5.41307532
_cell_length_b   7.63418266
_cell_length_c   6.34227649
_cell_angle_alpha   89.38624336
_cell_angle_beta   80.15919196
_cell_angle_gamma   92.90668967
_symmetry_Int_Tables_number   1
_chemical_formula_structural   Cu8Ni4C7
_chemical_formula_sum   'Cu8 Ni4 C7'
_cell_volume   257.85226328
_cell_formula_units_Z   1
loop_
 _symmetry_equiv_pos_site_id
 _symmetry_equiv_pos_as_xyz
  1  'x, y, z'
loop_
 _atom_site_type_symbol
 _atom_site_label
 _atom_site_symmetry_multiplicity
 _atom_site_fract_x
 _atom_site_fract_y
 _atom_site_fract_z
 _atom_site_occupancy
  C  C0  1  0.74666000  0.55284700  0.30248700  1
  C  C1  1  0.55962900  0.99685300  0.53777700  1
  C  C2  1  0.39366800  0.73015700  0.02713900  1
  C  C3  1  0.47816600  0.32424500  0.81540100  1
  C  C4  1  0.95573300  0.69009600  0.71544800  1
  C  C5  1  0.25224400  0.26533400  0.29544100  1
  C  C6  1  0.88480100  0.00644100  0.04030200  1
  Ni  Ni7  1  0.77407900  0.74980400  0.02243200  1
  Ni  Ni8  1  0.71593300  0.78567300  0.53364100  1
  Ni  Ni9  1  0.54853900  0.37998500  0.08755500  1
  Ni  Ni10  1  0.40822900  0.22509200  0.55297100  1
  Cu  Cu11  1  0.79757300  0.44184200  0.64267400  1
  Cu  Cu12  1  0.88973700  0.12328600  0.34468500  1
  Cu  Cu13  1  0.67945300  0.08666000  0.80981800  1
  Cu  Cu14  1  0.26728000  0.55293200  0.80375500  1
  Cu  Cu15  1  0.40321300  0.95737100  0.26444400  1
  Cu  Cu16  1  0.17127800  0.57706600  0.29581000  1
  Cu  Cu17  1  0.14439800  0.21929800  0.98356500  1
  Cu  Cu18  1  0.23493900  0.89334800  0.79965500  1
