# generated using pymatgen
data_Cu3NiC16
_symmetry_space_group_name_H-M   'P 1'
_cell_length_a   7.79154000
_cell_length_b   5.45994500
_cell_length_c   5.61053127
_cell_angle_alpha   89.93809373
_cell_angle_beta   90.00000000
_cell_angle_gamma   90.00000000
_symmetry_Int_Tables_number   1
_chemical_formula_structural   Cu3NiC16
_chemical_formula_sum   'Cu3 Ni1 C16'
_cell_volume   238.67960289
_cell_formula_units_Z   1
loop_
 _symmetry_equiv_pos_site_id
 _symmetry_equiv_pos_as_xyz
  1  'x, y, z'
loop_
 _atom_site_type_symbol
 _atom_site_label
 _atom_site_symmetry_multiplicity
 _atom_site_fract_x
 _atom_site_fract_y
 _atom_site_fract_z
 _atom_site_occupancy
  Ni  Ni0  1  0.50000000  0.48992000  0.54421500  1
  Cu  Cu1  1  0.50000000  0.01467300  0.05421800  1
  Cu  Cu2  1  0.00000000  0.51491400  0.44295700  1
  Cu  Cu3  1  0.00000000  0.98655600  0.94630200  1
  C  C4  1  0.24748300  0.00068500  0.50059700  1
  C  C5  1  0.75184900  0.49916000  0.99832800  1
  C  C6  1  0.75251700  0.00068500  0.50059700  1
  C  C7  1  0.24815100  0.49916000  0.99832800  1
  C  C8  1  0.29747400  0.19896400  0.79906100  1
  C  C9  1  0.70452700  0.29227800  0.29053800  1
  C  C10  1  0.80281600  0.79378900  0.20696500  1
  C  C11  1  0.19608400  0.70407800  0.70518100  1
  C  C12  1  0.19718400  0.79378900  0.20696500  1
  C  C13  1  0.80391600  0.70407800  0.70518100  1
  C  C14  1  0.70252600  0.19896400  0.79906100  1
  C  C15  1  0.29547300  0.29227800  0.29053800  1
  C  C16  1  0.50000000  0.59682500  0.98048800  1
  C  C17  1  0.50000000  0.91766300  0.47064600  1
  C  C18  1  0.00000000  0.40276400  0.02864100  1
  C  C19  1  0.00000000  0.09877700  0.53119300  1
