# generated using pymatgen
data_Cu3Ni5C
_symmetry_space_group_name_H-M   'P 1'
_cell_length_a   3.64652100
_cell_length_b   14.67943867
_cell_length_c   14.67943867
_cell_angle_alpha   120.00000304
_cell_angle_beta   90.00000000
_cell_angle_gamma   90.00000000
_symmetry_Int_Tables_number   1
_chemical_formula_structural   Cu3Ni5C
_chemical_formula_sum   'Cu18 Ni30 C6'
_cell_volume   680.50016567
_cell_formula_units_Z   6
loop_
 _symmetry_equiv_pos_site_id
 _symmetry_equiv_pos_as_xyz
  1  'x, y, z'
loop_
 _atom_site_type_symbol
 _atom_site_label
 _atom_site_symmetry_multiplicity
 _atom_site_fract_x
 _atom_site_fract_y
 _atom_site_fract_z
 _atom_site_occupancy
  C  C0  1  0.75000000  0.70637800  0.10075900  1
  C  C1  1  0.25000000  0.29362200  0.89924100  1
  C  C2  1  0.75000000  0.39438100  0.29362200  1
  C  C3  1  0.25000000  0.60561900  0.70637800  1
  C  C4  1  0.75000000  0.89924100  0.60561900  1
  C  C5  1  0.25000000  0.10075900  0.39438100  1
  Ni  Ni6  1  0.75000000  0.58641900  0.85190600  1
  Ni  Ni7  1  0.25000000  0.41358100  0.14809400  1
  Ni  Ni8  1  0.75000000  0.26548800  0.41358100  1
  Ni  Ni9  1  0.25000000  0.73451200  0.58641900  1
  Ni  Ni10  1  0.75000000  0.14809400  0.73451200  1
  Ni  Ni11  1  0.25000000  0.85190600  0.26548800  1
  Ni  Ni12  1  0.75000000  0.45977100  0.53416900  1
  Ni  Ni13  1  0.25000000  0.54022900  0.46583100  1
  Ni  Ni14  1  0.75000000  0.07439800  0.54022900  1
  Ni  Ni15  1  0.25000000  0.92560200  0.45977100  1
  Ni  Ni16  1  0.75000000  0.46583100  0.92560200  1
  Ni  Ni17  1  0.25000000  0.53416900  0.07439800  1
  Ni  Ni18  1  0.75000000  0.89798900  0.02872900  1
  Ni  Ni19  1  0.25000000  0.10201100  0.97127100  1
  Ni  Ni20  1  0.75000000  0.13074000  0.10201100  1
  Ni  Ni21  1  0.25000000  0.86926000  0.89798900  1
  Ni  Ni22  1  0.75000000  0.97127100  0.86926000  1
  Ni  Ni23  1  0.25000000  0.02872900  0.13074000  1
  Ni  Ni24  1  0.75000000  0.77530800  0.34756000  1
  Ni  Ni25  1  0.25000000  0.22469200  0.65244000  1
  Ni  Ni26  1  0.75000000  0.57225300  0.22469200  1
  Ni  Ni27  1  0.25000000  0.42774700  0.77530800  1
  Ni  Ni28  1  0.75000000  0.65244000  0.42774700  1
  Ni  Ni29  1  0.25000000  0.34756000  0.57225300  1
  Ni  Ni30  1  0.75000000  0.95181400  0.21966200  1
  Ni  Ni31  1  0.25000000  0.04818600  0.78033800  1
  Ni  Ni32  1  0.75000000  0.26784800  0.04818600  1
  Ni  Ni33  1  0.25000000  0.73215200  0.95181400  1
  Ni  Ni34  1  0.75000000  0.78033800  0.73215200  1
  Ni  Ni35  1  0.25000000  0.21966200  0.26784800  1
  Cu  Cu36  1  0.75000000  0.44384900  0.68211400  1
  Cu  Cu37  1  0.25000000  0.55615100  0.31788600  1
  Cu  Cu38  1  0.75000000  0.23826500  0.55615100  1
  Cu  Cu39  1  0.25000000  0.76173500  0.44384900  1
  Cu  Cu40  1  0.75000000  0.31788600  0.76173500  1
  Cu  Cu41  1  0.25000000  0.68211400  0.23826500  1
  Cu  Cu42  1  0.75000000  0.75076900  0.86923900  1
  Cu  Cu43  1  0.25000000  0.24923100  0.13076100  1
  Cu  Cu44  1  0.75000000  0.11847000  0.24923100  1
  Cu  Cu45  1  0.25000000  0.88153000  0.75076900  1
  Cu  Cu46  1  0.75000000  0.13076100  0.88153000  1
  Cu  Cu47  1  0.25000000  0.86923900  0.11847000  1
  Cu  Cu48  1  0.75000000  0.93889800  0.37020100  1
  Cu  Cu49  1  0.25000000  0.06110200  0.62979900  1
  Cu  Cu50  1  0.75000000  0.43130300  0.06110200  1
  Cu  Cu51  1  0.25000000  0.56869700  0.93889800  1
  Cu  Cu52  1  0.75000000  0.62979900  0.56869700  1
  Cu  Cu53  1  0.25000000  0.37020100  0.43130300  1
