# generated using pymatgen
data_Cu3NiC
_symmetry_space_group_name_H-M   'P 1'
_cell_length_a   7.37439920
_cell_length_b   7.37439920
_cell_length_c   14.28133400
_cell_angle_alpha   90.00000000
_cell_angle_beta   90.00000000
_cell_angle_gamma   90.05854303
_symmetry_Int_Tables_number   1
_chemical_formula_structural   Cu3NiC
_chemical_formula_sum   'Cu24 Ni8 C8'
_cell_volume   776.64372321
_cell_formula_units_Z   8
loop_
 _symmetry_equiv_pos_site_id
 _symmetry_equiv_pos_as_xyz
  1  'x, y, z'
loop_
 _atom_site_type_symbol
 _atom_site_label
 _atom_site_symmetry_multiplicity
 _atom_site_fract_x
 _atom_site_fract_y
 _atom_site_fract_z
 _atom_site_occupancy
  C  C0  1  0.05366300  0.94633700  0.13564100  1
  C  C1  1  0.94633700  0.05366300  0.86435900  1
  C  C2  1  0.44633700  0.55366300  0.63564100  1
  C  C3  1  0.55366300  0.44633700  0.36435900  1
  C  C4  1  0.76807200  0.76807200  0.00000000  1
  C  C5  1  0.26807200  0.26807200  0.50000000  1
  C  C6  1  0.23192800  0.23192800  0.00000000  1
  C  C7  1  0.73192800  0.73192800  0.50000000  1
  Ni  Ni8  1  0.24686100  0.75313900  0.91875500  1
  Ni  Ni9  1  0.75313900  0.24686100  0.08124500  1
  Ni  Ni10  1  0.25313900  0.74686100  0.41875500  1
  Ni  Ni11  1  0.74686100  0.25313900  0.58124500  1
  Ni  Ni12  1  0.04144800  0.45855200  0.25000000  1
  Ni  Ni13  1  0.45855200  0.04144800  0.75000000  1
  Ni  Ni14  1  0.95855200  0.54144800  0.75000000  1
  Ni  Ni15  1  0.54144800  0.95855200  0.25000000  1
  Cu  Cu16  1  0.82170100  0.17829900  0.14510200  1
  Cu  Cu17  1  0.17829900  0.82170100  0.85489800  1
  Cu  Cu18  1  0.67829900  0.32170100  0.64510200  1
  Cu  Cu19  1  0.32170100  0.67829900  0.35489800  1
  Cu  Cu20  1  0.08734800  0.91265200  0.23488700  1
  Cu  Cu21  1  0.91265200  0.08734800  0.76511300  1
  Cu  Cu22  1  0.41265200  0.58734800  0.73488700  1
  Cu  Cu23  1  0.58734800  0.41265200  0.26511300  1
  Cu  Cu24  1  0.60234500  0.82123300  0.04974800  1
  Cu  Cu25  1  0.82123300  0.60234500  0.95025200  1
  Cu  Cu26  1  0.32123300  0.10234500  0.54974800  1
  Cu  Cu27  1  0.10234500  0.32123300  0.45025200  1
  Cu  Cu28  1  0.39765500  0.17876700  0.95025200  1
  Cu  Cu29  1  0.17876700  0.39765500  0.04974800  1
  Cu  Cu30  1  0.67876700  0.89765500  0.45025200  1
  Cu  Cu31  1  0.89765500  0.67876700  0.54974800  1
  Cu  Cu32  1  0.94694200  0.81122000  0.07537800  1
  Cu  Cu33  1  0.81122000  0.94694200  0.92462200  1
  Cu  Cu34  1  0.31122000  0.44694200  0.57537800  1
  Cu  Cu35  1  0.44694200  0.31122000  0.42462200  1
  Cu  Cu36  1  0.05305800  0.18878000  0.92462200  1
  Cu  Cu37  1  0.18878000  0.05305800  0.07537800  1
  Cu  Cu38  1  0.68878000  0.55305800  0.42462200  1
  Cu  Cu39  1  0.55305800  0.68878000  0.57537800  1
