# generated using pymatgen
data_CuNiC5
_symmetry_space_group_name_H-M   'P 1'
_cell_length_a   7.60437910
_cell_length_b   7.60437910
_cell_length_c   7.60437910
_cell_angle_alpha   120.61806803
_cell_angle_beta   119.26149908
_cell_angle_gamma   90.10833714
_symmetry_Int_Tables_number   1
_chemical_formula_structural   CuNiC5
_chemical_formula_sum   'Cu2 Ni2 C10'
_cell_volume   311.16778582
_cell_formula_units_Z   2
loop_
 _symmetry_equiv_pos_site_id
 _symmetry_equiv_pos_as_xyz
  1  'x, y, z'
loop_
 _atom_site_type_symbol
 _atom_site_label
 _atom_site_symmetry_multiplicity
 _atom_site_fract_x
 _atom_site_fract_y
 _atom_site_fract_z
 _atom_site_occupancy
  C  C0  1  0.00000000  0.50000000  0.00000000  1
  C  C1  1  0.00000000  0.00000000  0.50000000  1
  Ni  Ni2  1  0.50000000  0.50000000  0.00000000  1
  Ni  Ni3  1  0.00000000  0.50000000  0.50000000  1
  Cu  Cu4  1  0.62640900  0.87640900  0.75000000  1
  Cu  Cu5  1  0.37359100  0.12359100  0.25000000  1
  C  C6  1  0.24138500  0.74053600  0.50084900  1
  C  C7  1  0.73968800  0.74053600  0.99915100  1
  C  C8  1  0.74865800  0.72908300  0.48042400  1
  C  C9  1  0.74865800  0.26823400  0.01957600  1
  C  C10  1  0.75861500  0.25946400  0.49915100  1
  C  C11  1  0.26031200  0.25946400  0.00084900  1
  C  C12  1  0.25134200  0.27091700  0.51957600  1
  C  C13  1  0.25134200  0.73176600  0.98042400  1
