# generated using pymatgen
data_Cu9Ni3C
_symmetry_space_group_name_H-M   'P 1'
_cell_length_a   6.96806500
_cell_length_b   6.65504700
_cell_length_c   8.27471200
_cell_angle_alpha   90.00000000
_cell_angle_beta   90.00000000
_cell_angle_gamma   90.00000000
_symmetry_Int_Tables_number   1
_chemical_formula_structural   Cu9Ni3C
_chemical_formula_sum   'Cu18 Ni6 C2'
_cell_volume   383.72156525
_cell_formula_units_Z   2
loop_
 _symmetry_equiv_pos_site_id
 _symmetry_equiv_pos_as_xyz
  1  'x, y, z'
loop_
 _atom_site_type_symbol
 _atom_site_label
 _atom_site_symmetry_multiplicity
 _atom_site_fract_x
 _atom_site_fract_y
 _atom_site_fract_z
 _atom_site_occupancy
  C  C0  1  0.75000000  0.61483500  0.75000000  1
  C  C1  1  0.25000000  0.38516500  0.25000000  1
  Ni  Ni2  1  0.25000000  0.85971100  0.54458500  1
  Ni  Ni3  1  0.25000000  0.85971100  0.95541500  1
  Ni  Ni4  1  0.75000000  0.14028900  0.45541500  1
  Ni  Ni5  1  0.75000000  0.14028900  0.04458500  1
  Ni  Ni6  1  0.25000000  0.39583800  0.75000000  1
  Ni  Ni7  1  0.75000000  0.60416200  0.25000000  1
  Cu  Cu8  1  0.75000000  0.86888100  0.51488600  1
  Cu  Cu9  1  0.75000000  0.86888100  0.98511400  1
  Cu  Cu10  1  0.25000000  0.13111900  0.48511400  1
  Cu  Cu11  1  0.25000000  0.13111900  0.01488600  1
  Cu  Cu12  1  0.42772400  0.90477300  0.75000000  1
  Cu  Cu13  1  0.07227600  0.90477300  0.75000000  1
  Cu  Cu14  1  0.57227600  0.09522700  0.25000000  1
  Cu  Cu15  1  0.92772400  0.09522700  0.25000000  1
  Cu  Cu16  1  0.07102700  0.52948500  0.89272800  1
  Cu  Cu17  1  0.07102700  0.52948500  0.60727200  1
  Cu  Cu18  1  0.42897300  0.52948500  0.89272800  1
  Cu  Cu19  1  0.42897300  0.52948500  0.60727200  1
  Cu  Cu20  1  0.92897300  0.47051500  0.10727200  1
  Cu  Cu21  1  0.92897300  0.47051500  0.39272800  1
  Cu  Cu22  1  0.57102700  0.47051500  0.10727200  1
  Cu  Cu23  1  0.57102700  0.47051500  0.39272800  1
  Cu  Cu24  1  0.75000000  0.26045500  0.75000000  1
  Cu  Cu25  1  0.25000000  0.73954500  0.25000000  1
