# generated using pymatgen
data_Cu8NiC4
_symmetry_space_group_name_H-M   'P 1'
_cell_length_a   4.42812000
_cell_length_b   4.46833700
_cell_length_c   17.43515700
_cell_angle_alpha   90.00000000
_cell_angle_beta   90.00000000
_cell_angle_gamma   90.00000000
_symmetry_Int_Tables_number   1
_chemical_formula_structural   Cu8NiC4
_chemical_formula_sum   'Cu8 Ni1 C4'
_cell_volume   344.97781248
_cell_formula_units_Z   1
loop_
 _symmetry_equiv_pos_site_id
 _symmetry_equiv_pos_as_xyz
  1  'x, y, z'
loop_
 _atom_site_type_symbol
 _atom_site_label
 _atom_site_symmetry_multiplicity
 _atom_site_fract_x
 _atom_site_fract_y
 _atom_site_fract_z
 _atom_site_occupancy
  C  C0  1  0.25000000  0.00000000  0.09554300  1
  C  C1  1  0.25000000  0.50000000  0.60595400  1
  C  C2  1  0.75000000  0.50000000  0.39582300  1
  C  C3  1  0.75000000  0.00000000  0.89743700  1
  Ni  Ni4  1  0.25000000  0.00000000  0.31870700  1
  Cu  Cu5  1  0.25000000  0.50000000  0.23644700  1
  Cu  Cu6  1  0.25000000  0.00000000  0.74764800  1
  Cu  Cu7  1  0.75000000  0.00000000  0.23626400  1
  Cu  Cu8  1  0.75000000  0.50000000  0.75532300  1
  Cu  Cu9  1  0.25000000  0.00000000  0.46333100  1
  Cu  Cu10  1  0.25000000  0.50000000  0.93666300  1
  Cu  Cu11  1  0.75000000  0.50000000  0.05333600  1
  Cu  Cu12  1  0.75000000  0.00000000  0.57452300  1
