# generated using pymatgen
data_Cu2NiC12
_symmetry_space_group_name_H-M   'P 1'
_cell_length_a   11.22117200
_cell_length_b   6.63295100
_cell_length_c   12.86464861
_cell_angle_alpha   78.23463544
_cell_angle_beta   90.00000000
_cell_angle_gamma   90.00000000
_symmetry_Int_Tables_number   1
_chemical_formula_structural   Cu2NiC12
_chemical_formula_sum   'Cu8 Ni4 C48'
_cell_volume   937.39268418
_cell_formula_units_Z   4
loop_
 _symmetry_equiv_pos_site_id
 _symmetry_equiv_pos_as_xyz
  1  'x, y, z'
loop_
 _atom_site_type_symbol
 _atom_site_label
 _atom_site_symmetry_multiplicity
 _atom_site_fract_x
 _atom_site_fract_y
 _atom_site_fract_z
 _atom_site_occupancy
  C  C0  1  0.84111900  0.19790300  0.58986700  1
  C  C1  1  0.34111900  0.80209700  0.91013300  1
  C  C2  1  0.15888100  0.80209700  0.41013300  1
  C  C3  1  0.65888100  0.19790300  0.08986700  1
  C  C4  1  0.70218500  0.74368800  0.53343600  1
  C  C5  1  0.20218500  0.25631200  0.96656400  1
  C  C6  1  0.29781500  0.25631200  0.46656400  1
  C  C7  1  0.79781500  0.74368800  0.03343600  1
  Ni  Ni8  1  0.97643800  0.67898800  0.66472100  1
  Ni  Ni9  1  0.47643800  0.32101200  0.83527900  1
  Ni  Ni10  1  0.02356200  0.32101200  0.33527900  1
  Ni  Ni11  1  0.52356200  0.67898800  0.16472100  1
  Cu  Cu12  1  0.60641600  0.29233500  0.45514000  1
  Cu  Cu13  1  0.10641600  0.70766500  0.04486000  1
  Cu  Cu14  1  0.39358400  0.70766500  0.54486000  1
  Cu  Cu15  1  0.89358400  0.29233500  0.95514000  1
  Cu  Cu16  1  0.65083300  0.86885700  0.78060500  1
  Cu  Cu17  1  0.15083300  0.13114300  0.71939500  1
  Cu  Cu18  1  0.34916700  0.13114300  0.21939500  1
  Cu  Cu19  1  0.84916700  0.86885700  0.28060500  1
  C  C20  1  0.85726200  0.86640300  0.59333000  1
  C  C21  1  0.35726200  0.13359700  0.90667000  1
  C  C22  1  0.14273800  0.13359700  0.40667000  1
  C  C23  1  0.64273800  0.86640300  0.09333000  1
  C  C24  1  0.08026800  0.69879400  0.55014500  1
  C  C25  1  0.58026800  0.30120600  0.94985500  1
  C  C26  1  0.91973200  0.30120600  0.44985500  1
  C  C27  1  0.41973200  0.69879400  0.05014500  1
  C  C28  1  0.87945700  0.45610800  0.64674700  1
  C  C29  1  0.37945700  0.54389200  0.85325300  1
  C  C30  1  0.12054300  0.54389200  0.35325300  1
  C  C31  1  0.62054300  0.45610800  0.14674700  1
  C  C32  1  0.68544800  0.42084000  0.53956200  1
  C  C33  1  0.18544800  0.57916000  0.96043800  1
  C  C34  1  0.31455200  0.57916000  0.46043800  1
  C  C35  1  0.81455200  0.42084000  0.03956200  1
  C  C36  1  0.69145400  0.07196600  0.49803300  1
  C  C37  1  0.19145400  0.92803400  0.00196700  1
  C  C38  1  0.30854600  0.92803400  0.50196700  1
  C  C39  1  0.80854600  0.07196600  0.99803300  1
  C  C40  1  0.47538300  0.24100100  0.52196700  1
  C  C41  1  0.97538300  0.75899900  0.97803300  1
  C  C42  1  0.52461700  0.75899900  0.47803300  1
  C  C43  1  0.02461700  0.24100100  0.02196700  1
  C  C44  1  0.62864500  0.71727300  0.69179300  1
  C  C45  1  0.12864500  0.28272700  0.80820700  1
  C  C46  1  0.37135500  0.28272700  0.30820700  1
  C  C47  1  0.87135500  0.71727300  0.19179300  1
  C  C48  1  0.72198600  0.08753900  0.73059100  1
  C  C49  1  0.22198600  0.91246100  0.76940900  1
  C  C50  1  0.27801400  0.91246100  0.26940900  1
  C  C51  1  0.77801400  0.08753900  0.23059100  1
  C  C52  1  0.73016300  0.72985400  0.87978100  1
  C  C53  1  0.23016300  0.27014600  0.62021900  1
  C  C54  1  0.26983700  0.27014600  0.12021900  1
  C  C55  1  0.76983700  0.72985400  0.37978100  1
  C  C56  1  0.51740400  0.92918400  0.82361000  1
  C  C57  1  0.01740400  0.07081600  0.67639000  1
  C  C58  1  0.48259600  0.07081600  0.17639000  1
  C  C59  1  0.98259600  0.92918400  0.32361000  1
