# generated using pymatgen
data_Cu2Ni2C5
_symmetry_space_group_name_H-M   'P 1'
_cell_length_a   8.21140476
_cell_length_b   8.21140476
_cell_length_c   5.47208302
_cell_angle_alpha   75.78771026
_cell_angle_beta   75.78771026
_cell_angle_gamma   46.54433042
_symmetry_Int_Tables_number   1
_chemical_formula_structural   Cu2Ni2C5
_chemical_formula_sum   'Cu4 Ni4 C10'
_cell_volume   258.09300831
_cell_formula_units_Z   2
loop_
 _symmetry_equiv_pos_site_id
 _symmetry_equiv_pos_as_xyz
  1  'x, y, z'
loop_
 _atom_site_type_symbol
 _atom_site_label
 _atom_site_symmetry_multiplicity
 _atom_site_fract_x
 _atom_site_fract_y
 _atom_site_fract_z
 _atom_site_occupancy
  C  C0  1  0.68851600  0.85032700  0.98216800  1
  C  C1  1  0.14967300  0.31148400  0.01783200  1
  Ni  Ni2  1  0.66255100  0.51962300  0.24122300  1
  Ni  Ni3  1  0.48037700  0.33744900  0.75877700  1
  Ni  Ni4  1  0.68426800  0.52291900  0.94639200  1
  Ni  Ni5  1  0.47708100  0.31573200  0.05360800  1
  Cu  Cu6  1  0.02548000  0.02265400  0.65446700  1
  Cu  Cu7  1  0.97734600  0.97452000  0.34553300  1
  Cu  Cu8  1  0.36484300  0.90337700  0.58210400  1
  Cu  Cu9  1  0.09662300  0.63515700  0.41789600  1
  C  C10  1  0.52777600  0.65536500  0.61415100  1
  C  C11  1  0.34463500  0.47222400  0.38584900  1
  C  C12  1  0.35871500  0.99950000  0.78143200  1
  C  C13  1  0.00050000  0.64128500  0.21856800  1
  C  C14  1  0.38312300  0.99964300  0.32376100  1
  C  C15  1  0.00035700  0.61687700  0.67623900  1
  C  C16  1  0.75886900  0.49967600  0.08291200  1
  C  C17  1  0.50032400  0.24113100  0.91708800  1
