# generated using pymatgen
data_Cu4Ni5C27
_symmetry_space_group_name_H-M   'P 1'
_cell_length_a   11.08334864
_cell_length_b   6.50521076
_cell_length_c   8.55810462
_cell_angle_alpha   92.09298545
_cell_angle_beta   68.65902587
_cell_angle_gamma   56.71502672
_symmetry_Int_Tables_number   1
_chemical_formula_structural   Cu4Ni5C27
_chemical_formula_sum   'Cu4 Ni5 C27'
_cell_volume   457.79559538
_cell_formula_units_Z   1
loop_
 _symmetry_equiv_pos_site_id
 _symmetry_equiv_pos_as_xyz
  1  'x, y, z'
loop_
 _atom_site_type_symbol
 _atom_site_label
 _atom_site_symmetry_multiplicity
 _atom_site_fract_x
 _atom_site_fract_y
 _atom_site_fract_z
 _atom_site_occupancy
  C  C0  1  0.99756995  0.50406526  0.48685192  1
  C  C1  1  0.52207091  0.36129232  0.50504022  1
  C  C2  1  0.38281665  0.94722346  0.55815721  1
  C  C3  1  0.24000894  0.99831699  0.00203332  1
  C  C4  1  0.24592491  0.49265641  0.00658107  1
  C  C5  1  0.78306178  0.97987747  0.96744631  1
  C  C6  1  0.76306539  0.49088909  0.02358913  1
  Ni  Ni7  1  0.05393764  0.43955091  0.97296138  1
  Ni  Ni8  1  0.30618969  0.70208753  0.17708330  1
  Ni  Ni9  1  0.53748773  0.45884100  0.97938635  1
  Ni  Ni10  1  0.70978311  0.32602015  0.80437213  1
  Ni  Ni11  1  0.82579938  0.73072377  0.16304514  1
  Cu  Cu12  1  0.43270254  0.07904597  0.25751284  1
  Cu  Cu13  1  0.09063910  0.94081588  0.73500048  1
  Cu  Cu14  1  0.92738178  0.06767825  0.27225713  1
  Cu  Cu15  1  0.56317380  0.90406262  0.72118666  1
  C  C16  1  0.03700096  0.14851606  0.22423381  1
  C  C17  1  0.02735578  0.77616037  0.21803314  1
  C  C18  1  0.33061374  0.13619988  0.17073039  1
  C  C19  1  0.32481826  0.23129932  0.45277214  1
  C  C20  1  0.17326696  0.31544887  0.93552160  1
  C  C21  1  0.34801656  0.64821716  0.04937797  1
  C  C22  1  0.23085885  0.86267147  0.55798749  1
  C  C23  1  0.54267190  0.14985688  0.18401740  1
  C  C24  1  0.16399804  0.82504369  0.85135887  1
  C  C25  1  0.47971124  0.17956041  0.80941249  1
  C  C26  1  0.52420059  0.79847717  0.25871426  1
  C  C27  1  0.82162319  0.17289939  0.18238359  1
  C  C28  1  0.43990283  0.84228038  0.76218505  1
  C  C29  1  0.82811035  0.16766046  0.46466580  1
  C  C30  1  0.66417639  0.34232694  0.93022254  1
  C  C31  1  0.85376021  0.67051838  0.04022476  1
  C  C32  1  0.62100899  0.86186981  0.52666125  1
  C  C33  1  0.68881348  0.73189557  0.77011034  1
  C  C34  1  0.98219680  0.22874465  0.79675056  1
  C  C35  1  0.99908058  0.84658106  0.71728793  1
