# generated using pymatgen
data_Cu3Ni2C19
_symmetry_space_group_name_H-M   'P 1'
_cell_length_a   6.10161432
_cell_length_b   6.10161432
_cell_length_c   8.93898348
_cell_angle_alpha   89.58298452
_cell_angle_beta   89.58298452
_cell_angle_gamma   60.24815168
_symmetry_Int_Tables_number   1
_chemical_formula_structural   Cu3Ni2C19
_chemical_formula_sum   'Cu3 Ni2 C19'
_cell_volume   288.91723142
_cell_formula_units_Z   1
loop_
 _symmetry_equiv_pos_site_id
 _symmetry_equiv_pos_as_xyz
  1  'x, y, z'
loop_
 _atom_site_type_symbol
 _atom_site_label
 _atom_site_symmetry_multiplicity
 _atom_site_fract_x
 _atom_site_fract_y
 _atom_site_fract_z
 _atom_site_occupancy
  Ni  Ni0  1  0.34173900  0.34173900  0.52182000  1
  Ni  Ni1  1  0.67296900  0.67296900  0.00472900  1
  Cu  Cu2  1  0.66009200  0.16723100  0.79210000  1
  Cu  Cu3  1  0.16723100  0.66009200  0.79210000  1
  Cu  Cu4  1  0.82957400  0.82957400  0.28895300  1
  C  C5  1  0.16566100  0.16566100  0.79491000  1
  C  C6  1  0.82993800  0.33301500  0.28990100  1
  C  C7  1  0.33301500  0.82993800  0.28990100  1
  C  C8  1  0.66400700  0.17045000  0.39813600  1
  C  C9  1  0.47496200  0.47496200  0.65890000  1
  C  C10  1  0.32932000  0.32932000  0.90316800  1
  C  C11  1  0.00162000  0.00162000  0.68950200  1
  C  C12  1  0.99977100  0.99977100  0.17890300  1
  C  C13  1  0.17045000  0.66400700  0.39813600  1
  C  C14  1  0.47392000  0.05379100  0.65269300  1
  C  C15  1  0.05379100  0.47392000  0.65269300  1
  C  C16  1  0.82991600  0.82991600  0.90348600  1
  C  C17  1  0.16848700  0.16848700  0.39677500  1
  C  C18  1  0.94860800  0.52377700  0.15736500  1
  C  C19  1  0.52377700  0.94860800  0.15736500  1
  C  C20  1  0.66367200  0.66367200  0.40735600  1
  C  C21  1  0.82831400  0.34711100  0.90113600  1
  C  C22  1  0.52211300  0.52211300  0.15310800  1
  C  C23  1  0.34711100  0.82831400  0.90113600  1
