# generated using pymatgen
data_CuNi11C2
_symmetry_space_group_name_H-M   'P 1'
_cell_length_a   4.78380200
_cell_length_b   6.51599255
_cell_length_c   6.51599255
_cell_angle_alpha   97.53944085
_cell_angle_beta   111.53574448
_cell_angle_gamma   68.46425552
_symmetry_Int_Tables_number   1
_chemical_formula_structural   CuNi11C2
_chemical_formula_sum   'Cu1 Ni11 C2'
_cell_volume   175.74091222
_cell_formula_units_Z   1
loop_
 _symmetry_equiv_pos_site_id
 _symmetry_equiv_pos_as_xyz
  1  'x, y, z'
loop_
 _atom_site_type_symbol
 _atom_site_label
 _atom_site_symmetry_multiplicity
 _atom_site_fract_x
 _atom_site_fract_y
 _atom_site_fract_z
 _atom_site_occupancy
  C  C0  1  0.00527800  0.99472200  0.00527800  1
  Ni  Ni1  1  0.72525100  0.77474900  0.22525100  1
  Ni  Ni2  1  0.27716400  0.22283600  0.77716400  1
  Ni  Ni3  1  0.49625100  0.78098700  0.77349000  1
  Ni  Ni4  1  0.49625100  0.22651000  0.21901300  1
  Ni  Ni5  1  0.50006800  0.99708800  0.49837900  1
  Ni  Ni6  1  0.00122300  0.99708800  0.49837900  1
  Ni  Ni7  1  0.50006800  0.50162100  0.00291200  1
  Ni  Ni8  1  0.00122300  0.50162100  0.00291200  1
  Ni  Ni9  1  0.35976500  0.64023500  0.35976500  1
  Ni  Ni10  1  0.99947400  0.36061400  0.35956200  1
  Ni  Ni11  1  0.99947400  0.64043800  0.63938600  1
  Cu  Cu12  1  0.63765000  0.36235000  0.63765000  1
  C  C13  1  0.50085900  0.99914100  0.00085900  1
