# generated using pymatgen
data_CuNi2C5
_symmetry_space_group_name_H-M   'P 1'
_cell_length_a   7.37203100
_cell_length_b   7.95443600
_cell_length_c   11.65625200
_cell_angle_alpha   90.00000000
_cell_angle_beta   90.00000000
_cell_angle_gamma   90.00000000
_symmetry_Int_Tables_number   1
_chemical_formula_structural   CuNi2C5
_chemical_formula_sum   'Cu4 Ni8 C20'
_cell_volume   683.52668274
_cell_formula_units_Z   4
loop_
 _symmetry_equiv_pos_site_id
 _symmetry_equiv_pos_as_xyz
  1  'x, y, z'
loop_
 _atom_site_type_symbol
 _atom_site_label
 _atom_site_symmetry_multiplicity
 _atom_site_fract_x
 _atom_site_fract_y
 _atom_site_fract_z
 _atom_site_occupancy
  Ni  Ni0  1  0.52903500  0.49892200  0.32256100  1
  Ni  Ni1  1  0.97096500  0.00107800  0.82256100  1
  Ni  Ni2  1  0.47096500  0.99892200  0.67743900  1
  Ni  Ni3  1  0.02903500  0.50107800  0.17743900  1
  Ni  Ni4  1  0.47096500  0.50107800  0.67743900  1
  Ni  Ni5  1  0.02903500  0.99892200  0.17743900  1
  Ni  Ni6  1  0.52903500  0.00107800  0.32256100  1
  Ni  Ni7  1  0.97096500  0.49892200  0.82256100  1
  Cu  Cu8  1  0.07846000  0.75000000  0.49330700  1
  Cu  Cu9  1  0.42154000  0.75000000  0.99330700  1
  Cu  Cu10  1  0.92154000  0.25000000  0.50669300  1
  Cu  Cu11  1  0.57846000  0.25000000  0.00669300  1
  C  C12  1  0.83699400  0.96262200  0.58816500  1
  C  C13  1  0.66300600  0.53737800  0.08816500  1
  C  C14  1  0.16300600  0.46262200  0.41183500  1
  C  C15  1  0.33699400  0.03737800  0.91183500  1
  C  C16  1  0.16300600  0.03737800  0.41183500  1
  C  C17  1  0.33699400  0.46262200  0.91183500  1
  C  C18  1  0.83699400  0.53737800  0.58816500  1
  C  C19  1  0.66300600  0.96262200  0.08816500  1
  C  C20  1  0.83890000  0.75000000  0.31677900  1
  C  C21  1  0.66110000  0.75000000  0.81677900  1
  C  C22  1  0.16110000  0.25000000  0.68322100  1
  C  C23  1  0.33890000  0.25000000  0.18322100  1
  C  C24  1  0.44738300  0.75000000  0.49599200  1
  C  C25  1  0.05261700  0.75000000  0.99599200  1
  C  C26  1  0.55261700  0.25000000  0.50400800  1
  C  C27  1  0.94738300  0.25000000  0.00400800  1
  C  C28  1  0.18627800  0.75000000  0.70760500  1
  C  C29  1  0.31372200  0.75000000  0.20760500  1
  C  C30  1  0.81372200  0.25000000  0.29239500  1
  C  C31  1  0.68627800  0.25000000  0.79239500  1
