# generated using pymatgen
data_CuNi13C6
_symmetry_space_group_name_H-M   'P 1'
_cell_length_a   8.03791200
_cell_length_b   8.03791200
_cell_length_c   12.84279935
_cell_angle_alpha   108.23617111
_cell_angle_beta   108.23617111
_cell_angle_gamma   90.00000000
_symmetry_Int_Tables_number   1
_chemical_formula_structural   CuNi13C6
_chemical_formula_sum   'Cu2 Ni26 C12'
_cell_volume   744.06877155
_cell_formula_units_Z   2
loop_
 _symmetry_equiv_pos_site_id
 _symmetry_equiv_pos_as_xyz
  1  'x, y, z'
loop_
 _atom_site_type_symbol
 _atom_site_label
 _atom_site_symmetry_multiplicity
 _atom_site_fract_x
 _atom_site_fract_y
 _atom_site_fract_z
 _atom_site_occupancy
  C  C0  1  0.97660300  0.47660300  0.62544700  1
  C  C1  1  0.64884400  0.14884400  0.62544700  1
  C  C2  1  0.14884400  0.97660300  0.62544700  1
  C  C3  1  0.47660300  0.64884400  0.62544700  1
  C  C4  1  0.02339700  0.52339700  0.37455300  1
  C  C5  1  0.35115600  0.85115600  0.37455300  1
  C  C6  1  0.85115600  0.02339700  0.37455300  1
  C  C7  1  0.52339700  0.35115600  0.37455300  1
  C  C8  1  0.60717400  0.60717400  0.21434800  1
  C  C9  1  0.10717400  0.10717400  0.21434800  1
  C  C10  1  0.39282600  0.39282600  0.78565200  1
  C  C11  1  0.89282600  0.89282600  0.78565200  1
  Ni  Ni12  1  0.11893800  0.61893800  0.88084100  1
  Ni  Ni13  1  0.76190300  0.26190300  0.88084100  1
  Ni  Ni14  1  0.26190300  0.11893800  0.88084100  1
  Ni  Ni15  1  0.61893800  0.76190300  0.88084100  1
  Ni  Ni16  1  0.88106200  0.38106200  0.11915900  1
  Ni  Ni17  1  0.23809700  0.73809700  0.11915900  1
  Ni  Ni18  1  0.73809700  0.88106200  0.11915900  1
  Ni  Ni19  1  0.38106200  0.23809700  0.11915900  1
  Ni  Ni20  1  0.70980600  0.56671700  0.00000000  1
  Ni  Ni21  1  0.29019400  0.43328300  0.00000000  1
  Ni  Ni22  1  0.79019400  0.06671700  0.00000000  1
  Ni  Ni23  1  0.20980600  0.93328300  0.00000000  1
  Ni  Ni24  1  0.56671700  0.29019400  0.00000000  1
  Ni  Ni25  1  0.43328300  0.70980600  0.00000000  1
  Ni  Ni26  1  0.06671700  0.20980600  0.00000000  1
  Ni  Ni27  1  0.93328300  0.79019400  0.00000000  1
  Ni  Ni28  1  0.29030700  0.79030700  0.80827000  1
  Ni  Ni29  1  0.51796300  0.01796300  0.80827000  1
  Ni  Ni30  1  0.01796300  0.29030700  0.80827000  1
  Ni  Ni31  1  0.79030700  0.51796300  0.80827000  1
  Ni  Ni32  1  0.70969300  0.20969300  0.19173000  1
  Ni  Ni33  1  0.48203700  0.98203700  0.19173000  1
  Ni  Ni34  1  0.98203700  0.70969300  0.19173000  1
  Ni  Ni35  1  0.20969300  0.48203700  0.19173000  1
  Ni  Ni36  1  0.00000000  0.50000000  0.00000000  1
  Ni  Ni37  1  0.50000000  0.00000000  0.00000000  1
  Cu  Cu38  1  0.25000000  0.25000000  0.50000000  1
  Cu  Cu39  1  0.75000000  0.75000000  0.50000000  1
