# generated using pymatgen
data_CuNiC18
_symmetry_space_group_name_H-M   'P 1'
_cell_length_a   10.98632841
_cell_length_b   10.98632841
_cell_length_c   10.98632841
_cell_angle_alpha   109.13181106
_cell_angle_beta   109.13181106
_cell_angle_gamma   110.15219343
_symmetry_Int_Tables_number   1
_chemical_formula_structural   CuNiC18
_chemical_formula_sum   'Cu4 Ni4 C72'
_cell_volume   1020.68037409
_cell_formula_units_Z   4
loop_
 _symmetry_equiv_pos_site_id
 _symmetry_equiv_pos_as_xyz
  1  'x, y, z'
loop_
 _atom_site_type_symbol
 _atom_site_label
 _atom_site_symmetry_multiplicity
 _atom_site_fract_x
 _atom_site_fract_y
 _atom_site_fract_z
 _atom_site_occupancy
  C  C0  1  0.49985600  0.37500000  0.62485600  1
  C  C1  1  0.75014400  0.87500000  0.37514400  1
  C  C2  1  0.62500000  0.75100800  0.62600800  1
  C  C3  1  0.12500000  0.99899200  0.37399200  1
  C  C4  1  0.49892900  0.99892900  0.50000000  1
  C  C5  1  0.75107100  0.75107100  0.00000000  1
  C  C6  1  0.24899200  0.87500000  0.87399200  1
  C  C7  1  0.00100800  0.37500000  0.12600800  1
  C  C8  1  0.12500000  0.50014400  0.87514400  1
  C  C9  1  0.62500000  0.24985600  0.12485600  1
  C  C10  1  0.24892900  0.24892900  0.00000000  1
  C  C11  1  0.00107100  0.50107100  0.50000000  1
  C  C12  1  0.87700100  0.62729000  0.75173300  1
  C  C13  1  0.37444300  0.12271000  0.74971100  1
  C  C14  1  0.37299900  0.62473200  0.25028900  1
  C  C15  1  0.87555700  0.12526800  0.24826700  1
  C  C16  1  0.37526800  0.62555700  0.74826700  1
  C  C17  1  0.87473200  0.12299900  0.75028900  1
  C  C18  1  0.37271000  0.12444300  0.24971100  1
  C  C19  1  0.87729000  0.62700100  0.25173300  1
  Ni  Ni20  1  0.99954500  0.87500000  0.62454500  1
  Ni  Ni21  1  0.25045500  0.37500000  0.37545500  1
  Ni  Ni22  1  0.12500000  0.74954500  0.12454500  1
  Ni  Ni23  1  0.62500000  0.00045500  0.87545500  1
  C  C24  1  0.75079100  0.37500000  0.87579100  1
  C  C25  1  0.49920900  0.87500000  0.12420900  1
  C  C26  1  0.62500000  0.50079100  0.37579100  1
  C  C27  1  0.12500000  0.24920900  0.62420900  1
  Cu  Cu28  1  0.50000000  0.50000000  0.00000000  1
  Cu  Cu29  1  0.75000000  0.25000000  0.50000000  1
  Cu  Cu30  1  0.25000000  0.75000000  0.50000000  1
  Cu  Cu31  1  0.00000000  0.00000000  0.00000000  1
  C  C32  1  0.74915300  0.53129700  0.83677600  1
  C  C33  1  0.55547900  0.21870300  0.71785600  1
  C  C34  1  0.50084700  0.83762400  0.28214400  1
  C  C35  1  0.69452100  0.91237600  0.16322400  1
  C  C36  1  0.58130500  0.65388600  0.37740300  1
  C  C37  1  0.66869500  0.54609800  0.57258100  1
  C  C38  1  0.27648300  0.20390200  0.62259700  1
  C  C39  1  0.97351700  0.09611400  0.42741900  1
  C  C40  1  0.28490200  0.92224500  0.54484400  1
  C  C41  1  0.37740100  0.74005800  0.45515600  1
  C  C42  1  0.87259900  0.82775500  0.86265700  1
  C  C43  1  0.96509800  0.00994200  0.13734300  1
  C  C44  1  0.99661700  0.72750500  0.66343700  1
  C  C45  1  0.18593200  0.02249500  0.76911300  1
  C  C46  1  0.25338300  0.41682000  0.23088700  1
  C  C47  1  0.06406800  0.33318000  0.33656300  1
  C  C48  1  0.17097900  0.60886200  0.12876200  1
  C  C49  1  0.07902100  0.70778300  0.93788400  1
  C  C50  1  0.48010100  0.04221700  0.87123800  1
  C  C51  1  0.76989900  0.14113800  0.06211600  1
  C  C52  1  0.46342000  0.32606700  0.95187900  1
  C  C53  1  0.37418800  0.51154200  0.04812100  1
  C  C54  1  0.87581200  0.42393300  0.63735400  1
  C  C55  1  0.78658000  0.23845800  0.36264600  1
  C  C56  1  0.16237600  0.44452100  0.66322400  1
  C  C57  1  0.08762400  0.25084700  0.78214400  1
  C  C58  1  0.46870300  0.30547900  0.21785600  1
  C  C59  1  0.78129700  0.49915300  0.33677600  1
  C  C60  1  0.45390200  0.02648300  0.12259700  1
  C  C61  1  0.34611400  0.72351700  0.92741900  1
  C  C62  1  0.90388600  0.33130500  0.87740300  1
  C  C63  1  0.79609800  0.41869500  0.07258100  1
  C  C64  1  0.99005800  0.12740100  0.95515600  1
  C  C65  1  0.17224500  0.03490200  0.04484400  1
  C  C66  1  0.25994200  0.71509800  0.63734300  1
  C  C67  1  0.07775500  0.62259900  0.36265700  1
  C  C68  1  0.58318000  0.81406800  0.83656300  1
  C  C69  1  0.66682000  0.00338300  0.73088700  1
  C  C70  1  0.27249500  0.93593200  0.26911300  1
  C  C71  1  0.97750500  0.74661700  0.16343700  1
  C  C72  1  0.29221700  0.23010100  0.37123800  1
  C  C73  1  0.39113800  0.51989900  0.56211600  1
  C  C74  1  0.85886200  0.92097900  0.62876200  1
  C  C75  1  0.95778300  0.82902100  0.43788400  1
  C  C76  1  0.76154200  0.12418800  0.54812100  1
  C  C77  1  0.57606700  0.21342000  0.45187900  1
  C  C78  1  0.48845800  0.53658000  0.86264600  1
  C  C79  1  0.67393300  0.62581200  0.13735400  1
