# generated using pymatgen
data_Cu2NiC5
_symmetry_space_group_name_H-M   'P 1'
_cell_length_a   8.39191100
_cell_length_b   8.96058400
_cell_length_c   12.99163500
_cell_angle_alpha   90.00000000
_cell_angle_beta   90.00000000
_cell_angle_gamma   90.00000000
_symmetry_Int_Tables_number   1
_chemical_formula_structural   Cu2NiC5
_chemical_formula_sum   'Cu8 Ni4 C20'
_cell_volume   976.92448659
_cell_formula_units_Z   4
loop_
 _symmetry_equiv_pos_site_id
 _symmetry_equiv_pos_as_xyz
  1  'x, y, z'
loop_
 _atom_site_type_symbol
 _atom_site_label
 _atom_site_symmetry_multiplicity
 _atom_site_fract_x
 _atom_site_fract_y
 _atom_site_fract_z
 _atom_site_occupancy
  C  C0  1  0.83143000  0.75000000  0.79702100  1
  C  C1  1  0.16857000  0.25000000  0.20297900  1
  C  C2  1  0.33143000  0.25000000  0.70297900  1
  C  C3  1  0.66857000  0.75000000  0.29702100  1
  C  C4  1  0.35192900  0.75000000  0.68782500  1
  C  C5  1  0.64807100  0.25000000  0.31217500  1
  C  C6  1  0.85192900  0.25000000  0.81217500  1
  C  C7  1  0.14807100  0.75000000  0.18782500  1
  C  C8  1  0.95380000  0.75000000  0.50221200  1
  C  C9  1  0.04620000  0.25000000  0.49778800  1
  C  C10  1  0.45380000  0.25000000  0.99778800  1
  C  C11  1  0.54620000  0.75000000  0.00221200  1
  C  C12  1  0.67104200  0.03241800  0.57331700  1
  C  C13  1  0.32895800  0.96758200  0.42668300  1
  C  C14  1  0.17104200  0.96758200  0.92668300  1
  C  C15  1  0.32895800  0.53241800  0.42668300  1
  C  C16  1  0.82895800  0.03241800  0.07331700  1
  C  C17  1  0.67104200  0.46758200  0.57331700  1
  C  C18  1  0.82895800  0.46758200  0.07331700  1
  C  C19  1  0.17104200  0.53241800  0.92668300  1
  Ni  Ni20  1  0.57019200  0.75000000  0.50717300  1
  Ni  Ni21  1  0.42980800  0.25000000  0.49282700  1
  Ni  Ni22  1  0.07019200  0.25000000  0.99282700  1
  Ni  Ni23  1  0.92980800  0.75000000  0.00717300  1
  Cu  Cu24  1  0.54907200  0.49714100  0.82271900  1
  Cu  Cu25  1  0.45092800  0.50285900  0.17728100  1
  Cu  Cu26  1  0.04907200  0.50285900  0.67728100  1
  Cu  Cu27  1  0.45092800  0.99714100  0.17728100  1
  Cu  Cu28  1  0.95092800  0.49714100  0.32271900  1
  Cu  Cu29  1  0.54907200  0.00285900  0.82271900  1
  Cu  Cu30  1  0.95092800  0.00285900  0.32271900  1
  Cu  Cu31  1  0.04907200  0.99714100  0.67728100  1
