# generated using pymatgen
data_CuNiC14
_symmetry_space_group_name_H-M   'P 1'
_cell_length_a   6.29077356
_cell_length_b   6.34943224
_cell_length_c   10.37999841
_cell_angle_alpha   90.00000000
_cell_angle_beta   90.00000000
_cell_angle_gamma   120.30894155
_symmetry_Int_Tables_number   1
_chemical_formula_structural   CuNiC14
_chemical_formula_sum   'Cu1 Ni1 C14'
_cell_volume   357.93686249
_cell_formula_units_Z   1
loop_
 _symmetry_equiv_pos_site_id
 _symmetry_equiv_pos_as_xyz
  1  'x, y, z'
loop_
 _atom_site_type_symbol
 _atom_site_label
 _atom_site_symmetry_multiplicity
 _atom_site_fract_x
 _atom_site_fract_y
 _atom_site_fract_z
 _atom_site_occupancy
  C  C0  1  0.16762457  0.33381179  0.62500000  1
  C  C1  1  0.16817061  0.83408481  0.62500000  1
  C  C2  1  0.66772621  0.33352778  0.12500000  1
  C  C3  1  0.66558754  0.33239978  0.62500000  1
  C  C4  1  0.66772621  0.83419743  0.12500000  1
  C  C5  1  0.66558754  0.83318676  0.62500000  1
  C  C6  1  0.33080472  0.16698077  0.37188597  1
  C  C7  1  0.33080472  0.16698077  0.87811403  1
  C  C8  1  0.33080472  0.66382495  0.37188597  1
  C  C9  1  0.33080472  0.66382495  0.87811403  1
  C  C10  1  0.83668732  0.16834416  0.37388741  1
  C  C11  1  0.83668732  0.16834416  0.87611259  1
  C  C12  1  0.83446748  0.66723424  0.37562841  1
  C  C13  1  0.83446748  0.66723424  0.87437159  1
  Ni  Ni14  1  0.16545841  0.33272871  0.12500000  1
  Cu  Cu15  1  0.16659043  0.83329472  0.12500000  1
