# generated using pymatgen
data_CuNiC2
_symmetry_space_group_name_H-M   'P 1'
_cell_length_a   4.00231500
_cell_length_b   4.00231500
_cell_length_c   9.02114200
_cell_angle_alpha   90.00000000
_cell_angle_beta   90.00000000
_cell_angle_gamma   90.00000000
_symmetry_Int_Tables_number   1
_chemical_formula_structural   CuNiC2
_chemical_formula_sum   'Cu2 Ni2 C4'
_cell_volume   144.50539190
_cell_formula_units_Z   2
loop_
 _symmetry_equiv_pos_site_id
 _symmetry_equiv_pos_as_xyz
  1  'x, y, z'
loop_
 _atom_site_type_symbol
 _atom_site_label
 _atom_site_symmetry_multiplicity
 _atom_site_fract_x
 _atom_site_fract_y
 _atom_site_fract_z
 _atom_site_occupancy
  C  C0  1  0.00000000  0.50000000  0.87419800  1
  C  C1  1  0.50000000  0.00000000  0.12580200  1
  Ni  Ni2  1  0.00000000  0.00000000  0.50000000  1
  Ni  Ni3  1  0.50000000  0.50000000  0.50000000  1
  Cu  Cu4  1  0.00000000  0.50000000  0.32166700  1
  Cu  Cu5  1  0.50000000  0.00000000  0.67833300  1
  C  C6  1  0.00000000  0.00000000  0.00000000  1
  C  C7  1  0.50000000  0.50000000  0.00000000  1
