# generated using pymatgen
data_CuNiC4
_symmetry_space_group_name_H-M   'P 1'
_cell_length_a   5.83841800
_cell_length_b   5.83841800
_cell_length_c   20.23614000
_cell_angle_alpha   90.00000000
_cell_angle_beta   90.00000000
_cell_angle_gamma   90.00000000
_symmetry_Int_Tables_number   1
_chemical_formula_structural   CuNiC4
_chemical_formula_sum   'Cu8 Ni8 C32'
_cell_volume   689.79182849
_cell_formula_units_Z   8
loop_
 _symmetry_equiv_pos_site_id
 _symmetry_equiv_pos_as_xyz
  1  'x, y, z'
loop_
 _atom_site_type_symbol
 _atom_site_label
 _atom_site_symmetry_multiplicity
 _atom_site_fract_x
 _atom_site_fract_y
 _atom_site_fract_z
 _atom_site_occupancy
  C  C0  1  0.23774600  0.76225400  0.50000000  1
  C  C1  1  0.76225400  0.23774600  0.50000000  1
  C  C2  1  0.26225300  0.26225400  0.00000000  1
  C  C3  1  0.73774600  0.73774600  0.00000000  1
  Ni  Ni4  1  0.21943800  0.78056200  0.31490500  1
  Ni  Ni5  1  0.78056200  0.21943800  0.31490500  1
  Ni  Ni6  1  0.28056200  0.28056200  0.81490500  1
  Ni  Ni7  1  0.71943800  0.71943800  0.81490500  1
  Ni  Ni8  1  0.78056200  0.21943800  0.68509500  1
  Ni  Ni9  1  0.21943800  0.78056200  0.68509500  1
  Ni  Ni10  1  0.71943800  0.71943800  0.18509500  1
  Ni  Ni11  1  0.28056200  0.28056200  0.18509500  1
  Cu  Cu12  1  0.24009800  0.75990200  0.10343600  1
  Cu  Cu13  1  0.75990200  0.24009800  0.10343600  1
  Cu  Cu14  1  0.25990200  0.25990200  0.60343600  1
  Cu  Cu15  1  0.74009800  0.74009800  0.60343600  1
  Cu  Cu16  1  0.75990200  0.24009800  0.89656400  1
  Cu  Cu17  1  0.24009800  0.75990200  0.89656400  1
  Cu  Cu18  1  0.74009800  0.74009800  0.39656400  1
  Cu  Cu19  1  0.25990200  0.25990200  0.39656400  1
  C  C20  1  0.28712500  0.28712500  0.50000000  1
  C  C21  1  0.71287500  0.71287500  0.50000000  1
  C  C22  1  0.21287500  0.78712500  0.00000000  1
  C  C23  1  0.78712500  0.21287500  0.00000000  1
  C  C24  1  0.31868100  0.68131900  0.21161700  1
  C  C25  1  0.68131900  0.31868100  0.21161700  1
  C  C26  1  0.18131900  0.18131900  0.71161700  1
  C  C27  1  0.81868100  0.81868100  0.71161700  1
  C  C28  1  0.68131900  0.31868100  0.78838300  1
  C  C29  1  0.31868100  0.68131900  0.78838300  1
  C  C30  1  0.81868100  0.81868100  0.28838300  1
  C  C31  1  0.18131900  0.18131900  0.28838300  1
  C  C32  1  0.00000000  0.50000000  0.38382100  1
  C  C33  1  0.50000000  0.00000000  0.88382100  1
  C  C34  1  0.00000000  0.50000000  0.61617900  1
  C  C35  1  0.50000000  0.00000000  0.11617900  1
  C  C36  1  0.50000000  0.00000000  0.38382100  1
  C  C37  1  0.00000000  0.50000000  0.88382100  1
  C  C38  1  0.50000000  0.00000000  0.61617900  1
  C  C39  1  0.00000000  0.50000000  0.11617900  1
  C  C40  1  0.50000000  0.50000000  0.36786200  1
  C  C41  1  0.00000000  0.00000000  0.86786200  1
  C  C42  1  0.50000000  0.50000000  0.63213800  1
  C  C43  1  0.00000000  0.00000000  0.13213800  1
  C  C44  1  0.50000000  0.50000000  0.09515600  1
  C  C45  1  0.00000000  0.00000000  0.59515600  1
  C  C46  1  0.50000000  0.50000000  0.90484400  1
  C  C47  1  0.00000000  0.00000000  0.40484400  1
