# generated using pymatgen
data_Cu(NiC17)2
_symmetry_space_group_name_H-M   'P 1'
_cell_length_a   8.81818958
_cell_length_b   8.74712259
_cell_length_c   8.74621159
_cell_angle_alpha   59.92125996
_cell_angle_beta   59.68414598
_cell_angle_gamma   59.70027956
_symmetry_Int_Tables_number   1
_chemical_formula_structural   Cu(NiC17)2
_chemical_formula_sum   'Cu1 Ni2 C34'
_cell_volume   474.52245089
_cell_formula_units_Z   1
loop_
 _symmetry_equiv_pos_site_id
 _symmetry_equiv_pos_as_xyz
  1  'x, y, z'
loop_
 _atom_site_type_symbol
 _atom_site_label
 _atom_site_symmetry_multiplicity
 _atom_site_fract_x
 _atom_site_fract_y
 _atom_site_fract_z
 _atom_site_occupancy
  C  C0  1  0.87163300  0.37544800  0.37720500  1
  C  C1  1  0.03271700  0.65516800  0.65484100  1
  C  C2  1  0.43143900  0.85718700  0.85664300  1
  C  C3  1  0.26158300  0.24678000  0.24512800  1
  Ni  Ni4  1  0.99392300  0.00367900  0.00284600  1
  Ni  Ni5  1  0.47381300  0.50795700  0.50730200  1
  Cu  Cu6  1  0.60585300  0.13063100  0.13170700  1
  C  C7  1  0.23377400  0.25584700  0.55799400  1
  C  C8  1  0.23439800  0.95144300  0.25645400  1
  C  C9  1  0.23380500  0.55958100  0.95046400  1
  C  C10  1  0.73390300  0.46317300  0.05007400  1
  C  C11  1  0.73288400  0.04968300  0.75317400  1
  C  C12  1  0.73493000  0.75261600  0.46349200  1
  C  C13  1  0.07583300  0.13002800  0.30667100  1
  C  C14  1  0.07556700  0.48932200  0.12732500  1
  C  C15  1  0.07601200  0.30605600  0.48916800  1
  C  C16  1  0.22176300  0.09338200  0.74531000  1
  C  C17  1  0.40738400  0.20256600  0.38653800  1
  C  C18  1  0.24051200  0.41945500  0.57370300  1
  C  C19  1  0.22265800  0.94093300  0.09275900  1
  C  C20  1  0.24147000  0.76403700  0.41882200  1
  C  C21  1  0.56017800  0.60890000  0.99094800  1
  C  C22  1  0.24519000  0.57427200  0.76205700  1
  C  C23  1  0.78497800  0.26668900  0.04861400  1
  C  C24  1  0.55965500  0.99019500  0.83908500  1
  C  C25  1  0.40729000  0.00082400  0.20325600  1
  C  C26  1  0.21767600  0.74793600  0.94029200  1
  C  C27  1  0.69034800  0.45741700  0.24775100  1
  C  C28  1  0.40735100  0.39033900  0.00121800  1
  C  C29  1  0.69264900  0.24543500  0.60377300  1
  C  C30  1  0.78002500  0.04683100  0.90181800  1
  C  C31  1  0.69548000  0.60283200  0.45854800  1
  C  C32  1  0.55983300  0.83971300  0.61106400  1
  C  C33  1  0.78275100  0.90110200  0.26913300  1
  C  C34  1  0.90512200  0.66307500  0.52936000  1
  C  C35  1  0.90490500  0.52832600  0.90460100  1
  C  C36  1  0.90508400  0.90257300  0.66228900  1
