# generated using pymatgen
data_Cu(Ni2C5)2
_symmetry_space_group_name_H-M   'P 1'
_cell_length_a   14.08797375
_cell_length_b   14.08797375
_cell_length_c   6.67394875
_cell_angle_alpha   79.74801273
_cell_angle_beta   79.74801273
_cell_angle_gamma   13.51800537
_symmetry_Int_Tables_number   1
_chemical_formula_structural   Cu(Ni2C5)2
_chemical_formula_sum   'Cu1 Ni4 C10'
_cell_volume   304.60975346
_cell_formula_units_Z   1
loop_
 _symmetry_equiv_pos_site_id
 _symmetry_equiv_pos_as_xyz
  1  'x, y, z'
loop_
 _atom_site_type_symbol
 _atom_site_label
 _atom_site_symmetry_multiplicity
 _atom_site_fract_x
 _atom_site_fract_y
 _atom_site_fract_z
 _atom_site_occupancy
  Ni  Ni0  1  0.36938400  0.36938400  0.76159200  1
  Ni  Ni1  1  0.76664500  0.76664500  0.96688600  1
  Ni  Ni2  1  0.16737800  0.16737800  0.16533800  1
  Ni  Ni3  1  0.56212000  0.56212000  0.37558300  1
  Cu  Cu4  1  0.96714400  0.96714400  0.56547500  1
  C  C5  1  0.51463500  0.51463500  0.71844600  1
  C  C6  1  0.71641400  0.71641400  0.31533200  1
  C  C7  1  0.11543300  0.11543300  0.50962000  1
  C  C8  1  0.91842900  0.91842900  0.90887300  1
  C  C9  1  0.31774800  0.31774800  0.10870300  1
  C  C10  1  0.88536100  0.88536100  0.48363600  1
  C  C11  1  0.28502000  0.28502000  0.68612800  1
  C  C12  1  0.68315200  0.68315200  0.88548600  1
  C  C13  1  0.08311900  0.08311900  0.09255000  1
  C  C14  1  0.48131900  0.48131900  0.28925200  1
