# generated using pymatgen
data_Cu(NiC11)2
_symmetry_space_group_name_H-M   'P 1'
_cell_length_a   5.04934800
_cell_length_b   10.64092600
_cell_length_c   18.99769300
_cell_angle_alpha   90.00000000
_cell_angle_beta   90.00000000
_cell_angle_gamma   90.00000000
_symmetry_Int_Tables_number   1
_chemical_formula_structural   Cu(NiC11)2
_chemical_formula_sum   'Cu4 Ni8 C88'
_cell_volume   1020.74107540
_cell_formula_units_Z   4
loop_
 _symmetry_equiv_pos_site_id
 _symmetry_equiv_pos_as_xyz
  1  'x, y, z'
loop_
 _atom_site_type_symbol
 _atom_site_label
 _atom_site_symmetry_multiplicity
 _atom_site_fract_x
 _atom_site_fract_y
 _atom_site_fract_z
 _atom_site_occupancy
  Ni  Ni0  1  0.27531300  0.64197500  0.50088300  1
  Ni  Ni1  1  0.22468700  0.14197500  0.99911700  1
  Ni  Ni2  1  0.72468700  0.35802500  0.00088300  1
  Ni  Ni3  1  0.77531300  0.85802500  0.49911700  1
  Ni  Ni4  1  0.72468700  0.35802500  0.49911700  1
  Ni  Ni5  1  0.77531300  0.85802500  0.00088300  1
  Ni  Ni6  1  0.27531300  0.64197500  0.99911700  1
  Ni  Ni7  1  0.22468700  0.14197500  0.50088300  1
  Cu  Cu8  1  0.06474000  0.26792700  0.75000000  1
  Cu  Cu9  1  0.43526000  0.76792700  0.75000000  1
  Cu  Cu10  1  0.93526000  0.73207300  0.25000000  1
  Cu  Cu11  1  0.56474000  0.23207300  0.25000000  1
  C  C12  1  0.23350900  0.39801400  0.59410700  1
  C  C13  1  0.26649100  0.89801400  0.90589300  1
  C  C14  1  0.76649100  0.60198600  0.09410700  1
  C  C15  1  0.73350900  0.10198600  0.40589300  1
  C  C16  1  0.76649100  0.60198600  0.40589300  1
  C  C17  1  0.73350900  0.10198600  0.09410700  1
  C  C18  1  0.23350900  0.39801400  0.90589300  1
  C  C19  1  0.26649100  0.89801400  0.59410700  1
  C  C20  1  0.62455200  0.39599400  0.79007200  1
  C  C21  1  0.87544800  0.89599400  0.70992800  1
  C  C22  1  0.37544800  0.60400600  0.29007200  1
  C  C23  1  0.12455200  0.10400600  0.20992800  1
  C  C24  1  0.37544800  0.60400600  0.20992800  1
  C  C25  1  0.12455200  0.10400600  0.29007200  1
  C  C26  1  0.62455200  0.39599400  0.70992800  1
  C  C27  1  0.87544800  0.89599400  0.79007200  1
  C  C28  1  0.37072200  0.06685700  0.79047600  1
  C  C29  1  0.12927800  0.56685700  0.70952400  1
  C  C30  1  0.62927800  0.93314300  0.29047600  1
  C  C31  1  0.87072200  0.43314300  0.20952400  1
  C  C32  1  0.62927800  0.93314300  0.20952400  1
  C  C33  1  0.87072200  0.43314300  0.29047600  1
  C  C34  1  0.37072200  0.06685700  0.70952400  1
  C  C35  1  0.12927800  0.56685700  0.79047600  1
  C  C36  1  0.93453900  0.11836200  0.63381100  1
  C  C37  1  0.56546100  0.61836200  0.86618900  1
  C  C38  1  0.06546100  0.88163800  0.13381100  1
  C  C39  1  0.43453900  0.38163800  0.36618900  1
  C  C40  1  0.06546100  0.88163800  0.36618900  1
  C  C41  1  0.43453900  0.38163800  0.13381100  1
  C  C42  1  0.93453900  0.11836200  0.86618900  1
  C  C43  1  0.56546100  0.61836200  0.63381100  1
  C  C44  1  0.69727500  0.21279900  0.65314300  1
  C  C45  1  0.80272500  0.71279900  0.84685700  1
  C  C46  1  0.30272500  0.78720100  0.15314300  1
  C  C47  1  0.19727500  0.28720100  0.34685700  1
  C  C48  1  0.30272500  0.78720100  0.34685700  1
  C  C49  1  0.19727500  0.28720100  0.15314300  1
  C  C50  1  0.69727500  0.21279900  0.84685700  1
  C  C51  1  0.80272500  0.71279900  0.65314300  1
  C  C52  1  0.29915100  0.35917800  0.66981700  1
  C  C53  1  0.20084900  0.85917800  0.83018300  1
  C  C54  1  0.70084900  0.64082200  0.16981700  1
  C  C55  1  0.79915100  0.14082200  0.33018300  1
  C  C56  1  0.70084900  0.64082200  0.33018300  1
  C  C57  1  0.79915100  0.14082200  0.16981700  1
  C  C58  1  0.29915100  0.35917800  0.83018300  1
  C  C59  1  0.20084900  0.85917800  0.66981700  1
  C  C60  1  0.35196200  0.53158100  0.57991800  1
  C  C61  1  0.14803800  0.03158100  0.92008200  1
  C  C62  1  0.64803800  0.46841900  0.07991800  1
  C  C63  1  0.85196200  0.96841900  0.42008200  1
  C  C64  1  0.64803800  0.46841900  0.42008200  1
  C  C65  1  0.85196200  0.96841900  0.07991800  1
  C  C66  1  0.35196200  0.53158100  0.92008200  1
  C  C67  1  0.14803800  0.03158100  0.57991800  1
  C  C68  1  0.06703400  0.60226600  0.41953400  1
  C  C69  1  0.43296600  0.10226600  0.08046600  1
  C  C70  1  0.93296600  0.39773400  0.91953400  1
  C  C71  1  0.56703400  0.89773400  0.58046600  1
  C  C72  1  0.93296600  0.39773400  0.58046600  1
  C  C73  1  0.56703400  0.89773400  0.91953400  1
  C  C74  1  0.06703400  0.60226600  0.08046600  1
  C  C75  1  0.43296600  0.10226600  0.41953400  1
  C  C76  1  0.62769400  0.69490300  0.46050600  1
  C  C77  1  0.87230600  0.19490300  0.03949400  1
  C  C78  1  0.37230600  0.30509700  0.96050600  1
  C  C79  1  0.12769400  0.80509700  0.53949400  1
  C  C80  1  0.37230600  0.30509700  0.53949400  1
  C  C81  1  0.12769400  0.80509700  0.96050600  1
  C  C82  1  0.62769400  0.69490300  0.03949400  1
  C  C83  1  0.87230600  0.19490300  0.46050600  1
  C  C84  1  0.75043800  0.39704400  0.75000000  1
  C  C85  1  0.74956200  0.89704400  0.75000000  1
  C  C86  1  0.24956200  0.60295600  0.25000000  1
  C  C87  1  0.25043800  0.10295600  0.25000000  1
  C  C88  1  0.33990600  0.12121400  0.75000000  1
  C  C89  1  0.16009400  0.62121400  0.75000000  1
  C  C90  1  0.66009400  0.87878600  0.25000000  1
  C  C91  1  0.83990600  0.37878600  0.25000000  1
  C  C92  1  0.84833000  0.16688200  0.67205700  1
  C  C93  1  0.65167000  0.66688200  0.82794300  1
  C  C94  1  0.15167000  0.83311800  0.17205700  1
  C  C95  1  0.34833000  0.33311800  0.32794300  1
  C  C96  1  0.15167000  0.83311800  0.32794300  1
  C  C97  1  0.34833000  0.33311800  0.17205700  1
  C  C98  1  0.84833000  0.16688200  0.82794300  1
  C  C99  1  0.65167000  0.66688200  0.67205700  1
