# generated using pymatgen
data_Cu2Ni4C5
_symmetry_space_group_name_H-M   'P 1'
_cell_length_a   12.19491900
_cell_length_b   7.61489100
_cell_length_c   15.12639760
_cell_angle_alpha   87.90801394
_cell_angle_beta   90.00000000
_cell_angle_gamma   90.00000000
_symmetry_Int_Tables_number   1
_chemical_formula_structural   Cu2Ni4C5
_chemical_formula_sum   'Cu8 Ni16 C20'
_cell_volume   1403.74613434
_cell_formula_units_Z   4
loop_
 _symmetry_equiv_pos_site_id
 _symmetry_equiv_pos_as_xyz
  1  'x, y, z'
loop_
 _atom_site_type_symbol
 _atom_site_label
 _atom_site_symmetry_multiplicity
 _atom_site_fract_x
 _atom_site_fract_y
 _atom_site_fract_z
 _atom_site_occupancy
  C  C0  1  0.79425400  0.81975100  0.58318100  1
  C  C1  1  0.29425400  0.18024900  0.91681900  1
  C  C2  1  0.20574600  0.18024900  0.41681900  1
  C  C3  1  0.70574600  0.81975100  0.08318100  1
  Ni  Ni4  1  0.95270900  0.22859500  0.77247500  1
  Ni  Ni5  1  0.45270900  0.77140500  0.72752500  1
  Ni  Ni6  1  0.04729100  0.77140500  0.22752500  1
  Ni  Ni7  1  0.54729100  0.22859500  0.27247500  1
  Ni  Ni8  1  0.59879800  0.22769400  0.34150600  1
  Ni  Ni9  1  0.09879800  0.77230600  0.15849400  1
  Ni  Ni10  1  0.40120200  0.77230600  0.65849400  1
  Ni  Ni11  1  0.90120200  0.22769400  0.84150600  1
  Ni  Ni12  1  0.02865400  0.29400800  0.62251000  1
  Ni  Ni13  1  0.52865400  0.70599200  0.87749000  1
  Ni  Ni14  1  0.97134600  0.70599200  0.37749000  1
  Ni  Ni15  1  0.47134600  0.29400800  0.12251000  1
  Ni  Ni16  1  0.72596200  0.29370800  0.46418100  1
  Ni  Ni17  1  0.22596200  0.70629200  0.03581900  1
  Ni  Ni18  1  0.27403800  0.70629200  0.53581900  1
  Ni  Ni19  1  0.77403800  0.29370800  0.96418100  1
  Cu  Cu20  1  0.99808200  0.25195600  0.69538000  1
  Cu  Cu21  1  0.49808200  0.74804400  0.80462000  1
  Cu  Cu22  1  0.00191800  0.74804400  0.30462000  1
  Cu  Cu23  1  0.50191800  0.25195600  0.19538000  1
  Cu  Cu24  1  0.66145800  0.25126600  0.40930500  1
  Cu  Cu25  1  0.16145800  0.74873400  0.09069500  1
  Cu  Cu26  1  0.33854200  0.74873400  0.59069500  1
  Cu  Cu27  1  0.83854200  0.25126600  0.90930500  1
  C  C28  1  0.96841200  0.82457100  0.58768900  1
  C  C29  1  0.46841200  0.17542900  0.91231100  1
  C  C30  1  0.03158800  0.17542900  0.41231100  1
  C  C31  1  0.53158800  0.82457100  0.08768900  1
  C  C32  1  0.73040600  0.04971400  0.64169900  1
  C  C33  1  0.23040600  0.95028600  0.85830100  1
  C  C34  1  0.26959400  0.95028600  0.35830100  1
  C  C35  1  0.76959400  0.04971400  0.14169900  1
  C  C36  1  0.73699700  0.80959300  0.44942300  1
  C  C37  1  0.23699700  0.19040700  0.05057700  1
  C  C38  1  0.26300300  0.19040700  0.55057700  1
  C  C39  1  0.76300300  0.80959300  0.94942300  1
  C  C40  1  0.73960400  0.59257000  0.65716500  1
  C  C41  1  0.23960400  0.40743000  0.84283500  1
  C  C42  1  0.26039600  0.40743000  0.34283500  1
  C  C43  1  0.76039600  0.59257000  0.15716500  1
