# generated using pymatgen
data_CuNi2C5
_symmetry_space_group_name_H-M   'P 1'
_cell_length_a   7.64125400
_cell_length_b   8.36708900
_cell_length_c   12.16556900
_cell_angle_alpha   90.00000000
_cell_angle_beta   90.00000000
_cell_angle_gamma   90.00000000
_symmetry_Int_Tables_number   1
_chemical_formula_structural   CuNi2C5
_chemical_formula_sum   'Cu4 Ni8 C20'
_cell_volume   777.80629015
_cell_formula_units_Z   4
loop_
 _symmetry_equiv_pos_site_id
 _symmetry_equiv_pos_as_xyz
  1  'x, y, z'
loop_
 _atom_site_type_symbol
 _atom_site_label
 _atom_site_symmetry_multiplicity
 _atom_site_fract_x
 _atom_site_fract_y
 _atom_site_fract_z
 _atom_site_occupancy
  Ni  Ni0  1  0.52122400  0.50074200  0.32267000  1
  Ni  Ni1  1  0.97877600  0.99925800  0.82267000  1
  Ni  Ni2  1  0.47877600  0.00074200  0.67733000  1
  Ni  Ni3  1  0.02122400  0.49925800  0.17733000  1
  Ni  Ni4  1  0.47877600  0.49925800  0.67733000  1
  Ni  Ni5  1  0.02122400  0.00074200  0.17733000  1
  Ni  Ni6  1  0.52122400  0.99925800  0.32267000  1
  Ni  Ni7  1  0.97877600  0.50074200  0.82267000  1
  Cu  Cu8  1  0.07387800  0.75000000  0.49093400  1
  Cu  Cu9  1  0.42612200  0.75000000  0.99093400  1
  Cu  Cu10  1  0.92612200  0.25000000  0.50906600  1
  Cu  Cu11  1  0.57387800  0.25000000  0.00906600  1
  C  C12  1  0.83844000  0.95867100  0.59774600  1
  C  C13  1  0.66156000  0.54132900  0.09774600  1
  C  C14  1  0.16156000  0.45867100  0.40225400  1
  C  C15  1  0.33844000  0.04132900  0.90225400  1
  C  C16  1  0.16156000  0.04132900  0.40225400  1
  C  C17  1  0.33844000  0.45867100  0.90225400  1
  C  C18  1  0.83844000  0.54132900  0.59774600  1
  C  C19  1  0.66156000  0.95867100  0.09774600  1
  C  C20  1  0.83218800  0.75000000  0.31226300  1
  C  C21  1  0.66781200  0.75000000  0.81226300  1
  C  C22  1  0.16781200  0.25000000  0.68773700  1
  C  C23  1  0.33218800  0.25000000  0.18773700  1
  C  C24  1  0.45494700  0.75000000  0.49780600  1
  C  C25  1  0.04505300  0.75000000  0.99780600  1
  C  C26  1  0.54505300  0.25000000  0.50219400  1
  C  C27  1  0.95494700  0.25000000  0.00219400  1
  C  C28  1  0.19707500  0.75000000  0.71571500  1
  C  C29  1  0.30292500  0.75000000  0.21571500  1
  C  C30  1  0.80292500  0.25000000  0.28428500  1
  C  C31  1  0.69707500  0.25000000  0.78428500  1
