# generated using pymatgen
data_CuNiC8
_symmetry_space_group_name_H-M   'P 1'
_cell_length_a   7.99280200
_cell_length_b   7.99556100
_cell_length_c   8.04733700
_cell_angle_alpha   90.00000000
_cell_angle_beta   90.00000000
_cell_angle_gamma   90.00000000
_symmetry_Int_Tables_number   1
_chemical_formula_structural   CuNiC8
_chemical_formula_sum   'Cu4 Ni4 C32'
_cell_volume   514.28065024
_cell_formula_units_Z   4
loop_
 _symmetry_equiv_pos_site_id
 _symmetry_equiv_pos_as_xyz
  1  'x, y, z'
loop_
 _atom_site_type_symbol
 _atom_site_label
 _atom_site_symmetry_multiplicity
 _atom_site_fract_x
 _atom_site_fract_y
 _atom_site_fract_z
 _atom_site_occupancy
  Ni  Ni0  1  0.25215300  0.25213100  0.25313400  1
  Ni  Ni1  1  0.25215300  0.25213100  0.74686600  1
  Ni  Ni2  1  0.25215300  0.74786900  0.25313400  1
  Ni  Ni3  1  0.25215300  0.74786900  0.74686600  1
  Cu  Cu4  1  0.74750500  0.25249200  0.25313100  1
  Cu  Cu5  1  0.74750500  0.25249200  0.74686900  1
  Cu  Cu6  1  0.74750500  0.74750800  0.25313100  1
  Cu  Cu7  1  0.74750500  0.74750800  0.74686900  1
  C  C8  1  0.99822600  0.00000000  0.50000000  1
  C  C9  1  0.50189600  0.00000000  0.50000000  1
  C  C10  1  0.50119100  0.50000000  0.00000000  1
  C  C11  1  0.99791600  0.50000000  0.50000000  1
  C  C12  1  0.50272300  0.50000000  0.50000000  1
  C  C13  1  0.99810000  0.00000000  0.00000000  1
  C  C14  1  0.50224400  0.00000000  0.00000000  1
  C  C15  1  0.99745200  0.50000000  0.00000000  1
  C  C16  1  0.99583900  0.25647100  0.00000000  1
  C  C17  1  0.50404000  0.24520600  0.00000000  1
  C  C18  1  0.99551300  0.26204200  0.50000000  1
  C  C19  1  0.50437000  0.25567500  0.50000000  1
  C  C20  1  0.99583900  0.74352900  0.00000000  1
  C  C21  1  0.50404000  0.75479400  0.00000000  1
  C  C22  1  0.99551300  0.73795800  0.50000000  1
  C  C23  1  0.50437000  0.74432500  0.50000000  1
  C  C24  1  0.99527000  0.00000000  0.23755900  1
  C  C25  1  0.50440500  0.00000000  0.24168900  1
  C  C26  1  0.99527000  0.00000000  0.76244100  1
  C  C27  1  0.50440500  0.00000000  0.75831100  1
  C  C28  1  0.99538600  0.50000000  0.24171400  1
  C  C29  1  0.50468100  0.50000000  0.26056700  1
  C  C30  1  0.99538600  0.50000000  0.75828600  1
  C  C31  1  0.50468100  0.50000000  0.73943300  1
  C  C32  1  0.25725900  0.00000000  0.00000000  1
  C  C33  1  0.74420900  0.00000000  0.00000000  1
  C  C34  1  0.26315100  0.00000000  0.50000000  1
  C  C35  1  0.73899600  0.00000000  0.50000000  1
  C  C36  1  0.24374600  0.50000000  0.00000000  1
  C  C37  1  0.75349000  0.50000000  0.00000000  1
  C  C38  1  0.25661900  0.50000000  0.50000000  1
  C  C39  1  0.74514400  0.50000000  0.50000000  1
