# generated using pymatgen
data_CuNi4
_symmetry_space_group_name_H-M   'P 1'
_cell_length_a   6.58022200
_cell_length_b   6.58376800
_cell_length_c   6.85325700
_cell_angle_alpha   90.00000000
_cell_angle_beta   90.00000000
_cell_angle_gamma   90.00000000
_symmetry_Int_Tables_number   1
_chemical_formula_structural   CuNi4
_chemical_formula_sum   'Cu4 Ni16'
_cell_volume   296.90128889
_cell_formula_units_Z   4
loop_
 _symmetry_equiv_pos_site_id
 _symmetry_equiv_pos_as_xyz
  1  'x, y, z'
loop_
 _atom_site_type_symbol
 _atom_site_label
 _atom_site_symmetry_multiplicity
 _atom_site_fract_x
 _atom_site_fract_y
 _atom_site_fract_z
 _atom_site_occupancy
  Ni  Ni0  1  0.15298000  0.17014900  0.50679800  1
  Ni  Ni1  1  0.34702000  0.82985100  0.00679800  1
  Ni  Ni2  1  0.84702000  0.67014900  0.99320200  1
  Ni  Ni3  1  0.65298000  0.32985100  0.49320200  1
  Ni  Ni4  1  0.32185300  0.29354900  0.51218800  1
  Ni  Ni5  1  0.17814700  0.70645100  0.01218800  1
  Ni  Ni6  1  0.67814700  0.79354900  0.98781200  1
  Ni  Ni7  1  0.82185300  0.20645100  0.48781200  1
  Ni  Ni8  1  0.98874000  0.30406400  0.51014100  1
  Ni  Ni9  1  0.51126000  0.69593600  0.01014100  1
  Ni  Ni10  1  0.01126000  0.80406400  0.98985900  1
  Ni  Ni11  1  0.48874000  0.19593600  0.48985900  1
  Ni  Ni12  1  0.11520100  0.97530600  0.49799800  1
  Ni  Ni13  1  0.38479900  0.02469400  0.99799800  1
  Ni  Ni14  1  0.88479900  0.47530600  0.00200200  1
  Ni  Ni15  1  0.61520100  0.52469400  0.50200200  1
  Cu  Cu16  1  0.19222100  0.19470100  0.01039300  1
  Cu  Cu17  1  0.30777900  0.80529900  0.51039300  1
  Cu  Cu18  1  0.80777900  0.69470100  0.48960700  1
  Cu  Cu19  1  0.69222100  0.30529900  0.98960700  1
