# generated using pymatgen
data_CuNiC5
_symmetry_space_group_name_H-M   'P 1'
_cell_length_a   6.91194712
_cell_length_b   5.85529966
_cell_length_c   5.90182190
_cell_angle_alpha   92.62561457
_cell_angle_beta   90.00080084
_cell_angle_gamma   89.99815787
_symmetry_Int_Tables_number   1
_chemical_formula_structural   CuNiC5
_chemical_formula_sum   'Cu2 Ni2 C10'
_cell_volume   238.60495903
_cell_formula_units_Z   2
loop_
 _symmetry_equiv_pos_site_id
 _symmetry_equiv_pos_as_xyz
  1  'x, y, z'
loop_
 _atom_site_type_symbol
 _atom_site_label
 _atom_site_symmetry_multiplicity
 _atom_site_fract_x
 _atom_site_fract_y
 _atom_site_fract_z
 _atom_site_occupancy
  Ni  Ni0  1  0.25001600  0.50000200  0.49999000  1
  Ni  Ni1  1  0.75002600  0.50000200  0.49999100  1
  Cu  Cu2  1  0.00000700  0.99996500  0.49991200  1
  Cu  Cu3  1  0.49992500  0.99999300  0.50006300  1
  C  C4  1  0.00002600  0.00000900  0.99998500  1
  C  C5  1  0.50001700  0.99999800  0.00001000  1
  C  C6  1  0.00002100  0.32220200  0.26263800  1
  C  C7  1  0.50002000  0.32214200  0.26270500  1
  C  C8  1  0.25001700  0.82880200  0.26196700  1
  C  C9  1  0.74993900  0.82879600  0.26195000  1
  C  C10  1  0.24997300  0.17121600  0.73805500  1
  C  C11  1  0.74998400  0.17122200  0.73806900  1
  C  C12  1  0.50001300  0.67782400  0.73733900  1
  C  C13  1  0.00001700  0.67782800  0.73732800  1
