# generated using pymatgen
data_CuNiC6
_symmetry_space_group_name_H-M   'P 1'
_cell_length_a   5.26412386
_cell_length_b   5.26412386
_cell_length_c   7.04585922
_cell_angle_alpha   73.66371674
_cell_angle_beta   73.66371674
_cell_angle_gamma   102.42145209
_symmetry_Int_Tables_number   1
_chemical_formula_structural   CuNiC6
_chemical_formula_sum   'Cu2 Ni2 C12'
_cell_volume   170.37710425
_cell_formula_units_Z   2
loop_
 _symmetry_equiv_pos_site_id
 _symmetry_equiv_pos_as_xyz
  1  'x, y, z'
loop_
 _atom_site_type_symbol
 _atom_site_label
 _atom_site_symmetry_multiplicity
 _atom_site_fract_x
 _atom_site_fract_y
 _atom_site_fract_z
 _atom_site_occupancy
  Ni  Ni0  1  0.83227700  0.16772300  0.75000000  1
  Ni  Ni1  1  0.16772300  0.83227700  0.25000000  1
  C  C2  1  0.18077500  0.81922500  0.75000000  1
  C  C3  1  0.81922500  0.18077500  0.25000000  1
  Cu  Cu4  1  0.50000000  0.50000000  0.50000000  1
  Cu  Cu5  1  0.50000000  0.50000000  0.00000000  1
  C  C6  1  0.39090300  0.81161500  0.88105200  1
  C  C7  1  0.18838500  0.60909700  0.61894800  1
  C  C8  1  0.60909700  0.18838500  0.11894800  1
  C  C9  1  0.81161500  0.39090300  0.38105200  1
  C  C10  1  0.77601500  0.85535200  0.40352100  1
  C  C11  1  0.14464800  0.22398500  0.09647900  1
  C  C12  1  0.22398500  0.14464800  0.59647900  1
  C  C13  1  0.85535200  0.77601500  0.90352100  1
  C  C14  1  0.41209500  0.58790500  0.25000000  1
  C  C15  1  0.58790500  0.41209500  0.75000000  1
