# generated using pymatgen
data_Cu2Ni2C9
_symmetry_space_group_name_H-M   'P 1'
_cell_length_a   5.15217351
_cell_length_b   5.15215000
_cell_length_c   14.98965600
_cell_angle_alpha   89.99974771
_cell_angle_beta   89.99999791
_cell_angle_gamma   59.99984115
_symmetry_Int_Tables_number   1
_chemical_formula_structural   Cu2Ni2C9
_chemical_formula_sum   'Cu4 Ni4 C18'
_cell_volume   344.58834286
_cell_formula_units_Z   2
loop_
 _symmetry_equiv_pos_site_id
 _symmetry_equiv_pos_as_xyz
  1  'x, y, z'
loop_
 _atom_site_type_symbol
 _atom_site_label
 _atom_site_symmetry_multiplicity
 _atom_site_fract_x
 _atom_site_fract_y
 _atom_site_fract_z
 _atom_site_occupancy
  C  C0  1  0.00000000  0.00000000  0.50000000  1
  C  C1  1  0.00000000  0.00000000  0.00000000  1
  Ni  Ni2  1  0.66664900  0.66666600  0.64225000  1
  Ni  Ni3  1  0.33335100  0.33333400  0.35775000  1
  Ni  Ni4  1  0.66668500  0.66666600  0.14225000  1
  Ni  Ni5  1  0.33331500  0.33333400  0.85775000  1
  Cu  Cu6  1  0.33331000  0.33332900  0.63665900  1
  Cu  Cu7  1  0.66669000  0.66667100  0.36334100  1
  Cu  Cu8  1  0.33336100  0.33332900  0.13665900  1
  Cu  Cu9  1  0.66663900  0.66667100  0.86334100  1
  C  C10  1  0.37717800  0.01282800  0.59760700  1
  C  C11  1  0.01281100  0.60997800  0.59761000  1
  C  C12  1  0.60995800  0.37718900  0.59761300  1
  C  C13  1  0.62282200  0.98717200  0.40239300  1
  C  C14  1  0.98718900  0.39002200  0.40239000  1
  C  C15  1  0.39004200  0.62281100  0.40238700  1
  C  C16  1  0.60999400  0.01282800  0.09760700  1
  C  C17  1  0.01285200  0.37718900  0.09761300  1
  C  C18  1  0.37721200  0.60997800  0.09761000  1
  C  C19  1  0.39000600  0.98717200  0.90239300  1
  C  C20  1  0.98714800  0.62281100  0.90238700  1
  C  C21  1  0.62278800  0.39002200  0.90239000  1
  C  C22  1  0.66662200  0.66668100  0.75675600  1
  C  C23  1  0.33330300  0.33331900  0.74324400  1
  C  C24  1  0.33337800  0.33331900  0.24324400  1
  C  C25  1  0.66669700  0.66668100  0.25675600  1
