# generated using pymatgen
data_CuNi2C
_symmetry_space_group_name_H-M   'P 1'
_cell_length_a   4.08193578
_cell_length_b   4.08193578
_cell_length_c   20.68530300
_cell_angle_alpha   90.00000000
_cell_angle_beta   90.00000000
_cell_angle_gamma   90.11552993
_symmetry_Int_Tables_number   1
_chemical_formula_structural   CuNi2C
_chemical_formula_sum   'Cu4 Ni8 C4'
_cell_volume   344.66194820
_cell_formula_units_Z   4
loop_
 _symmetry_equiv_pos_site_id
 _symmetry_equiv_pos_as_xyz
  1  'x, y, z'
loop_
 _atom_site_type_symbol
 _atom_site_label
 _atom_site_symmetry_multiplicity
 _atom_site_fract_x
 _atom_site_fract_y
 _atom_site_fract_z
 _atom_site_occupancy
  C  C0  1  0.73473700  0.26526300  0.38272400  1
  C  C1  1  0.26526300  0.73473700  0.61727600  1
  C  C2  1  0.23473700  0.76526300  0.11727600  1
  C  C3  1  0.76526300  0.23473700  0.88272400  1
  Ni  Ni4  1  0.23443500  0.76556500  0.34309600  1
  Ni  Ni5  1  0.76556500  0.23443500  0.65690400  1
  Ni  Ni6  1  0.73443500  0.26556500  0.15690400  1
  Ni  Ni7  1  0.26556500  0.73443500  0.84309600  1
  Ni  Ni8  1  0.77581700  0.77581700  0.50000000  1
  Ni  Ni9  1  0.72418300  0.72418300  0.00000000  1
  Ni  Ni10  1  0.22418300  0.22418300  0.50000000  1
  Ni  Ni11  1  0.27581700  0.27581700  0.00000000  1
  Cu  Cu12  1  0.73137600  0.76862400  0.25000000  1
  Cu  Cu13  1  0.76862400  0.73137600  0.75000000  1
  Cu  Cu14  1  0.26862400  0.23137600  0.75000000  1
  Cu  Cu15  1  0.23137600  0.26862400  0.25000000  1
