# generated using pymatgen
data_Cu12Ni2C5
_symmetry_space_group_name_H-M   'P 1'
_cell_length_a   10.38444300
_cell_length_b   10.38444300
_cell_length_c   10.38444300
_cell_angle_alpha   90.00000000
_cell_angle_beta   90.00000000
_cell_angle_gamma   90.00000000
_symmetry_Int_Tables_number   1
_chemical_formula_structural   Cu12Ni2C5
_chemical_formula_sum   'Cu48 Ni8 C20'
_cell_volume   1119.82361191
_cell_formula_units_Z   4
loop_
 _symmetry_equiv_pos_site_id
 _symmetry_equiv_pos_as_xyz
  1  'x, y, z'
loop_
 _atom_site_type_symbol
 _atom_site_label
 _atom_site_symmetry_multiplicity
 _atom_site_fract_x
 _atom_site_fract_y
 _atom_site_fract_z
 _atom_site_occupancy
  C  C0  1  0.33824100  0.33824100  0.33824100  1
  C  C1  1  0.16175900  0.66175900  0.83824100  1
  C  C2  1  0.66175900  0.83824100  0.16175900  1
  C  C3  1  0.83824100  0.16175900  0.66175900  1
  C  C4  1  0.60220800  0.60220800  0.60220800  1
  C  C5  1  0.89779200  0.39779200  0.10220800  1
  C  C6  1  0.39779200  0.10220800  0.89779200  1
  C  C7  1  0.10220800  0.89779200  0.39779200  1
  C  C8  1  0.02057900  0.21283000  0.37581700  1
  C  C9  1  0.47942100  0.78717000  0.87581700  1
  C  C10  1  0.97942100  0.71283000  0.12418300  1
  C  C11  1  0.37581700  0.02057900  0.21283000  1
  C  C12  1  0.52057900  0.28717000  0.62418300  1
  C  C13  1  0.87581700  0.47942100  0.78717000  1
  C  C14  1  0.12418300  0.97942100  0.71283000  1
  C  C15  1  0.62418300  0.52057900  0.28717000  1
  C  C16  1  0.21283000  0.37581700  0.02057900  1
  C  C17  1  0.71283000  0.12418300  0.97942100  1
  C  C18  1  0.28717000  0.62418300  0.52057900  1
  C  C19  1  0.78717000  0.87581700  0.47942100  1
  Ni  Ni20  1  0.04655900  0.04655900  0.04655900  1
  Ni  Ni21  1  0.45344100  0.95344100  0.54655900  1
  Ni  Ni22  1  0.95344100  0.54655900  0.45344100  1
  Ni  Ni23  1  0.54655900  0.45344100  0.95344100  1
  Ni  Ni24  1  0.81688200  0.81688200  0.81688200  1
  Ni  Ni25  1  0.68311800  0.18311800  0.31688200  1
  Ni  Ni26  1  0.18311800  0.31688200  0.68311800  1
  Ni  Ni27  1  0.31688200  0.68311800  0.18311800  1
  Cu  Cu28  1  0.00802600  0.05745300  0.32770200  1
  Cu  Cu29  1  0.49197400  0.94254600  0.82770200  1
  Cu  Cu30  1  0.99197400  0.55745400  0.17229800  1
  Cu  Cu31  1  0.32770200  0.00802600  0.05745300  1
  Cu  Cu32  1  0.50802600  0.44254700  0.67229800  1
  Cu  Cu33  1  0.82770200  0.49197400  0.94254600  1
  Cu  Cu34  1  0.17229800  0.99197400  0.55745400  1
  Cu  Cu35  1  0.67229800  0.50802600  0.44254700  1
  Cu  Cu36  1  0.05745300  0.32770200  0.00802600  1
  Cu  Cu37  1  0.55745400  0.17229800  0.99197400  1
  Cu  Cu38  1  0.44254700  0.67229800  0.50802600  1
  Cu  Cu39  1  0.94254600  0.82770200  0.49197400  1
  Cu  Cu40  1  0.26273700  0.48976500  0.43579900  1
  Cu  Cu41  1  0.23726300  0.51023500  0.93579900  1
  Cu  Cu42  1  0.73726300  0.98976500  0.06420100  1
  Cu  Cu43  1  0.43579900  0.26273700  0.48976500  1
  Cu  Cu44  1  0.76273700  0.01023500  0.56420100  1
  Cu  Cu45  1  0.93579900  0.23726300  0.51023500  1
  Cu  Cu46  1  0.06420100  0.73726300  0.98976500  1
  Cu  Cu47  1  0.56420100  0.76273700  0.01023500  1
  Cu  Cu48  1  0.48976500  0.43579900  0.26273700  1
  Cu  Cu49  1  0.98976500  0.06420100  0.73726300  1
  Cu  Cu50  1  0.01023500  0.56420100  0.76273700  1
  Cu  Cu51  1  0.51023500  0.93579900  0.23726300  1
  Cu  Cu52  1  0.04976300  0.80853600  0.23135700  1
  Cu  Cu53  1  0.45023700  0.19146400  0.73135700  1
  Cu  Cu54  1  0.95023700  0.30853600  0.26864300  1
  Cu  Cu55  1  0.23135700  0.04976300  0.80853600  1
  Cu  Cu56  1  0.54976300  0.69146400  0.76864300  1
  Cu  Cu57  1  0.73135700  0.45023700  0.19146400  1
  Cu  Cu58  1  0.26864300  0.95023700  0.30853600  1
  Cu  Cu59  1  0.76864300  0.54976300  0.69146400  1
  Cu  Cu60  1  0.80853600  0.23135700  0.04976300  1
  Cu  Cu61  1  0.30853600  0.26864300  0.95023700  1
  Cu  Cu62  1  0.69146400  0.76864300  0.54976300  1
  Cu  Cu63  1  0.19146400  0.73135700  0.45023700  1
  Cu  Cu64  1  0.17388300  0.24943700  0.40592500  1
  Cu  Cu65  1  0.32611700  0.75056300  0.90592500  1
  Cu  Cu66  1  0.82611700  0.74943700  0.09407500  1
  Cu  Cu67  1  0.40592500  0.17388300  0.24943700  1
  Cu  Cu68  1  0.67388300  0.25056300  0.59407500  1
  Cu  Cu69  1  0.90592500  0.32611700  0.75056300  1
  Cu  Cu70  1  0.09407500  0.82611700  0.74943700  1
  Cu  Cu71  1  0.59407500  0.67388300  0.25056300  1
  Cu  Cu72  1  0.24943700  0.40592500  0.17388300  1
  Cu  Cu73  1  0.74943700  0.09407500  0.82611700  1
  Cu  Cu74  1  0.25056300  0.59407500  0.67388300  1
  Cu  Cu75  1  0.75056300  0.90592500  0.32611700  1
