# generated using pymatgen
data_CuNiC24
_symmetry_space_group_name_H-M   'P 1'
_cell_length_a   8.61179452
_cell_length_b   8.61179452
_cell_length_c   8.61179470
_cell_angle_alpha   77.83245129
_cell_angle_beta   77.83245129
_cell_angle_gamma   77.83245868
_symmetry_Int_Tables_number   1
_chemical_formula_structural   CuNiC24
_chemical_formula_sum   'Cu2 Ni2 C48'
_cell_volume   600.98528231
_cell_formula_units_Z   2
loop_
 _symmetry_equiv_pos_site_id
 _symmetry_equiv_pos_as_xyz
  1  'x, y, z'
loop_
 _atom_site_type_symbol
 _atom_site_label
 _atom_site_symmetry_multiplicity
 _atom_site_fract_x
 _atom_site_fract_y
 _atom_site_fract_z
 _atom_site_occupancy
  Ni  Ni0  1  0.49219200  0.49219200  0.49219200  1
  Ni  Ni1  1  0.99219200  0.99219200  0.99219200  1
  Cu  Cu2  1  0.23313300  0.23313300  0.23313300  1
  Cu  Cu3  1  0.73313300  0.73313300  0.73313300  1
  C  C4  1  0.62513000  0.76886600  0.10389300  1
  C  C5  1  0.71128600  0.27530900  0.83366000  1
  C  C6  1  0.33366000  0.77530900  0.21128600  1
  C  C7  1  0.21128600  0.33366000  0.77530900  1
  C  C8  1  0.26886600  0.12513000  0.60389300  1
  C  C9  1  0.60389300  0.26886600  0.12513000  1
  C  C10  1  0.12513000  0.60389300  0.26886600  1
  C  C11  1  0.27530900  0.83366000  0.71128600  1
  C  C12  1  0.76886600  0.10389300  0.62513000  1
  C  C13  1  0.10389300  0.62513000  0.76886600  1
  C  C14  1  0.28057900  0.93976200  0.42276800  1
  C  C15  1  0.42276800  0.28057900  0.93976200  1
  C  C16  1  0.93976200  0.42276800  0.28057900  1
  C  C17  1  0.78057900  0.92276800  0.43976200  1
  C  C18  1  0.43976200  0.78057900  0.92276800  1
  C  C19  1  0.92276800  0.43976200  0.78057900  1
  C  C20  1  0.83366000  0.71128600  0.27530900  1
  C  C21  1  0.77530900  0.21128600  0.33366000  1
  C  C22  1  0.76912100  0.79533000  0.12531400  1
  C  C23  1  0.12531400  0.76912100  0.79533000  1
  C  C24  1  0.23108100  0.50505500  0.73515200  1
  C  C25  1  0.50505500  0.73515200  0.23108100  1
  C  C26  1  0.79533000  0.12531400  0.76912100  1
  C  C27  1  0.00505500  0.73108100  0.23515200  1
  C  C28  1  0.73108100  0.23515200  0.00505500  1
  C  C29  1  0.23515200  0.00505500  0.73108100  1
  C  C30  1  0.27476100  0.25973700  0.92548700  1
  C  C31  1  0.25973700  0.92548700  0.27476100  1
  C  C32  1  0.92548700  0.27476100  0.25973700  1
  C  C33  1  0.75973700  0.77476100  0.42548700  1
  C  C34  1  0.77476100  0.42548700  0.75973700  1
  C  C35  1  0.42548700  0.75973700  0.77476100  1
  C  C36  1  0.26912100  0.62531400  0.29533000  1
  C  C37  1  0.29533000  0.26912100  0.62531400  1
  C  C38  1  0.30747700  0.81126300  0.54248400  1
  C  C39  1  0.54248400  0.30747700  0.81126300  1
  C  C40  1  0.81126300  0.54248400  0.30747700  1
  C  C41  1  0.80747700  0.04248400  0.31126300  1
  C  C42  1  0.31126300  0.80747700  0.04248400  1
  C  C43  1  0.04248400  0.31126300  0.80747700  1
  C  C44  1  0.27497400  0.09839700  0.44688900  1
  C  C45  1  0.44688900  0.27497400  0.09839700  1
  C  C46  1  0.09839700  0.44688900  0.27497400  1
  C  C47  1  0.77497400  0.94688900  0.59839700  1
  C  C48  1  0.59839700  0.77497400  0.94688900  1
  C  C49  1  0.94688900  0.59839700  0.77497400  1
  C  C50  1  0.73515200  0.23108100  0.50505500  1
  C  C51  1  0.62531400  0.29533000  0.26912100  1
