# generated using pymatgen
data_Cu4Ni5C13
_symmetry_space_group_name_H-M   'P 1'
_cell_length_a   9.67211500
_cell_length_b   9.67211500
_cell_length_c   10.59737700
_cell_angle_alpha   90.00000000
_cell_angle_beta   90.00000000
_cell_angle_gamma   90.00000000
_symmetry_Int_Tables_number   1
_chemical_formula_structural   Cu4Ni5C13
_chemical_formula_sum   'Cu16 Ni20 C52'
_cell_volume   991.38258973
_cell_formula_units_Z   4
loop_
 _symmetry_equiv_pos_site_id
 _symmetry_equiv_pos_as_xyz
  1  'x, y, z'
loop_
 _atom_site_type_symbol
 _atom_site_label
 _atom_site_symmetry_multiplicity
 _atom_site_fract_x
 _atom_site_fract_y
 _atom_site_fract_z
 _atom_site_occupancy
  C  C0  1  0.00000000  0.00000000  0.25000000  1
  C  C1  1  0.00000000  0.00000000  0.75000000  1
  C  C2  1  0.50000000  0.50000000  0.75000000  1
  C  C3  1  0.50000000  0.50000000  0.25000000  1
  C  C4  1  0.75740900  0.08227500  0.66594400  1
  C  C5  1  0.24259100  0.08227500  0.16594400  1
  C  C6  1  0.75740900  0.91772500  0.16594400  1
  C  C7  1  0.24259100  0.91772500  0.66594400  1
  C  C8  1  0.58227500  0.25740900  0.16594400  1
  C  C9  1  0.41772500  0.25740900  0.66594400  1
  C  C10  1  0.58227500  0.74259100  0.66594400  1
  C  C11  1  0.41772500  0.74259100  0.16594400  1
  C  C12  1  0.74259100  0.41772500  0.33405600  1
  C  C13  1  0.25740900  0.41772500  0.83405600  1
  C  C14  1  0.74259100  0.58227500  0.83405600  1
  C  C15  1  0.25740900  0.58227500  0.33405600  1
  C  C16  1  0.91772500  0.24259100  0.83405600  1
  C  C17  1  0.08227500  0.24259100  0.33405600  1
  C  C18  1  0.91772500  0.75740900  0.33405600  1
  C  C19  1  0.08227500  0.75740900  0.83405600  1
  C  C20  1  0.74950500  0.75631500  0.35729000  1
  C  C21  1  0.25049500  0.75631500  0.85729000  1
  C  C22  1  0.74950500  0.24368500  0.85729000  1
  C  C23  1  0.25049500  0.24368500  0.35729000  1
  C  C24  1  0.25631500  0.24950500  0.85729000  1
  C  C25  1  0.74368500  0.24950500  0.35729000  1
  C  C26  1  0.25631500  0.75049500  0.35729000  1
  C  C27  1  0.74368500  0.75049500  0.85729000  1
  C  C28  1  0.75049500  0.74368500  0.64271000  1
  C  C29  1  0.24950500  0.74368500  0.14271000  1
  C  C30  1  0.75049500  0.25631500  0.14271000  1
  C  C31  1  0.24950500  0.25631500  0.64271000  1
  C  C32  1  0.24368500  0.25049500  0.14271000  1
  C  C33  1  0.75631500  0.25049500  0.64271000  1
  C  C34  1  0.24368500  0.74950500  0.64271000  1
  C  C35  1  0.75631500  0.74950500  0.14271000  1
  C  C36  1  0.60591400  0.98697600  0.30483100  1
  C  C37  1  0.39408600  0.98697600  0.80483100  1
  C  C38  1  0.60591400  0.01302400  0.80483100  1
  C  C39  1  0.39408600  0.01302400  0.30483100  1
  C  C40  1  0.48697600  0.10591400  0.80483100  1
  C  C41  1  0.51302400  0.10591400  0.30483100  1
  C  C42  1  0.48697600  0.89408600  0.30483100  1
  C  C43  1  0.51302400  0.89408600  0.80483100  1
  C  C44  1  0.89408600  0.51302400  0.69516900  1
  C  C45  1  0.10591400  0.51302400  0.19516900  1
  C  C46  1  0.89408600  0.48697600  0.19516900  1
  C  C47  1  0.10591400  0.48697600  0.69516900  1
  C  C48  1  0.01302400  0.39408600  0.19516900  1
  C  C49  1  0.98697600  0.39408600  0.69516900  1
  C  C50  1  0.01302400  0.60591400  0.69516900  1
  C  C51  1  0.98697600  0.60591400  0.19516900  1
  Ni  Ni52  1  0.81333800  0.82921000  0.18254500  1
  Ni  Ni53  1  0.18666200  0.82921000  0.68254500  1
  Ni  Ni54  1  0.81333800  0.17079000  0.68254500  1
  Ni  Ni55  1  0.18666200  0.17079000  0.18254500  1
  Ni  Ni56  1  0.32921000  0.31333800  0.68254500  1
  Ni  Ni57  1  0.67079000  0.31333800  0.18254500  1
  Ni  Ni58  1  0.32921000  0.68666200  0.18254500  1
  Ni  Ni59  1  0.67079000  0.68666200  0.68254500  1
  Ni  Ni60  1  0.68666200  0.67079000  0.81745500  1
  Ni  Ni61  1  0.31333800  0.67079000  0.31745500  1
  Ni  Ni62  1  0.68666200  0.32921000  0.31745500  1
  Ni  Ni63  1  0.31333800  0.32921000  0.81745500  1
  Ni  Ni64  1  0.17079000  0.18666200  0.31745500  1
  Ni  Ni65  1  0.82921000  0.18666200  0.81745500  1
  Ni  Ni66  1  0.17079000  0.81333800  0.81745500  1
  Ni  Ni67  1  0.82921000  0.81333800  0.31745500  1
  Ni  Ni68  1  0.00000000  0.50000000  0.22923800  1
  Ni  Ni69  1  0.00000000  0.50000000  0.72923800  1
  Ni  Ni70  1  0.50000000  0.00000000  0.77076200  1
  Ni  Ni71  1  0.50000000  0.00000000  0.27076200  1
  Cu  Cu72  1  0.87206900  0.13113500  0.37939400  1
  Cu  Cu73  1  0.12793100  0.13113500  0.87939400  1
  Cu  Cu74  1  0.87206900  0.86886500  0.87939400  1
  Cu  Cu75  1  0.12793100  0.86886500  0.37939400  1
  Cu  Cu76  1  0.63113500  0.37206900  0.87939400  1
  Cu  Cu77  1  0.36886500  0.37206900  0.37939400  1
  Cu  Cu78  1  0.63113500  0.62793100  0.37939400  1
  Cu  Cu79  1  0.36886500  0.62793100  0.87939400  1
  Cu  Cu80  1  0.62793100  0.36886500  0.62060600  1
  Cu  Cu81  1  0.37206900  0.36886500  0.12060600  1
  Cu  Cu82  1  0.62793100  0.63113500  0.12060600  1
  Cu  Cu83  1  0.37206900  0.63113500  0.62060600  1
  Cu  Cu84  1  0.86886500  0.12793100  0.12060600  1
  Cu  Cu85  1  0.13113500  0.12793100  0.62060600  1
  Cu  Cu86  1  0.86886500  0.87206900  0.62060600  1
  Cu  Cu87  1  0.13113500  0.87206900  0.12060600  1
