# generated using pymatgen
data_Cu7(NiC)4
_symmetry_space_group_name_H-M   'P 1'
_cell_length_a   5.14593100
_cell_length_b   9.79145117
_cell_length_c   9.79145117
_cell_angle_alpha   86.04048187
_cell_angle_beta   74.76510960
_cell_angle_gamma   74.76510960
_symmetry_Int_Tables_number   1
_chemical_formula_structural   Cu7(NiC)4
_chemical_formula_sum   'Cu14 Ni8 C8'
_cell_volume   459.28649603
_cell_formula_units_Z   2
loop_
 _symmetry_equiv_pos_site_id
 _symmetry_equiv_pos_as_xyz
  1  'x, y, z'
loop_
 _atom_site_type_symbol
 _atom_site_label
 _atom_site_symmetry_multiplicity
 _atom_site_fract_x
 _atom_site_fract_y
 _atom_site_fract_z
 _atom_site_occupancy
  C  C0  1  0.13963500  0.00000000  0.72073000  1
  C  C1  1  0.86036500  0.00000000  0.27927000  1
  C  C2  1  0.86036500  0.27927000  0.00000000  1
  C  C3  1  0.13963500  0.72073000  0.00000000  1
  C  C4  1  0.50000000  0.19492100  0.80507900  1
  C  C5  1  0.50000000  0.80507900  0.19492100  1
  C  C6  1  0.30507900  0.19492100  0.19492100  1
  C  C7  1  0.69492100  0.80507900  0.80507900  1
  Ni  Ni8  1  0.39879500  0.50000000  0.20241000  1
  Ni  Ni9  1  0.10120500  0.50000000  0.79759000  1
  Ni  Ni10  1  0.10120500  0.79759000  0.50000000  1
  Ni  Ni11  1  0.39879500  0.20241000  0.50000000  1
  Ni  Ni12  1  0.60120500  0.79759000  0.50000000  1
  Ni  Ni13  1  0.89879500  0.20241000  0.50000000  1
  Ni  Ni14  1  0.89879500  0.50000000  0.20241000  1
  Ni  Ni15  1  0.60120500  0.50000000  0.79759000  1
  Cu  Cu16  1  0.29379500  0.00000000  0.41241000  1
  Cu  Cu17  1  0.70620500  0.00000000  0.58759000  1
  Cu  Cu18  1  0.70620500  0.58759000  0.00000000  1
  Cu  Cu19  1  0.29379500  0.41241000  0.00000000  1
  Cu  Cu20  1  0.00000000  0.29031600  0.70968400  1
  Cu  Cu21  1  0.00000000  0.70968400  0.29031600  1
  Cu  Cu22  1  0.70968400  0.29031600  0.29031600  1
  Cu  Cu23  1  0.29031600  0.70968400  0.70968400  1
  Cu  Cu24  1  0.50000000  0.40627400  0.59372600  1
  Cu  Cu25  1  0.50000000  0.59372600  0.40627400  1
  Cu  Cu26  1  0.09372600  0.40627400  0.40627400  1
  Cu  Cu27  1  0.90627400  0.59372600  0.59372600  1
  Cu  Cu28  1  0.75125000  0.00000000  0.00000000  1
  Cu  Cu29  1  0.24875000  0.00000000  0.00000000  1
