# generated using pymatgen
data_Cu5Ni3C17
_symmetry_space_group_name_H-M   'P 1'
_cell_length_a   8.13170914
_cell_length_b   8.44127139
_cell_length_c   11.30454597
_cell_angle_alpha   80.52731358
_cell_angle_beta   70.00790340
_cell_angle_gamma   61.22920305
_symmetry_Int_Tables_number   1
_chemical_formula_structural   Cu5Ni3C17
_chemical_formula_sum   'Cu10 Ni6 C34'
_cell_volume   639.18736192
_cell_formula_units_Z   2
loop_
 _symmetry_equiv_pos_site_id
 _symmetry_equiv_pos_as_xyz
  1  'x, y, z'
loop_
 _atom_site_type_symbol
 _atom_site_label
 _atom_site_symmetry_multiplicity
 _atom_site_fract_x
 _atom_site_fract_y
 _atom_site_fract_z
 _atom_site_occupancy
  C  C0  1  0.12488700  0.99977700  0.13246300  1
  C  C1  1  0.24346400  0.00007100  0.46736800  1
  C  C2  1  0.70890600  0.00048300  0.53745900  1
  C  C3  1  0.05327800  0.71893500  0.82596900  1
  C  C4  1  0.58193500  0.28636800  0.17586300  1
  C  C5  1  0.77231600  0.28114000  0.82584100  1
  C  C6  1  0.86860800  0.71353700  0.17559300  1
  Ni  Ni7  1  0.27714500  0.34689700  0.99664700  1
  Ni  Ni8  1  0.20696400  0.33609500  0.66934100  1
  Ni  Ni9  1  0.19925800  0.66896200  0.33509600  1
  Ni  Ni10  1  0.62426900  0.65246900  0.99688000  1
  Ni  Ni11  1  0.54326900  0.66409500  0.66918900  1
  Ni  Ni12  1  0.86820500  0.33113500  0.33502600  1
  Cu  Cu13  1  0.18821200  0.25628600  0.23971000  1
  Cu  Cu14  1  0.13583400  0.24205900  0.91591300  1
  Cu  Cu15  1  0.07989500  0.65901900  0.54246200  1
  Cu  Cu16  1  0.26622000  0.34102300  0.46401300  1
  Cu  Cu17  1  0.43980000  0.25651100  0.75877800  1
  Cu  Cu18  1  0.44459900  0.74368500  0.23975000  1
  Cu  Cu19  1  0.37825200  0.75709500  0.91606400  1
  Cu  Cu20  1  0.60732900  0.65926300  0.46396700  1
  Cu  Cu21  1  0.73884200  0.34144700  0.54237000  1
  Cu  Cu22  1  0.69600800  0.74405900  0.75871500  1
  C  C23  1  0.60498700  0.00006400  0.32074600  1
  C  C24  1  0.87707900  0.99949100  0.00384300  1
  C  C25  1  0.93346400  0.00007100  0.68334700  1
  C  C26  1  0.18306100  0.21996800  0.99122300  1
  C  C27  1  0.09959300  0.22116400  0.31753500  1
  C  C28  1  0.11561300  0.54667100  0.99945100  1
  C  C29  1  0.07458000  0.27828400  0.77807500  1
  C  C30  1  0.32893700  0.29457900  0.12093000  1
  C  C31  1  0.09744500  0.73558300  0.23397300  1
  C  C32  1  0.22629400  0.26887300  0.53934400  1
  C  C33  1  0.03819900  0.73613400  0.46823800  1
  C  C34  1  0.14457400  0.53942400  0.65870400  1
  C  C35  1  0.33111300  0.46567100  0.34220800  1
  C  C36  1  0.40328700  0.77910800  0.99138100  1
  C  C37  1  0.42494600  0.22746800  0.67876300  1
  C  C38  1  0.32067900  0.77905800  0.31753000  1
  C  C39  1  0.66271500  0.45265500  0.99958700  1
  C  C40  1  0.45561000  0.30782800  0.87845900  1
  C  C41  1  0.35274800  0.72157200  0.77809900  1
  C  C42  1  0.62376900  0.70495300  0.12094300  1
  C  C43  1  0.49525900  0.73130100  0.53928200  1
  C  C44  1  0.83306400  0.26449200  0.23389300  1
  C  C45  1  0.77407400  0.26430900  0.46815600  1
  C  C46  1  0.68430100  0.46107100  0.65864300  1
  C  C47  1  0.79682800  0.53464100  0.34207300  1
  C  C48  1  0.65191300  0.77335900  0.67884800  1
  C  C49  1  0.76355400  0.69179600  0.87845000  1
