# generated using pymatgen
data_Cu3Ni2C3
_symmetry_space_group_name_H-M   'P 1'
_cell_length_a   5.57269637
_cell_length_b   5.57269637
_cell_length_c   13.44610300
_cell_angle_alpha   90.00000000
_cell_angle_beta   90.00000000
_cell_angle_gamma   137.36501177
_symmetry_Int_Tables_number   1
_chemical_formula_structural   Cu3Ni2C3
_chemical_formula_sum   'Cu6 Ni4 C6'
_cell_volume   282.82938170
_cell_formula_units_Z   2
loop_
 _symmetry_equiv_pos_site_id
 _symmetry_equiv_pos_as_xyz
  1  'x, y, z'
loop_
 _atom_site_type_symbol
 _atom_site_label
 _atom_site_symmetry_multiplicity
 _atom_site_fract_x
 _atom_site_fract_y
 _atom_site_fract_z
 _atom_site_occupancy
  C  C0  1  0.63748900  0.36251100  0.25000000  1
  C  C1  1  0.36251100  0.63748900  0.75000000  1
  C  C2  1  0.92096700  0.07903300  0.11239500  1
  C  C3  1  0.07903300  0.92096700  0.88760500  1
  C  C4  1  0.07903300  0.92096700  0.61239500  1
  C  C5  1  0.92096700  0.07903300  0.38760500  1
  Ni  Ni6  1  0.78567700  0.21432300  0.58096800  1
  Ni  Ni7  1  0.21432300  0.78567700  0.41903200  1
  Ni  Ni8  1  0.21432300  0.78567700  0.08096800  1
  Ni  Ni9  1  0.78567700  0.21432300  0.91903200  1
  Cu  Cu10  1  0.32748600  0.67251400  0.25000000  1
  Cu  Cu11  1  0.67251400  0.32748600  0.75000000  1
  Cu  Cu12  1  0.62393000  0.37607000  0.03964100  1
  Cu  Cu13  1  0.37607000  0.62393000  0.96035900  1
  Cu  Cu14  1  0.37607000  0.62393000  0.53964100  1
  Cu  Cu15  1  0.62393000  0.37607000  0.46035900  1
