# generated using pymatgen
data_Cu5Ni3C
_symmetry_space_group_name_H-M   'P 1'
_cell_length_a   7.51839200
_cell_length_b   10.85600400
_cell_length_c   13.61804700
_cell_angle_alpha   90.00000000
_cell_angle_beta   90.00000000
_cell_angle_gamma   90.00000000
_symmetry_Int_Tables_number   1
_chemical_formula_structural   Cu5Ni3C
_chemical_formula_sum   'Cu20 Ni12 C4'
_cell_volume   1111.50082392
_cell_formula_units_Z   4
loop_
 _symmetry_equiv_pos_site_id
 _symmetry_equiv_pos_as_xyz
  1  'x, y, z'
loop_
 _atom_site_type_symbol
 _atom_site_label
 _atom_site_symmetry_multiplicity
 _atom_site_fract_x
 _atom_site_fract_y
 _atom_site_fract_z
 _atom_site_occupancy
  C  C0  1  0.74479400  0.75000000  0.60940000  1
  C  C1  1  0.25520600  0.25000000  0.39060000  1
  C  C2  1  0.24479400  0.25000000  0.89060000  1
  C  C3  1  0.75520600  0.75000000  0.10940000  1
  Ni  Ni4  1  0.97971700  0.75000000  0.58423200  1
  Ni  Ni5  1  0.02028300  0.25000000  0.41576800  1
  Ni  Ni6  1  0.47971700  0.25000000  0.91576800  1
  Ni  Ni7  1  0.52028300  0.75000000  0.08423200  1
  Ni  Ni8  1  0.85765700  0.50750900  0.85722600  1
  Ni  Ni9  1  0.14234300  0.49249100  0.14277400  1
  Ni  Ni10  1  0.35765700  0.49249100  0.64277400  1
  Ni  Ni11  1  0.14234300  0.00750900  0.14277400  1
  Ni  Ni12  1  0.64234300  0.50750900  0.35722600  1
  Ni  Ni13  1  0.85765700  0.99249100  0.85722600  1
  Ni  Ni14  1  0.64234300  0.99249100  0.35722600  1
  Ni  Ni15  1  0.35765700  0.00750900  0.64277400  1
  Cu  Cu16  1  0.57822900  0.75000000  0.48019600  1
  Cu  Cu17  1  0.42177100  0.25000000  0.51980400  1
  Cu  Cu18  1  0.07822900  0.25000000  0.01980400  1
  Cu  Cu19  1  0.92177100  0.75000000  0.98019600  1
  Cu  Cu20  1  0.15584100  0.75000000  0.64940100  1
  Cu  Cu21  1  0.84415900  0.25000000  0.35059900  1
  Cu  Cu22  1  0.65584100  0.25000000  0.85059900  1
  Cu  Cu23  1  0.34415900  0.75000000  0.14940100  1
  Cu  Cu24  1  0.78062700  0.54340300  0.61657800  1
  Cu  Cu25  1  0.21937300  0.45659700  0.38342200  1
  Cu  Cu26  1  0.28062700  0.45659700  0.88342200  1
  Cu  Cu27  1  0.21937300  0.04340300  0.38342200  1
  Cu  Cu28  1  0.71937300  0.54340300  0.11657800  1
  Cu  Cu29  1  0.78062700  0.95659700  0.61657800  1
  Cu  Cu30  1  0.71937300  0.95659700  0.11657800  1
  Cu  Cu31  1  0.28062700  0.04340300  0.88342200  1
  Cu  Cu32  1  0.59597200  0.75000000  0.74739000  1
  Cu  Cu33  1  0.40402800  0.25000000  0.25261000  1
  Cu  Cu34  1  0.09597200  0.25000000  0.75261000  1
  Cu  Cu35  1  0.90402800  0.75000000  0.24739000  1
