# generated using pymatgen
data_CuNi2C
_symmetry_space_group_name_H-M   'P 1'
_cell_length_a   4.04655659
_cell_length_b   4.04655659
_cell_length_c   20.50421900
_cell_angle_alpha   90.00000000
_cell_angle_beta   90.00000000
_cell_angle_gamma   90.13890690
_symmetry_Int_Tables_number   1
_chemical_formula_structural   CuNi2C
_chemical_formula_sum   'Cu4 Ni8 C4'
_cell_volume   335.74781195
_cell_formula_units_Z   4
loop_
 _symmetry_equiv_pos_site_id
 _symmetry_equiv_pos_as_xyz
  1  'x, y, z'
loop_
 _atom_site_type_symbol
 _atom_site_label
 _atom_site_symmetry_multiplicity
 _atom_site_fract_x
 _atom_site_fract_y
 _atom_site_fract_z
 _atom_site_occupancy
  C  C0  1  0.26279300  0.26279300  0.38276900  1
  C  C1  1  0.73720700  0.73720700  0.61723100  1
  C  C2  1  0.76279300  0.76279300  0.11723100  1
  C  C3  1  0.23720700  0.23720700  0.88276900  1
  Ni  Ni4  1  0.76303200  0.76303200  0.34532100  1
  Ni  Ni5  1  0.23696800  0.23696800  0.65467900  1
  Ni  Ni6  1  0.26303200  0.26303200  0.15467900  1
  Ni  Ni7  1  0.73696800  0.73696800  0.84532100  1
  Ni  Ni8  1  0.22725100  0.77274900  0.50000000  1
  Ni  Ni9  1  0.27274900  0.72725100  0.00000000  1
  Ni  Ni10  1  0.77274900  0.22725100  0.50000000  1
  Ni  Ni11  1  0.72725100  0.27274900  0.00000000  1
  Cu  Cu12  1  0.26590000  0.76590000  0.25000000  1
  Cu  Cu13  1  0.23410000  0.73410000  0.75000000  1
  Cu  Cu14  1  0.73410000  0.23410000  0.75000000  1
  Cu  Cu15  1  0.76590000  0.26590000  0.25000000  1
