# generated using pymatgen
data_CuNi5C8
_symmetry_space_group_name_H-M   'P 1'
_cell_length_a   7.10606500
_cell_length_b   9.44442000
_cell_length_c   9.63274875
_cell_angle_alpha   62.18431373
_cell_angle_beta   90.00000000
_cell_angle_gamma   90.00000000
_symmetry_Int_Tables_number   1
_chemical_formula_structural   CuNi5C8
_chemical_formula_sum   'Cu2 Ni10 C16'
_cell_volume   571.78082371
_cell_formula_units_Z   2
loop_
 _symmetry_equiv_pos_site_id
 _symmetry_equiv_pos_as_xyz
  1  'x, y, z'
loop_
 _atom_site_type_symbol
 _atom_site_label
 _atom_site_symmetry_multiplicity
 _atom_site_fract_x
 _atom_site_fract_y
 _atom_site_fract_z
 _atom_site_occupancy
  C  C0  1  0.75000000  0.95707200  0.72780400  1
  C  C1  1  0.25000000  0.04292800  0.27219600  1
  C  C2  1  0.25000000  0.18492200  0.69800400  1
  C  C3  1  0.75000000  0.81507800  0.30199600  1
  Ni  Ni4  1  0.07692300  0.33877700  0.52589900  1
  Ni  Ni5  1  0.57692300  0.66122300  0.47410100  1
  Ni  Ni6  1  0.92307700  0.66122300  0.47410100  1
  Ni  Ni7  1  0.42307700  0.33877700  0.52589900  1
  Ni  Ni8  1  0.09692800  0.22094600  0.85772800  1
  Ni  Ni9  1  0.59692800  0.77905400  0.14227200  1
  Ni  Ni10  1  0.90307200  0.77905400  0.14227200  1
  Ni  Ni11  1  0.40307200  0.22094600  0.85772800  1
  Ni  Ni12  1  0.25000000  0.98641500  0.72942500  1
  Ni  Ni13  1  0.75000000  0.01358500  0.27057500  1
  Cu  Cu14  1  0.25000000  0.42268500  0.39883700  1
  Cu  Cu15  1  0.75000000  0.57731500  0.60116300  1
  C  C16  1  0.33696000  0.55617800  0.88734300  1
  C  C17  1  0.83696000  0.44382200  0.11265700  1
  C  C18  1  0.66304000  0.44382200  0.11265700  1
  C  C19  1  0.16304000  0.55617800  0.88734300  1
  C  C20  1  0.75000000  0.77713400  0.05987900  1
  C  C21  1  0.25000000  0.22286600  0.94012100  1
  C  C22  1  0.75000000  0.10825300  0.73991100  1
  C  C23  1  0.25000000  0.89174700  0.26008900  1
  C  C24  1  0.57123300  0.87485000  0.72314400  1
  C  C25  1  0.07123300  0.12515000  0.27685600  1
  C  C26  1  0.42876700  0.12515000  0.27685600  1
  C  C27  1  0.92876700  0.87485000  0.72314400  1
