# generated using pymatgen
data_Cu2Ni2C3
_symmetry_space_group_name_H-M   'P 1'
_cell_length_a   5.80823600
_cell_length_b   8.06007600
_cell_length_c   13.75538700
_cell_angle_alpha   90.00000000
_cell_angle_beta   90.00000000
_cell_angle_gamma   90.00000000
_symmetry_Int_Tables_number   1
_chemical_formula_structural   Cu2Ni2C3
_chemical_formula_sum   'Cu8 Ni8 C12'
_cell_volume   643.95601576
_cell_formula_units_Z   4
loop_
 _symmetry_equiv_pos_site_id
 _symmetry_equiv_pos_as_xyz
  1  'x, y, z'
loop_
 _atom_site_type_symbol
 _atom_site_label
 _atom_site_symmetry_multiplicity
 _atom_site_fract_x
 _atom_site_fract_y
 _atom_site_fract_z
 _atom_site_occupancy
  C  C0  1  0.14724900  0.89668400  0.59829000  1
  C  C1  1  0.85275100  0.10331600  0.09829000  1
  C  C2  1  0.14724900  0.60331600  0.40171000  1
  C  C3  1  0.85275100  0.39668400  0.90171000  1
  C  C4  1  0.85275100  0.10331600  0.40171000  1
  C  C5  1  0.14724900  0.89668400  0.90171000  1
  C  C6  1  0.85275100  0.39668400  0.59829000  1
  C  C7  1  0.14724900  0.60331600  0.09829000  1
  C  C8  1  0.36843300  0.25302600  0.75000000  1
  C  C9  1  0.63156700  0.74697400  0.25000000  1
  C  C10  1  0.36843300  0.24697400  0.25000000  1
  C  C11  1  0.63156700  0.75302600  0.75000000  1
  Ni  Ni12  1  0.85707900  0.10256300  0.75000000  1
  Ni  Ni13  1  0.14292100  0.89743700  0.25000000  1
  Ni  Ni14  1  0.85707900  0.39743700  0.25000000  1
  Ni  Ni15  1  0.14292100  0.60256300  0.75000000  1
  Ni  Ni16  1  0.38546800  0.25000000  0.50000000  1
  Ni  Ni17  1  0.61453200  0.75000000  0.00000000  1
  Ni  Ni18  1  0.61453200  0.75000000  0.50000000  1
  Ni  Ni19  1  0.38546800  0.25000000  0.00000000  1
  Cu  Cu20  1  0.64270200  0.03110700  0.58995700  1
  Cu  Cu21  1  0.35729800  0.96889300  0.08995700  1
  Cu  Cu22  1  0.64270200  0.46889300  0.41004300  1
  Cu  Cu23  1  0.35729800  0.53110700  0.91004300  1
  Cu  Cu24  1  0.35729800  0.96889300  0.41004300  1
  Cu  Cu25  1  0.64270200  0.03110700  0.91004300  1
  Cu  Cu26  1  0.35729800  0.53110700  0.58995700  1
  Cu  Cu27  1  0.64270200  0.46889300  0.08995700  1
