# generated using pymatgen
data_CuNiC
_symmetry_space_group_name_H-M   'P 1'
_cell_length_a   4.06969977
_cell_length_b   4.06969977
_cell_length_c   7.03571247
_cell_angle_alpha   82.16327528
_cell_angle_beta   82.16327528
_cell_angle_gamma   90.17357704
_symmetry_Int_Tables_number   1
_chemical_formula_structural   CuNiC
_chemical_formula_sum   'Cu2 Ni2 C2'
_cell_volume   114.33448282
_cell_formula_units_Z   2
loop_
 _symmetry_equiv_pos_site_id
 _symmetry_equiv_pos_as_xyz
  1  'x, y, z'
loop_
 _atom_site_type_symbol
 _atom_site_label
 _atom_site_symmetry_multiplicity
 _atom_site_fract_x
 _atom_site_fract_y
 _atom_site_fract_z
 _atom_site_occupancy
  C  C0  1  0.71784600  0.71784600  0.67671500  1
  C  C1  1  0.28215400  0.28215400  0.32328500  1
  Ni  Ni2  1  0.85469100  0.85469100  0.11635900  1
  Ni  Ni3  1  0.14530900  0.14530900  0.88364100  1
  Cu  Cu4  1  0.74415100  0.25584900  0.50000000  1
  Cu  Cu5  1  0.25584900  0.74415100  0.50000000  1
