# generated using pymatgen
data_Cu17NiC14
_symmetry_space_group_name_H-M   'P 1'
_cell_length_a   9.51437076
_cell_length_b   9.51437076
_cell_length_c   13.91416071
_cell_angle_alpha   89.84609936
_cell_angle_beta   89.84609936
_cell_angle_gamma   86.56091571
_symmetry_Int_Tables_number   1
_chemical_formula_structural   Cu17NiC14
_chemical_formula_sum   'Cu68 Ni4 C56'
_cell_volume   1257.27822128
_cell_formula_units_Z   4
loop_
 _symmetry_equiv_pos_site_id
 _symmetry_equiv_pos_as_xyz
  1  'x, y, z'
loop_
 _atom_site_type_symbol
 _atom_site_label
 _atom_site_symmetry_multiplicity
 _atom_site_fract_x
 _atom_site_fract_y
 _atom_site_fract_z
 _atom_site_occupancy
  C  C0  1  0.98111200  0.18927100  0.17764400  1
  C  C1  1  0.18927100  0.98111200  0.67764400  1
  C  C2  1  0.26237200  0.74069200  0.22162800  1
  C  C3  1  0.74069200  0.26237200  0.72162800  1
  C  C4  1  0.67895200  0.47159300  0.27474800  1
  C  C5  1  0.47159300  0.67895200  0.77474800  1
  Ni  Ni6  1  0.16741000  0.50640900  0.47387300  1
  Ni  Ni7  1  0.50640900  0.16741000  0.97387300  1
  Ni  Ni8  1  0.99639400  0.66607400  0.97473000  1
  Ni  Ni9  1  0.66607400  0.99639400  0.47473000  1
  Cu  Cu10  1  0.79561100  0.48217300  0.04906600  1
  Cu  Cu11  1  0.48217300  0.79561100  0.54906600  1
  Cu  Cu12  1  0.68243000  0.36791900  0.05306400  1
  Cu  Cu13  1  0.36791900  0.68243000  0.55306400  1
  Cu  Cu14  1  0.03120900  0.51534600  0.28258300  1
  Cu  Cu15  1  0.51534600  0.03120900  0.78258300  1
  Cu  Cu16  1  0.01492600  0.52907900  0.16678600  1
  Cu  Cu17  1  0.52907900  0.01492600  0.66678600  1
  Cu  Cu18  1  0.21796400  0.26602800  0.01263700  1
  Cu  Cu19  1  0.26602800  0.21796400  0.51263700  1
  Cu  Cu20  1  0.14751300  0.42017700  0.04350600  1
  Cu  Cu21  1  0.42017700  0.14751300  0.54350600  1
  Cu  Cu22  1  0.19697100  0.26836500  0.35228400  1
  Cu  Cu23  1  0.26836500  0.19697100  0.85228400  1
  Cu  Cu24  1  0.25698300  0.12882700  0.30651500  1
  Cu  Cu25  1  0.12882700  0.25698300  0.80651500  1
  Cu  Cu26  1  0.97256500  0.30337900  0.40460300  1
  Cu  Cu27  1  0.30337900  0.97256500  0.90460300  1
  Cu  Cu28  1  0.86567100  0.18267800  0.39916600  1
  Cu  Cu29  1  0.18267800  0.86567100  0.89916600  1
  Cu  Cu30  1  0.64203700  0.14605800  0.16514900  1
  Cu  Cu31  1  0.14605800  0.64203700  0.66514900  1
  Cu  Cu32  1  0.64990400  0.12942800  0.28069100  1
  Cu  Cu33  1  0.12942800  0.64990400  0.78069100  1
  Cu  Cu34  1  0.91329600  0.97566600  0.99280800  1
  Cu  Cu35  1  0.97566600  0.91329600  0.49280800  1
  Cu  Cu36  1  0.76775800  0.06079000  0.02518200  1
  Cu  Cu37  1  0.06079000  0.76775800  0.52518200  1
  Cu  Cu38  1  0.88429000  0.86427200  0.23250600  1
  Cu  Cu39  1  0.86427200  0.88429000  0.73250600  1
  Cu  Cu40  1  0.92603500  0.93305300  0.32967400  1
  Cu  Cu41  1  0.93305300  0.92603500  0.82967400  1
  Cu  Cu42  1  0.24337300  0.02364100  0.05866100  1
  Cu  Cu43  1  0.02364100  0.24337300  0.55866100  1
  Cu  Cu44  1  0.11984800  0.92232400  0.04736300  1
  Cu  Cu45  1  0.92232400  0.11984800  0.54736300  1
  Cu  Cu46  1  0.20494400  0.92611000  0.42313700  1
  Cu  Cu47  1  0.92611000  0.20494400  0.92313700  1
  Cu  Cu48  1  0.35721600  0.96946700  0.39290000  1
  Cu  Cu49  1  0.96946700  0.35721600  0.89290000  1
  Cu  Cu50  1  0.51527100  0.96878800  0.15460300  1
  Cu  Cu51  1  0.96878800  0.51527100  0.65460300  1
  Cu  Cu52  1  0.52010900  0.95624600  0.26857000  1
  Cu  Cu53  1  0.95624600  0.52010900  0.76857000  1
  Cu  Cu54  1  0.48887800  0.76604100  0.02805100  1
  Cu  Cu55  1  0.76604100  0.48887800  0.52805100  1
  Cu  Cu56  1  0.38740100  0.64675500  0.00835500  1
  Cu  Cu57  1  0.64675500  0.38740100  0.50835500  1
  Cu  Cu58  1  0.42326000  0.41120100  0.12422500  1
  Cu  Cu59  1  0.41120100  0.42326000  0.62422500  1
  Cu  Cu60  1  0.34902700  0.36264200  0.21904300  1
  Cu  Cu61  1  0.36264200  0.34902700  0.71904300  1
  Cu  Cu62  1  0.53591100  0.73229500  0.39908500  1
  Cu  Cu63  1  0.73229500  0.53591100  0.89908500  1
  Cu  Cu64  1  0.43192700  0.60996300  0.41238200  1
  Cu  Cu65  1  0.60996300  0.43192700  0.91238200  1
  Cu  Cu66  1  0.74520600  0.73267100  0.11547000  1
  Cu  Cu67  1  0.73267100  0.74520600  0.61547000  1
  Cu  Cu68  1  0.85914900  0.66649900  0.18145100  1
  Cu  Cu69  1  0.66649900  0.85914900  0.68145100  1
  Cu  Cu70  1  0.75903000  0.70643000  0.44310700  1
  Cu  Cu71  1  0.70643000  0.75903000  0.94310700  1
  Cu  Cu72  1  0.91163400  0.63590700  0.41166600  1
  Cu  Cu73  1  0.63590700  0.91163400  0.91166600  1
  Cu  Cu74  1  0.52713200  0.23416700  0.40531200  1
  Cu  Cu75  1  0.23416700  0.52713200  0.90531200  1
  Cu  Cu76  1  0.45039300  0.38654700  0.44250600  1
  Cu  Cu77  1  0.38654700  0.45039300  0.94250600  1
  C  C78  1  0.07334900  0.59224900  0.56434900  1
  C  C79  1  0.59224900  0.07334900  0.06434900  1
  C  C80  1  0.13233400  0.32950800  0.46700300  1
  C  C81  1  0.32950800  0.13233400  0.96700300  1
  C  C82  1  0.34613700  0.51519100  0.49785700  1
  C  C83  1  0.51519100  0.34613700  0.99785700  1
  C  C84  1  0.12280500  0.58629100  0.36628000  1
  C  C85  1  0.58629100  0.12280500  0.86628000  1
  C  C86  1  0.81840500  0.63981000  0.98699000  1
  C  C87  1  0.63981000  0.81840500  0.48699000  1
  C  C88  1  0.08209400  0.61794500  0.07985700  1
  C  C89  1  0.61794500  0.08209400  0.57985700  1
  C  C90  1  0.06037400  0.56272900  0.88058600  1
  C  C91  1  0.56272900  0.06037400  0.38058600  1
  C  C92  1  0.01998300  0.84245500  0.95107600  1
  C  C93  1  0.84245500  0.01998300  0.45107600  1
  C  C94  1  0.77068700  0.39562900  0.08454100  1
  C  C95  1  0.39562900  0.77068700  0.58454100  1
  C  C96  1  0.97168500  0.48750300  0.22611500  1
  C  C97  1  0.48750300  0.97168500  0.72611500  1
  C  C98  1  0.13779100  0.31810000  0.04599200  1
  C  C99  1  0.31810000  0.13779100  0.54599200  1
  C  C100  1  0.23035800  0.22772200  0.28952700  1
  C  C101  1  0.22772200  0.23035800  0.78952700  1
  C  C102  1  0.89069700  0.27237300  0.36736400  1
  C  C103  1  0.27237300  0.89069700  0.86736400  1
  C  C104  1  0.68900100  0.18046300  0.22485800  1
  C  C105  1  0.18046300  0.68900100  0.72485800  1
  C  C106  1  0.87088200  0.06980500  0.01280000  1
  C  C107  1  0.06980500  0.87088200  0.51280000  1
  C  C108  1  0.96114400  0.91246600  0.26401000  1
  C  C109  1  0.91246600  0.96114400  0.76401000  1
  C  C110  1  0.17364200  0.97270600  0.09646000  1
  C  C111  1  0.97270600  0.17364200  0.59646000  1
  C  C112  1  0.26518900  0.94741200  0.36721800  1
  C  C113  1  0.94741200  0.26518900  0.86721800  1
  C  C114  1  0.47928300  0.91637600  0.21031800  1
  C  C115  1  0.91637600  0.47928300  0.71031800  1
  C  C116  1  0.42926300  0.70050200  0.06118300  1
  C  C117  1  0.70050200  0.42926300  0.56118300  1
  C  C118  1  0.40025800  0.43995000  0.19092200  1
  C  C119  1  0.43995000  0.40025800  0.69092200  1
  C  C120  1  0.48259700  0.66352300  0.36212500  1
  C  C121  1  0.66352300  0.48259700  0.86212500  1
  C  C122  1  0.77456300  0.73113400  0.18305800  1
  C  C123  1  0.73113400  0.77456300  0.68305900  1
  C  C124  1  0.81161000  0.61799200  0.41930200  1
  C  C125  1  0.61799200  0.81161000  0.91930200  1
  C  C126  1  0.53759500  0.33761200  0.41554400  1
  C  C127  1  0.33761200  0.53759500  0.91554400  1
