# generated using pymatgen
data_Cu2NiC34
_symmetry_space_group_name_H-M   'P 1'
_cell_length_a   8.99670042
_cell_length_b   8.74202842
_cell_length_c   8.73878726
_cell_angle_alpha   59.54242470
_cell_angle_beta   58.45942287
_cell_angle_gamma   58.44842439
_symmetry_Int_Tables_number   1
_chemical_formula_structural   Cu2NiC34
_chemical_formula_sum   'Cu2 Ni1 C34'
_cell_volume   472.74485078
_cell_formula_units_Z   1
loop_
 _symmetry_equiv_pos_site_id
 _symmetry_equiv_pos_as_xyz
  1  'x, y, z'
loop_
 _atom_site_type_symbol
 _atom_site_label
 _atom_site_symmetry_multiplicity
 _atom_site_fract_x
 _atom_site_fract_y
 _atom_site_fract_z
 _atom_site_occupancy
  C  C0  1  0.12369900  0.62574200  0.63089600  1
  Ni  Ni1  1  0.56997300  0.14269000  0.14388600  1
  Cu  Cu2  1  0.00227500  0.99748800  0.99666400  1
  Cu  Cu3  1  0.52608700  0.49448700  0.49139600  1
  C  C4  1  0.75873700  0.74885700  0.74366300  1
  C  C5  1  0.41314300  0.86006600  0.86383400  1
  C  C6  1  0.95903700  0.34690900  0.34808400  1
  C  C7  1  0.25618900  0.24397100  0.54201000  1
  C  C8  1  0.27725300  0.94678100  0.24958900  1
  C  C9  1  0.26402900  0.53619000  0.95579300  1
  C  C10  1  0.76405600  0.44207800  0.04622800  1
  C  C11  1  0.75008900  0.05545100  0.74348600  1
  C  C12  1  0.77217000  0.74665600  0.43644000  1
  C  C13  1  0.09666200  0.09466900  0.32931600  1
  C  C14  1  0.08871600  0.48869400  0.09825200  1
  C  C15  1  0.08732300  0.31348100  0.49240200  1
  C  C16  1  0.22921500  0.08141000  0.73975200  1
  C  C17  1  0.44084200  0.16111100  0.38799900  1
  C  C18  1  0.28613000  0.39398400  0.55221600  1
  C  C19  1  0.25624500  0.93869000  0.08869700  1
  C  C20  1  0.31281000  0.74831400  0.40082200  1
  C  C21  1  0.59011800  0.60997400  0.99583100  1
  C  C22  1  0.30809800  0.54412600  0.75637700  1
  C  C23  1  0.77497300  0.25188700  0.05851000  1
  C  C24  1  0.58177400  0.00707900  0.79488000  1
  C  C25  1  0.44969300  0.00036500  0.17348000  1
  C  C26  1  0.23111000  0.73364200  0.95195600  1
  C  C27  1  0.74926500  0.42778700  0.23635500  1
  C  C28  1  0.43750300  0.38636100  0.01435600  1
  C  C29  1  0.74255700  0.24571600  0.58020400  1
  C  C30  1  0.75059500  0.07640900  0.90908500  1
  C  C31  1  0.76699800  0.58496600  0.41807800  1
  C  C32  1  0.59365500  0.80329500  0.60751200  1
  C  C33  1  0.77726200  0.91371200  0.24417900  1
  C  C34  1  0.93630900  0.70158400  0.48479700  1
  C  C35  1  0.93289800  0.49355100  0.87626000  1
  C  C36  1  0.92376000  0.88213900  0.69484000  1
