# generated using pymatgen
data_CuNiC5
_symmetry_space_group_name_H-M   'P 1'
_cell_length_a   12.07489400
_cell_length_b   3.61364800
_cell_length_c   12.47187800
_cell_angle_alpha   90.00000000
_cell_angle_beta   90.00000000
_cell_angle_gamma   90.00000000
_symmetry_Int_Tables_number   1
_chemical_formula_structural   CuNiC5
_chemical_formula_sum   'Cu4 Ni4 C20'
_cell_volume   544.20311985
_cell_formula_units_Z   4
loop_
 _symmetry_equiv_pos_site_id
 _symmetry_equiv_pos_as_xyz
  1  'x, y, z'
loop_
 _atom_site_type_symbol
 _atom_site_label
 _atom_site_symmetry_multiplicity
 _atom_site_fract_x
 _atom_site_fract_y
 _atom_site_fract_z
 _atom_site_occupancy
  C  C0  1  0.15129100  0.25000000  0.71140700  1
  C  C1  1  0.84870900  0.75000000  0.28859300  1
  C  C2  1  0.34870900  0.75000000  0.21140700  1
  C  C3  1  0.65129100  0.25000000  0.78859300  1
  Ni  Ni4  1  0.10834300  0.25000000  0.07241500  1
  Ni  Ni5  1  0.89165700  0.75000000  0.92758500  1
  Ni  Ni6  1  0.39165700  0.75000000  0.57241500  1
  Ni  Ni7  1  0.60834300  0.25000000  0.42758500  1
  Cu  Cu8  1  0.13805000  0.75000000  0.41271400  1
  Cu  Cu9  1  0.86195000  0.25000000  0.58728600  1
  Cu  Cu10  1  0.36195000  0.25000000  0.91271400  1
  Cu  Cu11  1  0.63805000  0.75000000  0.08728600  1
  C  C12  1  0.04407600  0.75000000  0.61608300  1
  C  C13  1  0.95592400  0.25000000  0.38391700  1
  C  C14  1  0.45592400  0.25000000  0.11608300  1
  C  C15  1  0.54407600  0.75000000  0.88391700  1
  C  C16  1  0.02718400  0.25000000  0.88900300  1
  C  C17  1  0.97281600  0.75000000  0.11099700  1
  C  C18  1  0.47281600  0.75000000  0.38900300  1
  C  C19  1  0.52718400  0.25000000  0.61099700  1
  C  C20  1  0.19871100  0.25000000  0.25002500  1
  C  C21  1  0.80128900  0.75000000  0.74997500  1
  C  C22  1  0.30128900  0.75000000  0.75002500  1
  C  C23  1  0.69871100  0.25000000  0.24997500  1
  C  C24  1  0.23060500  0.75000000  0.03049300  1
  C  C25  1  0.76939500  0.25000000  0.96950700  1
  C  C26  1  0.26939500  0.25000000  0.53049300  1
  C  C27  1  0.73060500  0.75000000  0.46950700  1
