# generated using pymatgen
data_CuNiC19
_symmetry_space_group_name_H-M   'P 1'
_cell_length_a   6.47822955
_cell_length_b   6.50374825
_cell_length_c   6.52152685
_cell_angle_alpha   83.84981702
_cell_angle_beta   83.62167434
_cell_angle_gamma   83.53257481
_symmetry_Int_Tables_number   1
_chemical_formula_structural   CuNiC19
_chemical_formula_sum   'Cu1 Ni1 C19'
_cell_volume   270.08289541
_cell_formula_units_Z   1
loop_
 _symmetry_equiv_pos_site_id
 _symmetry_equiv_pos_as_xyz
  1  'x, y, z'
loop_
 _atom_site_type_symbol
 _atom_site_label
 _atom_site_symmetry_multiplicity
 _atom_site_fract_x
 _atom_site_fract_y
 _atom_site_fract_z
 _atom_site_occupancy
  C  C0  1  0.65943800  0.65060600  0.66160700  1
  C  C1  1  0.34056200  0.34939400  0.33839300  1
  C  C2  1  0.90415500  0.90465000  0.90507200  1
  C  C3  1  0.09584500  0.09535000  0.09492800  1
  C  C4  1  0.34456900  0.85452400  0.34010100  1
  C  C5  1  0.85233500  0.34279500  0.34025100  1
  C  C6  1  0.34367000  0.34210500  0.85358500  1
  C  C7  1  0.65543100  0.14547600  0.65989900  1
  C  C8  1  0.14766500  0.65720500  0.65974900  1
  C  C9  1  0.65633000  0.65789500  0.14641500  1
  C  C10  1  0.71373400  0.00148000  0.28492800  1
  C  C11  1  0.00093300  0.28261900  0.71698600  1
  C  C12  1  0.28756400  0.71407600  0.99847100  1
  C  C13  1  0.99906700  0.71738100  0.28301400  1
  C  C14  1  0.71243600  0.28592400  0.00152900  1
  C  C15  1  0.28626600  0.99852000  0.71507200  1
  C  C16  1  0.00000000  0.50000000  0.00000000  1
  C  C17  1  0.50000000  0.00000000  0.00000000  1
  C  C18  1  0.00000000  0.00000000  0.50000000  1
  Ni  Ni19  1  0.50000000  0.00000000  0.50000000  1
  Cu  Cu20  1  0.00000000  0.50000000  0.50000000  1
