# generated using pymatgen
data_Cu2NiC18
_symmetry_space_group_name_H-M   'P 1'
_cell_length_a   2.75967400
_cell_length_b   9.57260316
_cell_length_c   9.57236639
_cell_angle_alpha   120.01060722
_cell_angle_beta   90.00000000
_cell_angle_gamma   90.00000000
_symmetry_Int_Tables_number   1
_chemical_formula_structural   Cu2NiC18
_chemical_formula_sum   'Cu2 Ni1 C18'
_cell_volume   218.97339548
_cell_formula_units_Z   1
loop_
 _symmetry_equiv_pos_site_id
 _symmetry_equiv_pos_as_xyz
  1  'x, y, z'
loop_
 _atom_site_type_symbol
 _atom_site_label
 _atom_site_symmetry_multiplicity
 _atom_site_fract_x
 _atom_site_fract_y
 _atom_site_fract_z
 _atom_site_occupancy
  Ni  Ni0  1  0.75000000  0.99987100  0.99989600  1
  Cu  Cu1  1  0.75000000  0.33339500  0.66667500  1
  Cu  Cu2  1  0.25000000  0.66675500  0.33338600  1
  C  C3  1  0.75000000  0.34147400  0.98248700  1
  C  C4  1  0.75000000  0.01752000  0.35917200  1
  C  C5  1  0.75000000  0.64096400  0.65849400  1
  C  C6  1  0.25000000  0.65856700  0.01737300  1
  C  C7  1  0.25000000  0.98257200  0.64112000  1
  C  C8  1  0.25000000  0.35880900  0.34143200  1
  C  C9  1  0.75000000  0.58875400  0.13301400  1
  C  C10  1  0.75000000  0.86699900  0.45576100  1
  C  C11  1  0.75000000  0.54419000  0.41121300  1
  C  C12  1  0.25000000  0.41154300  0.86734100  1
  C  C13  1  0.25000000  0.13266900  0.54432300  1
  C  C14  1  0.25000000  0.45570700  0.58835300  1
  C  C15  1  0.75000000  0.10714600  0.81115100  1
  C  C16  1  0.75000000  0.18875600  0.29579500  1
  C  C17  1  0.75000000  0.70410600  0.89296100  1
  C  C18  1  0.25000000  0.89475900  0.18717700  1
  C  C19  1  0.25000000  0.81290000  0.70770000  1
  C  C20  1  0.25000000  0.29254500  0.10517700  1
