# generated using pymatgen
data_Cu3(NiC9)2
_symmetry_space_group_name_H-M   'P 1'
_cell_length_a   9.12952200
_cell_length_b   9.78993200
_cell_length_c   19.05096300
_cell_angle_alpha   90.00000000
_cell_angle_beta   90.00000000
_cell_angle_gamma   90.00000000
_symmetry_Int_Tables_number   1
_chemical_formula_structural   Cu3(NiC9)2
_chemical_formula_sum   'Cu12 Ni8 C72'
_cell_volume   1702.72553229
_cell_formula_units_Z   4
loop_
 _symmetry_equiv_pos_site_id
 _symmetry_equiv_pos_as_xyz
  1  'x, y, z'
loop_
 _atom_site_type_symbol
 _atom_site_label
 _atom_site_symmetry_multiplicity
 _atom_site_fract_x
 _atom_site_fract_y
 _atom_site_fract_z
 _atom_site_occupancy
  Ni  Ni0  1  0.73139600  0.16694300  0.32938700  1
  Ni  Ni1  1  0.76860400  0.83305700  0.82938700  1
  Ni  Ni2  1  0.23139600  0.33305700  0.67061300  1
  Ni  Ni3  1  0.26860400  0.66694300  0.17061300  1
  Ni  Ni4  1  0.91800400  0.30834700  0.12852300  1
  Ni  Ni5  1  0.58199600  0.69165300  0.62852300  1
  Ni  Ni6  1  0.41800400  0.19165300  0.87147700  1
  Ni  Ni7  1  0.08199600  0.80834700  0.37147700  1
  Cu  Cu8  1  0.43539500  0.03054400  0.49298600  1
  Cu  Cu9  1  0.06460500  0.96945600  0.99298600  1
  Cu  Cu10  1  0.93539500  0.46945600  0.50701400  1
  Cu  Cu11  1  0.56460500  0.53054400  0.00701400  1
  Cu  Cu12  1  0.58422200  0.64953800  0.38455800  1
  Cu  Cu13  1  0.91577800  0.35046200  0.88455800  1
  Cu  Cu14  1  0.08422200  0.85046200  0.61544200  1
  Cu  Cu15  1  0.41577800  0.14953800  0.11544200  1
  Cu  Cu16  1  0.24906800  0.33112500  0.33780900  1
  Cu  Cu17  1  0.25093200  0.66887500  0.83780900  1
  Cu  Cu18  1  0.74906800  0.16887500  0.66219100  1
  Cu  Cu19  1  0.75093200  0.83112500  0.16219100  1
  C  C20  1  0.78679300  0.90965300  0.49510300  1
  C  C21  1  0.71320700  0.09034700  0.99510300  1
  C  C22  1  0.28679300  0.59034700  0.50489700  1
  C  C23  1  0.21320700  0.40965300  0.00489700  1
  C  C24  1  0.51906800  0.37220500  0.50996100  1
  C  C25  1  0.98093200  0.62779500  0.00996100  1
  C  C26  1  0.01906800  0.12779500  0.49003900  1
  C  C27  1  0.48093200  0.87220500  0.99003900  1
  C  C28  1  0.87910600  0.54464200  0.29499800  1
  C  C29  1  0.62089400  0.45535800  0.79499800  1
  C  C30  1  0.37910600  0.95535800  0.70500200  1
  C  C31  1  0.12089400  0.04464200  0.20500200  1
  C  C32  1  0.60361000  0.45874500  0.21443300  1
  C  C33  1  0.89639000  0.54125500  0.71443300  1
  C  C34  1  0.10361000  0.04125500  0.78556700  1
  C  C35  1  0.39639000  0.95874500  0.28556700  1
  C  C36  1  0.14442700  0.02571800  0.50071900  1
  C  C37  1  0.35557300  0.97428200  0.00071900  1
  C  C38  1  0.64442700  0.47428200  0.49928100  1
  C  C39  1  0.85557300  0.52571800  0.99928100  1
  C  C40  1  0.66744500  0.88960100  0.43925900  1
  C  C41  1  0.83255500  0.11039900  0.93925900  1
  C  C42  1  0.16744500  0.61039900  0.56074100  1
  C  C43  1  0.33255500  0.38960100  0.06074100  1
  C  C44  1  0.72395300  0.96413600  0.56432200  1
  C  C45  1  0.77604700  0.03586400  0.06432200  1
  C  C46  1  0.22395300  0.53586400  0.43567800  1
  C  C47  1  0.27604700  0.46413600  0.93567800  1
  C  C48  1  0.54540100  0.26595200  0.56763800  1
  C  C49  1  0.95459900  0.73404800  0.06763800  1
  C  C50  1  0.04540100  0.23404800  0.43236200  1
  C  C51  1  0.45459900  0.76595200  0.93236200  1
  C  C52  1  0.38306300  0.46546200  0.54104600  1
  C  C53  1  0.11693700  0.53453800  0.04104600  1
  C  C54  1  0.88306300  0.03453800  0.45895400  1
  C  C55  1  0.61693700  0.96546200  0.95895400  1
  C  C56  1  0.46623900  0.30480900  0.44168900  1
  C  C57  1  0.03376100  0.69519100  0.94168900  1
  C  C58  1  0.96623900  0.19519100  0.55831100  1
  C  C59  1  0.53376100  0.80480900  0.05831100  1
  C  C60  1  0.49348600  0.48518300  0.27425300  1
  C  C61  1  0.00651400  0.51481700  0.77425300  1
  C  C62  1  0.99348600  0.01481700  0.72574700  1
  C  C63  1  0.50651400  0.98518300  0.22574700  1
  C  C64  1  0.58724900  0.31832400  0.18086200  1
  C  C65  1  0.91275100  0.68167600  0.68086200  1
  C  C66  1  0.08724900  0.18167600  0.81913800  1
  C  C67  1  0.41275100  0.81832400  0.31913800  1
  C  C68  1  0.61324800  0.57527700  0.16062200  1
  C  C69  1  0.88675200  0.42472300  0.66062200  1
  C  C70  1  0.11324700  0.92472300  0.83937800  1
  C  C71  1  0.38675200  0.07527700  0.33937800  1
  C  C72  1  0.76813600  0.44217900  0.25113600  1
  C  C73  1  0.73186400  0.55782100  0.75113600  1
  C  C74  1  0.26813600  0.05782100  0.74886400  1
  C  C75  1  0.23186400  0.94217900  0.24886400  1
  C  C76  1  0.85187100  0.50980200  0.37276000  1
  C  C77  1  0.64812900  0.49019800  0.87276000  1
  C  C78  1  0.35187100  0.99019800  0.62724000  1
  C  C79  1  0.14812900  0.00980200  0.12724000  1
  C  C80  1  0.82502600  0.69040700  0.27936600  1
  C  C81  1  0.67497400  0.30959300  0.77936600  1
  C  C82  1  0.32502600  0.80959300  0.72063400  1
  C  C83  1  0.17497400  0.19040700  0.22063400  1
  C  C84  1  0.03297200  0.50964500  0.26962600  1
  C  C85  1  0.46702800  0.49035500  0.76962600  1
  C  C86  1  0.53297200  0.99035500  0.73037400  1
  C  C87  1  0.96702800  0.00964500  0.23037400  1
  C  C88  1  0.88704000  0.78579900  0.50483600  1
  C  C89  1  0.61296000  0.21420100  0.00483600  1
  C  C90  1  0.38704000  0.71420100  0.49516400  1
  C  C91  1  0.11296000  0.28579900  0.99516400  1
