# generated using pymatgen
data_CuNiC7
_symmetry_space_group_name_H-M   'P 1'
_cell_length_a   7.36855019
_cell_length_b   7.36855019
_cell_length_c   7.36855019
_cell_angle_alpha   120.31294787
_cell_angle_beta   119.84283141
_cell_angle_gamma   89.86562735
_symmetry_Int_Tables_number   1
_chemical_formula_structural   CuNiC7
_chemical_formula_sum   'Cu2 Ni2 C14'
_cell_volume   282.55896168
_cell_formula_units_Z   2
loop_
 _symmetry_equiv_pos_site_id
 _symmetry_equiv_pos_as_xyz
  1  'x, y, z'
loop_
 _atom_site_type_symbol
 _atom_site_label
 _atom_site_symmetry_multiplicity
 _atom_site_fract_x
 _atom_site_fract_y
 _atom_site_fract_z
 _atom_site_occupancy
  C  C0  1  0.87167300  0.62167300  0.25000000  1
  C  C1  1  0.12832700  0.37832700  0.75000000  1
  Ni  Ni2  1  0.50000000  0.00000000  0.50000000  1
  Ni  Ni3  1  0.00000000  0.00000000  0.00000000  1
  Cu  Cu4  1  0.50000000  0.00000000  0.00000000  1
  Cu  Cu5  1  0.50000000  0.50000000  0.50000000  1
  C  C6  1  0.81406100  0.06406100  0.75000000  1
  C  C7  1  0.42546900  0.67546900  0.75000000  1
  C  C8  1  0.82857300  0.69157400  0.76287900  1
  C  C9  1  0.42869500  0.06569400  0.73712100  1
  C  C10  1  0.82857300  0.06569400  0.13699900  1
  C  C11  1  0.42869500  0.69157400  0.36300100  1
  C  C12  1  0.18593900  0.93593900  0.25000000  1
  C  C13  1  0.57453100  0.32453100  0.25000000  1
  C  C14  1  0.17142700  0.30842600  0.23712100  1
  C  C15  1  0.57130500  0.93430600  0.26287900  1
  C  C16  1  0.17142700  0.93430600  0.86300100  1
  C  C17  1  0.57130500  0.30842600  0.63699900  1
