# generated using pymatgen
data_Cu2NiC45
_symmetry_space_group_name_H-M   'P 1'
_cell_length_a   9.37985258
_cell_length_b   10.70534101
_cell_length_c   25.57610329
_cell_angle_alpha   91.28245764
_cell_angle_beta   90.00000000
_cell_angle_gamma   90.00000000
_symmetry_Int_Tables_number   1
_chemical_formula_structural   Cu2NiC45
_chemical_formula_sum   'Cu8 Ni4 C180'
_cell_volume   2567.56883235
_cell_formula_units_Z   4
loop_
 _symmetry_equiv_pos_site_id
 _symmetry_equiv_pos_as_xyz
  1  'x, y, z'
loop_
 _atom_site_type_symbol
 _atom_site_label
 _atom_site_symmetry_multiplicity
 _atom_site_fract_x
 _atom_site_fract_y
 _atom_site_fract_z
 _atom_site_occupancy
  C  C0  1  0.50689118  0.65739975  0.13129541  1
  C  C1  1  0.00689118  0.34260025  0.36870459  1
  C  C2  1  0.49310882  0.34260025  0.86870459  1
  C  C3  1  0.99310882  0.65739975  0.63129541  1
  C  C4  1  0.37067741  0.57634328  0.19093757  1
  C  C5  1  0.87067741  0.42365672  0.30906243  1
  C  C6  1  0.62932259  0.42365672  0.80906243  1
  C  C7  1  0.12932259  0.57634328  0.69093757  1
  C  C8  1  0.27431480  0.99894314  0.19736283  1
  C  C9  1  0.77431480  0.00105686  0.30263717  1
  C  C10  1  0.72568520  0.00105686  0.80263717  1
  C  C11  1  0.22568520  0.99894314  0.69736283  1
  C  C12  1  0.36836842  0.91861986  0.14610054  1
  C  C13  1  0.86836842  0.08138014  0.35389946  1
  C  C14  1  0.63163158  0.08138014  0.85389946  1
  C  C15  1  0.13163158  0.91861986  0.64610054  1
  C  C16  1  0.19207478  0.97520179  0.13473547  1
  C  C17  1  0.69207478  0.02479821  0.36526453  1
  C  C18  1  0.80792522  0.02479821  0.86526453  1
  C  C19  1  0.30792522  0.97520179  0.63473547  1
  C  C20  1  0.32600384  0.88122085  0.26307228  1
  C  C21  1  0.82600384  0.11877915  0.23692772  1
  C  C22  1  0.67399616  0.11877915  0.73692772  1
  C  C23  1  0.17399616  0.88122085  0.76307228  1
  C  C24  1  0.18443450  0.79139788  0.29017089  1
  C  C25  1  0.68443450  0.20860212  0.20982911  1
  C  C26  1  0.81556550  0.20860212  0.70982911  1
  C  C27  1  0.31556550  0.79139788  0.79017089  1
  C  C28  1  0.34201294  0.71394751  0.26690928  1
  C  C29  1  0.84201294  0.28605249  0.23309072  1
  C  C30  1  0.65798706  0.28605249  0.73309072  1
  C  C31  1  0.15798706  0.71394751  0.76690928  1
  C  C32  1  0.95669202  0.82365509  0.24549938  1
  C  C33  1  0.45669202  0.17634491  0.25450062  1
  C  C34  1  0.04330798  0.17634491  0.75450062  1
  C  C35  1  0.54330798  0.82365509  0.74549938  1
  C  C36  1  0.05380383  0.96353490  0.23238221  1
  C  C37  1  0.55380383  0.03646510  0.26761779  1
  C  C38  1  0.94619617  0.03646510  0.76761779  1
  C  C39  1  0.44619617  0.96353490  0.73238221  1
  C  C40  1  0.94184247  0.89496745  0.18279016  1
  C  C41  1  0.44184247  0.10503255  0.31720984  1
  C  C42  1  0.05815753  0.10503255  0.81720984  1
  C  C43  1  0.55815753  0.89496745  0.68279016  1
  C  C44  1  0.23269400  0.34818589  0.03289517  1
  C  C45  1  0.73269400  0.65181411  0.46710483  1
  C  C46  1  0.76730600  0.65181411  0.96710483  1
  C  C47  1  0.26730600  0.34818589  0.53289517  1
  C  C48  1  0.23593868  0.51151150  0.02002088  1
  C  C49  1  0.73593868  0.48848850  0.47997912  1
  C  C50  1  0.76406132  0.48848850  0.97997912  1
  C  C51  1  0.26406132  0.51151150  0.52002088  1
  C  C52  1  0.38576284  0.43818547  0.05087993  1
  C  C53  1  0.88576284  0.56181453  0.44912007  1
  C  C54  1  0.61423716  0.56181453  0.94912007  1
  C  C55  1  0.11423716  0.43818547  0.55087993  1
  C  C56  1  0.05653893  0.27430006  0.08288386  1
  C  C57  1  0.55653893  0.72569994  0.41711614  1
  C  C58  1  0.94346107  0.72569994  0.91711614  1
  C  C59  1  0.44346107  0.27430006  0.58288386  1
  C  C60  1  0.94128817  0.35573537  0.12786863  1
  C  C61  1  0.44128817  0.64426463  0.37213137  1
  C  C62  1  0.05871183  0.64426463  0.87213137  1
  C  C63  1  0.55871183  0.35573537  0.62786863  1
  C  C64  1  0.96281708  0.41030257  0.06223765  1
  C  C65  1  0.46281708  0.58969743  0.43776235  1
  C  C66  1  0.03718292  0.58969743  0.93776235  1
  C  C67  1  0.53718292  0.41030257  0.56223765  1
  C  C68  1  0.28169178  0.24792131  0.11936150  1
  C  C69  1  0.78169178  0.75207869  0.38063850  1
  C  C70  1  0.71830822  0.75207869  0.88063850  1
  C  C71  1  0.21830822  0.24792131  0.61936150  1
  C  C72  1  0.38268619  0.34903441  0.16250094  1
  C  C73  1  0.88268619  0.65096559  0.33749906  1
  C  C74  1  0.61731381  0.65096559  0.83749906  1
  C  C75  1  0.11731381  0.34903441  0.66250094  1
  C  C76  1  0.21246378  0.29098856  0.18241807  1
  C  C77  1  0.71246378  0.70901144  0.31758193  1
  C  C78  1  0.78753622  0.70901144  0.81758193  1
  C  C79  1  0.28753622  0.29098856  0.68241807  1
  C  C80  1  0.62280031  0.71048223  0.21182975  1
  C  C81  1  0.12280031  0.28951777  0.28817025  1
  C  C82  1  0.37719969  0.28951777  0.78817025  1
  C  C83  1  0.87719969  0.71048223  0.71182975  1
  C  C84  1  0.72040515  0.76483429  0.15692261  1
  C  C85  1  0.22040515  0.23516571  0.34307739  1
  C  C86  1  0.27959485  0.23516571  0.84307739  1
  C  C87  1  0.77959485  0.76483429  0.65692261  1
  C  C88  1  0.56454377  0.84843103  0.17911485  1
  C  C89  1  0.06454377  0.15156897  0.32088515  1
  C  C90  1  0.43545623  0.15156897  0.82088515  1
  C  C91  1  0.93545623  0.84843103  0.67911485  1
  C  C92  1  0.39649530  0.69211946  0.04862320  1
  C  C93  1  0.89649530  0.30788054  0.45137680  1
  C  C94  1  0.60350470  0.30788054  0.95137680  1
  C  C95  1  0.10350470  0.69211946  0.54862320  1
  C  C96  1  0.45914901  0.83493049  0.07762125  1
  C  C97  1  0.95914901  0.16506951  0.42237875  1
  C  C98  1  0.54085099  0.16506951  0.92237875  1
  C  C99  1  0.04085099  0.83493049  0.57762125  1
  C  C100  1  0.58290738  0.73021650  0.04727610  1
  C  C101  1  0.08290738  0.26978350  0.45272390  1
  C  C102  1  0.41709262  0.26978350  0.95272390  1
  C  C103  1  0.91709262  0.73021650  0.54727610  1
  C  C104  1  0.63306032  0.47439611  0.15644675  1
  C  C105  1  0.13306032  0.52560389  0.34355325  1
  C  C106  1  0.36693968  0.52560389  0.84355325  1
  C  C107  1  0.86693968  0.47439611  0.65644675  1
  C  C108  1  0.57675673  0.46119593  0.08940661  1
  C  C109  1  0.07675673  0.53880407  0.41059339  1
  C  C110  1  0.42324327  0.53880407  0.91059339  1
  C  C111  1  0.92324327  0.46119593  0.58940661  1
  C  C112  1  0.72636705  0.55781439  0.10734756  1
  C  C113  1  0.22636705  0.44218561  0.39265244  1
  C  C114  1  0.27363295  0.44218561  0.89265244  1
  C  C115  1  0.77363295  0.55781439  0.60734756  1
  C  C116  1  0.85152360  0.14695052  0.02808277  1
  C  C117  1  0.35152360  0.85304948  0.47191723  1
  C  C118  1  0.14847640  0.85304948  0.97191723  1
  C  C119  1  0.64847640  0.14695052  0.52808277  1
  C  C120  1  0.87575954  0.01790224  0.07195100  1
  C  C121  1  0.37575954  0.98209776  0.42804900  1
  C  C122  1  0.12424046  0.98209776  0.92804900  1
  C  C123  1  0.62424046  0.01790224  0.57195100  1
  C  C124  1  0.17852397  0.76621806  0.18709013  1
  C  C125  1  0.67852397  0.23378194  0.31290987  1
  C  C126  1  0.82147603  0.23378194  0.81290987  1
  C  C127  1  0.32147603  0.76621806  0.68709013  1
  C  C128  1  0.18009586  0.48146511  0.12001393  1
  C  C129  1  0.68009586  0.51853489  0.37998607  1
  C  C130  1  0.81990414  0.51853489  0.87998607  1
  C  C131  1  0.31990414  0.48146511  0.62001393  1
  C  C132  1  0.26326053  0.93404589  0.16370382  1
  C  C133  1  0.76326053  0.06595411  0.33629618  1
  C  C134  1  0.73673947  0.06595411  0.83629618  1
  C  C135  1  0.23673947  0.93404589  0.66370382  1
  C  C136  1  0.26853255  0.79197179  0.26029634  1
  C  C137  1  0.76853255  0.20802821  0.23970366  1
  C  C138  1  0.73146745  0.20802821  0.73970366  1
  C  C139  1  0.23146745  0.79197179  0.76029634  1
  C  C140  1  0.01385278  0.87510145  0.21535359  1
  C  C141  1  0.51385278  0.12489855  0.28464641  1
  C  C142  1  0.98614722  0.12489855  0.78464641  1
  C  C143  1  0.48614722  0.87510145  0.71535359  1
  C  C144  1  0.26921158  0.44000313  0.04761496  1
  C  C145  1  0.76921158  0.55999687  0.45238504  1
  C  C146  1  0.73078842  0.55999687  0.95238504  1
  C  C147  1  0.23078842  0.44000313  0.54761496  1
  C  C148  1  0.01621297  0.36668299  0.09538199  1
  C  C149  1  0.51621297  0.63331701  0.40461801  1
  C  C150  1  0.98378703  0.63331701  0.90461801  1
  C  C151  1  0.48378703  0.36668299  0.59538199  1
  C  C152  1  0.27526543  0.32334847  0.14913470  1
  C  C153  1  0.77526543  0.67665153  0.35086530  1
  C  C154  1  0.72473457  0.67665153  0.85086530  1
  C  C155  1  0.22473457  0.32334847  0.64913470  1
  C  C156  1  0.61329185  0.75604286  0.17396510  1
  C  C157  1  0.11329185  0.24395714  0.32603490  1
  C  C158  1  0.38670815  0.24395714  0.82603490  1
  C  C159  1  0.88670815  0.75604286  0.67396510  1
  C  C160  1  0.48449862  0.73607361  0.07038377  1
  C  C161  1  0.98449862  0.26392639  0.42961623  1
  C  C162  1  0.51550138  0.26392639  0.92961623  1
  C  C163  1  0.01550138  0.73607361  0.57038377  1
  C  C164  1  0.62101465  0.52405802  0.11957881  1
  C  C165  1  0.12101465  0.47594198  0.38042119  1
  C  C166  1  0.37898535  0.47594198  0.88042119  1
  C  C167  1  0.87898535  0.52405802  0.61957881  1
  C  C168  1  0.80350617  0.06378474  0.04487359  1
  C  C169  1  0.30350617  0.93621526  0.45512641  1
  C  C170  1  0.19649383  0.93621526  0.95512641  1
  C  C171  1  0.69649383  0.06378474  0.54487359  1
  C  C172  1  0.05589246  0.70996662  0.08684753  1
  C  C173  1  0.55589246  0.29003338  0.41315247  1
  C  C174  1  0.94410754  0.29003338  0.91315247  1
  C  C175  1  0.44410754  0.70996662  0.58684753  1
  C  C176  1  0.05415233  0.53878796  0.21877312  1
  C  C177  1  0.55415233  0.46121204  0.28122688  1
  C  C178  1  0.94584767  0.46121204  0.78122688  1
  C  C179  1  0.44584767  0.53878796  0.71877312  1
  Ni  Ni180  1  0.35054559  0.62125616  0.15637270  1
  Ni  Ni181  1  0.85054559  0.37874384  0.34362730  1
  Ni  Ni182  1  0.64945441  0.37874384  0.84362730  1
  Ni  Ni183  1  0.14945441  0.62125616  0.65637270  1
  Cu  Cu184  1  0.64836515  0.11042759  0.08023497  1
  Cu  Cu185  1  0.14836515  0.88957241  0.41976503  1
  Cu  Cu186  1  0.35163485  0.88957241  0.91976503  1
  Cu  Cu187  1  0.85163485  0.11042759  0.58023497  1
  Cu  Cu188  1  0.76477180  0.95678202  0.99276212  1
  Cu  Cu189  1  0.26477180  0.04321798  0.50723788  1
  Cu  Cu190  1  0.23522820  0.04321798  0.00723788  1
  Cu  Cu191  1  0.73522820  0.95678202  0.49276212  1
