# generated using pymatgen
data_Cu2NiC6
_symmetry_space_group_name_H-M   'P 1'
_cell_length_a   3.76780751
_cell_length_b   5.79234211
_cell_length_c   6.70021744
_cell_angle_alpha   115.58506402
_cell_angle_beta   106.32784875
_cell_angle_gamma   90.00152677
_symmetry_Int_Tables_number   1
_chemical_formula_structural   Cu2NiC6
_chemical_formula_sum   'Cu2 Ni1 C6'
_cell_volume   125.31892916
_cell_formula_units_Z   1
loop_
 _symmetry_equiv_pos_site_id
 _symmetry_equiv_pos_as_xyz
  1  'x, y, z'
loop_
 _atom_site_type_symbol
 _atom_site_label
 _atom_site_symmetry_multiplicity
 _atom_site_fract_x
 _atom_site_fract_y
 _atom_site_fract_z
 _atom_site_occupancy
  Ni  Ni0  1  0.00000000  0.00000000  0.00000100  1
  Cu  Cu1  1  0.20362900  0.70367800  0.40726300  1
  Cu  Cu2  1  0.79637400  0.29632200  0.59273700  1
  C  C3  1  0.49999900  0.50000000  0.00000000  1
  C  C4  1  0.65232100  0.89323600  0.30458200  1
  C  C5  1  0.34768000  0.10676300  0.69541700  1
  C  C6  1  0.34771100  0.58863000  0.69550100  1
  C  C7  1  0.65228900  0.41137000  0.30450000  1
  C  C8  1  0.00000000  0.50000000  0.00000000  1
