# generated using pymatgen
data_CuNiC7
_symmetry_space_group_name_H-M   'P 1'
_cell_length_a   11.50029218
_cell_length_b   11.76999144
_cell_length_c   17.46006695
_cell_angle_alpha   109.75716736
_cell_angle_beta   109.24204850
_cell_angle_gamma   89.90447854
_symmetry_Int_Tables_number   1
_chemical_formula_structural   CuNiC7
_chemical_formula_sum   'Cu16 Ni16 C112'
_cell_volume   2083.90945706
_cell_formula_units_Z   16
loop_
 _symmetry_equiv_pos_site_id
 _symmetry_equiv_pos_as_xyz
  1  'x, y, z'
loop_
 _atom_site_type_symbol
 _atom_site_label
 _atom_site_symmetry_multiplicity
 _atom_site_fract_x
 _atom_site_fract_y
 _atom_site_fract_z
 _atom_site_occupancy
  Ni  Ni0  1  0.30484200  0.06668900  0.10907900  1
  Ni  Ni1  1  0.30421600  0.56244500  0.10827900  1
  Ni  Ni2  1  0.80585900  0.06520800  0.11084800  1
  Ni  Ni3  1  0.80527600  0.56295200  0.10919800  1
  Ni  Ni4  1  0.19995800  0.93607500  0.39483900  1
  Ni  Ni5  1  0.19201500  0.92903200  0.88272000  1
  Ni  Ni6  1  0.70052600  0.43621800  0.39594500  1
  Ni  Ni7  1  0.69224100  0.42938900  0.88349800  1
  Ni  Ni8  1  0.69911600  0.93434800  0.39534600  1
  Ni  Ni9  1  0.05757400  0.29558600  0.10915800  1
  Ni  Ni10  1  0.05450900  0.79188800  0.10752400  1
  Ni  Ni11  1  0.55390700  0.29328700  0.10747500  1
  Ni  Ni12  1  0.55481900  0.79373000  0.10659500  1
  Ni  Ni13  1  0.45080100  0.71075000  0.39618800  1
  Ni  Ni14  1  0.44078300  0.70464300  0.88271600  1
  Ni  Ni15  1  0.94164100  0.70297900  0.88258200  1
  Cu  Cu16  1  0.29997500  0.06938700  0.60425200  1
  Cu  Cu17  1  0.30084400  0.56528800  0.60146600  1
  Cu  Cu18  1  0.80192200  0.06735600  0.60444000  1
  Cu  Cu19  1  0.79922000  0.56759500  0.60254000  1
  Cu  Cu20  1  0.20185200  0.43718200  0.40365900  1
  Cu  Cu21  1  0.19808300  0.43306600  0.89545200  1
  Cu  Cu22  1  0.69700800  0.93331700  0.89483200  1
  Cu  Cu23  1  0.05131100  0.28425800  0.60273000  1
  Cu  Cu24  1  0.05116100  0.78577200  0.60223800  1
  Cu  Cu25  1  0.55077700  0.28588400  0.60205300  1
  Cu  Cu26  1  0.55181800  0.78588000  0.60364900  1
  Cu  Cu27  1  0.45157400  0.21574200  0.40458500  1
  Cu  Cu28  1  0.44716100  0.21163200  0.89511300  1
  Cu  Cu29  1  0.95070000  0.21699600  0.40403300  1
  Cu  Cu30  1  0.94664000  0.21214800  0.89508600  1
  Cu  Cu31  1  0.95048900  0.71580500  0.40329900  1
  C  C32  1  0.00502700  0.99864600  0.99544200  1
  C  C33  1  0.01404800  0.00232000  0.50506800  1
  C  C34  1  0.00452700  0.49581800  0.99453600  1
  C  C35  1  0.01476400  0.50172800  0.50304100  1
  C  C36  1  0.50467000  0.99816100  0.99383600  1
  C  C37  1  0.51404100  0.00527800  0.50698200  1
  C  C38  1  0.50504100  0.49628800  0.99487800  1
  C  C39  1  0.51450000  0.50148200  0.50605300  1
  C  C40  1  0.25492100  0.24809100  0.99410600  1
  C  C41  1  0.26399800  0.25334600  0.50453700  1
  C  C42  1  0.25436200  0.74643500  0.99464100  1
  C  C43  1  0.26336400  0.75068500  0.50486800  1
  C  C44  1  0.75552100  0.24500200  0.99307800  1
  C  C45  1  0.76610900  0.25141500  0.50524600  1
  C  C46  1  0.75481800  0.74902200  0.99540200  1
  C  C47  1  0.76543900  0.75311800  0.50713500  1
  C  C48  1  0.09814300  0.10623400  0.25742600  1
  C  C49  1  0.08834500  0.09619100  0.74655200  1
  C  C50  1  0.09659400  0.59336500  0.25692600  1
  C  C51  1  0.08970900  0.58337900  0.74066400  1
  C  C52  1  0.59792800  0.10005300  0.25511700  1
  C  C53  1  0.58822100  0.08836200  0.74616900  1
  C  C54  1  0.59919600  0.59245300  0.25175100  1
  C  C55  1  0.58892300  0.58959500  0.74319800  1
  C  C56  1  0.34595300  0.40343300  0.25757400  1
  C  C57  1  0.33802400  0.39948900  0.74628100  1
  C  C58  1  0.34827200  0.91444000  0.25245100  1
  C  C59  1  0.33954700  0.90961700  0.74199300  1
  C  C60  1  0.85402800  0.40612100  0.25398100  1
  C  C61  1  0.84219100  0.39993200  0.74296700  1
  C  C62  1  0.85138300  0.91076500  0.25509000  1
  C  C63  1  0.83657500  0.91097300  0.74655100  1
  C  C64  1  0.12803000  0.12437600  0.48968100  1
  C  C65  1  0.12192600  0.12071800  0.98338200  1
  C  C66  1  0.12745000  0.61651600  0.48381700  1
  C  C67  1  0.12381000  0.61345300  0.98259000  1
  C  C68  1  0.63024500  0.12505000  0.49332800  1
  C  C69  1  0.62279500  0.11494100  0.97958400  1
  C  C70  1  0.63213200  0.62343000  0.49478400  1
  C  C71  1  0.62352500  0.61860700  0.98537100  1
  C  C72  1  0.13264100  0.37617000  0.00229800  1
  C  C73  1  0.14667900  0.38649400  0.51994500  1
  C  C74  1  0.13431200  0.87685000  0.00657900  1
  C  C75  1  0.14474600  0.88206000  0.52075500  1
  C  C76  1  0.63288500  0.37381600  0.00429800  1
  C  C77  1  0.64643900  0.38415000  0.52232900  1
  C  C78  1  0.63472200  0.87906700  0.00460000  1
  C  C79  1  0.64798700  0.88786600  0.52568800  1
  C  C80  1  0.38150600  0.12288400  0.48949500  1
  C  C81  1  0.37418700  0.11816500  0.98138900  1
  C  C82  1  0.37869100  0.61663800  0.49219800  1
  C  C83  1  0.37099400  0.61305600  0.98292400  1
  C  C84  1  0.88248700  0.11989100  0.48928500  1
  C  C85  1  0.87271300  0.11452900  0.98060900  1
  C  C86  1  0.88365200  0.62214300  0.49156100  1
  C  C87  1  0.87348600  0.61679200  0.98555300  1
  C  C88  1  0.38303500  0.37722000  0.00312900  1
  C  C89  1  0.39644800  0.38579700  0.52085500  1
  C  C90  1  0.38358500  0.87907200  0.00585900  1
  C  C91  1  0.39746400  0.89076800  0.52601900  1
  C  C92  1  0.88530100  0.37581400  0.00475300  1
  C  C93  1  0.89835600  0.38604400  0.52190700  1
  C  C94  1  0.88198400  0.88000100  0.00476800  1
  C  C95  1  0.89706300  0.88672000  0.52257200  1
  C  C96  1  0.07433800  0.08985800  0.13834400  1
  C  C97  1  0.09053500  0.11040500  0.64010800  1
  C  C98  1  0.07686000  0.58524800  0.14112200  1
  C  C99  1  0.09583300  0.61047700  0.64017600  1
  C  C100  1  0.57453600  0.08931600  0.13743300  1
  C  C101  1  0.59052200  0.11216200  0.64356100  1
  C  C102  1  0.57667200  0.58968100  0.13684000  1
  C  C103  1  0.59301000  0.61263400  0.64076100  1
  C  C104  1  0.44810800  0.39116700  0.36541800  1
  C  C105  1  0.43970500  0.39345500  0.85602100  1
  C  C106  1  0.44583100  0.90916300  0.36521900  1
  C  C107  1  0.44174900  0.90820000  0.85422300  1
  C  C108  1  0.95209300  0.39097900  0.36339400  1
  C  C109  1  0.93921700  0.39661500  0.85521200  1
  C  C110  1  0.94463900  0.89317100  0.36467500  1
  C  C111  1  0.94154800  0.90697500  0.85661600  1
  C  C112  1  0.32495200  0.30250600  0.13849200  1
  C  C113  1  0.33931700  0.27925500  0.63981700  1
  C  C114  1  0.32992800  0.79948900  0.13987600  1
  C  C115  1  0.34074800  0.77884700  0.64118000  1
  C  C116  1  0.83272000  0.29878700  0.13800700  1
  C  C117  1  0.84661600  0.27537700  0.63989900  1
  C  C118  1  0.83237500  0.80151500  0.14009200  1
  C  C119  1  0.84244500  0.78493400  0.64422600  1
  C  C120  1  0.20490100  0.22406200  0.36467000  1
  C  C121  1  0.19352700  0.21124700  0.85546900  1
  C  C122  1  0.20288400  0.70984300  0.36601400  1
  C  C123  1  0.18598800  0.69642700  0.85499300  1
  C  C124  1  0.70939100  0.20819300  0.36526800  1
  C  C125  1  0.70029500  0.19912500  0.85509600  1
  C  C126  1  0.70071300  0.70422300  0.36574400  1
  C  C127  1  0.68341000  0.70762300  0.85561200  1
  C  C128  1  0.44169000  0.07155300  0.26769500  1
  C  C129  1  0.41921900  0.06613600  0.74728400  1
  C  C130  1  0.44079700  0.54563500  0.25369600  1
  C  C131  1  0.41971300  0.54137800  0.73248000  1
  C  C132  1  0.94327000  0.06850900  0.26991800  1
  C  C133  1  0.92140700  0.06333300  0.74764200  1
  C  C134  1  0.93803200  0.56627700  0.26746700  1
  C  C135  1  0.91917300  0.54396900  0.73083300  1
  C  C136  1  0.18871000  0.44874700  0.26809700  1
  C  C137  1  0.17110400  0.43220200  0.74616000  1
  C  C138  1  0.18654500  0.95673500  0.25172900  1
  C  C139  1  0.16806100  0.93995600  0.73221000  1
  C  C140  1  0.69243300  0.44825600  0.25299500  1
  C  C141  1  0.67282700  0.43657800  0.73271900  1
  C  C142  1  0.68859700  0.95261700  0.25231700  1
  C  C143  1  0.66693600  0.93429300  0.74632100  1
