# generated using pymatgen
data_Cu11Ni3C5
_symmetry_space_group_name_H-M   'P 1'
_cell_length_a   7.35407639
_cell_length_b   7.35407639
_cell_length_c   12.81696421
_cell_angle_alpha   87.93723629
_cell_angle_beta   87.93723629
_cell_angle_gamma   80.93910087
_symmetry_Int_Tables_number   1
_chemical_formula_structural   Cu11Ni3C5
_chemical_formula_sum   'Cu22 Ni6 C10'
_cell_volume   683.75632044
_cell_formula_units_Z   2
loop_
 _symmetry_equiv_pos_site_id
 _symmetry_equiv_pos_as_xyz
  1  'x, y, z'
loop_
 _atom_site_type_symbol
 _atom_site_label
 _atom_site_symmetry_multiplicity
 _atom_site_fract_x
 _atom_site_fract_y
 _atom_site_fract_z
 _atom_site_occupancy
  C  C0  1  0.42755000  0.78312700  0.45945100  1
  C  C1  1  0.57245000  0.21687300  0.54054900  1
  C  C2  1  0.21687300  0.57245000  0.04054900  1
  C  C3  1  0.78312700  0.42755000  0.95945100  1
  C  C4  1  0.34397100  0.02534200  0.15403400  1
  C  C5  1  0.65602900  0.97465800  0.84596600  1
  C  C6  1  0.97465800  0.65602900  0.34596600  1
  C  C7  1  0.02534200  0.34397100  0.65403400  1
  C  C8  1  0.81061600  0.18938400  0.25000000  1
  C  C9  1  0.18938400  0.81061600  0.75000000  1
  Ni  Ni10  1  0.83923000  0.91646300  0.09085800  1
  Ni  Ni11  1  0.16077000  0.08353700  0.90914200  1
  Ni  Ni12  1  0.08353700  0.16077000  0.40914200  1
  Ni  Ni13  1  0.91646300  0.83923000  0.59085800  1
  Ni  Ni14  1  0.50704000  0.49296000  0.25000000  1
  Ni  Ni15  1  0.49296000  0.50704000  0.75000000  1
  Cu  Cu16  1  0.65987000  0.04036600  0.31711700  1
  Cu  Cu17  1  0.34013000  0.95963400  0.68288300  1
  Cu  Cu18  1  0.95963400  0.34013000  0.18288300  1
  Cu  Cu19  1  0.04036600  0.65987000  0.81711700  1
  Cu  Cu20  1  0.91098900  0.96256600  0.66369800  1
  Cu  Cu21  1  0.08901100  0.03743400  0.33630200  1
  Cu  Cu22  1  0.03743400  0.08901100  0.83630200  1
  Cu  Cu23  1  0.96256600  0.91098900  0.16369800  1
  Cu  Cu24  1  0.78312100  0.82919800  0.53361100  1
  Cu  Cu25  1  0.21687900  0.17080200  0.46638900  1
  Cu  Cu26  1  0.17080200  0.21687900  0.96638900  1
  Cu  Cu27  1  0.82919800  0.78312100  0.03361100  1
  Cu  Cu28  1  0.37426600  0.62573400  0.25000000  1
  Cu  Cu29  1  0.62573400  0.37426600  0.75000000  1
  Cu  Cu30  1  0.54325300  0.37954900  0.17189600  1
  Cu  Cu31  1  0.45674700  0.62045100  0.82810400  1
  Cu  Cu32  1  0.62045100  0.45674700  0.32810400  1
  Cu  Cu33  1  0.37954900  0.54325300  0.67189600  1
  Cu  Cu34  1  0.72464200  0.07414500  0.08480400  1
  Cu  Cu35  1  0.27535800  0.92585500  0.91519600  1
  Cu  Cu36  1  0.92585500  0.27535800  0.41519600  1
  Cu  Cu37  1  0.07414500  0.72464200  0.58480400  1
