# generated using pymatgen
data_Cu3NiC7
_symmetry_space_group_name_H-M   'P 1'
_cell_length_a   5.44893700
_cell_length_b   10.00070800
_cell_length_c   10.34257400
_cell_angle_alpha   90.00000000
_cell_angle_beta   90.00000000
_cell_angle_gamma   90.00000000
_symmetry_Int_Tables_number   1
_chemical_formula_structural   Cu3NiC7
_chemical_formula_sum   'Cu12 Ni4 C28'
_cell_volume   563.60024151
_cell_formula_units_Z   4
loop_
 _symmetry_equiv_pos_site_id
 _symmetry_equiv_pos_as_xyz
  1  'x, y, z'
loop_
 _atom_site_type_symbol
 _atom_site_label
 _atom_site_symmetry_multiplicity
 _atom_site_fract_x
 _atom_site_fract_y
 _atom_site_fract_z
 _atom_site_occupancy
  Ni  Ni0  1  0.39242400  0.05334700  0.25000000  1
  Ni  Ni1  1  0.89242400  0.44665300  0.75000000  1
  Ni  Ni2  1  0.60757600  0.94665300  0.75000000  1
  Ni  Ni3  1  0.10757600  0.55334700  0.25000000  1
  Cu  Cu4  1  0.70782400  0.68446000  0.96947100  1
  Cu  Cu5  1  0.20782400  0.81554000  0.03052900  1
  Cu  Cu6  1  0.29217600  0.31554000  0.46947100  1
  Cu  Cu7  1  0.79217600  0.18446000  0.53052900  1
  Cu  Cu8  1  0.70591100  0.76810100  0.25000000  1
  Cu  Cu9  1  0.20591100  0.73189900  0.75000000  1
  Cu  Cu10  1  0.29408900  0.23189900  0.75000000  1
  Cu  Cu11  1  0.79408900  0.26810100  0.25000000  1
  Cu  Cu12  1  0.20782400  0.81554000  0.46947100  1
  Cu  Cu13  1  0.70782400  0.68446000  0.53052900  1
  Cu  Cu14  1  0.79217600  0.18446000  0.96947100  1
  Cu  Cu15  1  0.29217600  0.31554000  0.03052900  1
  C  C16  1  0.05077700  0.29141900  0.87638400  1
  C  C17  1  0.55077700  0.20858100  0.12361600  1
  C  C18  1  0.94922300  0.70858100  0.37638400  1
  C  C19  1  0.44922300  0.79141900  0.62361600  1
  C  C20  1  0.94922300  0.70858100  0.12361600  1
  C  C21  1  0.44922300  0.79141900  0.87638400  1
  C  C22  1  0.05077700  0.29141900  0.62361600  1
  C  C23  1  0.55077700  0.20858100  0.37638400  1
  C  C24  1  0.52340900  0.27945200  0.88486300  1
  C  C25  1  0.02340900  0.22054800  0.11513700  1
  C  C26  1  0.47659100  0.72054800  0.38486300  1
  C  C27  1  0.97659100  0.77945200  0.61513700  1
  C  C28  1  0.47659100  0.72054800  0.11513700  1
  C  C29  1  0.97659100  0.77945200  0.88486300  1
  C  C30  1  0.52340900  0.27945200  0.61513700  1
  C  C31  1  0.02340900  0.22054800  0.38486300  1
  C  C32  1  0.80848800  0.44603600  0.25000000  1
  C  C33  1  0.30848800  0.05396400  0.75000000  1
  C  C34  1  0.19151200  0.55396400  0.75000000  1
  C  C35  1  0.69151200  0.94603600  0.25000000  1
  C  C36  1  0.77830400  0.01943400  0.59920500  1
  C  C37  1  0.27830400  0.48056600  0.40079500  1
  C  C38  1  0.22169600  0.98056600  0.09920500  1
  C  C39  1  0.72169600  0.51943400  0.90079500  1
  C  C40  1  0.22169600  0.98056600  0.40079500  1
  C  C41  1  0.72169600  0.51943400  0.59920500  1
  C  C42  1  0.77830400  0.01943400  0.90079500  1
  C  C43  1  0.27830400  0.48056600  0.09920500  1
