# generated using pymatgen
data_Cu6NiC
_symmetry_space_group_name_H-M   'P 1'
_cell_length_a   5.15528180
_cell_length_b   6.16854216
_cell_length_c   8.79567317
_cell_angle_alpha   69.47244324
_cell_angle_beta   80.62118161
_cell_angle_gamma   62.30725328
_symmetry_Int_Tables_number   1
_chemical_formula_structural   Cu6NiC
_chemical_formula_sum   'Cu12 Ni2 C2'
_cell_volume   231.94165696
_cell_formula_units_Z   2
loop_
 _symmetry_equiv_pos_site_id
 _symmetry_equiv_pos_as_xyz
  1  'x, y, z'
loop_
 _atom_site_type_symbol
 _atom_site_label
 _atom_site_symmetry_multiplicity
 _atom_site_fract_x
 _atom_site_fract_y
 _atom_site_fract_z
 _atom_site_occupancy
  C  C0  1  0.25000000  0.83238500  0.33523000  1
  C  C1  1  0.75000000  0.16761500  0.66477000  1
  Ni  Ni2  1  0.75000000  0.66972400  0.66055200  1
  Ni  Ni3  1  0.25000000  0.33027600  0.33944800  1
  Cu  Cu4  1  0.92901000  0.79891200  0.55707300  1
  Cu  Cu5  1  0.57099000  0.64401500  0.55707300  1
  Cu  Cu6  1  0.07099000  0.20108800  0.44292700  1
  Cu  Cu7  1  0.42901000  0.35598500  0.44292700  1
  Cu  Cu8  1  0.56335300  0.83850300  0.76114200  1
  Cu  Cu9  1  0.93664700  0.40035500  0.76114200  1
  Cu  Cu10  1  0.43664700  0.16149700  0.23885800  1
  Cu  Cu11  1  0.06335300  0.59964500  0.23885800  1
  Cu  Cu12  1  0.64404500  0.60696400  0.13925100  1
  Cu  Cu13  1  0.85595500  0.25378500  0.13925100  1
  Cu  Cu14  1  0.35595500  0.39303600  0.86074900  1
  Cu  Cu15  1  0.14404500  0.74621500  0.86074900  1
