# generated using pymatgen
data_Cu2(NiC5)3
_symmetry_space_group_name_H-M   'P 1'
_cell_length_a   10.26927035
_cell_length_b   10.26927035
_cell_length_c   10.26927035
_cell_angle_alpha   109.47122063
_cell_angle_beta   109.47122063
_cell_angle_gamma   109.47122063
_symmetry_Int_Tables_number   1
_chemical_formula_structural   Cu2(NiC5)3
_chemical_formula_sum   'Cu8 Ni12 C60'
_cell_volume   833.67517800
_cell_formula_units_Z   4
loop_
 _symmetry_equiv_pos_site_id
 _symmetry_equiv_pos_as_xyz
  1  'x, y, z'
loop_
 _atom_site_type_symbol
 _atom_site_label
 _atom_site_symmetry_multiplicity
 _atom_site_fract_x
 _atom_site_fract_y
 _atom_site_fract_z
 _atom_site_occupancy
  Ni  Ni0  1  0.25000000  0.37500000  0.12500000  1
  Ni  Ni1  1  0.75000000  0.12500000  0.37500000  1
  Ni  Ni2  1  0.37500000  0.12500000  0.25000000  1
  Ni  Ni3  1  0.12500000  0.37500000  0.75000000  1
  Ni  Ni4  1  0.25000000  0.87500000  0.62500000  1
  Ni  Ni5  1  0.12500000  0.25000000  0.37500000  1
  Ni  Ni6  1  0.62500000  0.25000000  0.87500000  1
  Ni  Ni7  1  0.75000000  0.62500000  0.87500000  1
  Ni  Ni8  1  0.87500000  0.75000000  0.62500000  1
  Ni  Ni9  1  0.87500000  0.62500000  0.25000000  1
  Ni  Ni10  1  0.62500000  0.87500000  0.75000000  1
  Ni  Ni11  1  0.37500000  0.75000000  0.12500000  1
  Cu  Cu12  1  0.50000000  0.00000000  0.00000000  1
  Cu  Cu13  1  0.50000000  0.50000000  0.00000000  1
  Cu  Cu14  1  0.00000000  0.50000000  0.50000000  1
  Cu  Cu15  1  0.00000000  0.00000000  0.50000000  1
  Cu  Cu16  1  0.50000000  0.50000000  0.50000000  1
  Cu  Cu17  1  0.00000000  0.50000000  0.00000000  1
  Cu  Cu18  1  0.50000000  0.00000000  0.50000000  1
  Cu  Cu19  1  0.00000000  0.00000000  0.00000000  1
  C  C20  1  0.12500000  0.75000000  0.87500000  1
  C  C21  1  0.87500000  0.25000000  0.12500000  1
  C  C22  1  0.75000000  0.37500000  0.62500000  1
  C  C23  1  0.12500000  0.87500000  0.25000000  1
  C  C24  1  0.25000000  0.12500000  0.87500000  1
  C  C25  1  0.37500000  0.62500000  0.75000000  1
  C  C26  1  0.37500000  0.25000000  0.62500000  1
  C  C27  1  0.87500000  0.12500000  0.75000000  1
  C  C28  1  0.62500000  0.37500000  0.25000000  1
  C  C29  1  0.75000000  0.87500000  0.12500000  1
  C  C30  1  0.25000000  0.62500000  0.37500000  1
  C  C31  1  0.62500000  0.75000000  0.37500000  1
  C  C32  1  0.58661300  0.89497300  0.37624500  1
  C  C33  1  0.37624500  0.58661300  0.89497300  1
  C  C34  1  0.28963200  0.30836000  0.91338700  1
  C  C35  1  0.48127200  0.60502700  0.19164000  1
  C  C36  1  0.30836000  0.89497300  0.01872800  1
  C  C37  1  0.12375500  0.01872800  0.21036800  1
  C  C38  1  0.37624500  0.28963200  0.48127200  1
  C  C39  1  0.89497300  0.37624500  0.58661300  1
  C  C40  1  0.19164000  0.21036800  0.58661300  1
  C  C41  1  0.48127200  0.37624500  0.28963200  1
  C  C42  1  0.89497300  0.01872800  0.30836000  1
  C  C43  1  0.60502700  0.91338700  0.12375500  1
  C  C44  1  0.91338700  0.12375500  0.60502700  1
  C  C45  1  0.28963200  0.48127200  0.37624500  1
  C  C46  1  0.58661300  0.19164000  0.21036800  1
  C  C47  1  0.21036800  0.58661300  0.19164000  1
  C  C48  1  0.01872800  0.30836000  0.89497300  1
  C  C49  1  0.91338700  0.28963200  0.30836000  1
  C  C50  1  0.01872800  0.21036800  0.12375500  1
  C  C51  1  0.80836000  0.78963200  0.41338700  1
  C  C52  1  0.19164000  0.48127200  0.60502700  1
  C  C53  1  0.60502700  0.19164000  0.48127200  1
  C  C54  1  0.21036800  0.12375500  0.01872800  1
  C  C55  1  0.12375500  0.60502700  0.91338700  1
  C  C56  1  0.41338700  0.10502700  0.62375500  1
  C  C57  1  0.62375500  0.41338700  0.10502700  1
  C  C58  1  0.71036800  0.69164000  0.08661300  1
  C  C59  1  0.51872800  0.39497300  0.80836000  1
  C  C60  1  0.69164000  0.10502700  0.98127200  1
  C  C61  1  0.87624500  0.98127200  0.78963200  1
  C  C62  1  0.62375500  0.71036800  0.51872800  1
  C  C63  1  0.10502700  0.62375500  0.41338700  1
  C  C64  1  0.87624500  0.39497300  0.08661300  1
  C  C65  1  0.78963200  0.87624500  0.98127200  1
  C  C66  1  0.39497300  0.80836000  0.51872800  1
  C  C67  1  0.69164000  0.08661300  0.71036800  1
  C  C68  1  0.80836000  0.51872800  0.39497300  1
  C  C69  1  0.98127200  0.78963200  0.87624500  1
  C  C70  1  0.08661300  0.71036800  0.69164000  1
  C  C71  1  0.98127200  0.69164000  0.10502700  1
  C  C72  1  0.78963200  0.41338700  0.80836000  1
  C  C73  1  0.41338700  0.80836000  0.78963200  1
  C  C74  1  0.71036800  0.51872800  0.62375500  1
  C  C75  1  0.08661300  0.87624500  0.39497300  1
  C  C76  1  0.39497300  0.08661300  0.87624500  1
  C  C77  1  0.10502700  0.98127200  0.69164000  1
  C  C78  1  0.51872800  0.62375500  0.71036800  1
  C  C79  1  0.30836000  0.91338700  0.28963200  1
