# generated using pymatgen
data_Cu3Ni4C
_symmetry_space_group_name_H-M   'P 1'
_cell_length_a   9.17157900
_cell_length_b   10.30526600
_cell_length_c   10.69909200
_cell_angle_alpha   90.00000000
_cell_angle_beta   90.00000000
_cell_angle_gamma   90.00000000
_symmetry_Int_Tables_number   1
_chemical_formula_structural   Cu3Ni4C
_chemical_formula_sum   'Cu12 Ni16 C4'
_cell_volume   1011.23068509
_cell_formula_units_Z   4
loop_
 _symmetry_equiv_pos_site_id
 _symmetry_equiv_pos_as_xyz
  1  'x, y, z'
loop_
 _atom_site_type_symbol
 _atom_site_label
 _atom_site_symmetry_multiplicity
 _atom_site_fract_x
 _atom_site_fract_y
 _atom_site_fract_z
 _atom_site_occupancy
  C  C0  1  0.09417400  0.75000000  0.25074200  1
  C  C1  1  0.40582600  0.75000000  0.75074200  1
  C  C2  1  0.90582600  0.25000000  0.74925800  1
  C  C3  1  0.59417400  0.25000000  0.24925800  1
  Ni  Ni4  1  0.73483900  0.75000000  0.46482000  1
  Ni  Ni5  1  0.76516100  0.75000000  0.96482000  1
  Ni  Ni6  1  0.26516100  0.25000000  0.53518000  1
  Ni  Ni7  1  0.23483900  0.25000000  0.03518000  1
  Ni  Ni8  1  0.94582600  0.75000000  0.58437500  1
  Ni  Ni9  1  0.55417400  0.75000000  0.08437500  1
  Ni  Ni10  1  0.05417400  0.25000000  0.41562500  1
  Ni  Ni11  1  0.44582600  0.25000000  0.91562500  1
  Ni  Ni12  1  0.14484200  0.64996200  0.06276900  1
  Ni  Ni13  1  0.35515800  0.85003800  0.56276900  1
  Ni  Ni14  1  0.85515800  0.14996200  0.93723100  1
  Ni  Ni15  1  0.64484200  0.35003800  0.43723100  1
  Ni  Ni16  1  0.85515800  0.35003800  0.93723100  1
  Ni  Ni17  1  0.64484200  0.14996200  0.43723100  1
  Ni  Ni18  1  0.14484200  0.85003800  0.06276900  1
  Ni  Ni19  1  0.35515800  0.64996200  0.56276900  1
  Cu  Cu20  1  0.28521200  0.75000000  0.29761600  1
  Cu  Cu21  1  0.21478800  0.75000000  0.79761600  1
  Cu  Cu22  1  0.71478800  0.25000000  0.70238400  1
  Cu  Cu23  1  0.78521200  0.25000000  0.20238400  1
  Cu  Cu24  1  0.84003800  0.63521500  0.52440800  1
  Cu  Cu25  1  0.65996200  0.86478500  0.02440800  1
  Cu  Cu26  1  0.15996200  0.13521500  0.47559200  1
  Cu  Cu27  1  0.34003800  0.36478500  0.97559200  1
  Cu  Cu28  1  0.15996200  0.36478500  0.47559200  1
  Cu  Cu29  1  0.34003800  0.13521500  0.97559200  1
  Cu  Cu30  1  0.84003800  0.86478500  0.52440800  1
  Cu  Cu31  1  0.65996200  0.63521500  0.02440800  1
