# generated using pymatgen
data_Cu3NiC5
_symmetry_space_group_name_H-M   'P 1'
_cell_length_a   7.38886900
_cell_length_b   7.22357800
_cell_length_c   8.16326900
_cell_angle_alpha   90.00000000
_cell_angle_beta   90.00000000
_cell_angle_gamma   90.00000000
_symmetry_Int_Tables_number   1
_chemical_formula_structural   Cu3NiC5
_chemical_formula_sum   'Cu12 Ni4 C20'
_cell_volume   435.70690371
_cell_formula_units_Z   4
loop_
 _symmetry_equiv_pos_site_id
 _symmetry_equiv_pos_as_xyz
  1  'x, y, z'
loop_
 _atom_site_type_symbol
 _atom_site_label
 _atom_site_symmetry_multiplicity
 _atom_site_fract_x
 _atom_site_fract_y
 _atom_site_fract_z
 _atom_site_occupancy
  C  C0  1  0.50551700  0.25000000  0.90431500  1
  C  C1  1  0.00551700  0.25000000  0.59568500  1
  C  C2  1  0.49448200  0.75000000  0.09568500  1
  C  C3  1  0.99448300  0.75000000  0.40431500  1
  C  C4  1  0.94714800  0.37016900  0.95632500  1
  C  C5  1  0.44714800  0.12983100  0.54367500  1
  C  C6  1  0.05285200  0.87016900  0.04367500  1
  C  C7  1  0.55285200  0.62983100  0.45632500  1
  C  C8  1  0.05285200  0.62983100  0.04367500  1
  C  C9  1  0.55285200  0.87016900  0.45632500  1
  C  C10  1  0.94714800  0.12983100  0.95632500  1
  C  C11  1  0.44714800  0.37016900  0.54367500  1
  C  C12  1  0.72103700  0.59923700  0.73685000  1
  C  C13  1  0.22103700  0.90076300  0.76315000  1
  C  C14  1  0.27896300  0.09923700  0.26315000  1
  C  C15  1  0.77896300  0.40076300  0.23685000  1
  C  C16  1  0.27896300  0.40076300  0.26315000  1
  C  C17  1  0.77896300  0.09923700  0.23685000  1
  C  C18  1  0.72103700  0.90076300  0.73685000  1
  C  C19  1  0.22103700  0.59923700  0.76315000  1
  Ni  Ni20  1  0.86719900  0.75000000  0.88115100  1
  Ni  Ni21  1  0.36719900  0.75000000  0.61884900  1
  Ni  Ni22  1  0.13280100  0.25000000  0.11884900  1
  Ni  Ni23  1  0.63280100  0.25000000  0.38115100  1
  Cu  Cu24  1  0.01388100  0.25000000  0.98716900  1
  Cu  Cu25  1  0.51388100  0.25000000  0.51283100  1
  Cu  Cu26  1  0.98611900  0.75000000  0.01283100  1
  Cu  Cu27  1  0.48611900  0.75000000  0.48716900  1
  Cu  Cu28  1  0.81362900  0.58137600  0.82936900  1
  Cu  Cu29  1  0.31362900  0.91862400  0.67063100  1
  Cu  Cu30  1  0.18637100  0.08137600  0.17063100  1
  Cu  Cu31  1  0.68637100  0.41862400  0.32936900  1
  Cu  Cu32  1  0.18637100  0.41862400  0.17063100  1
  Cu  Cu33  1  0.68637100  0.08137600  0.32936900  1
  Cu  Cu34  1  0.81362900  0.91862400  0.82936900  1
  Cu  Cu35  1  0.31362900  0.58137600  0.67063100  1
