# generated using pymatgen
data_Cu4NiC3
_symmetry_space_group_name_H-M   'P 1'
_cell_length_a   10.03621500
_cell_length_b   10.63303900
_cell_length_c   11.70207400
_cell_angle_alpha   90.00000000
_cell_angle_beta   90.00000000
_cell_angle_gamma   90.00000000
_symmetry_Int_Tables_number   1
_chemical_formula_structural   Cu4NiC3
_chemical_formula_sum   'Cu16 Ni4 C12'
_cell_volume   1248.79227431
_cell_formula_units_Z   4
loop_
 _symmetry_equiv_pos_site_id
 _symmetry_equiv_pos_as_xyz
  1  'x, y, z'
loop_
 _atom_site_type_symbol
 _atom_site_label
 _atom_site_symmetry_multiplicity
 _atom_site_fract_x
 _atom_site_fract_y
 _atom_site_fract_z
 _atom_site_occupancy
  C  C0  1  0.92954000  0.30255300  0.95478900  1
  C  C1  1  0.42954000  0.19744700  0.95478900  1
  C  C2  1  0.57046000  0.80255300  0.45478900  1
  C  C3  1  0.07046000  0.69744700  0.04521100  1
  C  C4  1  0.13925300  0.92350500  0.75000000  1
  C  C5  1  0.63925300  0.57649500  0.75000000  1
  C  C6  1  0.36074700  0.42350500  0.25000000  1
  C  C7  1  0.86074700  0.07649500  0.25000000  1
  C  C8  1  0.07046000  0.69744700  0.45478900  1
  C  C9  1  0.42954000  0.19744700  0.54521100  1
  C  C10  1  0.57046000  0.80255300  0.04521100  1
  C  C11  1  0.92954000  0.30255300  0.54521100  1
  Ni  Ni12  1  0.77377500  0.52039300  0.25000000  1
  Ni  Ni13  1  0.27377500  0.97960700  0.25000000  1
  Ni  Ni14  1  0.72622500  0.02039300  0.75000000  1
  Ni  Ni15  1  0.22622500  0.47960700  0.75000000  1
  Cu  Cu16  1  0.64289000  0.47137500  0.07147500  1
  Cu  Cu17  1  0.14289000  0.02862500  0.42852500  1
  Cu  Cu18  1  0.85711000  0.97137500  0.92852500  1
  Cu  Cu19  1  0.35711000  0.52862500  0.57147500  1
  Cu  Cu20  1  0.35711000  0.52862500  0.92852500  1
  Cu  Cu21  1  0.85711000  0.97137500  0.57147500  1
  Cu  Cu22  1  0.14289000  0.02862500  0.07147500  1
  Cu  Cu23  1  0.64289000  0.47137500  0.42852500  1
  Cu  Cu24  1  0.00858400  0.59975200  0.75000000  1
  Cu  Cu25  1  0.50858400  0.90024800  0.75000000  1
  Cu  Cu26  1  0.49141600  0.09975200  0.25000000  1
  Cu  Cu27  1  0.99141600  0.40024800  0.25000000  1
  Cu  Cu28  1  0.17499400  0.24791400  0.75000000  1
  Cu  Cu29  1  0.82500600  0.75208600  0.25000000  1
  Cu  Cu30  1  0.32500600  0.74791400  0.25000000  1
  Cu  Cu31  1  0.67499400  0.25208600  0.75000000  1
