# generated using pymatgen
data_Cu2NiC8
_symmetry_space_group_name_H-M   'P 1'
_cell_length_a   6.66708700
_cell_length_b   7.31476600
_cell_length_c   13.07037811
_cell_angle_alpha   62.42148740
_cell_angle_beta   90.00000000
_cell_angle_gamma   90.00000000
_symmetry_Int_Tables_number   1
_chemical_formula_structural   Cu2NiC8
_chemical_formula_sum   'Cu8 Ni4 C32'
_cell_volume   564.99332814
_cell_formula_units_Z   4
loop_
 _symmetry_equiv_pos_site_id
 _symmetry_equiv_pos_as_xyz
  1  'x, y, z'
loop_
 _atom_site_type_symbol
 _atom_site_label
 _atom_site_symmetry_multiplicity
 _atom_site_fract_x
 _atom_site_fract_y
 _atom_site_fract_z
 _atom_site_occupancy
  C  C0  1  0.14892100  0.24108400  0.02538900  1
  C  C1  1  0.64892100  0.75891600  0.47461100  1
  C  C2  1  0.85107900  0.75891600  0.97461100  1
  C  C3  1  0.35107900  0.24108400  0.52538900  1
  Ni  Ni4  1  0.40439400  0.20920300  0.26975900  1
  Ni  Ni5  1  0.90439400  0.79079700  0.23024100  1
  Ni  Ni6  1  0.59560600  0.79079700  0.73024100  1
  Ni  Ni7  1  0.09560600  0.20920300  0.76975900  1
  Cu  Cu8  1  0.65940700  0.21836500  0.03828100  1
  Cu  Cu9  1  0.15940700  0.78163500  0.46171900  1
  Cu  Cu10  1  0.34059300  0.78163500  0.96171900  1
  Cu  Cu11  1  0.84059300  0.21836500  0.53828100  1
  Cu  Cu12  1  0.41522200  0.69994000  0.22306300  1
  Cu  Cu13  1  0.91522200  0.30006000  0.27693700  1
  Cu  Cu14  1  0.58477800  0.30006000  0.77693700  1
  Cu  Cu15  1  0.08477800  0.69994000  0.72306300  1
  C  C16  1  0.82931300  0.41142600  0.01702600  1
  C  C17  1  0.32931300  0.58857400  0.48297400  1
  C  C18  1  0.17068700  0.58857400  0.98297400  1
  C  C19  1  0.67068700  0.41142600  0.51702600  1
  C  C20  1  0.11346200  0.21865100  0.21852700  1
  C  C21  1  0.61346200  0.78134900  0.28147300  1
  C  C22  1  0.88653800  0.78134900  0.78147300  1
  C  C23  1  0.38653800  0.21865100  0.71852700  1
  C  C24  1  0.37806800  0.43054800  0.31017300  1
  C  C25  1  0.87806800  0.56945200  0.18982700  1
  C  C26  1  0.62193200  0.56945200  0.68982700  1
  C  C27  1  0.12193200  0.43054800  0.81017300  1
  C  C28  1  0.33943400  0.98639200  0.42603100  1
  C  C29  1  0.83943400  0.01360800  0.07396900  1
  C  C30  1  0.66056600  0.01360800  0.57396900  1
  C  C31  1  0.16056600  0.98639200  0.92603100  1
  C  C32  1  0.00100300  0.26056100  0.41854700  1
  C  C33  1  0.50100300  0.73943900  0.08145300  1
  C  C34  1  0.99899700  0.73943900  0.58145300  1
  C  C35  1  0.49899700  0.26056100  0.91854700  1
  C  C36  1  0.45362100  0.20632500  0.12516500  1
  C  C37  1  0.95362100  0.79367500  0.37483500  1
  C  C38  1  0.54637900  0.79367500  0.87483500  1
  C  C39  1  0.04637900  0.20632500  0.62516500  1
  C  C40  1  0.19360700  0.84905000  0.18606800  1
  C  C41  1  0.69360700  0.15095000  0.31393200  1
  C  C42  1  0.80639300  0.15095000  0.81393200  1
  C  C43  1  0.30639300  0.84905000  0.68606800  1
