# generated using pymatgen
data_Cu4Ni4C25
_symmetry_space_group_name_H-M   'P 1'
_cell_length_a   15.59545300
_cell_length_b   7.98282300
_cell_length_c   16.32669407
_cell_angle_alpha   89.99454299
_cell_angle_beta   90.00000000
_cell_angle_gamma   90.00000000
_symmetry_Int_Tables_number   1
_chemical_formula_structural   Cu4Ni4C25
_chemical_formula_sum   'Cu16 Ni16 C100'
_cell_volume   2032.60386604
_cell_formula_units_Z   4
loop_
 _symmetry_equiv_pos_site_id
 _symmetry_equiv_pos_as_xyz
  1  'x, y, z'
loop_
 _atom_site_type_symbol
 _atom_site_label
 _atom_site_symmetry_multiplicity
 _atom_site_fract_x
 _atom_site_fract_y
 _atom_site_fract_z
 _atom_site_occupancy
  Ni  Ni0  1  0.50736500  0.50628600  0.74993200  1
  Ni  Ni1  1  0.49263500  0.49371400  0.25006800  1
  Ni  Ni2  1  0.99263500  0.50628600  0.24993200  1
  Ni  Ni3  1  0.00736500  0.49371400  0.75006800  1
  Ni  Ni4  1  0.50000000  0.50000000  0.00000000  1
  Ni  Ni5  1  0.00000000  0.50000000  0.50000000  1
  Ni  Ni6  1  0.50000000  0.00000000  0.50000000  1
  Ni  Ni7  1  0.00000000  0.00000000  0.00000000  1
  Ni  Ni8  1  0.50000000  0.00000000  0.00000000  1
  Ni  Ni9  1  0.00000000  0.00000000  0.50000000  1
  Ni  Ni10  1  0.50000000  0.50000000  0.50000000  1
  Ni  Ni11  1  0.00000000  0.50000000  0.00000000  1
  Ni  Ni12  1  0.49648500  0.99308700  0.74951900  1
  Ni  Ni13  1  0.50351500  0.00691300  0.25048100  1
  Ni  Ni14  1  0.00351500  0.99308700  0.24951900  1
  Ni  Ni15  1  0.99648500  0.00691300  0.75048100  1
  Cu  Cu16  1  0.76075700  0.49941200  0.49372600  1
  Cu  Cu17  1  0.23924300  0.50058800  0.50627400  1
  Cu  Cu18  1  0.73924300  0.49941200  0.99372600  1
  Cu  Cu19  1  0.26075700  0.50058800  0.00627400  1
  Cu  Cu20  1  0.76121000  0.00024400  0.50633300  1
  Cu  Cu21  1  0.23879000  0.99975600  0.49366700  1
  Cu  Cu22  1  0.73879000  0.00024400  0.00633300  1
  Cu  Cu23  1  0.26121000  0.99975600  0.99366700  1
  Cu  Cu24  1  0.74771800  0.99579300  0.74423800  1
  Cu  Cu25  1  0.25228200  0.00420700  0.25576200  1
  Cu  Cu26  1  0.75228200  0.99579300  0.24423800  1
  Cu  Cu27  1  0.24771800  0.00420700  0.75576200  1
  Cu  Cu28  1  0.75375600  0.49511300  0.75552100  1
  Cu  Cu29  1  0.24624400  0.50488700  0.24447900  1
  Cu  Cu30  1  0.74624400  0.49511300  0.25552100  1
  Cu  Cu31  1  0.25375600  0.50488700  0.74447900  1
  C  C32  1  0.62624700  0.76318500  0.61860500  1
  C  C33  1  0.37584400  0.76406600  0.37888000  1
  C  C34  1  0.87584400  0.23593400  0.12112000  1
  C  C35  1  0.12624700  0.23681500  0.88139500  1
  C  C36  1  0.37375300  0.23681500  0.38139500  1
  C  C37  1  0.62415600  0.23593400  0.62112000  1
  C  C38  1  0.12415600  0.76406600  0.87888000  1
  C  C39  1  0.87375300  0.76318500  0.11860500  1
  C  C40  1  0.62342800  0.73565400  0.37806500  1
  C  C41  1  0.37332400  0.73674500  0.61940700  1
  C  C42  1  0.87332400  0.26325500  0.88059300  1
  C  C43  1  0.12342800  0.26434600  0.12193500  1
  C  C44  1  0.37657200  0.26434600  0.62193500  1
  C  C45  1  0.62667600  0.26325500  0.38059300  1
  C  C46  1  0.12667600  0.73674500  0.11940700  1
  C  C47  1  0.87657200  0.73565400  0.87806500  1
  C  C48  1  0.63535300  0.74658900  0.12927600  1
  C  C49  1  0.37542300  0.75009500  0.87331000  1
  C  C50  1  0.87542300  0.24990500  0.62669000  1
  C  C51  1  0.13535300  0.25341100  0.37072400  1
  C  C52  1  0.36464700  0.25341100  0.87072400  1
  C  C53  1  0.62457700  0.24990500  0.12669000  1
  C  C54  1  0.12457700  0.75009500  0.37331000  1
  C  C55  1  0.86464700  0.74658900  0.62927600  1
  C  C56  1  0.62552600  0.74984800  0.87498000  1
  C  C57  1  0.36232600  0.75354000  0.12788900  1
  C  C58  1  0.86232600  0.24646000  0.37211100  1
  C  C59  1  0.12552600  0.25015200  0.62502000  1
  C  C60  1  0.37447400  0.25015200  0.12502000  1
  C  C61  1  0.63767400  0.24646000  0.87211100  1
  C  C62  1  0.13767400  0.75354000  0.62788900  1
  C  C63  1  0.87447400  0.74984800  0.37498000  1
  C  C64  1  0.65851300  0.99719300  0.86786100  1
  C  C65  1  0.34148700  0.00280700  0.13213900  1
  C  C66  1  0.84148700  0.99719300  0.36786100  1
  C  C67  1  0.15851300  0.00280700  0.63213900  1
  C  C68  1  0.64620300  0.77451600  0.25923100  1
  C  C69  1  0.34892900  0.78295400  0.73513200  1
  C  C70  1  0.84892900  0.21704600  0.76486800  1
  C  C71  1  0.14620300  0.22548400  0.24076900  1
  C  C72  1  0.35379700  0.22548400  0.74076900  1
  C  C73  1  0.65107100  0.21704600  0.26486800  1
  C  C74  1  0.15107100  0.78295400  0.23513200  1
  C  C75  1  0.85379700  0.77451600  0.75923100  1
  C  C76  1  0.65749300  0.75188000  0.49797300  1
  C  C77  1  0.34315200  0.74578500  0.49828900  1
  C  C78  1  0.84315200  0.25421500  0.00171100  1
  C  C79  1  0.15749300  0.24812000  0.00202700  1
  C  C80  1  0.34250700  0.24812000  0.50202700  1
  C  C81  1  0.65684800  0.25421500  0.50171100  1
  C  C82  1  0.15684800  0.74578500  0.99828900  1
  C  C83  1  0.84250700  0.75188000  0.99797300  1
  C  C84  1  0.64643400  0.49875800  0.87632400  1
  C  C85  1  0.35356600  0.50124200  0.12367600  1
  C  C86  1  0.85356600  0.49875800  0.37632400  1
  C  C87  1  0.14643400  0.50124200  0.62367600  1
  C  C88  1  0.66276500  0.00051900  0.62383900  1
  C  C89  1  0.33723500  0.99948100  0.37616100  1
  C  C90  1  0.83723500  0.00051900  0.12383900  1
  C  C91  1  0.16276500  0.99948100  0.87616100  1
  C  C92  1  0.65827300  0.49766900  0.13186600  1
  C  C93  1  0.34172700  0.50233100  0.86813400  1
  C  C94  1  0.84172700  0.49766900  0.63186600  1
  C  C95  1  0.15827300  0.50233100  0.36813400  1
  C  C96  1  0.66232100  0.50163000  0.37602000  1
  C  C97  1  0.33767900  0.49837000  0.62398000  1
  C  C98  1  0.83767900  0.50163000  0.87602000  1
  C  C99  1  0.16232100  0.49837000  0.12398000  1
  C  C100  1  0.65286800  0.71689400  0.73380800  1
  C  C101  1  0.35240000  0.72508900  0.25995600  1
  C  C102  1  0.85240000  0.27491100  0.24004400  1
  C  C103  1  0.15286800  0.28310600  0.76619200  1
  C  C104  1  0.34713200  0.28310600  0.26619200  1
  C  C105  1  0.64760000  0.27491100  0.74004400  1
  C  C106  1  0.14760000  0.72508900  0.75995600  1
  C  C107  1  0.84713200  0.71689400  0.23380800  1
  C  C108  1  0.64662200  0.99902100  0.12373400  1
  C  C109  1  0.35337800  0.00097900  0.87626600  1
  C  C110  1  0.85337800  0.99902100  0.62373400  1
  C  C111  1  0.14662200  0.00097900  0.37626600  1
  C  C112  1  0.50008700  0.74905100  0.62031100  1
  C  C113  1  0.49969500  0.75220100  0.38193000  1
  C  C114  1  0.99969500  0.24779900  0.11807000  1
  C  C115  1  0.00008700  0.25094900  0.87968900  1
  C  C116  1  0.49991300  0.25094900  0.37968900  1
  C  C117  1  0.50030500  0.24779900  0.61807000  1
  C  C118  1  0.00030500  0.75220100  0.88193000  1
  C  C119  1  0.99991300  0.74905100  0.12031100  1
  C  C120  1  0.63972700  0.74916600  0.00330600  1
  C  C121  1  0.36013400  0.75191500  0.00244300  1
  C  C122  1  0.86013400  0.24808500  0.49755700  1
  C  C123  1  0.13972700  0.25083400  0.49669400  1
  C  C124  1  0.36027300  0.25083400  0.99669400  1
  C  C125  1  0.63986600  0.24808500  0.99755700  1
  C  C126  1  0.13986600  0.75191500  0.50244300  1
  C  C127  1  0.86027300  0.74916600  0.50330600  1
  C  C128  1  0.50062500  0.74933200  0.86644500  1
  C  C129  1  0.00062500  0.25066800  0.63355500  1
  C  C130  1  0.49937500  0.25066800  0.13355500  1
  C  C131  1  0.99937500  0.74933200  0.36644500  1
