# generated using pymatgen
data_Cu16Ni8C3
_symmetry_space_group_name_H-M   'P 1'
_cell_length_a   6.71271000
_cell_length_b   7.61764580
_cell_length_c   9.75085395
_cell_angle_alpha   88.60139375
_cell_angle_beta   108.98239806
_cell_angle_gamma   107.11798979
_symmetry_Int_Tables_number   1
_chemical_formula_structural   Cu16Ni8C3
_chemical_formula_sum   'Cu16 Ni8 C3'
_cell_volume   449.20233321
_cell_formula_units_Z   1
loop_
 _symmetry_equiv_pos_site_id
 _symmetry_equiv_pos_as_xyz
  1  'x, y, z'
loop_
 _atom_site_type_symbol
 _atom_site_label
 _atom_site_symmetry_multiplicity
 _atom_site_fract_x
 _atom_site_fract_y
 _atom_site_fract_z
 _atom_site_occupancy
  C  C0  1  0.50000000  0.00000000  0.50000000  1
  C  C1  1  0.50000000  0.50000000  0.00000000  1
  C  C2  1  0.00000000  0.00000000  0.00000000  1
  Ni  Ni3  1  0.08789400  0.70591700  0.59919300  1
  Ni  Ni4  1  0.36015300  0.32417000  0.28038200  1
  Ni  Ni5  1  0.91210600  0.29408300  0.40080700  1
  Ni  Ni6  1  0.63984700  0.67583000  0.71961800  1
  Ni  Ni7  1  0.94504200  0.33240000  0.83553200  1
  Ni  Ni8  1  0.58347700  0.87951000  0.17672500  1
  Ni  Ni9  1  0.05495800  0.66760000  0.16446800  1
  Ni  Ni10  1  0.41652300  0.12049000  0.82327500  1
  Cu  Cu11  1  0.45266400  0.62846600  0.81847300  1
  Cu  Cu12  1  0.10524100  0.16275000  0.18153700  1
  Cu  Cu13  1  0.54733600  0.37153400  0.18152700  1
  Cu  Cu14  1  0.89475900  0.83725000  0.81846300  1
  Cu  Cu15  1  0.73212700  0.91471300  0.03485800  1
  Cu  Cu16  1  0.80485200  0.52657800  0.02277700  1
  Cu  Cu17  1  0.26787300  0.08528700  0.96514200  1
  Cu  Cu18  1  0.19514800  0.47342200  0.97722300  1
  Cu  Cu19  1  0.60578200  0.14993500  0.67957700  1
  Cu  Cu20  1  0.95744000  0.64044500  0.30502900  1
  Cu  Cu21  1  0.39421800  0.85006500  0.32042300  1
  Cu  Cu22  1  0.04256000  0.35955500  0.69497100  1
  Cu  Cu23  1  0.19020900  0.33912200  0.47240800  1
  Cu  Cu24  1  0.20956200  0.91290600  0.53669700  1
  Cu  Cu25  1  0.80979100  0.66087800  0.52759200  1
  Cu  Cu26  1  0.79043800  0.08709400  0.46330300  1
