# generated using pymatgen
data_Cu8Ni2C15
_symmetry_space_group_name_H-M   'P 1'
_cell_length_a   5.49713800
_cell_length_b   6.07600201
_cell_length_c   7.71482207
_cell_angle_alpha   91.89576111
_cell_angle_beta   95.75818785
_cell_angle_gamma   91.10845356
_symmetry_Int_Tables_number   1
_chemical_formula_structural   Cu8Ni2C15
_chemical_formula_sum   'Cu8 Ni2 C15'
_cell_volume   256.17276339
_cell_formula_units_Z   1
loop_
 _symmetry_equiv_pos_site_id
 _symmetry_equiv_pos_as_xyz
  1  'x, y, z'
loop_
 _atom_site_type_symbol
 _atom_site_label
 _atom_site_symmetry_multiplicity
 _atom_site_fract_x
 _atom_site_fract_y
 _atom_site_fract_z
 _atom_site_occupancy
  C  C0  1  0.50000000  0.00000000  0.50000000  1
  C  C1  1  0.80888100  0.24111700  0.89643600  1
  C  C2  1  0.19111900  0.75888300  0.10356400  1
  Ni  Ni3  1  0.33674200  0.26002700  0.12883300  1
  Ni  Ni4  1  0.66325800  0.73997300  0.87116700  1
  Cu  Cu5  1  0.24907000  0.21340000  0.72841900  1
  Cu  Cu6  1  0.75093000  0.78660000  0.27158100  1
  Cu  Cu7  1  0.09822300  0.22587200  0.54069600  1
  Cu  Cu8  1  0.90177700  0.77412800  0.45930400  1
  Cu  Cu9  1  0.75043400  0.40749700  0.52770600  1
  Cu  Cu10  1  0.24956600  0.59250300  0.47229400  1
  Cu  Cu11  1  0.77098100  0.31047100  0.33407300  1
  Cu  Cu12  1  0.22901900  0.68952900  0.66592700  1
  C  C13  1  0.22573600  0.48124200  0.23753400  1
  C  C14  1  0.77426400  0.51875800  0.76246600  1
  C  C15  1  0.64208800  0.30301400  0.10679900  1
  C  C16  1  0.35791200  0.69698600  0.89320100  1
  C  C17  1  0.31096500  0.02520000  0.25177600  1
  C  C18  1  0.68903500  0.97480000  0.74822400  1
  C  C19  1  0.16778300  0.19631900  0.93279000  1
  C  C20  1  0.83221700  0.80368100  0.06721000  1
  C  C21  1  0.26732900  0.22396100  0.60089000  1
  C  C22  1  0.73267100  0.77603900  0.39911000  1
  C  C23  1  0.78392600  0.27213300  0.45922600  1
  C  C24  1  0.21607400  0.72786700  0.54077400  1
