# generated using pymatgen
data_Cu5Ni3C13
_symmetry_space_group_name_H-M   'P 1'
_cell_length_a   9.89700770
_cell_length_b   9.89700770
_cell_length_c   7.32663400
_cell_angle_alpha   90.00000000
_cell_angle_beta   90.00000000
_cell_angle_gamma   119.99999798
_symmetry_Int_Tables_number   1
_chemical_formula_structural   Cu5Ni3C13
_chemical_formula_sum   'Cu10 Ni6 C26'
_cell_volume   621.50260548
_cell_formula_units_Z   2
loop_
 _symmetry_equiv_pos_site_id
 _symmetry_equiv_pos_as_xyz
  1  'x, y, z'
loop_
 _atom_site_type_symbol
 _atom_site_label
 _atom_site_symmetry_multiplicity
 _atom_site_fract_x
 _atom_site_fract_y
 _atom_site_fract_z
 _atom_site_occupancy
  Ni  Ni0  1  0.40419900  0.38492200  0.75000000  1
  Ni  Ni1  1  0.61507800  0.01927700  0.75000000  1
  Ni  Ni2  1  0.98072300  0.59580100  0.75000000  1
  Ni  Ni3  1  0.59580100  0.61507800  0.25000000  1
  Ni  Ni4  1  0.38492200  0.98072300  0.25000000  1
  Ni  Ni5  1  0.01927700  0.40419900  0.25000000  1
  Cu  Cu6  1  0.33333300  0.66666700  0.99889100  1
  Cu  Cu7  1  0.66666700  0.33333300  0.49889100  1
  Cu  Cu8  1  0.66666700  0.33333300  0.00110900  1
  Cu  Cu9  1  0.33333300  0.66666700  0.50110900  1
  Cu  Cu10  1  0.23167500  0.01501800  0.75000000  1
  Cu  Cu11  1  0.98498200  0.21665700  0.75000000  1
  Cu  Cu12  1  0.78334300  0.76832500  0.75000000  1
  Cu  Cu13  1  0.76832500  0.98498200  0.25000000  1
  Cu  Cu14  1  0.01501800  0.78334300  0.25000000  1
  Cu  Cu15  1  0.21665700  0.23167500  0.25000000  1
  C  C16  1  0.32635400  0.48732800  0.75000000  1
  C  C17  1  0.51267200  0.83902600  0.75000000  1
  C  C18  1  0.16097400  0.67364600  0.75000000  1
  C  C19  1  0.67364600  0.51267200  0.25000000  1
  C  C20  1  0.48732800  0.16097400  0.25000000  1
  C  C21  1  0.83902600  0.32635400  0.25000000  1
  C  C22  1  0.58598300  0.48764300  0.75000000  1
  C  C23  1  0.51235700  0.09834000  0.75000000  1
  C  C24  1  0.90166000  0.41401700  0.75000000  1
  C  C25  1  0.41401700  0.51235700  0.25000000  1
  C  C26  1  0.48764300  0.90166000  0.25000000  1
  C  C27  1  0.09834000  0.58598300  0.25000000  1
  C  C28  1  0.35315700  0.27558700  0.57982600  1
  C  C29  1  0.72441300  0.07757000  0.57982600  1
  C  C30  1  0.92243000  0.64684300  0.57982600  1
  C  C31  1  0.64684300  0.72441300  0.07982600  1
  C  C32  1  0.27558700  0.92243000  0.07982600  1
  C  C33  1  0.07757000  0.35315700  0.07982600  1
  C  C34  1  0.64684300  0.72441300  0.42017400  1
  C  C35  1  0.27558700  0.92243000  0.42017400  1
  C  C36  1  0.07757000  0.35315700  0.42017400  1
  C  C37  1  0.35315700  0.27558700  0.92017400  1
  C  C38  1  0.72441300  0.07757000  0.92017400  1
  C  C39  1  0.92243000  0.64684300  0.92017400  1
  C  C40  1  0.00000000  0.00000000  0.50000000  1
  C  C41  1  0.00000000  0.00000000  0.00000000  1
