# generated using pymatgen
data_Cu2NiC2
_symmetry_space_group_name_H-M   'P 1'
_cell_length_a   4.33008600
_cell_length_b   5.80493711
_cell_length_c   5.80493711
_cell_angle_alpha   61.46446424
_cell_angle_beta   68.10135760
_cell_angle_gamma   68.10135760
_symmetry_Int_Tables_number   1
_chemical_formula_structural   Cu2NiC2
_chemical_formula_sum   'Cu2 Ni1 C2'
_cell_volume   115.49137783
_cell_formula_units_Z   1
loop_
 _symmetry_equiv_pos_site_id
 _symmetry_equiv_pos_as_xyz
  1  'x, y, z'
loop_
 _atom_site_type_symbol
 _atom_site_label
 _atom_site_symmetry_multiplicity
 _atom_site_fract_x
 _atom_site_fract_y
 _atom_site_fract_z
 _atom_site_occupancy
  C  C0  1  0.80095900  0.69904100  0.69904100  1
  C  C1  1  0.19904100  0.30095900  0.30095900  1
  Ni  Ni2  1  0.00000000  0.00000000  0.00000000  1
  Cu  Cu3  1  0.50000000  0.73588000  0.26412000  1
  Cu  Cu4  1  0.50000000  0.26412000  0.73588000  1
