# generated using pymatgen
data_Cu5Ni7C67
_symmetry_space_group_name_H-M   'P 1'
_cell_length_a   13.00300281
_cell_length_b   9.27027638
_cell_length_c   8.64756542
_cell_angle_alpha   104.43496355
_cell_angle_beta   106.07787863
_cell_angle_gamma   63.69257775
_symmetry_Int_Tables_number   1
_chemical_formula_structural   Cu5Ni7C67
_chemical_formula_sum   'Cu5 Ni7 C67'
_cell_volume   888.13740382
_cell_formula_units_Z   1
loop_
 _symmetry_equiv_pos_site_id
 _symmetry_equiv_pos_as_xyz
  1  'x, y, z'
loop_
 _atom_site_type_symbol
 _atom_site_label
 _atom_site_symmetry_multiplicity
 _atom_site_fract_x
 _atom_site_fract_y
 _atom_site_fract_z
 _atom_site_occupancy
  C  C0  1  0.37698900  0.01330200  0.99000000  1
  C  C1  1  0.25035300  0.49660500  0.49727700  1
  C  C2  1  0.12976000  0.98838700  0.01761800  1
  C  C3  1  0.50038200  0.49826900  0.50079300  1
  C  C4  1  0.86147100  0.01270200  0.99229400  1
  C  C5  1  0.75181200  0.49810900  0.49700000  1
  C  C6  1  0.00313600  0.49645400  0.49808900  1
  Ni  Ni7  1  0.11897600  0.62769400  0.93932900  1
  Ni  Ni8  1  0.00924900  0.72755300  0.26425500  1
  Ni  Ni9  1  0.28638200  0.05969000  0.37309600  1
  Ni  Ni10  1  0.49122300  0.26328000  0.73744200  1
  Ni  Ni11  1  0.50760800  0.73456000  0.26861300  1
  Ni  Ni12  1  0.99267400  0.26991800  0.73580100  1
  Ni  Ni13  1  0.88098700  0.37332400  0.06076700  1
  Cu  Cu14  1  0.21557600  0.94044000  0.62306100  1
  Cu  Cu15  1  0.37562800  0.37711300  0.06103800  1
  Cu  Cu16  1  0.62568000  0.62761500  0.94217000  1
  Cu  Cu17  1  0.78126400  0.06103100  0.36717900  1
  Cu  Cu18  1  0.71321300  0.94085600  0.62540600  1
  C  C19  1  0.00035800  0.87517000  0.65254000  1
  C  C20  1  0.22944600  0.29148800  0.70887000  1
  C  C21  1  0.14114800  0.34200900  0.12245200  1
  C  C22  1  0.36321800  0.65197700  0.87321000  1
  C  C23  1  0.26895800  0.71192400  0.28881900  1
  C  C24  1  0.49769700  0.12698000  0.34696100  1
  C  C25  1  0.50173500  0.86988300  0.65376600  1
  C  C26  1  0.73140200  0.28814600  0.71026000  1
  C  C27  1  0.63673300  0.35129200  0.12769500  1
  C  C28  1  0.85946700  0.65617500  0.87251000  1
  C  C29  1  0.77039200  0.70971400  0.29060900  1
  C  C30  1  0.99901700  0.12446700  0.34752100  1
  C  C31  1  0.05365500  0.00416300  0.67204900  1
  C  C32  1  0.03553800  0.32435900  0.99081400  1
  C  C33  1  0.13462700  0.04103300  0.40459400  1
  C  C34  1  0.18097400  0.17389500  0.74048300  1
  C  C35  1  0.14022300  0.46637500  0.73832900  1
  C  C36  1  0.02701700  0.83163300  0.82449900  1
  C  C37  1  0.09810800  0.47438000  0.26614700  1
  C  C38  1  0.04870200  0.73130000  0.52192600  1
  C  C39  1  0.22051300  0.17081200  0.17031300  1
  C  C40  1  0.24517400  0.26106400  0.53367100  1
  C  C41  1  0.35303400  0.26070400  0.82519200  1
  C  C42  1  0.21087500  0.39786000  0.04479900  1
  C  C43  1  0.29539700  0.60036300  0.95663400  1
  C  C44  1  0.14629200  0.74239100  0.18001400  1
  C  C45  1  0.25965800  0.73691500  0.47035100  1
  C  C46  1  0.55143000  0.00154000  0.67027800  1
  C  C47  1  0.28207000  0.82488200  0.82292100  1
  C  C48  1  0.45187300  0.26680900  0.48249700  1
  C  C49  1  0.40555100  0.52113400  0.72999000  1
  C  C50  1  0.46453000  0.18614500  0.17987800  1
  C  C51  1  0.53044000  0.32962900  0.99879900  1
  C  C52  1  0.35639300  0.53084400  0.26381800  1
  C  C53  1  0.32256900  0.81991600  0.25855200  1
  C  C54  1  0.63545700  0.04644200  0.40004000  1
  C  C55  1  0.36594800  0.95260100  0.60480600  1
  C  C56  1  0.67827400  0.17634500  0.74025600  1
  C  C57  1  0.64287100  0.46715600  0.73959500  1
  C  C58  1  0.46881800  0.67646200  0.00332100  1
  C  C59  1  0.53275800  0.81693900  0.82333700  1
  C  C60  1  0.59431600  0.48147200  0.27146600  1
  C  C61  1  0.54948700  0.72787000  0.52140100  1
  C  C62  1  0.72036200  0.18187400  0.18087700  1
  C  C63  1  0.45121900  0.99282200  0.32108900  1
  C  C64  1  0.73854700  0.26267200  0.52854200  1
  C  C65  1  0.85346100  0.25699700  0.81929000  1
  C  C66  1  0.70461300  0.40268100  0.04373900  1
  C  C67  1  0.78851500  0.60617600  0.95318700  1
  C  C68  1  0.64731600  0.73706200  0.18006000  1
  C  C69  1  0.75516800  0.74181800  0.47022300  1
  C  C70  1  0.78209600  0.82543600  0.81389700  1
  C  C71  1  0.94959800  0.26831700  0.47809800  1
  C  C72  1  0.90182900  0.52266200  0.73051700  1
  C  C73  1  0.97227000  0.16916800  0.17566100  1
  C  C74  1  0.85853300  0.53400400  0.26559700  1
  C  C75  1  0.82163600  0.82390800  0.26363900  1
  C  C76  1  0.86327900  0.95964800  0.59537700  1
  C  C77  1  0.96129200  0.68149500  0.00560100  1
  C  C78  1  0.94501100  0.99520200  0.32589800  1
