# generated using pymatgen
data_Cu2(NiC3)3
_symmetry_space_group_name_H-M   'P 1'
_cell_length_a   5.97434943
_cell_length_b   8.44625623
_cell_length_c   5.99395609
_cell_angle_alpha   89.92978968
_cell_angle_beta   89.67905976
_cell_angle_gamma   89.48467649
_symmetry_Int_Tables_number   1
_chemical_formula_structural   Cu2(NiC3)3
_chemical_formula_sum   'Cu4 Ni6 C18'
_cell_volume   302.44314839
_cell_formula_units_Z   2
loop_
 _symmetry_equiv_pos_site_id
 _symmetry_equiv_pos_as_xyz
  1  'x, y, z'
loop_
 _atom_site_type_symbol
 _atom_site_label
 _atom_site_symmetry_multiplicity
 _atom_site_fract_x
 _atom_site_fract_y
 _atom_site_fract_z
 _atom_site_occupancy
  C  C0  1  0.25084000  0.37753000  0.99678600  1
  C  C1  1  0.74422800  0.87292500  0.50193300  1
  Ni  Ni2  1  0.25130900  0.87099300  0.49924000  1
  Ni  Ni3  1  0.49900400  0.12458200  0.74739100  1
  Ni  Ni4  1  0.50319800  0.12329200  0.24818600  1
  Ni  Ni5  1  0.74550200  0.37431800  0.00007400  1
  Ni  Ni6  1  0.00047500  0.62513700  0.25037900  1
  Ni  Ni7  1  0.99927100  0.62764800  0.75024000  1
  Cu  Cu8  1  0.51168500  0.49506000  0.50148200  1
  Cu  Cu9  1  0.01341000  0.99557500  0.99882100  1
  Cu  Cu10  1  0.99294200  0.25588700  0.50281000  1
  Cu  Cu11  1  0.48963400  0.75733500  0.00163600  1
  C  C12  1  0.76741500  0.61640500  0.00075800  1
  C  C13  1  0.26592900  0.11994200  0.50791600  1
  C  C14  1  0.22475300  0.62047200  0.50017400  1
  C  C15  1  0.74304100  0.13767100  0.98805200  1
  C  C16  1  0.98627800  0.39669200  0.23370000  1
  C  C17  1  0.48452200  0.89324500  0.73417100  1
  C  C18  1  0.00730200  0.84983800  0.26114400  1
  C  C19  1  0.51706300  0.36009300  0.76846600  1
  C  C20  1  0.78502500  0.62391500  0.50152000  1
  C  C21  1  0.28550000  0.12937000  0.98903800  1
  C  C22  1  0.00638800  0.84917700  0.73881100  1
  C  C23  1  0.52583200  0.36646700  0.22373400  1
  C  C24  1  0.97915700  0.39581200  0.77377300  1
  C  C25  1  0.48826000  0.89076300  0.26964100  1
  C  C26  1  0.21472500  0.62368200  0.99866300  1
  C  C27  1  0.71731100  0.12617500  0.51146000  1
