# generated using pymatgen
data_CuNiC8
_symmetry_space_group_name_H-M   'P 1'
_cell_length_a   8.74178874
_cell_length_b   8.70938544
_cell_length_c   8.75197493
_cell_angle_alpha   90.00000000
_cell_angle_beta   90.00000000
_cell_angle_gamma   90.00000000
_symmetry_Int_Tables_number   1
_chemical_formula_structural   CuNiC8
_chemical_formula_sum   'Cu4 Ni4 C32'
_cell_volume   666.33692875
_cell_formula_units_Z   4
loop_
 _symmetry_equiv_pos_site_id
 _symmetry_equiv_pos_as_xyz
  1  'x, y, z'
loop_
 _atom_site_type_symbol
 _atom_site_label
 _atom_site_symmetry_multiplicity
 _atom_site_fract_x
 _atom_site_fract_y
 _atom_site_fract_z
 _atom_site_occupancy
  C  C0  1  0.50000000  -0.00000000  0.50000000  1
  C  C1  1  0.50000000  0.50000000  -0.00000000  1
  C  C2  1  0.00000000  0.50000000  -0.00000000  1
  C  C3  1  0.00000000  -0.00000000  0.50000000  1
  Ni  Ni4  1  0.00000000  0.50000000  0.50000000  1
  Ni  Ni5  1  0.50000000  -0.00000000  -0.00000000  1
  Ni  Ni6  1  0.00000000  -0.00000000  -0.00000000  1
  Ni  Ni7  1  0.50000000  0.50000000  0.50000000  1
  Cu  Cu8  1  0.25000000  0.25000000  0.25000000  1
  Cu  Cu9  1  0.75000000  0.75000000  0.25000000  1
  Cu  Cu10  1  0.75000000  0.25000000  0.75000000  1
  Cu  Cu11  1  0.25000000  0.75000000  0.75000000  1
  C  C12  1  0.75000000  0.75000000  0.75000000  1
  C  C13  1  0.25000000  0.25000000  0.75000000  1
  C  C14  1  0.25000000  0.75000000  0.25000000  1
  C  C15  1  0.75000000  0.25000000  0.25000000  1
  C  C16  1  0.99285409  0.23567185  0.26366422  1
  C  C17  1  0.00714591  0.76432815  0.26366422  1
  C  C18  1  0.00714591  0.23567185  0.73633578  1
  C  C19  1  0.99285409  0.76432815  0.73633578  1
  C  C20  1  0.26327334  0.99303839  0.22482368  1
  C  C21  1  0.26327334  0.00696161  0.77517632  1
  C  C22  1  0.73672666  0.00696161  0.22482368  1
  C  C23  1  0.73672666  0.99303839  0.77517632  1
  C  C24  1  0.23413985  0.25381817  0.99301135  1
  C  C25  1  0.76586015  0.25381817  0.00698865  1
  C  C26  1  0.23413985  0.74618183  0.00698865  1
  C  C27  1  0.76586015  0.74618183  0.99301135  1
  C  C28  1  0.50714591  0.26432815  0.23633578  1
  C  C29  1  0.49285409  0.73567185  0.23633578  1
  C  C30  1  0.49285409  0.26432815  0.76366422  1
  C  C31  1  0.50714591  0.73567185  0.76366422  1
  C  C32  1  0.23672666  0.50696161  0.27517632  1
  C  C33  1  0.23672666  0.49303839  0.72482368  1
  C  C34  1  0.76327334  0.49303839  0.27517632  1
  C  C35  1  0.76327334  0.50696161  0.72482368  1
  C  C36  1  0.26586015  0.24618183  0.50698865  1
  C  C37  1  0.73413985  0.24618183  0.49301135  1
  C  C38  1  0.26586015  0.75381817  0.49301135  1
  C  C39  1  0.73413985  0.75381817  0.50698865  1
