# generated using pymatgen
data_Cu4NiC
_symmetry_space_group_name_H-M   'P 1'
_cell_length_a   5.63928000
_cell_length_b   7.30353700
_cell_length_c   9.57852500
_cell_angle_alpha   90.00000000
_cell_angle_beta   90.00000000
_cell_angle_gamma   90.00000000
_symmetry_Int_Tables_number   1
_chemical_formula_structural   Cu4NiC
_chemical_formula_sum   'Cu16 Ni4 C4'
_cell_volume   394.50774111
_cell_formula_units_Z   4
loop_
 _symmetry_equiv_pos_site_id
 _symmetry_equiv_pos_as_xyz
  1  'x, y, z'
loop_
 _atom_site_type_symbol
 _atom_site_label
 _atom_site_symmetry_multiplicity
 _atom_site_fract_x
 _atom_site_fract_y
 _atom_site_fract_z
 _atom_site_occupancy
  C  C0  1  0.25000000  0.18369100  0.83245500  1
  C  C1  1  0.25000000  0.68369100  0.66754500  1
  C  C2  1  0.75000000  0.81630900  0.16754500  1
  C  C3  1  0.75000000  0.31630900  0.33245500  1
  Ni  Ni4  1  0.25000000  0.20528100  0.16512200  1
  Ni  Ni5  1  0.25000000  0.70528100  0.33487800  1
  Ni  Ni6  1  0.75000000  0.79471900  0.83487800  1
  Ni  Ni7  1  0.75000000  0.29471900  0.66512200  1
  Cu  Cu8  1  0.05564500  0.16916300  0.10418400  1
  Cu  Cu9  1  0.44435500  0.66916300  0.39581600  1
  Cu  Cu10  1  0.55564500  0.83083700  0.89581600  1
  Cu  Cu11  1  0.94435500  0.33083700  0.60418400  1
  Cu  Cu12  1  0.94435500  0.83083700  0.89581600  1
  Cu  Cu13  1  0.55564500  0.33083700  0.60418400  1
  Cu  Cu14  1  0.44435500  0.16916300  0.10418400  1
  Cu  Cu15  1  0.05564500  0.66916300  0.39581600  1
  Cu  Cu16  1  0.25000000  0.27964800  0.28478000  1
  Cu  Cu17  1  0.25000000  0.77964800  0.21522000  1
  Cu  Cu18  1  0.75000000  0.72035200  0.71522000  1
  Cu  Cu19  1  0.75000000  0.22035200  0.78478000  1
  Cu  Cu20  1  0.25000000  0.47521100  0.82820200  1
  Cu  Cu21  1  0.25000000  0.97521100  0.67179800  1
  Cu  Cu22  1  0.75000000  0.52478900  0.17179800  1
  Cu  Cu23  1  0.75000000  0.02478900  0.32820200  1
