# generated using pymatgen
data_Cu3Ni3C20
_symmetry_space_group_name_H-M   'P 1'
_cell_length_a   5.21234300
_cell_length_b   8.59575400
_cell_length_c   15.94207647
_cell_angle_alpha   69.10809976
_cell_angle_beta   90.00000000
_cell_angle_gamma   90.00000000
_symmetry_Int_Tables_number   1
_chemical_formula_structural   Cu3Ni3C20
_chemical_formula_sum   'Cu6 Ni6 C40'
_cell_volume   667.30938920
_cell_formula_units_Z   2
loop_
 _symmetry_equiv_pos_site_id
 _symmetry_equiv_pos_as_xyz
  1  'x, y, z'
loop_
 _atom_site_type_symbol
 _atom_site_label
 _atom_site_symmetry_multiplicity
 _atom_site_fract_x
 _atom_site_fract_y
 _atom_site_fract_z
 _atom_site_occupancy
  Ni  Ni0  1  0.55129800  0.29919400  0.21763900  1
  Ni  Ni1  1  0.05129800  0.70080600  0.28236100  1
  Ni  Ni2  1  0.44870200  0.70080600  0.78236100  1
  Ni  Ni3  1  0.94870200  0.29919400  0.71763900  1
  Ni  Ni4  1  0.50000000  0.00000000  0.50000000  1
  Ni  Ni5  1  0.00000000  0.00000000  0.00000000  1
  Cu  Cu6  1  0.49140700  0.20804100  0.62561200  1
  Cu  Cu7  1  0.50859300  0.79195900  0.37438800  1
  Cu  Cu8  1  0.99140700  0.79195900  0.87438800  1
  Cu  Cu9  1  0.00859300  0.20804100  0.12561200  1
  Cu  Cu10  1  0.00000000  0.50000000  0.50000000  1
  Cu  Cu11  1  0.50000000  0.50000000  0.00000000  1
  C  C12  1  0.99034300  0.03650500  0.35335200  1
  C  C13  1  0.49128600  0.41570900  0.39603700  1
  C  C14  1  0.99128600  0.58429100  0.10396300  1
  C  C15  1  0.00871400  0.41570900  0.89603700  1
  C  C16  1  0.00965700  0.96349500  0.64664800  1
  C  C17  1  0.50871400  0.58429100  0.60396300  1
  C  C18  1  0.50965700  0.03650500  0.85335200  1
  C  C19  1  0.49034300  0.96349500  0.14664800  1
  C  C20  1  0.40991800  0.81112400  0.25000500  1
  C  C21  1  0.92783600  0.75308300  0.00851800  1
  C  C22  1  0.40134800  0.39337300  0.29921100  1
  C  C23  1  0.38684700  0.15413400  0.15281900  1
  C  C24  1  0.59865200  0.60662700  0.70078900  1
  C  C25  1  0.09008200  0.81112400  0.75000500  1
  C  C26  1  0.90134800  0.60662700  0.20078900  1
  C  C27  1  0.71485400  0.50938100  0.89499600  1
  C  C28  1  0.67625300  0.09281100  0.92875900  1
  C  C29  1  0.59008200  0.18887600  0.74999500  1
  C  C30  1  0.11315300  0.15413400  0.65281900  1
  C  C31  1  0.28514600  0.49061900  0.10500400  1
  C  C32  1  0.27929900  0.57282600  0.40529800  1
  C  C33  1  0.32374700  0.90718900  0.07124100  1
  C  C34  1  0.68090400  0.98585400  0.63029200  1
  C  C35  1  0.18090400  0.01414600  0.86970800  1
  C  C36  1  0.77929900  0.42717400  0.09470200  1
  C  C37  1  0.09865200  0.39337300  0.79921100  1
  C  C38  1  0.17625300  0.90718900  0.57124100  1
  C  C39  1  0.21485400  0.49061900  0.60500400  1
  C  C40  1  0.81909600  0.98585400  0.13029200  1
  C  C41  1  0.31909600  0.01414600  0.36970800  1
  C  C42  1  0.07216400  0.24691700  0.99148200  1
  C  C43  1  0.42783600  0.24691700  0.49148200  1
  C  C44  1  0.72070100  0.42717400  0.59470200  1
  C  C45  1  0.90991800  0.18887600  0.24999500  1
  C  C46  1  0.61315300  0.84586600  0.84718100  1
  C  C47  1  0.82374700  0.09281100  0.42875900  1
  C  C48  1  0.57216400  0.75308300  0.50851800  1
  C  C49  1  0.78514600  0.50938100  0.39499600  1
  C  C50  1  0.22070100  0.57282600  0.90529800  1
  C  C51  1  0.88684700  0.84586600  0.34718100  1
