# generated using pymatgen
data_CuNi3C17
_symmetry_space_group_name_H-M   'P 1'
_cell_length_a   3.95970500
_cell_length_b   3.95970500
_cell_length_c   38.32290969
_cell_angle_alpha   92.96135356
_cell_angle_beta   92.96135356
_cell_angle_gamma   90.00000000
_symmetry_Int_Tables_number   1
_chemical_formula_structural   CuNi3C17
_chemical_formula_sum   'Cu2 Ni6 C34'
_cell_volume   599.26912528
_cell_formula_units_Z   2
loop_
 _symmetry_equiv_pos_site_id
 _symmetry_equiv_pos_as_xyz
  1  'x, y, z'
loop_
 _atom_site_type_symbol
 _atom_site_label
 _atom_site_symmetry_multiplicity
 _atom_site_fract_x
 _atom_site_fract_y
 _atom_site_fract_z
 _atom_site_occupancy
  C  C0  1  0.16666700  0.16666700  0.33333300  1
  C  C1  1  0.63708700  0.63708700  0.27417300  1
  C  C2  1  0.30415300  0.30415300  0.60830700  1
  C  C3  1  0.97082300  0.97082300  0.94164500  1
  C  C4  1  0.02918000  0.02918000  0.05836000  1
  C  C5  1  0.69624700  0.69624700  0.39249300  1
  C  C6  1  0.36251000  0.36251000  0.72502200  1
  Ni  Ni7  1  0.09948200  0.09948200  0.19896300  1
  Ni  Ni8  1  0.76625200  0.76625200  0.53250500  1
  Ni  Ni9  1  0.43289600  0.43289600  0.86579200  1
  Ni  Ni10  1  0.56708100  0.56708100  0.13416200  1
  Ni  Ni11  1  0.23385200  0.23385200  0.46770300  1
  Ni  Ni12  1  0.90043700  0.90043700  0.80087500  1
  Cu  Cu13  1  0.83332400  0.83332400  0.66664900  1
  Cu  Cu14  1  0.50000900  0.50000900  0.00001800  1
  C  C15  1  0.61221600  0.61221600  0.22443200  1
  C  C16  1  0.27919300  0.27919300  0.55838600  1
  C  C17  1  0.94586700  0.94586700  0.89173600  1
  C  C18  1  0.05414100  0.05414100  0.10828000  1
  C  C19  1  0.72111700  0.72111700  0.44223500  1
  C  C20  1  0.38746600  0.38746600  0.77493100  1
  C  C21  1  0.08329400  0.58329400  0.16659000  1
  C  C22  1  0.75003900  0.25003900  0.50007700  1
  C  C23  1  0.41666700  0.91666700  0.83333300  1
  C  C24  1  0.58329400  0.08329400  0.16659000  1
  C  C25  1  0.25003900  0.75003900  0.50007700  1
  C  C26  1  0.91666700  0.41666700  0.83333300  1
  C  C27  1  0.14006800  0.64006800  0.28013600  1
  C  C28  1  0.80715300  0.30715300  0.61430400  1
  C  C29  1  0.47383300  0.97383300  0.94766800  1
  C  C30  1  0.64006800  0.14006800  0.28013600  1
  C  C31  1  0.30715300  0.80715300  0.61430400  1
  C  C32  1  0.97383300  0.47383300  0.94766800  1
  C  C33  1  0.52618100  0.02618100  0.05236200  1
  C  C34  1  0.19326500  0.69326500  0.38653100  1
  C  C35  1  0.85950000  0.35950000  0.71899900  1
  C  C36  1  0.02618100  0.52618100  0.05236200  1
  C  C37  1  0.69326500  0.19326500  0.38653100  1
  C  C38  1  0.35950000  0.85950000  0.71899900  1
  C  C39  1  0.00003100  0.00003100  0.00006200  1
  C  C40  1  0.66666700  0.66666700  0.33333300  1
  C  C41  1  0.33330200  0.33330200  0.66660500  1
