# generated using pymatgen
data_Cu(NiC3)2
_symmetry_space_group_name_H-M   'P 1'
_cell_length_a   5.70849400
_cell_length_b   6.66918400
_cell_length_c   14.62280509
_cell_angle_alpha   63.19522556
_cell_angle_beta   90.00000000
_cell_angle_gamma   90.00000000
_symmetry_Int_Tables_number   1
_chemical_formula_structural   Cu(NiC3)2
_chemical_formula_sum   'Cu4 Ni8 C24'
_cell_volume   496.88586156
_cell_formula_units_Z   4
loop_
 _symmetry_equiv_pos_site_id
 _symmetry_equiv_pos_as_xyz
  1  'x, y, z'
loop_
 _atom_site_type_symbol
 _atom_site_label
 _atom_site_symmetry_multiplicity
 _atom_site_fract_x
 _atom_site_fract_y
 _atom_site_fract_z
 _atom_site_occupancy
  Ni  Ni0  1  0.31942100  0.84237100  0.93403300  1
  Ni  Ni1  1  0.68057900  0.15762900  0.06596700  1
  Ni  Ni2  1  0.81942100  0.15762900  0.56596700  1
  Ni  Ni3  1  0.18057900  0.84237100  0.43403300  1
  Ni  Ni4  1  0.94584800  0.98095100  0.54391600  1
  Ni  Ni5  1  0.05415200  0.01904900  0.45608400  1
  Ni  Ni6  1  0.44584800  0.01904900  0.95608400  1
  Ni  Ni7  1  0.55415200  0.98095100  0.04391600  1
  Cu  Cu8  1  0.94581100  0.69827700  0.65455600  1
  Cu  Cu9  1  0.05418900  0.30172300  0.34544400  1
  Cu  Cu10  1  0.44581100  0.30172300  0.84544400  1
  Cu  Cu11  1  0.55418900  0.69827700  0.15455600  1
  C  C12  1  0.18913000  0.63827300  0.51923100  1
  C  C13  1  0.81087000  0.36172700  0.48076900  1
  C  C14  1  0.68913000  0.36172700  0.98076900  1
  C  C15  1  0.31087000  0.63827300  0.01923100  1
  C  C16  1  0.81762200  0.74054300  0.74132500  1
  C  C17  1  0.18237800  0.25945700  0.25867500  1
  C  C18  1  0.31762200  0.25945700  0.75867500  1
  C  C19  1  0.68237800  0.74054300  0.24132500  1
  C  C20  1  0.09730300  0.90147900  0.90283200  1
  C  C21  1  0.90269700  0.09852100  0.09716800  1
  C  C22  1  0.59730300  0.09852100  0.59716800  1
  C  C23  1  0.40269700  0.90147900  0.40283200  1
  C  C24  1  0.43593300  0.81195000  0.86066500  1
  C  C25  1  0.56406700  0.18805000  0.13933500  1
  C  C26  1  0.93593300  0.18805000  0.63933500  1
  C  C27  1  0.06406700  0.81195000  0.36066500  1
  C  C28  1  0.20345800  0.77548100  0.69082700  1
  C  C29  1  0.79654200  0.22451900  0.30917300  1
  C  C30  1  0.70345800  0.22451900  0.80917300  1
  C  C31  1  0.29654200  0.77548100  0.19082700  1
  C  C32  1  0.17256400  0.33507500  0.88750300  1
  C  C33  1  0.82743600  0.66492500  0.11249700  1
  C  C34  1  0.67256400  0.66492500  0.61249700  1
  C  C35  1  0.32743600  0.33507500  0.38750300  1
