# generated using pymatgen
data_Cu8Ni2C27
_symmetry_space_group_name_H-M   'P 1'
_cell_length_a   17.61429500
_cell_length_b   17.61429500
_cell_length_c   2.99495600
_cell_angle_alpha   90.00000000
_cell_angle_beta   90.00000000
_cell_angle_gamma   90.00000000
_symmetry_Int_Tables_number   1
_chemical_formula_structural   Cu8Ni2C27
_chemical_formula_sum   'Cu16 Ni4 C54'
_cell_volume   929.22519651
_cell_formula_units_Z   2
loop_
 _symmetry_equiv_pos_site_id
 _symmetry_equiv_pos_as_xyz
  1  'x, y, z'
loop_
 _atom_site_type_symbol
 _atom_site_label
 _atom_site_symmetry_multiplicity
 _atom_site_fract_x
 _atom_site_fract_y
 _atom_site_fract_z
 _atom_site_occupancy
  C  C0  1  0.80412200  0.30412200  0.50000000  1
  C  C1  1  0.19587800  0.69587800  0.50000000  1
  C  C2  1  0.30412200  0.19587800  0.50000000  1
  C  C3  1  0.69587800  0.80412200  0.50000000  1
  C  C4  1  0.50000000  0.50000000  0.50000000  1
  C  C5  1  0.00000000  0.00000000  0.50000000  1
  C  C6  1  0.68798000  0.53502300  0.50000000  1
  C  C7  1  0.31202000  0.46497700  0.50000000  1
  C  C8  1  0.18798000  0.96497700  0.50000000  1
  C  C9  1  0.81202000  0.03502300  0.50000000  1
  C  C10  1  0.46497700  0.68798000  0.50000000  1
  C  C11  1  0.53502300  0.31202000  0.50000000  1
  C  C12  1  0.03502300  0.18798000  0.50000000  1
  C  C13  1  0.96497700  0.81202000  0.50000000  1
  C  C14  1  0.82913200  0.67086800  0.50000000  1
  C  C15  1  0.17086800  0.32913200  0.50000000  1
  C  C16  1  0.32913200  0.82913200  0.50000000  1
  C  C17  1  0.67086800  0.17086800  0.50000000  1
  Ni  Ni18  1  0.95075300  0.54924700  0.50000000  1
  Ni  Ni19  1  0.04924700  0.45075300  0.50000000  1
  Ni  Ni20  1  0.45075300  0.95075300  0.50000000  1
  Ni  Ni21  1  0.54924700  0.04924700  0.50000000  1
  Cu  Cu22  1  0.66948400  0.37856100  0.50000000  1
  Cu  Cu23  1  0.33051600  0.62143900  0.50000000  1
  Cu  Cu24  1  0.16948400  0.12143900  0.50000000  1
  Cu  Cu25  1  0.83051600  0.87856100  0.50000000  1
  Cu  Cu26  1  0.62143900  0.66948400  0.50000000  1
  Cu  Cu27  1  0.37856100  0.33051600  0.50000000  1
  Cu  Cu28  1  0.87856100  0.16948400  0.50000000  1
  Cu  Cu29  1  0.12143900  0.83051600  0.50000000  1
  Cu  Cu30  1  0.83555100  0.46238000  0.50000000  1
  Cu  Cu31  1  0.16444900  0.53762000  0.50000000  1
  Cu  Cu32  1  0.33555100  0.03762000  0.50000000  1
  Cu  Cu33  1  0.66444900  0.96238000  0.50000000  1
  Cu  Cu34  1  0.53762000  0.83555100  0.50000000  1
  Cu  Cu35  1  0.46238000  0.16444900  0.50000000  1
  Cu  Cu36  1  0.96238000  0.33555100  0.50000000  1
  Cu  Cu37  1  0.03762000  0.66444900  0.50000000  1
  C  C38  1  0.75339700  0.41897100  0.00000000  1
  C  C39  1  0.24660300  0.58102900  0.00000000  1
  C  C40  1  0.25339700  0.08102900  0.00000000  1
  C  C41  1  0.74660300  0.91897100  0.00000000  1
  C  C42  1  0.58102900  0.75339700  0.00000000  1
  C  C43  1  0.41897100  0.24660300  0.00000000  1
  C  C44  1  0.91897100  0.25339700  0.00000000  1
  C  C45  1  0.08102900  0.74660300  0.00000000  1
  C  C46  1  0.91540500  0.41540500  0.00000000  1
  C  C47  1  0.08459500  0.58459500  0.00000000  1
  C  C48  1  0.41540500  0.08459500  0.00000000  1
  C  C49  1  0.58459500  0.91540500  0.00000000  1
  C  C50  1  0.82663100  0.55144600  0.00000000  1
  C  C51  1  0.17336900  0.44855400  0.00000000  1
  C  C52  1  0.32663100  0.94855400  0.00000000  1
  C  C53  1  0.67336900  0.05144600  0.00000000  1
  C  C54  1  0.44855400  0.82663100  0.00000000  1
  C  C55  1  0.55144600  0.17336900  0.00000000  1
  C  C56  1  0.05144600  0.32663100  0.00000000  1
  C  C57  1  0.94855400  0.67336900  0.00000000  1
  C  C58  1  0.66902200  0.28896600  0.00000000  1
  C  C59  1  0.33097800  0.71103400  0.00000000  1
  C  C60  1  0.16902200  0.21103400  0.00000000  1
  C  C61  1  0.83097800  0.78896600  0.00000000  1
  C  C62  1  0.71103400  0.66902200  0.00000000  1
  C  C63  1  0.28896600  0.33097800  0.00000000  1
  C  C64  1  0.78896600  0.16902200  0.00000000  1
  C  C65  1  0.21103400  0.83097800  0.00000000  1
  C  C66  1  0.59737500  0.42998200  0.00000000  1
  C  C67  1  0.40262500  0.57001800  0.00000000  1
  C  C68  1  0.09737500  0.07001800  0.00000000  1
  C  C69  1  0.90262500  0.92998200  0.00000000  1
  C  C70  1  0.57001800  0.59737500  0.00000000  1
  C  C71  1  0.42998200  0.40262500  0.00000000  1
  C  C72  1  0.92998200  0.09737500  0.00000000  1
  C  C73  1  0.07001800  0.90262500  0.00000000  1
