# generated using pymatgen
data_Cu6NiC18
_symmetry_space_group_name_H-M   'P 1'
_cell_length_a   5.28627251
_cell_length_b   13.79161092
_cell_length_c   5.35993840
_cell_angle_alpha   89.82363684
_cell_angle_beta   120.77952458
_cell_angle_gamma   89.86221887
_symmetry_Int_Tables_number   1
_chemical_formula_structural   Cu6NiC18
_chemical_formula_sum   'Cu6 Ni1 C18'
_cell_volume   335.72446766
_cell_formula_units_Z   1
loop_
 _symmetry_equiv_pos_site_id
 _symmetry_equiv_pos_as_xyz
  1  'x, y, z'
loop_
 _atom_site_type_symbol
 _atom_site_label
 _atom_site_symmetry_multiplicity
 _atom_site_fract_x
 _atom_site_fract_y
 _atom_site_fract_z
 _atom_site_occupancy
  Ni  Ni0  1  0.67247009  0.13118657  0.35401078  1
  Cu  Cu1  1  0.98868514  0.49946400  0.98352013  1
  Cu  Cu2  1  0.96938273  0.99219547  0.98267353  1
  Cu  Cu3  1  0.65017525  0.82138052  0.34827655  1
  Cu  Cu4  1  0.32883193  0.66607044  0.65727004  1
  Cu  Cu5  1  0.68466616  0.35177822  0.36694644  1
  Cu  Cu6  1  0.36380727  0.15816605  0.68352007  1
  C  C7  1  0.57486321  0.75225011  0.55726287  1
  C  C8  1  0.75649778  0.41897406  0.67857297  1
  C  C9  1  0.67292057  0.08073552  0.70887380  1
  C  C10  1  0.98946547  0.75325238  0.38869283  1
  C  C11  1  0.39671528  0.75800970  0.97844605  1
  C  C12  1  0.34926993  0.42610443  0.06552418  1
  C  C13  1  0.02647864  0.07969995  0.34201165  1
  C  C14  1  0.33203662  0.91963685  0.25631101  1
  C  C15  1  0.25532411  0.58417566  0.33304088  1
  C  C16  1  0.60710977  0.23273699  0.03597176  1
  C  C17  1  0.99659887  0.23122818  0.59801399  1
  C  C18  1  0.72677039  0.91433810  0.06996216  1
  C  C19  1  0.05995796  0.59251461  0.72971098  1
  C  C20  1  0.42223631  0.23757266  0.39497383  1
  C  C21  1  0.95331325  0.40760242  0.26577987  1
  C  C22  1  0.31058319  0.07822305  0.98841818  1
  C  C23  1  0.92367571  0.91445809  0.64769163  1
  C  C24  1  0.66316438  0.58824297  0.93452381  1
