# generated using pymatgen
data_CuNiC8
_symmetry_space_group_name_H-M   'P 1'
_cell_length_a   8.03532797
_cell_length_b   7.92425149
_cell_length_c   9.63290822
_cell_angle_alpha   112.96599934
_cell_angle_beta   66.40475857
_cell_angle_gamma   88.51595965
_symmetry_Int_Tables_number   1
_chemical_formula_structural   CuNiC8
_chemical_formula_sum   'Cu4 Ni4 C32'
_cell_volume   505.33902394
_cell_formula_units_Z   4
loop_
 _symmetry_equiv_pos_site_id
 _symmetry_equiv_pos_as_xyz
  1  'x, y, z'
loop_
 _atom_site_type_symbol
 _atom_site_label
 _atom_site_symmetry_multiplicity
 _atom_site_fract_x
 _atom_site_fract_y
 _atom_site_fract_z
 _atom_site_occupancy
  C  C0  1  0.62644300  0.38479200  0.25275800  1
  C  C1  1  0.87852400  0.62637500  0.74937000  1
  C  C2  1  0.12904300  0.87590600  0.24833200  1
  C  C3  1  0.37742500  0.12959800  0.74916000  1
  C  C4  1  0.87125800  0.12377500  0.75061300  1
  C  C5  1  0.12333700  0.36532300  0.24715800  1
  C  C6  1  0.37281500  0.62012700  0.75080500  1
  C  C7  1  0.62106700  0.87393200  0.25176000  1
  Ni  Ni8  1  0.50077500  0.49947800  0.99886000  1
  Ni  Ni9  1  0.75252300  0.75014400  0.49965400  1
  Ni  Ni10  1  0.99729300  0.99997000  0.00040100  1
  Ni  Ni11  1  0.24929500  0.25046600  0.50111800  1
  Cu  Cu12  1  0.75138000  0.24845800  0.49978200  1
  Cu  Cu13  1  0.99871300  0.50156200  0.00037600  1
  Cu  Cu14  1  0.24778600  0.75176900  0.50109100  1
  Cu  Cu15  1  0.50224700  0.99828100  0.99913300  1
  C  C16  1  0.81775600  0.98507300  0.47121800  1
  C  C17  1  0.06489900  0.23765500  0.97254200  1
  C  C18  1  0.30991000  0.47379000  0.46593400  1
  C  C19  1  0.55948400  0.72062300  0.96005300  1
  C  C20  1  0.59387800  0.33814600  0.74853700  1
  C  C21  1  0.83659400  0.59946900  0.24885400  1
  C  C22  1  0.07870900  0.84568600  0.75340200  1
  C  C23  1  0.33564600  0.08796200  0.25287100  1
  C  C24  1  0.98280400  0.30998900  0.53113800  1
  C  C25  1  0.23323300  0.56052200  0.02861400  1
  C  C26  1  0.50109200  0.82138000  0.53372700  1
  C  C27  1  0.74701500  0.07765700  0.03898500  1
  C  C28  1  0.91357700  0.15049800  0.25108600  1
  C  C29  1  0.15625100  0.41169600  0.75130200  1
  C  C30  1  0.41420500  0.66224200  0.24722900  1
  C  C31  1  0.67108800  0.90447000  0.74677600  1
  C  C32  1  0.51655900  0.18933700  0.47139900  1
  C  C33  1  0.76732400  0.44003900  0.96884200  1
  C  C34  1  0.00305600  0.67237800  0.46089600  1
  C  C35  1  0.24908400  0.92870000  0.96622200  1
  C  C36  1  0.68521800  0.51231100  0.52756100  1
  C  C37  1  0.93245400  0.76490700  0.02874900  1
  C  C38  1  0.19025600  0.02930300  0.53979200  1
  C  C39  1  0.43998600  0.27620800  0.03390200  1
