# generated using pymatgen
data_Cu2Ni2C19
_symmetry_space_group_name_H-M   'P 1'
_cell_length_a   9.58492100
_cell_length_b   13.35054700
_cell_length_c   13.95259174
_cell_angle_alpha   79.20949371
_cell_angle_beta   90.00000000
_cell_angle_gamma   90.00000000
_symmetry_Int_Tables_number   1
_chemical_formula_structural   Cu2Ni2C19
_chemical_formula_sum   'Cu8 Ni8 C76'
_cell_volume   1753.85915048
_cell_formula_units_Z   4
loop_
 _symmetry_equiv_pos_site_id
 _symmetry_equiv_pos_as_xyz
  1  'x, y, z'
loop_
 _atom_site_type_symbol
 _atom_site_label
 _atom_site_symmetry_multiplicity
 _atom_site_fract_x
 _atom_site_fract_y
 _atom_site_fract_z
 _atom_site_occupancy
  C  C0  1  0.14680500  0.91427400  0.42278100  1
  C  C1  1  0.64680500  0.58572600  0.57721900  1
  C  C2  1  0.85319500  0.08572600  0.57721900  1
  C  C3  1  0.35319500  0.41427400  0.42278100  1
  C  C4  1  0.87676300  0.32130300  0.02322700  1
  C  C5  1  0.37676300  0.17869700  0.97677300  1
  C  C6  1  0.12323700  0.67869700  0.97677300  1
  C  C7  1  0.62323700  0.82130300  0.02322700  1
  Ni  Ni8  1  0.82000100  0.06389300  0.25350400  1
  Ni  Ni9  1  0.32000100  0.43610700  0.74649600  1
  Ni  Ni10  1  0.17999900  0.93610700  0.74649600  1
  Ni  Ni11  1  0.67999900  0.56389300  0.25350400  1
  Ni  Ni12  1  0.18484700  0.20392200  0.25429000  1
  Ni  Ni13  1  0.68484700  0.29607800  0.74571000  1
  Ni  Ni14  1  0.81515300  0.79607800  0.74571000  1
  Ni  Ni15  1  0.31515300  0.70392200  0.25429000  1
  Cu  Cu16  1  0.05409500  0.47672900  0.22388800  1
  Cu  Cu17  1  0.55409500  0.02327100  0.77611200  1
  Cu  Cu18  1  0.94590500  0.52327100  0.77611200  1
  Cu  Cu19  1  0.44590500  0.97672900  0.22388800  1
  Cu  Cu20  1  0.93755800  0.78596300  0.22349700  1
  Cu  Cu21  1  0.43755800  0.71403700  0.77650300  1
  Cu  Cu22  1  0.06244200  0.21403700  0.77650300  1
  Cu  Cu23  1  0.56244200  0.28596300  0.22349700  1
  C  C24  1  0.85677400  0.02910200  0.38463100  1
  C  C25  1  0.35677400  0.47089800  0.61536900  1
  C  C26  1  0.14322600  0.97089800  0.61536900  1
  C  C27  1  0.64322600  0.52910200  0.38463100  1
  C  C28  1  0.79191800  0.10244900  0.12339500  1
  C  C29  1  0.29191800  0.39755100  0.87660500  1
  C  C30  1  0.20808200  0.89755100  0.87660500  1
  C  C31  1  0.70808200  0.60244900  0.12339500  1
  C  C32  1  0.17476300  0.15624900  0.38525300  1
  C  C33  1  0.67476300  0.34375100  0.61474700  1
  C  C34  1  0.82523700  0.84375100  0.61474700  1
  C  C35  1  0.32523700  0.65624900  0.38525300  1
  C  C36  1  0.18850200  0.24801900  0.12266800  1
  C  C37  1  0.68850200  0.25198100  0.87733200  1
  C  C38  1  0.81149800  0.75198100  0.87733200  1
  C  C39  1  0.31149800  0.74801900  0.12266800  1
  C  C40  1  0.13481200  0.36947800  0.28126900  1
  C  C41  1  0.63481200  0.13052200  0.71873100  1
  C  C42  1  0.86518800  0.63052200  0.71873100  1
  C  C43  1  0.36518800  0.86947800  0.28126900  1
  C  C44  1  0.89546100  0.48499700  0.27305500  1
  C  C45  1  0.39546100  0.01500300  0.72694500  1
  C  C46  1  0.10453900  0.51500300  0.72694500  1
  C  C47  1  0.60453900  0.98499700  0.27305500  1
  C  C48  1  0.14949300  0.57847700  0.23734200  1
  C  C49  1  0.64949300  0.92152300  0.76265800  1
  C  C50  1  0.85050700  0.42152300  0.76265800  1
  C  C51  1  0.35050700  0.07847700  0.23734200  1
  C  C52  1  0.03739700  0.47447400  0.10895700  1
  C  C53  1  0.53739700  0.02552600  0.89104300  1
  C  C54  1  0.96260300  0.52552600  0.89104300  1
  C  C55  1  0.46260300  0.97447400  0.10895700  1
  C  C56  1  0.83754200  0.69034500  0.28154900  1
  C  C57  1  0.33754200  0.80965500  0.71845100  1
  C  C58  1  0.16245800  0.30965500  0.71845100  1
  C  C59  1  0.66245800  0.19034500  0.28154900  1
  C  C60  1  0.09900900  0.77902000  0.27403200  1
  C  C61  1  0.59900900  0.72098000  0.72596800  1
  C  C62  1  0.90099100  0.22098000  0.72596800  1
  C  C63  1  0.40099100  0.27902000  0.27403200  1
  C  C64  1  0.86438400  0.89759600  0.23393500  1
  C  C65  1  0.36438400  0.60240400  0.76606500  1
  C  C66  1  0.13561600  0.10240400  0.76606500  1
  C  C67  1  0.63561600  0.39759600  0.23393500  1
  C  C68  1  0.94643100  0.77818400  0.10929600  1
  C  C69  1  0.44643100  0.72181600  0.89070400  1
  C  C70  1  0.05356900  0.22181600  0.89070400  1
  C  C71  1  0.55356900  0.27818400  0.10929600  1
  C  C72  1  0.55921500  0.49754300  0.98336400  1
  C  C73  1  0.05921500  0.00245700  0.01663600  1
  C  C74  1  0.44078500  0.50245700  0.01663600  1
  C  C75  1  0.94078500  0.99754300  0.98336400  1
  C  C76  1  0.51050800  0.90246500  0.48331500  1
  C  C77  1  0.01050800  0.59753500  0.51668500  1
  C  C78  1  0.48949200  0.09753500  0.51668500  1
  C  C79  1  0.98949200  0.40246500  0.48331500  1
  C  C80  1  0.09009000  0.66420900  0.53433200  1
  C  C81  1  0.59009000  0.83579100  0.46566800  1
  C  C82  1  0.90991000  0.33579100  0.46566800  1
  C  C83  1  0.40991000  0.16420900  0.53433200  1
  C  C84  1  0.94221900  0.22010300  0.24243700  1
  C  C85  1  0.44221900  0.27989700  0.75756300  1
  C  C86  1  0.05778100  0.77989700  0.75756300  1
  C  C87  1  0.55778100  0.72010300  0.24243700  1
  C  C88  1  0.06548200  0.05288600  0.23740600  1
  C  C89  1  0.56548200  0.44711400  0.76259400  1
  C  C90  1  0.93451800  0.94711400  0.76259400  1
  C  C91  1  0.43451800  0.55288500  0.23740600  1
