# generated using pymatgen
data_Cu2Ni3C2
_symmetry_space_group_name_H-M   'P 1'
_cell_length_a   7.35420400
_cell_length_b   9.24054300
_cell_length_c   11.89734600
_cell_angle_alpha   90.00000000
_cell_angle_beta   90.00000000
_cell_angle_gamma   90.00000000
_symmetry_Int_Tables_number   1
_chemical_formula_structural   Cu2Ni3C2
_chemical_formula_sum   'Cu8 Ni12 C8'
_cell_volume   808.50601824
_cell_formula_units_Z   4
loop_
 _symmetry_equiv_pos_site_id
 _symmetry_equiv_pos_as_xyz
  1  'x, y, z'
loop_
 _atom_site_type_symbol
 _atom_site_label
 _atom_site_symmetry_multiplicity
 _atom_site_fract_x
 _atom_site_fract_y
 _atom_site_fract_z
 _atom_site_occupancy
  C  C0  1  0.00000000  0.75000000  0.63589900  1
  C  C1  1  0.00000000  0.25000000  0.86410100  1
  C  C2  1  0.00000000  0.25000000  0.36410100  1
  C  C3  1  0.00000000  0.75000000  0.13589900  1
  C  C4  1  0.55147300  0.50000000  0.75000000  1
  C  C5  1  0.44852700  0.00000000  0.75000000  1
  C  C6  1  0.44852700  0.50000000  0.25000000  1
  C  C7  1  0.55147300  0.00000000  0.25000000  1
  Ni  Ni8  1  0.50000000  0.75000000  0.65059800  1
  Ni  Ni9  1  0.50000000  0.25000000  0.84940200  1
  Ni  Ni10  1  0.50000000  0.25000000  0.34940200  1
  Ni  Ni11  1  0.50000000  0.75000000  0.15059800  1
  Ni  Ni12  1  0.74734600  0.58884400  0.88274000  1
  Ni  Ni13  1  0.25265400  0.91115600  0.88274000  1
  Ni  Ni14  1  0.25265400  0.08884400  0.61726000  1
  Ni  Ni15  1  0.74734600  0.41115600  0.61726000  1
  Ni  Ni16  1  0.25265400  0.41115600  0.11726000  1
  Ni  Ni17  1  0.74734600  0.08884400  0.11726000  1
  Ni  Ni18  1  0.74734600  0.91115600  0.38274000  1
  Ni  Ni19  1  0.25265400  0.58884400  0.38274000  1
  Cu  Cu20  1  0.28725400  0.53020800  0.79972100  1
  Cu  Cu21  1  0.71274600  0.96979200  0.79972100  1
  Cu  Cu22  1  0.71274600  0.03020800  0.70027900  1
  Cu  Cu23  1  0.28725400  0.46979200  0.70027900  1
  Cu  Cu24  1  0.71274600  0.46979200  0.20027900  1
  Cu  Cu25  1  0.28725400  0.03020800  0.20027900  1
  Cu  Cu26  1  0.28725400  0.96979200  0.29972100  1
  Cu  Cu27  1  0.71274600  0.53020800  0.29972100  1
