# generated using pymatgen
data_Cu2NiC17
_symmetry_space_group_name_H-M   'P 1'
_cell_length_a   8.59361192
_cell_length_b   8.59361192
_cell_length_c   6.51936075
_cell_angle_alpha   73.93111193
_cell_angle_beta   73.93111193
_cell_angle_gamma   94.28970781
_symmetry_Int_Tables_number   1
_chemical_formula_structural   Cu2NiC17
_chemical_formula_sum   'Cu4 Ni2 C34'
_cell_volume   438.55184995
_cell_formula_units_Z   2
loop_
 _symmetry_equiv_pos_site_id
 _symmetry_equiv_pos_as_xyz
  1  'x, y, z'
loop_
 _atom_site_type_symbol
 _atom_site_label
 _atom_site_symmetry_multiplicity
 _atom_site_fract_x
 _atom_site_fract_y
 _atom_site_fract_z
 _atom_site_occupancy
  C  C0  1  0.00000000  0.00000000  0.50000000  1
  C  C1  1  0.00000000  0.00000000  0.00000000  1
  C  C2  1  0.48453500  0.51546500  0.25000000  1
  C  C3  1  0.51546500  0.48453500  0.75000000  1
  Ni  Ni4  1  0.23407500  0.76592500  0.75000000  1
  Ni  Ni5  1  0.76592500  0.23407500  0.25000000  1
  Cu  Cu6  1  0.12362300  0.44523400  0.62454100  1
  Cu  Cu7  1  0.55476600  0.87637700  0.87545900  1
  Cu  Cu8  1  0.87637700  0.55476600  0.37545900  1
  Cu  Cu9  1  0.44523400  0.12362300  0.12454100  1
  C  C10  1  0.20410800  0.79589200  0.25000000  1
  C  C11  1  0.79589200  0.20410800  0.75000000  1
  C  C12  1  0.84508400  0.61985800  0.87616700  1
  C  C13  1  0.38014200  0.15491600  0.62383300  1
  C  C14  1  0.15491600  0.38014200  0.12383300  1
  C  C15  1  0.61985800  0.84508400  0.37616700  1
  C  C16  1  0.24211900  0.68703100  0.46530700  1
  C  C17  1  0.31296900  0.75788100  0.03469300  1
  C  C18  1  0.75788100  0.31296900  0.53469300  1
  C  C19  1  0.68703100  0.24211900  0.96530700  1
  C  C20  1  0.67511400  0.67071200  0.89190200  1
  C  C21  1  0.32928800  0.32488600  0.60809800  1
  C  C22  1  0.32488600  0.32928800  0.10809800  1
  C  C23  1  0.67071200  0.67511400  0.39190200  1
  C  C24  1  0.89992000  0.54227800  0.68680200  1
  C  C25  1  0.45772200  0.10008000  0.81319800  1
  C  C26  1  0.10008000  0.45772200  0.31319800  1
  C  C27  1  0.54227800  0.89992000  0.18680200  1
  C  C28  1  0.82276500  0.48722900  0.11147700  1
  C  C29  1  0.51277100  0.17723500  0.38852300  1
  C  C30  1  0.17723500  0.51277100  0.88852300  1
  C  C31  1  0.48722900  0.82276500  0.61147700  1
  C  C32  1  0.02477900  0.76629000  0.25695500  1
  C  C33  1  0.23371000  0.97522100  0.24304500  1
  C  C34  1  0.97522100  0.23371000  0.74304500  1
  C  C35  1  0.76629000  0.02477900  0.75695500  1
  C  C36  1  0.98448300  0.76441100  0.83235300  1
  C  C37  1  0.23558900  0.01551700  0.66764700  1
  C  C38  1  0.01551700  0.23558900  0.16764700  1
  C  C39  1  0.76441100  0.98448300  0.33235300  1
