# generated using pymatgen
data_CuNiC8
_symmetry_space_group_name_H-M   'P 1'
_cell_length_a   5.76233929
_cell_length_b   5.76233929
_cell_length_c   14.19783700
_cell_angle_alpha   90.00000000
_cell_angle_beta   90.00000000
_cell_angle_gamma   119.99999179
_symmetry_Int_Tables_number   1
_chemical_formula_structural   CuNiC8
_chemical_formula_sum   'Cu3 Ni3 C24'
_cell_volume   408.27285449
_cell_formula_units_Z   3
loop_
 _symmetry_equiv_pos_site_id
 _symmetry_equiv_pos_as_xyz
  1  'x, y, z'
loop_
 _atom_site_type_symbol
 _atom_site_label
 _atom_site_symmetry_multiplicity
 _atom_site_fract_x
 _atom_site_fract_y
 _atom_site_fract_z
 _atom_site_occupancy
  C  C0  1  0.66666700  0.33333300  0.59111400  1
  C  C1  1  0.33333300  0.66666700  0.40810600  1
  C  C2  1  0.33333300  0.66666700  0.09051000  1
  C  C3  1  0.66666700  0.33333300  0.90604000  1
  C  C4  1  0.00000000  0.00000000  0.74676100  1
  C  C5  1  0.00000000  0.00000000  0.25173900  1
  Ni  Ni6  1  0.66666700  0.33333300  0.14964500  1
  Ni  Ni7  1  0.00000000  0.00000000  0.49972700  1
  Ni  Ni8  1  0.00000000  0.00000000  0.99406000  1
  Cu  Cu9  1  0.66666700  0.33333300  0.34474000  1
  Cu  Cu10  1  0.33333300  0.66666700  0.65516100  1
  Cu  Cu11  1  0.33333300  0.66666700  0.84622700  1
  C  C12  1  0.16388100  0.32776100  0.58015200  1
  C  C13  1  0.16388100  0.83611900  0.58015200  1
  C  C14  1  0.67223900  0.83611900  0.58015200  1
  C  C15  1  0.83454700  0.66909500  0.41987900  1
  C  C16  1  0.83454700  0.16545300  0.41987900  1
  C  C17  1  0.33090500  0.16545300  0.41987900  1
  C  C18  1  0.83256300  0.66512600  0.08294800  1
  C  C19  1  0.83256300  0.16743700  0.08294800  1
  C  C20  1  0.33487400  0.16743700  0.08294800  1
  C  C21  1  0.16266000  0.32532100  0.92254100  1
  C  C22  1  0.16266000  0.83734000  0.92254100  1
  C  C23  1  0.67467900  0.83734000  0.92254100  1
  C  C24  1  0.48430500  0.96860900  0.74775100  1
  C  C25  1  0.48430500  0.51569500  0.74775100  1
  C  C26  1  0.03139100  0.51569500  0.74775100  1
  C  C27  1  0.51784900  0.03569900  0.25250300  1
  C  C28  1  0.51784900  0.48215100  0.25250300  1
  C  C29  1  0.96430100  0.48215100  0.25250300  1
