# generated using pymatgen
data_Cu6Ni3C14
_symmetry_space_group_name_H-M   'P 1'
_cell_length_a   7.82637500
_cell_length_b   15.20172500
_cell_length_c   15.40633977
_cell_angle_alpha   86.27483917
_cell_angle_beta   90.00000000
_cell_angle_gamma   90.00000000
_symmetry_Int_Tables_number   1
_chemical_formula_structural   Cu6Ni3C14
_chemical_formula_sum   'Cu24 Ni12 C56'
_cell_volume   1829.08732964
_cell_formula_units_Z   4
loop_
 _symmetry_equiv_pos_site_id
 _symmetry_equiv_pos_as_xyz
  1  'x, y, z'
loop_
 _atom_site_type_symbol
 _atom_site_label
 _atom_site_symmetry_multiplicity
 _atom_site_fract_x
 _atom_site_fract_y
 _atom_site_fract_z
 _atom_site_occupancy
  C  C0  1  0.34502600  0.86634700  0.90612500  1
  C  C1  1  0.65497400  0.13365300  0.09387500  1
  C  C2  1  0.84502600  0.13365300  0.59387500  1
  C  C3  1  0.15497400  0.86634700  0.40612500  1
  C  C4  1  0.06455100  0.63494800  0.91262600  1
  C  C5  1  0.93544900  0.36505200  0.08737400  1
  C  C6  1  0.56455100  0.36505200  0.58737400  1
  C  C7  1  0.43544900  0.63494800  0.41262600  1
  C  C8  1  0.36758200  0.98612000  0.63196500  1
  C  C9  1  0.63241800  0.01388000  0.36803500  1
  C  C10  1  0.86758200  0.01388000  0.86803500  1
  C  C11  1  0.13241800  0.98612000  0.13196500  1
  Ni  Ni12  1  0.51306000  0.66485300  0.73360800  1
  Ni  Ni13  1  0.48694000  0.33514700  0.26639200  1
  Ni  Ni14  1  0.01306000  0.33514700  0.76639200  1
  Ni  Ni15  1  0.98694000  0.66485300  0.23360800  1
  Ni  Ni16  1  0.02224400  0.65411500  0.54688500  1
  Ni  Ni17  1  0.97775600  0.34588500  0.45311500  1
  Ni  Ni18  1  0.52224400  0.34588500  0.95311500  1
  Ni  Ni19  1  0.47775600  0.65411500  0.04688500  1
  Ni  Ni20  1  0.88550400  0.86813200  0.62032200  1
  Ni  Ni21  1  0.11449600  0.13186800  0.37967800  1
  Ni  Ni22  1  0.38550400  0.13186800  0.87967800  1
  Ni  Ni23  1  0.61449600  0.86813200  0.12032200  1
  Cu  Cu24  1  0.37274200  0.71708400  0.71979400  1
  Cu  Cu25  1  0.62725800  0.28291600  0.28020600  1
  Cu  Cu26  1  0.87274200  0.28291600  0.78020600  1
  Cu  Cu27  1  0.12725800  0.71708400  0.21979400  1
  Cu  Cu28  1  0.76691700  0.80085300  0.62515700  1
  Cu  Cu29  1  0.23308300  0.19914700  0.37484300  1
  Cu  Cu30  1  0.26691700  0.19914700  0.87484300  1
  Cu  Cu31  1  0.73308300  0.80085300  0.12515700  1
  Cu  Cu32  1  0.99253300  0.57847100  0.59862700  1
  Cu  Cu33  1  0.00746700  0.42152900  0.40137300  1
  Cu  Cu34  1  0.49253300  0.42152900  0.90137300  1
  Cu  Cu35  1  0.50746700  0.57847100  0.09862700  1
  Cu  Cu36  1  0.85737600  0.81587800  0.69581400  1
  Cu  Cu37  1  0.14262400  0.18412200  0.30418600  1
  Cu  Cu38  1  0.35737600  0.18412200  0.80418600  1
  Cu  Cu39  1  0.64262400  0.81587800  0.19581400  1
  Cu  Cu40  1  0.11937700  0.39260600  0.77948000  1
  Cu  Cu41  1  0.88062300  0.60739400  0.22052000  1
  Cu  Cu42  1  0.61937700  0.60739400  0.72052000  1
  Cu  Cu43  1  0.38062300  0.39260600  0.27948000  1
  Cu  Cu44  1  0.08466300  0.41132400  0.47833800  1
  Cu  Cu45  1  0.91533700  0.58867600  0.52166200  1
  Cu  Cu46  1  0.58466300  0.58867600  0.02166200  1
  Cu  Cu47  1  0.41533700  0.41132400  0.97833800  1
  C  C48  1  0.08196700  0.98004800  0.86699900  1
  C  C49  1  0.91803300  0.01995200  0.13300100  1
  C  C50  1  0.58196700  0.01995200  0.63300100  1
  C  C51  1  0.41803300  0.98004800  0.36699900  1
  C  C52  1  0.97973500  0.26430600  0.70684200  1
  C  C53  1  0.02026500  0.73569400  0.29315800  1
  C  C54  1  0.47973500  0.73569400  0.79315800  1
  C  C55  1  0.52026500  0.26430600  0.20684200  1
  C  C56  1  0.08771500  0.72642800  0.53429900  1
  C  C57  1  0.91228500  0.27357200  0.46570100  1
  C  C58  1  0.58771500  0.27357200  0.96570100  1
  C  C59  1  0.41228500  0.72642800  0.03429900  1
  C  C60  1  0.34075200  0.91501100  0.54764100  1
  C  C61  1  0.65924800  0.08498900  0.45235900  1
  C  C62  1  0.84075200  0.08498900  0.95235900  1
  C  C63  1  0.15924800  0.91501100  0.04764100  1
  C  C64  1  0.73108800  0.92289200  0.88373400  1
  C  C65  1  0.26891200  0.07710800  0.11626600  1
  C  C66  1  0.23108800  0.07710800  0.61626600  1
  C  C67  1  0.76891200  0.92289200  0.38373400  1
  C  C68  1  0.32464600  0.92951600  0.73253900  1
  C  C69  1  0.67535400  0.07048400  0.26746100  1
  C  C70  1  0.82464600  0.07048400  0.76746100  1
  C  C71  1  0.17535400  0.92951600  0.23253900  1
  C  C72  1  0.48983700  0.62367200  0.52286700  1
  C  C73  1  0.51016300  0.37632800  0.47713300  1
  C  C74  1  0.98983700  0.37632800  0.97713300  1
  C  C75  1  0.01016300  0.62367200  0.02286700  1
  C  C76  1  0.24256600  0.56940300  0.89437100  1
  C  C77  1  0.75743400  0.43059700  0.10562900  1
  C  C78  1  0.74256600  0.43059700  0.60562900  1
  C  C79  1  0.25743400  0.56940300  0.39437100  1
  C  C80  1  0.39312600  0.39621300  0.65063900  1
  C  C81  1  0.60687400  0.60378700  0.34936100  1
  C  C82  1  0.89312600  0.60378700  0.84936100  1
  C  C83  1  0.10687400  0.39621300  0.15063900  1
  C  C84  1  0.95787300  0.92809600  0.57996200  1
  C  C85  1  0.04212700  0.07190400  0.42003800  1
  C  C86  1  0.45787300  0.07190400  0.92003800  1
  C  C87  1  0.54212700  0.92809600  0.07996200  1
  C  C88  1  0.12044800  0.74775700  0.88429900  1
  C  C89  1  0.87955200  0.25224300  0.11570100  1
  C  C90  1  0.62044800  0.25224300  0.61570100  1
  C  C91  1  0.37955200  0.74775700  0.38429900  1
