# generated using pymatgen
data_Cu8Ni2C5
_symmetry_space_group_name_H-M   'P 1'
_cell_length_a   4.82144700
_cell_length_b   8.03304108
_cell_length_c   10.13756434
_cell_angle_alpha   108.84940940
_cell_angle_beta   90.18104534
_cell_angle_gamma   90.13735096
_symmetry_Int_Tables_number   1
_chemical_formula_structural   Cu8Ni2C5
_chemical_formula_sum   'Cu16 Ni4 C10'
_cell_volume   371.57580861
_cell_formula_units_Z   2
loop_
 _symmetry_equiv_pos_site_id
 _symmetry_equiv_pos_as_xyz
  1  'x, y, z'
loop_
 _atom_site_type_symbol
 _atom_site_label
 _atom_site_symmetry_multiplicity
 _atom_site_fract_x
 _atom_site_fract_y
 _atom_site_fract_z
 _atom_site_occupancy
  C  C0  1  0.48445100  0.70653100  0.10693600  1
  C  C1  1  0.51532300  0.89681900  0.70236300  1
  C  C2  1  0.48598500  0.08809800  0.29732800  1
  C  C3  1  0.51344600  0.29909100  0.91014600  1
  C  C4  1  0.51962700  0.49827000  0.50423500  1
  C  C5  1  0.98621700  0.38783400  0.19141700  1
  C  C6  1  0.03173700  0.80136000  0.39274000  1
  C  C7  1  0.98810200  0.22130700  0.60581400  1
  C  C8  1  0.96890300  0.61394800  0.79336800  1
  C  C9  1  0.96762900  0.00788600  0.98577400  1
  Ni  Ni10  1  0.80456100  0.22487300  0.01437500  1
  Ni  Ni11  1  0.81441100  0.43892200  0.62733200  1
  Ni  Ni12  1  0.80608100  0.83598900  0.82055900  1
  Ni  Ni13  1  0.29892600  0.85695700  0.28833200  1
  Cu  Cu14  1  0.81612600  0.04574000  0.43035900  1
  Cu  Cu15  1  0.80560700  0.64631800  0.23024000  1
  Cu  Cu16  1  0.72335100  0.93554500  0.12063400  1
  Cu  Cu17  1  0.69808900  0.33060700  0.32055200  1
  Cu  Cu18  1  0.70890800  0.54739400  0.92377000  1
  Cu  Cu19  1  0.70227000  0.14279300  0.71083000  1
  Cu  Cu20  1  0.71325100  0.74575800  0.51023300  1
  Cu  Cu21  1  0.29230100  0.25524100  0.48618200  1
  Cu  Cu22  1  0.29286600  0.65764800  0.68033200  1
  Cu  Cu23  1  0.28942400  0.05719000  0.87539600  1
  Cu  Cu24  1  0.29476800  0.46363600  0.08456000  1
  Cu  Cu25  1  0.19509200  0.56448900  0.38830100  1
  Cu  Cu26  1  0.18847000  0.97010700  0.58322800  1
  Cu  Cu27  1  0.20260900  0.14062300  0.16518100  1
  Cu  Cu28  1  0.19382600  0.75624300  0.96896100  1
  Cu  Cu29  1  0.19764200  0.36278300  0.78052100  1
