# generated using pymatgen
data_Cu4NiC36
_symmetry_space_group_name_H-M   'P 1'
_cell_length_a   7.03770128
_cell_length_b   8.22136950
_cell_length_c   9.56835443
_cell_angle_alpha   89.62753152
_cell_angle_beta   108.76427861
_cell_angle_gamma   89.79934386
_symmetry_Int_Tables_number   1
_chemical_formula_structural   Cu4NiC36
_chemical_formula_sum   'Cu4 Ni1 C36'
_cell_volume   524.17544995
_cell_formula_units_Z   1
loop_
 _symmetry_equiv_pos_site_id
 _symmetry_equiv_pos_as_xyz
  1  'x, y, z'
loop_
 _atom_site_type_symbol
 _atom_site_label
 _atom_site_symmetry_multiplicity
 _atom_site_fract_x
 _atom_site_fract_y
 _atom_site_fract_z
 _atom_site_occupancy
  Ni  Ni0  1  0.30808300  0.80352300  0.88924100  1
  Cu  Cu1  1  0.75303800  0.78873500  0.01528900  1
  Cu  Cu2  1  0.71682900  0.72936200  0.50191400  1
  Cu  Cu3  1  0.28929200  0.27237100  0.48801600  1
  Cu  Cu4  1  0.27759800  0.23881900  0.99966500  1
  C  C5  1  0.55030300  0.09959700  0.78684600  1
  C  C6  1  0.45839100  0.92758200  0.20454100  1
  C  C7  1  0.52828400  0.42866800  0.29283700  1
  C  C8  1  0.92890900  0.95663000  0.78673200  1
  C  C9  1  0.06971500  0.46096300  0.69880300  1
  C  C10  1  0.06650700  0.04706000  0.20537700  1
  C  C11  1  0.47200500  0.59313600  0.71805800  1
  C  C12  1  0.92370200  0.53681900  0.29244700  1
  C  C13  1  0.52708100  0.59459000  0.36396900  1
  C  C14  1  0.88302700  0.60530300  0.13721000  1
  C  C15  1  0.86569900  0.95355500  0.15088800  1
  C  C16  1  0.91212800  0.67510500  0.39727300  1
  C  C17  1  0.12015800  0.38530400  0.85352400  1
  C  C18  1  0.14579300  0.01945700  0.83847800  1
  C  C19  1  0.10411400  0.33692300  0.59112700  1
  C  C20  1  0.23271000  0.61460000  0.71629500  1
  C  C21  1  0.10829100  0.10911600  0.36084000  1
  C  C22  1  0.12824800  0.45414700  0.34386600  1
  C  C23  1  0.07500500  0.17790100  0.09284700  1
  C  C24  1  0.51108700  0.23987400  0.88015900  1
  C  C25  1  0.42025700  0.09945100  0.62635100  1
  C  C26  1  0.53706000  0.93705700  0.86425100  1
  C  C27  1  0.23090000  0.90704500  0.20774500  1
  C  C28  1  0.49385500  0.42041400  0.66784000  1
  C  C29  1  0.57030200  0.62848100  0.88301500  1
  C  C30  1  0.86920800  0.89267800  0.62963700  1
  C  C31  1  0.48611600  0.29211800  0.39135200  1
  C  C32  1  0.39122000  0.42306400  0.13375900  1
  C  C33  1  0.75759600  0.40096800  0.29238300  1
  C  C34  1  0.78509400  0.10543900  0.79499300  1
  C  C35  1  0.46039900  0.09453700  0.12816300  1
  C  C36  1  0.60299400  0.91783500  0.35897400  1
  C  C37  1  0.47953400  0.79210300  0.09922800  1
  C  C38  1  0.92857800  0.81626000  0.89670900  1
  C  C39  1  0.86746600  0.54429900  0.64817700  1
  C  C40  1  0.50601800  0.72078100  0.61403600  1
