# generated using pymatgen
data_Cu4NiC6
_symmetry_space_group_name_H-M   'P 1'
_cell_length_a   5.27670960
_cell_length_b   5.27670960
_cell_length_c   15.39688400
_cell_angle_alpha   90.00000000
_cell_angle_beta   90.00000000
_cell_angle_gamma   147.27998997
_symmetry_Int_Tables_number   1
_chemical_formula_structural   Cu4NiC6
_chemical_formula_sum   'Cu8 Ni2 C12'
_cell_volume   231.73006599
_cell_formula_units_Z   2
loop_
 _symmetry_equiv_pos_site_id
 _symmetry_equiv_pos_as_xyz
  1  'x, y, z'
loop_
 _atom_site_type_symbol
 _atom_site_label
 _atom_site_symmetry_multiplicity
 _atom_site_fract_x
 _atom_site_fract_y
 _atom_site_fract_z
 _atom_site_occupancy
  Ni  Ni0  1  0.34739200  0.65260800  0.75000000  1
  Ni  Ni1  1  0.65260800  0.34739200  0.25000000  1
  Cu  Cu2  1  0.13495500  0.86504500  0.04692800  1
  Cu  Cu3  1  0.60010700  0.39989300  0.63654300  1
  Cu  Cu4  1  0.86504500  0.13495500  0.95307200  1
  Cu  Cu5  1  0.39989300  0.60010700  0.36345700  1
  Cu  Cu6  1  0.13495500  0.86504500  0.45307200  1
  Cu  Cu7  1  0.86504500  0.13495500  0.54692800  1
  Cu  Cu8  1  0.39989300  0.60010700  0.13654300  1
  Cu  Cu9  1  0.60010700  0.39989300  0.86345700  1
  C  C10  1  0.50000000  0.50000000  0.50000000  1
  C  C11  1  0.50000000  0.50000000  0.00000000  1
  C  C12  1  0.96510000  0.03490000  0.83679100  1
  C  C13  1  0.03490000  0.96510000  0.16320900  1
  C  C14  1  0.03490000  0.96510000  0.33679100  1
  C  C15  1  0.96510000  0.03490000  0.66320900  1
  C  C16  1  0.21194200  0.78805800  0.91721300  1
  C  C17  1  0.78805800  0.21194200  0.08278700  1
  C  C18  1  0.78805800  0.21194200  0.41721300  1
  C  C19  1  0.21194200  0.78805800  0.58278700  1
  C  C20  1  0.70189400  0.29810600  0.75000000  1
  C  C21  1  0.29810600  0.70189400  0.25000000  1
