# generated using pymatgen
data_CuNiC18
_symmetry_space_group_name_H-M   'P 1'
_cell_length_a   8.56927900
_cell_length_b   8.72571131
_cell_length_c   12.14063514
_cell_angle_alpha   90.23411746
_cell_angle_beta   91.38573790
_cell_angle_gamma   90.69574456
_symmetry_Int_Tables_number   1
_chemical_formula_structural   CuNiC18
_chemical_formula_sum   'Cu4 Ni4 C72'
_cell_volume   907.45126452
_cell_formula_units_Z   4
loop_
 _symmetry_equiv_pos_site_id
 _symmetry_equiv_pos_as_xyz
  1  'x, y, z'
loop_
 _atom_site_type_symbol
 _atom_site_label
 _atom_site_symmetry_multiplicity
 _atom_site_fract_x
 _atom_site_fract_y
 _atom_site_fract_z
 _atom_site_occupancy
  C  C0  1  0.93522400  0.48660600  0.65449700  1
  C  C1  1  0.91921200  0.91438100  0.30816000  1
  C  C2  1  0.81891000  0.22061100  0.82225500  1
  C  C3  1  0.68052800  0.71947300  0.67736200  1
  C  C4  1  0.57909700  0.41436100  0.19078300  1
  C  C5  1  0.56514600  0.98746400  0.84595500  1
  C  C6  1  0.43498500  0.01456500  0.15322300  1
  C  C7  1  0.42044900  0.58469500  0.80824800  1
  C  C8  1  0.31877400  0.28039700  0.32224300  1
  C  C9  1  0.18062300  0.77921400  0.17718900  1
  C  C10  1  0.08153100  0.08475000  0.69172100  1
  C  C11  1  0.06455600  0.51257700  0.34535200  1
  Ni  Ni12  1  0.74612800  0.47280000  0.39344300  1
  Ni  Ni13  1  0.25408700  0.52746300  0.60553200  1
  Ni  Ni14  1  0.24647700  0.46336400  0.10989900  1
  Ni  Ni15  1  0.24753800  0.02951700  0.89433800  1
  Cu  Cu16  1  0.75635800  0.97306100  0.10438300  1
  Cu  Cu17  1  0.75491900  0.53519300  0.89161000  1
  Cu  Cu18  1  0.74469400  0.03633200  0.60923800  1
  Cu  Cu19  1  0.25488300  0.96381300  0.39026200  1
  C  C20  1  0.95653400  0.75111800  0.51000100  1
  C  C21  1  0.88557600  0.61824200  0.15227700  1
  C  C22  1  0.88528100  0.89040600  0.85302000  1
  C  C23  1  0.61496300  0.11848300  0.34858100  1
  C  C24  1  0.61588600  0.38951600  0.64674200  1
  C  C25  1  0.54266500  0.25123100  0.99092900  1
  C  C26  1  0.45696500  0.74987200  0.00919200  1
  C  C27  1  0.38188900  0.61115800  0.35144900  1
  C  C28  1  0.38516500  0.88082800  0.64929400  1
  C  C29  1  0.11640300  0.10984400  0.14823700  1
  C  C30  1  0.11576900  0.38148800  0.85203700  1
  C  C31  1  0.04417400  0.24858700  0.49015200  1
  C  C32  1  0.94862900  0.10895500  0.10327500  1
  C  C33  1  0.95168900  0.13008200  0.55661300  1
  C  C34  1  0.94999900  0.33162900  0.39965100  1
  C  C35  1  0.94368500  0.41902300  0.81369500  1
  C  C36  1  0.89660600  0.63843400  0.41630300  1
  C  C37  1  0.87362100  0.79604300  0.16919900  1
  C  C38  1  0.86113200  0.57992400  0.02994300  1
  C  C39  1  0.87151300  0.00682700  0.75414000  1
  C  C40  1  0.82614600  0.73049500  0.81230200  1
  C  C41  1  0.81309600  0.82407800  0.56480500  1
  C  C42  1  0.76821900  0.52750800  0.22166100  1
  C  C43  1  0.76472400  0.95078900  0.93720300  1
  C  C44  1  0.73840100  0.45194500  0.56451800  1
  C  C45  1  0.72933000  0.03056400  0.27621600  1
  C  C46  1  0.68756900  0.32202500  0.93368800  1
  C  C47  1  0.67354100  0.23014100  0.68768700  1
  C  C48  1  0.64079000  0.07958800  0.46996900  1
  C  C49  1  0.62812600  0.50561100  0.74707700  1
  C  C50  1  0.62281800  0.29782200  0.33295800  1
  C  C51  1  0.60064500  0.13890500  0.08175400  1
  C  C52  1  0.55412500  0.83628000  0.09918700  1
  C  C53  1  0.55790400  0.91934800  0.68819100  1
  C  C54  1  0.54834300  0.61273200  0.39636000  1
  C  C55  1  0.54845300  0.63191900  0.94339500  1
  C  C56  1  0.45448600  0.37236900  0.05441700  1
  C  C57  1  0.44883200  0.38613800  0.60168300  1
  C  C58  1  0.44207000  0.07983200  0.31103400  1
  C  C59  1  0.44639700  0.16664700  0.89850600  1
  C  C60  1  0.39777100  0.86252600  0.91669100  1
  C  C61  1  0.37756000  0.70116500  0.66599700  1
  C  C62  1  0.37098200  0.49361300  0.25022400  1
  C  C63  1  0.36208700  0.91811000  0.52728800  1
  C  C64  1  0.32554200  0.77044800  0.31050800  1
  C  C65  1  0.31250900  0.67755000  0.06489200  1
  C  C66  1  0.27006300  0.96903200  0.71907900  1
  C  C67  1  0.25997800  0.54787900  0.43317600  1
  C  C68  1  0.23770600  0.04854700  0.06718800  1
  C  C69  1  0.23066600  0.47072400  0.78077100  1
  C  C70  1  0.18820000  0.17557400  0.43627900  1
  C  C71  1  0.17184700  0.27137700  0.18944500  1
  C  C72  1  0.12562200  0.99471700  0.24839300  1
  C  C73  1  0.13729000  0.41832700  0.97496200  1
  C  C74  1  0.12357700  0.20213100  0.83406200  1
  C  C75  1  0.10354500  0.36164100  0.58407000  1
  C  C76  1  0.05596300  0.58291000  0.19162800  1
  C  C77  1  0.05116100  0.66738900  0.60053600  1
  C  C78  1  0.04865200  0.87014000  0.44420600  1
  C  C79  1  0.05300200  0.88914200  0.89757400  1
