# generated using pymatgen
data_Cu12Ni23C53
_symmetry_space_group_name_H-M   'P 1'
_cell_length_a   8.69541900
_cell_length_b   13.29602981
_cell_length_c   19.62485344
_cell_angle_alpha   90.29708353
_cell_angle_beta   90.02236377
_cell_angle_gamma   90.18961982
_symmetry_Int_Tables_number   1
_chemical_formula_structural   Cu12Ni23C53
_chemical_formula_sum   'Cu12 Ni23 C53'
_cell_volume   2268.87549057
_cell_formula_units_Z   1
loop_
 _symmetry_equiv_pos_site_id
 _symmetry_equiv_pos_as_xyz
  1  'x, y, z'
loop_
 _atom_site_type_symbol
 _atom_site_label
 _atom_site_symmetry_multiplicity
 _atom_site_fract_x
 _atom_site_fract_y
 _atom_site_fract_z
 _atom_site_occupancy
  C  C0  1  0.37992200  0.81897700  0.85752900  1
  C  C1  1  0.88135000  0.67647500  0.35946800  1
  C  C2  1  0.61787600  0.17783700  0.14069400  1
  C  C3  1  0.11855500  0.32162100  0.64128700  1
  C  C4  1  0.88298500  0.85145900  0.86796000  1
  Ni  Ni5  1  0.87762300  0.85525300  0.63115500  1
  Ni  Ni6  1  0.37934300  0.65058700  0.12781800  1
  Ni  Ni7  1  0.12080700  0.14942300  0.37192800  1
  Ni  Ni8  1  0.62017400  0.34942800  0.87060900  1
  Ni  Ni9  1  0.35537800  0.87155100  0.64865900  1
  Ni  Ni10  1  0.85745000  0.62657600  0.14769300  1
  Ni  Ni11  1  0.64379400  0.12909500  0.35157500  1
  Ni  Ni12  1  0.14174800  0.37516800  0.85051200  1
  Ni  Ni13  1  0.38019700  0.12099100  0.55548900  1
  Ni  Ni14  1  0.88004400  0.37848600  0.05512500  1
  Ni  Ni15  1  0.61972700  0.87899300  0.44491400  1
  Ni  Ni16  1  0.12066900  0.62344100  0.94266200  1
  Ni  Ni17  1  0.86499700  0.13207700  0.55238600  1
  Ni  Ni18  1  0.36510700  0.36718600  0.05183200  1
  Ni  Ni19  1  0.13209000  0.86795300  0.44757200  1
  Ni  Ni20  1  0.63697200  0.63506200  0.94671700  1
  Ni  Ni21  1  0.85911500  0.11799500  0.94573600  1
  Ni  Ni22  1  0.36103000  0.38034600  0.44641900  1
  Ni  Ni23  1  0.14017700  0.88074900  0.05248900  1
  Ni  Ni24  1  0.64044300  0.61986300  0.55397400  1
  Ni  Ni25  1  0.37781000  0.64978700  0.37019500  1
  Ni  Ni26  1  0.12206600  0.14951400  0.13076300  1
  Ni  Ni27  1  0.62133000  0.35103600  0.63086100  1
  Cu  Cu28  1  0.09792500  0.07622300  0.75156500  1
  Cu  Cu29  1  0.60251200  0.41851800  0.25159000  1
  Cu  Cu30  1  0.89583900  0.91912300  0.25079500  1
  Cu  Cu31  1  0.39774600  0.58596500  0.75278400  1
  Cu  Cu32  1  0.61371600  0.09103200  0.74632400  1
  Cu  Cu33  1  0.10728500  0.40668500  0.24583100  1
  Cu  Cu34  1  0.39193300  0.90512500  0.25519900  1
  Cu  Cu35  1  0.89303700  0.59992300  0.75731700  1
  Cu  Cu36  1  0.37233100  0.10855800  0.94907600  1
  Cu  Cu37  1  0.87213200  0.38766200  0.45134100  1
  Cu  Cu38  1  0.63226400  0.88779200  0.04661400  1
  Cu  Cu39  1  0.12752100  0.61395800  0.54950100  1
  C  C40  1  0.35724600  0.76324600  0.49600300  1
  C  C41  1  0.85202900  0.73600500  0.99702900  1
  C  C42  1  0.64535100  0.23714100  0.50269300  1
  C  C43  1  0.14629700  0.26531200  0.00402700  1
  C  C44  1  0.86043400  0.93747800  0.74546800  1
  C  C45  1  0.36078200  0.56377600  0.24548500  1
  C  C46  1  0.13855500  0.06395200  0.25421200  1
  C  C47  1  0.63809700  0.43600700  0.75470200  1
  C  C48  1  0.35698700  0.95033100  0.76648600  1
  C  C49  1  0.85716800  0.54876200  0.26678300  1
  C  C50  1  0.64314700  0.04967600  0.23326400  1
  C  C51  1  0.14064100  0.45104600  0.73371700  1
  C  C52  1  0.84968000  0.21765700  0.66506600  1
  C  C53  1  0.34961400  0.28289700  0.16553200  1
  C  C54  1  0.15101800  0.78418200  0.33400400  1
  C  C55  1  0.64346100  0.71229300  0.83454100  1
  C  C56  1  0.40856400  0.23914900  0.83370500  1
  C  C57  1  0.90430100  0.25877300  0.33312600  1
  C  C58  1  0.59153200  0.75968700  0.16689000  1
  C  C59  1  0.09437800  0.74222800  0.66689700  1
  C  C60  1  0.41858500  0.75253700  0.98420200  1
  C  C61  1  0.91595000  0.74721400  0.48085600  1
  C  C62  1  0.58146600  0.25048800  0.01763900  1
  C  C63  1  0.08252500  0.25084500  0.51692200  1
  C  C64  1  0.07166700  0.01721300  0.89858300  1
  C  C65  1  0.57546900  0.48173500  0.39799500  1
  C  C66  1  0.92719000  0.98273600  0.10220600  1
  C  C67  1  0.42528700  0.51724100  0.60086800  1
  C  C68  1  0.65667500  0.99804400  0.91058300  1
  C  C69  1  0.15663000  0.50181000  0.40922500  1
  C  C70  1  0.34393400  0.00076200  0.08987000  1
  C  C71  1  0.84596500  0.49810300  0.58971600  1
  C  C72  1  0.57665300  0.99889300  0.59991200  1
  C  C73  1  0.07463700  0.50151900  0.10285500  1
  C  C74  1  0.42252700  0.00133400  0.39895600  1
  C  C75  1  0.92505500  0.49684600  0.89978100  1
  C  C76  1  0.38768800  0.22458200  0.66163500  1
  C  C77  1  0.88667300  0.27550400  0.16151100  1
  C  C78  1  0.61260000  0.77761100  0.33731000  1
  C  C79  1  0.11507800  0.72167100  0.83868600  1
  C  C80  1  0.83782900  0.22818200  0.84076500  1
  C  C81  1  0.34123200  0.26991500  0.34110400  1
  C  C82  1  0.16097500  0.77141900  0.15799200  1
  C  C83  1  0.66044700  0.72970300  0.65963300  1
  C  C84  1  0.16122600  0.00106100  0.60458800  1
  C  C85  1  0.66212900  0.49824500  0.10594800  1
  C  C86  1  0.84151100  0.99892700  0.39404200  1
  C  C87  1  0.34009400  0.49877000  0.89502700  1
