# generated using pymatgen
data_CuNiC8
_symmetry_space_group_name_H-M   'P 1'
_cell_length_a   5.93057098
_cell_length_b   5.93057098
_cell_length_c   5.98633769
_cell_angle_alpha   60.22622977
_cell_angle_beta   60.22622977
_cell_angle_gamma   60.32128729
_symmetry_Int_Tables_number   1
_chemical_formula_structural   CuNiC8
_chemical_formula_sum   'Cu1 Ni1 C8'
_cell_volume   149.74987944
_cell_formula_units_Z   1
loop_
 _symmetry_equiv_pos_site_id
 _symmetry_equiv_pos_as_xyz
  1  'x, y, z'
loop_
 _atom_site_type_symbol
 _atom_site_label
 _atom_site_symmetry_multiplicity
 _atom_site_fract_x
 _atom_site_fract_y
 _atom_site_fract_z
 _atom_site_occupancy
  Ni  Ni0  1  0.75056900  0.75056900  0.24610700  1
  Cu  Cu1  1  0.24791200  0.24791200  0.76809100  1
  C  C2  1  0.00089700  0.00089700  0.50005400  1
  C  C3  1  0.50025800  0.50025800  0.99919100  1
  C  C4  1  0.29827800  0.78014400  0.17719500  1
  C  C5  1  0.23648800  0.68260300  0.80364600  1
  C  C6  1  0.68260300  0.23648800  0.80364600  1
  C  C7  1  0.78014400  0.29827800  0.17719500  1
  C  C8  1  0.27462000  0.27462000  0.31145500  1
  C  C9  1  0.72823100  0.72823100  0.71341800  1
