# generated using pymatgen
data_Cu3NiC6
_symmetry_space_group_name_H-M   'P 1'
_cell_length_a   3.24220600
_cell_length_b   6.22699291
_cell_length_c   6.22699280
_cell_angle_alpha   109.03653657
_cell_angle_beta   90.00000000
_cell_angle_gamma   90.00000000
_symmetry_Int_Tables_number   1
_chemical_formula_structural   Cu3NiC6
_chemical_formula_sum   'Cu3 Ni1 C6'
_cell_volume   118.84254619
_cell_formula_units_Z   1
loop_
 _symmetry_equiv_pos_site_id
 _symmetry_equiv_pos_as_xyz
  1  'x, y, z'
loop_
 _atom_site_type_symbol
 _atom_site_label
 _atom_site_symmetry_multiplicity
 _atom_site_fract_x
 _atom_site_fract_y
 _atom_site_fract_z
 _atom_site_occupancy
  Ni  Ni0  1  0.00000000  0.50000000  0.50000000  1
  Cu  Cu1  1  0.00000000  0.00000000  0.00000000  1
  Cu  Cu2  1  0.50000100  0.00000000  0.50000000  1
  Cu  Cu3  1  0.50000100  0.50000000  0.99999900  1
  C  C4  1  0.00000000  0.33837500  0.08294800  1
  C  C5  1  0.00000000  0.66162500  0.91705100  1
  C  C6  1  0.00000000  0.08294800  0.33837500  1
  C  C7  1  0.00000000  0.91705100  0.66162400  1
  C  C8  1  0.50000100  0.34776600  0.65223200  1
  C  C9  1  0.50000100  0.65223300  0.34776700  1
