# generated using pymatgen
data_Cu3NiC3
_symmetry_space_group_name_H-M   'P 1'
_cell_length_a   9.52579300
_cell_length_b   9.52579300
_cell_length_c   9.52579300
_cell_angle_alpha   90.00000000
_cell_angle_beta   90.00000000
_cell_angle_gamma   90.00000000
_symmetry_Int_Tables_number   1
_chemical_formula_structural   Cu3NiC3
_chemical_formula_sum   'Cu12 Ni4 C12'
_cell_volume   864.37743236
_cell_formula_units_Z   4
loop_
 _symmetry_equiv_pos_site_id
 _symmetry_equiv_pos_as_xyz
  1  'x, y, z'
loop_
 _atom_site_type_symbol
 _atom_site_label
 _atom_site_symmetry_multiplicity
 _atom_site_fract_x
 _atom_site_fract_y
 _atom_site_fract_z
 _atom_site_occupancy
  C  C0  1  0.05949800  0.55949800  0.94050200  1
  C  C1  1  0.55949800  0.94050200  0.05949800  1
  C  C2  1  0.94050200  0.05949800  0.55949800  1
  C  C3  1  0.44050200  0.44050200  0.44050200  1
  C  C4  1  0.56747600  0.06747600  0.43252400  1
  C  C5  1  0.06747600  0.43252400  0.56747600  1
  C  C6  1  0.43252400  0.56747600  0.06747600  1
  C  C7  1  0.93252400  0.93252400  0.93252400  1
  C  C8  1  0.82684600  0.32684600  0.17315400  1
  C  C9  1  0.32684600  0.17315400  0.82684600  1
  C  C10  1  0.17315400  0.82684600  0.32684600  1
  C  C11  1  0.67315400  0.67315400  0.67315400  1
  Ni  Ni12  1  0.27213800  0.77213800  0.72786200  1
  Ni  Ni13  1  0.77213800  0.72786200  0.27213800  1
  Ni  Ni14  1  0.72786200  0.27213800  0.77213800  1
  Ni  Ni15  1  0.22786200  0.22786200  0.22786200  1
  Cu  Cu16  1  0.25252100  0.84531900  0.95608100  1
  Cu  Cu17  1  0.04391900  0.75252100  0.65468100  1
  Cu  Cu18  1  0.34531900  0.54391900  0.74747900  1
  Cu  Cu19  1  0.75252100  0.65468100  0.04391900  1
  Cu  Cu20  1  0.54391900  0.74747900  0.34531900  1
  Cu  Cu21  1  0.84531900  0.95608100  0.25252100  1
  Cu  Cu22  1  0.74747900  0.34531900  0.54391900  1
  Cu  Cu23  1  0.95608100  0.25252100  0.84531900  1
  Cu  Cu24  1  0.65468100  0.04391900  0.75252100  1
  Cu  Cu25  1  0.24747900  0.15468100  0.45608100  1
  Cu  Cu26  1  0.45608100  0.24747900  0.15468100  1
  Cu  Cu27  1  0.15468100  0.45608100  0.24747900  1
