# generated using pymatgen
data_Cu4Ni2C9
_symmetry_space_group_name_H-M   'P 1'
_cell_length_a   7.35038100
_cell_length_b   8.48381500
_cell_length_c   10.96765600
_cell_angle_alpha   90.00000000
_cell_angle_beta   90.00000000
_cell_angle_gamma   90.00000000
_symmetry_Int_Tables_number   1
_chemical_formula_structural   Cu4Ni2C9
_chemical_formula_sum   'Cu16 Ni8 C36'
_cell_volume   683.93505011
_cell_formula_units_Z   4
loop_
 _symmetry_equiv_pos_site_id
 _symmetry_equiv_pos_as_xyz
  1  'x, y, z'
loop_
 _atom_site_type_symbol
 _atom_site_label
 _atom_site_symmetry_multiplicity
 _atom_site_fract_x
 _atom_site_fract_y
 _atom_site_fract_z
 _atom_site_occupancy
  C  C0  1  0.50000000  0.12366100  0.75000000  1
  C  C1  1  0.00000000  0.37633900  0.25000000  1
  C  C2  1  0.50000000  0.87633900  0.25000000  1
  C  C3  1  0.00000000  0.62366100  0.75000000  1
  C  C4  1  0.71311700  0.03202400  0.55932500  1
  C  C5  1  0.78688300  0.46797600  0.05932500  1
  C  C6  1  0.21311700  0.46797600  0.44067500  1
  C  C7  1  0.28688300  0.03202400  0.94067500  1
  C  C8  1  0.28688300  0.96797600  0.44067500  1
  C  C9  1  0.21311700  0.53202400  0.94067500  1
  C  C10  1  0.78688300  0.53202400  0.55932500  1
  C  C11  1  0.71311700  0.96797600  0.05932500  1
  C  C12  1  0.70539700  0.21553400  0.55682500  1
  C  C13  1  0.79460300  0.28446600  0.05682500  1
  C  C14  1  0.20539700  0.28446600  0.44317500  1
  C  C15  1  0.29460300  0.21553400  0.94317500  1
  C  C16  1  0.29460300  0.78446600  0.44317500  1
  C  C17  1  0.20539700  0.71553400  0.94317500  1
  C  C18  1  0.79460300  0.71553400  0.55682500  1
  C  C19  1  0.70539700  0.78446600  0.05682500  1
  C  C20  1  0.57252700  0.43809400  0.80274600  1
  C  C21  1  0.92747300  0.06190600  0.30274600  1
  C  C22  1  0.07252700  0.06190600  0.19725400  1
  C  C23  1  0.42747300  0.43809400  0.69725400  1
  C  C24  1  0.42747300  0.56190600  0.19725400  1
  C  C25  1  0.07252700  0.93809400  0.69725400  1
  C  C26  1  0.92747300  0.93809400  0.80274600  1
  C  C27  1  0.57252700  0.56190600  0.30274600  1
  C  C28  1  0.57412700  0.80850600  0.80149100  1
  C  C29  1  0.92587300  0.69149400  0.30149100  1
  C  C30  1  0.07412700  0.69149400  0.19850900  1
  C  C31  1  0.42587300  0.80850600  0.69850900  1
  C  C32  1  0.42587300  0.19149400  0.19850900  1
  C  C33  1  0.07412700  0.30850600  0.69850900  1
  C  C34  1  0.92587300  0.30850600  0.80149100  1
  C  C35  1  0.57412700  0.19149400  0.30149100  1
  Ni  Ni36  1  0.23009100  0.12301500  0.59649400  1
  Ni  Ni37  1  0.26990900  0.37698500  0.09649400  1
  Ni  Ni38  1  0.73009100  0.37698500  0.40350600  1
  Ni  Ni39  1  0.76990900  0.12301500  0.90350600  1
  Ni  Ni40  1  0.76990900  0.87698500  0.40350600  1
  Ni  Ni41  1  0.73009100  0.62301500  0.90350600  1
  Ni  Ni42  1  0.26990900  0.62301500  0.59649400  1
  Ni  Ni43  1  0.23009100  0.87698500  0.09649400  1
  Cu  Cu44  1  0.50000000  0.36797600  0.75000000  1
  Cu  Cu45  1  0.00000000  0.13202400  0.25000000  1
  Cu  Cu46  1  0.50000000  0.63202400  0.25000000  1
  Cu  Cu47  1  0.00000000  0.86797600  0.75000000  1
  Cu  Cu48  1  0.69111300  0.12461400  0.61192700  1
  Cu  Cu49  1  0.80888700  0.37538600  0.11192700  1
  Cu  Cu50  1  0.19111300  0.37538600  0.38807300  1
  Cu  Cu51  1  0.30888700  0.12461400  0.88807300  1
  Cu  Cu52  1  0.30888700  0.87538600  0.38807300  1
  Cu  Cu53  1  0.19111300  0.62461400  0.88807300  1
  Cu  Cu54  1  0.80888700  0.62461400  0.61192700  1
  Cu  Cu55  1  0.69111300  0.87538600  0.11192700  1
  Cu  Cu56  1  0.50000000  0.87879800  0.75000000  1
  Cu  Cu57  1  0.00000000  0.62120200  0.25000000  1
  Cu  Cu58  1  0.50000000  0.12120200  0.25000000  1
  Cu  Cu59  1  0.00000000  0.37879800  0.75000000  1
