# generated using pymatgen
data_CuNi3C
_symmetry_space_group_name_H-M   'P 1'
_cell_length_a   4.30989000
_cell_length_b   4.30989000
_cell_length_c   6.16412408
_cell_angle_alpha   110.46252607
_cell_angle_beta   110.46252607
_cell_angle_gamma   90.00000000
_symmetry_Int_Tables_number   1
_chemical_formula_structural   CuNi3C
_chemical_formula_sum   'Cu1 Ni3 C1'
_cell_volume   99.52685222
_cell_formula_units_Z   1
loop_
 _symmetry_equiv_pos_site_id
 _symmetry_equiv_pos_as_xyz
  1  'x, y, z'
loop_
 _atom_site_type_symbol
 _atom_site_label
 _atom_site_symmetry_multiplicity
 _atom_site_fract_x
 _atom_site_fract_y
 _atom_site_fract_z
 _atom_site_occupancy
  C  C0  1  0.99752600  0.99752600  0.99505200  1
  Ni  Ni1  1  0.40279900  0.40279900  0.80559800  1
  Ni  Ni2  1  0.74650500  0.24650500  0.49301000  1
  Ni  Ni3  1  0.24650500  0.74650500  0.49301000  1
  Cu  Cu4  1  0.63066500  0.63066500  0.26133000  1
