# generated using pymatgen
data_Cu9Ni3C
_symmetry_space_group_name_H-M   'P 1'
_cell_length_a   7.66857951
_cell_length_b   7.66857951
_cell_length_c   7.66857964
_cell_angle_alpha   97.77107791
_cell_angle_beta   97.77107791
_cell_angle_gamma   97.77107196
_symmetry_Int_Tables_number   1
_chemical_formula_structural   Cu9Ni3C
_chemical_formula_sum   'Cu18 Ni6 C2'
_cell_volume   437.27666329
_cell_formula_units_Z   2
loop_
 _symmetry_equiv_pos_site_id
 _symmetry_equiv_pos_as_xyz
  1  'x, y, z'
loop_
 _atom_site_type_symbol
 _atom_site_label
 _atom_site_symmetry_multiplicity
 _atom_site_fract_x
 _atom_site_fract_y
 _atom_site_fract_z
 _atom_site_occupancy
  C  C0  1  0.62115400  0.62115400  0.62115400  1
  C  C1  1  0.00929700  0.00929700  0.00929700  1
  Ni  Ni2  1  0.62934400  0.84199500  0.19956800  1
  Ni  Ni3  1  0.19956800  0.62934400  0.84199500  1
  Ni  Ni4  1  0.84199500  0.19956800  0.62934400  1
  Ni  Ni5  1  0.37204600  0.16106300  0.79287300  1
  Ni  Ni6  1  0.79287300  0.37204600  0.16106300  1
  Ni  Ni7  1  0.16106300  0.79287300  0.37204600  1
  Cu  Cu8  1  0.79759200  0.83475000  0.04424700  1
  Cu  Cu9  1  0.04424700  0.79759200  0.83475000  1
  Cu  Cu10  1  0.83475000  0.04424700  0.79759200  1
  Cu  Cu11  1  0.20036400  0.16516300  0.94786100  1
  Cu  Cu12  1  0.94786100  0.20036400  0.16516300  1
  Cu  Cu13  1  0.16516300  0.94786100  0.20036400  1
  Cu  Cu14  1  0.58172700  0.60090800  0.18907800  1
  Cu  Cu15  1  0.18907800  0.58172700  0.60090800  1
  Cu  Cu16  1  0.60090800  0.18907800  0.58172700  1
  Cu  Cu17  1  0.42156600  0.40419600  0.81432700  1
  Cu  Cu18  1  0.81432700  0.42156600  0.40419600  1
  Cu  Cu19  1  0.40419600  0.81432700  0.42156600  1
  Cu  Cu20  1  0.78847000  0.88611100  0.41066100  1
  Cu  Cu21  1  0.41066100  0.78847000  0.88611100  1
  Cu  Cu22  1  0.88611100  0.41066100  0.78847000  1
  Cu  Cu23  1  0.20511700  0.10652100  0.59356000  1
  Cu  Cu24  1  0.59356000  0.20511700  0.10652100  1
  Cu  Cu25  1  0.10652100  0.59356000  0.20511700  1
