# generated using pymatgen
data_Cu8NiC
_symmetry_space_group_name_H-M   'P 1'
_cell_length_a   15.50025800
_cell_length_b   5.83306000
_cell_length_c   9.48025564
_cell_angle_alpha   62.32885258
_cell_angle_beta   90.00000000
_cell_angle_gamma   90.00000000
_symmetry_Int_Tables_number   1
_chemical_formula_structural   Cu8NiC
_chemical_formula_sum   'Cu32 Ni4 C4'
_cell_volume   759.11322773
_cell_formula_units_Z   4
loop_
 _symmetry_equiv_pos_site_id
 _symmetry_equiv_pos_as_xyz
  1  'x, y, z'
loop_
 _atom_site_type_symbol
 _atom_site_label
 _atom_site_symmetry_multiplicity
 _atom_site_fract_x
 _atom_site_fract_y
 _atom_site_fract_z
 _atom_site_occupancy
  C  C0  1  0.35855400  0.76004100  0.28483600  1
  C  C1  1  0.64144600  0.23995900  0.71516400  1
  C  C2  1  0.85855400  0.23995900  0.21516400  1
  C  C3  1  0.14144600  0.76004100  0.78483600  1
  Ni  Ni4  1  0.60457200  0.60233900  0.18695900  1
  Ni  Ni5  1  0.39542800  0.39766100  0.81304100  1
  Ni  Ni6  1  0.10457200  0.39766100  0.31304100  1
  Ni  Ni7  1  0.89542800  0.60233900  0.68695900  1
  Cu  Cu8  1  0.86127100  0.51652500  0.06210000  1
  Cu  Cu9  1  0.13872900  0.48347500  0.93790000  1
  Cu  Cu10  1  0.36127100  0.48347500  0.43790000  1
  Cu  Cu11  1  0.63872900  0.51652500  0.56210000  1
  Cu  Cu12  1  0.38574600  0.73731800  0.12855400  1
  Cu  Cu13  1  0.61425400  0.26268200  0.87144600  1
  Cu  Cu14  1  0.88574600  0.26268200  0.37144600  1
  Cu  Cu15  1  0.11425400  0.73731800  0.62855400  1
  Cu  Cu16  1  0.58804400  0.32062200  0.27681400  1
  Cu  Cu17  1  0.41195600  0.67937800  0.72318600  1
  Cu  Cu18  1  0.08804400  0.67937800  0.22318600  1
  Cu  Cu19  1  0.91195600  0.32062200  0.77681400  1
  Cu  Cu20  1  0.26308100  0.89212000  0.26158900  1
  Cu  Cu21  1  0.73691900  0.10788000  0.73841100  1
  Cu  Cu22  1  0.76308100  0.10788000  0.23841100  1
  Cu  Cu23  1  0.23691900  0.89212000  0.76158900  1
  Cu  Cu24  1  0.92080400  0.03272400  0.18956400  1
  Cu  Cu25  1  0.07919600  0.96727600  0.81043600  1
  Cu  Cu26  1  0.42080400  0.96727600  0.31043600  1
  Cu  Cu27  1  0.57919600  0.03272400  0.68956400  1
  Cu  Cu28  1  0.69531900  0.67495900  0.19613400  1
  Cu  Cu29  1  0.30468100  0.32504100  0.80386600  1
  Cu  Cu30  1  0.19531900  0.32504100  0.30386600  1
  Cu  Cu31  1  0.80468100  0.67495900  0.69613400  1
  Cu  Cu32  1  0.55617100  0.75099600  0.25302100  1
  Cu  Cu33  1  0.44382900  0.24900400  0.74697900  1
  Cu  Cu34  1  0.05617100  0.24900400  0.24697900  1
  Cu  Cu35  1  0.94382900  0.75099600  0.75302100  1
  Cu  Cu36  1  0.57746900  0.66569400  0.02313000  1
  Cu  Cu37  1  0.42253100  0.33430600  0.97687000  1
  Cu  Cu38  1  0.07746900  0.33430600  0.47687000  1
  Cu  Cu39  1  0.92253100  0.66569400  0.52313000  1
