# generated using pymatgen
data_Cu6Ni3C31
_symmetry_space_group_name_H-M   'P 1'
_cell_length_a   12.75333040
_cell_length_b   12.75333040
_cell_length_c   12.75333040
_cell_angle_alpha   90.00000000
_cell_angle_beta   90.00000000
_cell_angle_gamma   90.00000000
_symmetry_Int_Tables_number   1
_chemical_formula_structural   Cu6Ni3C31
_chemical_formula_sum   'Cu24 Ni12 C124'
_cell_volume   2074.29649374
_cell_formula_units_Z   4
loop_
 _symmetry_equiv_pos_site_id
 _symmetry_equiv_pos_as_xyz
  1  'x, y, z'
loop_
 _atom_site_type_symbol
 _atom_site_label
 _atom_site_symmetry_multiplicity
 _atom_site_fract_x
 _atom_site_fract_y
 _atom_site_fract_z
 _atom_site_occupancy
  C  C0  1  0.18210583  0.56815994  0.37482773  1
  C  C1  1  0.31789417  0.43184006  0.87482773  1
  C  C2  1  0.81789417  0.06815994  0.12517227  1
  C  C3  1  0.37482773  0.18210583  0.56815994  1
  C  C4  1  0.68210583  0.93184006  0.62517227  1
  C  C5  1  0.87482773  0.31789417  0.43184006  1
  C  C6  1  0.12517227  0.81789417  0.06815994  1
  C  C7  1  0.62517227  0.68210583  0.93184006  1
  C  C8  1  0.56815994  0.37482773  0.18210583  1
  C  C9  1  0.06815994  0.12517227  0.81789417  1
  C  C10  1  0.93184006  0.62517227  0.68210583  1
  C  C11  1  0.43184006  0.87482773  0.31789417  1
  Ni  Ni12  1  0.12488729  0.14003070  0.38980805  1
  Ni  Ni13  1  0.37511271  0.85996930  0.88980805  1
  Ni  Ni14  1  0.87511271  0.64003070  0.11019195  1
  Ni  Ni15  1  0.38980805  0.12488729  0.14003070  1
  Ni  Ni16  1  0.62488729  0.35996930  0.61019195  1
  Ni  Ni17  1  0.88980805  0.37511271  0.85996930  1
  Ni  Ni18  1  0.11019195  0.87511271  0.64003070  1
  Ni  Ni19  1  0.61019195  0.62488729  0.35996930  1
  Ni  Ni20  1  0.14003070  0.38980805  0.12488729  1
  Ni  Ni21  1  0.64003070  0.11019195  0.87511271  1
  Ni  Ni22  1  0.35996930  0.61019195  0.62488729  1
  Ni  Ni23  1  0.85996930  0.88980805  0.37511271  1
  Cu  Cu24  1  0.08968944  0.35572511  0.33749854  1
  Cu  Cu25  1  0.41031056  0.64427489  0.83749854  1
  Cu  Cu26  1  0.91031056  0.85572511  0.16250146  1
  Cu  Cu27  1  0.33749854  0.08968944  0.35572511  1
  Cu  Cu28  1  0.58968944  0.14427489  0.66250146  1
  Cu  Cu29  1  0.83749854  0.41031056  0.64427489  1
  Cu  Cu30  1  0.16250146  0.91031056  0.85572511  1
  Cu  Cu31  1  0.66250146  0.58968944  0.14427489  1
  Cu  Cu32  1  0.35572511  0.33749854  0.08968944  1
  Cu  Cu33  1  0.85572511  0.16250146  0.91031056  1
  Cu  Cu34  1  0.14427489  0.66250146  0.58968944  1
  Cu  Cu35  1  0.64427489  0.83749854  0.41031056  1
  Cu  Cu36  1  0.08770210  0.60574680  0.16003922  1
  Cu  Cu37  1  0.41229790  0.39425320  0.66003922  1
  Cu  Cu38  1  0.91229790  0.10574680  0.33996078  1
  Cu  Cu39  1  0.16003922  0.08770210  0.60574680  1
  Cu  Cu40  1  0.58770210  0.89425320  0.83996078  1
  Cu  Cu41  1  0.66003922  0.41229790  0.39425320  1
  Cu  Cu42  1  0.33996078  0.91229790  0.10574680  1
  Cu  Cu43  1  0.83996078  0.58770210  0.89425320  1
  Cu  Cu44  1  0.60574680  0.16003922  0.08770210  1
  Cu  Cu45  1  0.10574680  0.33996078  0.91229790  1
  Cu  Cu46  1  0.89425320  0.83996078  0.58770210  1
  Cu  Cu47  1  0.39425320  0.66003922  0.41229790  1
  C  C48  1  0.37523380  0.37523380  0.37523380  1
  C  C49  1  0.12476620  0.62476620  0.87523380  1
  C  C50  1  0.62476620  0.87523380  0.12476620  1
  C  C51  1  0.87523380  0.12476620  0.62476620  1
  C  C52  1  0.64998354  0.64998354  0.64998354  1
  C  C53  1  0.85001646  0.35001646  0.14998354  1
  C  C54  1  0.35001646  0.14998354  0.85001646  1
  C  C55  1  0.14998354  0.85001646  0.35001646  1
  C  C56  1  0.09959545  0.09959545  0.09959545  1
  C  C57  1  0.40040455  0.90040455  0.59959545  1
  C  C58  1  0.90040455  0.59959545  0.40040455  1
  C  C59  1  0.59959545  0.40040455  0.90040455  1
  C  C60  1  0.08662256  0.12342014  0.69274738  1
  C  C61  1  0.41337744  0.87657986  0.19274738  1
  C  C62  1  0.91337744  0.62342014  0.80725262  1
  C  C63  1  0.69274738  0.08662256  0.12342014  1
  C  C64  1  0.58662256  0.37657986  0.30725262  1
  C  C65  1  0.19274738  0.41337744  0.87657986  1
  C  C66  1  0.80725262  0.91337744  0.62342014  1
  C  C67  1  0.30725262  0.58662256  0.37657986  1
  C  C68  1  0.12342014  0.69274738  0.08662256  1
  C  C69  1  0.62342014  0.80725262  0.91337744  1
  C  C70  1  0.37657986  0.30725262  0.58662256  1
  C  C71  1  0.87657986  0.19274738  0.41337744  1
  C  C72  1  0.13190157  0.61838397  0.26975941  1
  C  C73  1  0.36809843  0.38161603  0.76975941  1
  C  C74  1  0.86809843  0.11838397  0.23024059  1
  C  C75  1  0.26975941  0.13190157  0.61838397  1
  C  C76  1  0.63190157  0.88161603  0.73024059  1
  C  C77  1  0.76975941  0.36809843  0.38161603  1
  C  C78  1  0.23024059  0.86809843  0.11838397  1
  C  C79  1  0.73024059  0.63190157  0.88161603  1
  C  C80  1  0.61838397  0.26975941  0.13190157  1
  C  C81  1  0.11838397  0.23024059  0.86809843  1
  C  C82  1  0.88161603  0.73024059  0.63190157  1
  C  C83  1  0.38161603  0.76975941  0.36809843  1
  C  C84  1  0.16198207  0.44338910  0.37327610  1
  C  C85  1  0.33801793  0.55661090  0.87327610  1
  C  C86  1  0.83801793  0.94338910  0.12672390  1
  C  C87  1  0.37327610  0.16198207  0.44338910  1
  C  C88  1  0.66198207  0.05661090  0.62672390  1
  C  C89  1  0.87327610  0.33801793  0.55661090  1
  C  C90  1  0.12672390  0.83801793  0.94338910  1
  C  C91  1  0.62672390  0.66198207  0.05661090  1
  C  C92  1  0.44338910  0.37327610  0.16198207  1
  C  C93  1  0.94338910  0.12672390  0.83801793  1
  C  C94  1  0.05661090  0.62672390  0.66198207  1
  C  C95  1  0.55661090  0.87327610  0.33801793  1
  C  C96  1  0.03441930  0.10194512  0.32977212  1
  C  C97  1  0.46558070  0.89805488  0.82977212  1
  C  C98  1  0.96558070  0.60194512  0.17022788  1
  C  C99  1  0.32977212  0.03441930  0.10194512  1
  C  C100  1  0.53441930  0.39805488  0.67022788  1
  C  C101  1  0.82977212  0.46558070  0.89805488  1
  C  C102  1  0.17022788  0.96558070  0.60194512  1
  C  C103  1  0.67022788  0.53441930  0.39805488  1
  C  C104  1  0.10194512  0.32977212  0.03441930  1
  C  C105  1  0.60194512  0.17022788  0.96558070  1
  C  C106  1  0.39805488  0.67022788  0.53441930  1
  C  C107  1  0.89805488  0.82977212  0.46558070  1
  C  C108  1  0.14386924  0.25269606  0.37374712  1
  C  C109  1  0.35613076  0.74730394  0.87374712  1
  C  C110  1  0.85613076  0.75269606  0.12625288  1
  C  C111  1  0.37374712  0.14386924  0.25269606  1
  C  C112  1  0.64386924  0.24730394  0.62625288  1
  C  C113  1  0.87374712  0.35613076  0.74730394  1
  C  C114  1  0.12625288  0.85613076  0.75269606  1
  C  C115  1  0.62625288  0.64386924  0.24730394  1
  C  C116  1  0.25269606  0.37374712  0.14386924  1
  C  C117  1  0.75269606  0.12625288  0.85613076  1
  C  C118  1  0.24730394  0.62625288  0.64386924  1
  C  C119  1  0.74730394  0.87374712  0.35613076  1
  C  C120  1  0.87359311  0.87359311  0.87359311  1
  C  C121  1  0.62640689  0.12640689  0.37359311  1
  C  C122  1  0.12640689  0.37359311  0.62640689  1
  C  C123  1  0.37359311  0.62640689  0.12640689  1
  C  C124  1  0.13230698  0.61944013  0.47950581  1
  C  C125  1  0.36769302  0.38055987  0.97950581  1
  C  C126  1  0.86769302  0.11944013  0.02049419  1
  C  C127  1  0.47950581  0.13230698  0.61944013  1
  C  C128  1  0.63230698  0.88055987  0.52049419  1
  C  C129  1  0.97950581  0.36769302  0.38055987  1
  C  C130  1  0.02049419  0.86769302  0.11944013  1
  C  C131  1  0.52049419  0.63230698  0.88055987  1
  C  C132  1  0.61944013  0.47950581  0.13230698  1
  C  C133  1  0.11944013  0.02049419  0.86769302  1
  C  C134  1  0.88055987  0.52049419  0.63230698  1
  C  C135  1  0.38055987  0.97950581  0.36769302  1
  C  C136  1  0.08050155  0.35072939  0.21543647  1
  C  C137  1  0.41949845  0.64927061  0.71543647  1
  C  C138  1  0.91949845  0.85072939  0.28456353  1
  C  C139  1  0.21543647  0.08050155  0.35072939  1
  C  C140  1  0.58050155  0.14927061  0.78456353  1
  C  C141  1  0.71543647  0.41949845  0.64927061  1
  C  C142  1  0.28456353  0.91949845  0.85072939  1
  C  C143  1  0.78456353  0.58050155  0.14927061  1
  C  C144  1  0.35072939  0.21543647  0.08050155  1
  C  C145  1  0.85072939  0.28456353  0.91949845  1
  C  C146  1  0.14927061  0.78456353  0.58050155  1
  C  C147  1  0.64927061  0.71543647  0.41949845  1
  C  C148  1  0.10613389  0.12257614  0.50215059  1
  C  C149  1  0.39386611  0.87742386  0.00215059  1
  C  C150  1  0.89386611  0.62257614  0.99784941  1
  C  C151  1  0.50215059  0.10613389  0.12257614  1
  C  C152  1  0.60613389  0.37742386  0.49784941  1
  C  C153  1  0.00215059  0.39386611  0.87742386  1
  C  C154  1  0.99784941  0.89386611  0.62257614  1
  C  C155  1  0.49784941  0.60613389  0.37742386  1
  C  C156  1  0.12257614  0.50215059  0.10613389  1
  C  C157  1  0.62257614  0.99784941  0.89386611  1
  C  C158  1  0.37742386  0.49784941  0.60613389  1
  C  C159  1  0.87742386  0.00215059  0.39386611  1
