# generated using pymatgen
data_CuNiC
_symmetry_space_group_name_H-M   'P 1'
_cell_length_a   7.55254994
_cell_length_b   7.55254994
_cell_length_c   7.55254994
_cell_angle_alpha   112.15505813
_cell_angle_beta   112.15505813
_cell_angle_gamma   104.22740993
_symmetry_Int_Tables_number   1
_chemical_formula_structural   CuNiC
_chemical_formula_sum   'Cu4 Ni4 C4'
_cell_volume   329.57605958
_cell_formula_units_Z   4
loop_
 _symmetry_equiv_pos_site_id
 _symmetry_equiv_pos_as_xyz
  1  'x, y, z'
loop_
 _atom_site_type_symbol
 _atom_site_label
 _atom_site_symmetry_multiplicity
 _atom_site_fract_x
 _atom_site_fract_y
 _atom_site_fract_z
 _atom_site_occupancy
  C  C0  1  0.25000000  0.75000000  0.50000000  1
  C  C1  1  0.26461800  0.26461800  0.00000000  1
  C  C2  1  0.73538200  0.73538200  0.00000000  1
  C  C3  1  0.75000000  0.25000000  0.50000000  1
  Ni  Ni4  1  0.08848900  0.24626200  0.33475100  1
  Ni  Ni5  1  0.24626200  0.91151100  0.15777200  1
  Ni  Ni6  1  0.75373800  0.08848900  0.84222800  1
  Ni  Ni7  1  0.91151100  0.75373800  0.66524900  1
  Cu  Cu8  1  0.24433000  0.74961300  0.99394300  1
  Cu  Cu9  1  0.25038700  0.24433000  0.49471700  1
  Cu  Cu10  1  0.74961300  0.75567000  0.50528300  1
  Cu  Cu11  1  0.75567000  0.25038700  0.00605700  1
