# generated using pymatgen
data_CuNi2C5
_symmetry_space_group_name_H-M   'P 1'
_cell_length_a   7.81745200
_cell_length_b   8.37689800
_cell_length_c   12.38018100
_cell_angle_alpha   90.00000000
_cell_angle_beta   90.00000000
_cell_angle_gamma   90.00000000
_symmetry_Int_Tables_number   1
_chemical_formula_structural   CuNi2C5
_chemical_formula_sum   'Cu4 Ni8 C20'
_cell_volume   810.72850850
_cell_formula_units_Z   4
loop_
 _symmetry_equiv_pos_site_id
 _symmetry_equiv_pos_as_xyz
  1  'x, y, z'
loop_
 _atom_site_type_symbol
 _atom_site_label
 _atom_site_symmetry_multiplicity
 _atom_site_fract_x
 _atom_site_fract_y
 _atom_site_fract_z
 _atom_site_occupancy
  Ni  Ni0  1  0.52680400  0.49771500  0.32130800  1
  Ni  Ni1  1  0.97319600  0.00228500  0.82130800  1
  Ni  Ni2  1  0.47319600  0.99771500  0.67869200  1
  Ni  Ni3  1  0.02680400  0.50228500  0.17869200  1
  Ni  Ni4  1  0.47319600  0.50228500  0.67869200  1
  Ni  Ni5  1  0.02680400  0.99771500  0.17869200  1
  Ni  Ni6  1  0.52680400  0.00228500  0.32130800  1
  Ni  Ni7  1  0.97319600  0.49771500  0.82130800  1
  Cu  Cu8  1  0.07402200  0.75000000  0.49078600  1
  Cu  Cu9  1  0.42597800  0.75000000  0.99078600  1
  Cu  Cu10  1  0.92597800  0.25000000  0.50921400  1
  Cu  Cu11  1  0.57402200  0.25000000  0.00921400  1
  C  C12  1  0.83233500  0.95454000  0.59482400  1
  C  C13  1  0.66766500  0.54546000  0.09482400  1
  C  C14  1  0.16766500  0.45454000  0.40517600  1
  C  C15  1  0.33233500  0.04546000  0.90517600  1
  C  C16  1  0.16766500  0.04546000  0.40517600  1
  C  C17  1  0.33233500  0.45454000  0.90517600  1
  C  C18  1  0.83233500  0.54546000  0.59482400  1
  C  C19  1  0.66766500  0.95454000  0.09482400  1
  C  C20  1  0.83075500  0.75000000  0.31333600  1
  C  C21  1  0.66924500  0.75000000  0.81333600  1
  C  C22  1  0.16924500  0.25000000  0.68666400  1
  C  C23  1  0.33075500  0.25000000  0.18666400  1
  C  C24  1  0.45805700  0.75000000  0.50069700  1
  C  C25  1  0.04194300  0.75000000  0.00069700  1
  C  C26  1  0.54194300  0.25000000  0.49930300  1
  C  C27  1  0.95805700  0.25000000  0.99930300  1
  C  C28  1  0.19409900  0.75000000  0.71645800  1
  C  C29  1  0.30590100  0.75000000  0.21645800  1
  C  C30  1  0.80590100  0.25000000  0.28354200  1
  C  C31  1  0.69409900  0.25000000  0.78354200  1
