# generated using pymatgen
data_Cu4NiC
_symmetry_space_group_name_H-M   'P 1'
_cell_length_a   7.65055200
_cell_length_b   7.65055200
_cell_length_c   5.97111800
_cell_angle_alpha   90.00000000
_cell_angle_beta   90.00000000
_cell_angle_gamma   90.00000000
_symmetry_Int_Tables_number   1
_chemical_formula_structural   Cu4NiC
_chemical_formula_sum   'Cu16 Ni4 C4'
_cell_volume   349.49518465
_cell_formula_units_Z   4
loop_
 _symmetry_equiv_pos_site_id
 _symmetry_equiv_pos_as_xyz
  1  'x, y, z'
loop_
 _atom_site_type_symbol
 _atom_site_label
 _atom_site_symmetry_multiplicity
 _atom_site_fract_x
 _atom_site_fract_y
 _atom_site_fract_z
 _atom_site_occupancy
  C  C0  1  0.00000000  0.50000000  0.75000000  1
  C  C1  1  0.50000000  0.00000000  0.25000000  1
  C  C2  1  0.00000000  0.50000000  0.25000000  1
  C  C3  1  0.50000000  0.00000000  0.75000000  1
  Ni  Ni4  1  0.22148200  0.27851800  0.75000000  1
  Ni  Ni5  1  0.77851800  0.72148200  0.75000000  1
  Ni  Ni6  1  0.72148200  0.22148200  0.25000000  1
  Ni  Ni7  1  0.27851800  0.77851800  0.25000000  1
  Cu  Cu8  1  0.18281800  0.41246900  0.93040900  1
  Cu  Cu9  1  0.81718200  0.58753100  0.93040900  1
  Cu  Cu10  1  0.68281800  0.08753100  0.43040900  1
  Cu  Cu11  1  0.31718200  0.91246900  0.43040900  1
  Cu  Cu12  1  0.58753100  0.18281800  0.06959100  1
  Cu  Cu13  1  0.41246900  0.81718200  0.06959100  1
  Cu  Cu14  1  0.08753100  0.31718200  0.56959100  1
  Cu  Cu15  1  0.91246900  0.68281800  0.56959100  1
  Cu  Cu16  1  0.20614300  0.10011500  0.84380200  1
  Cu  Cu17  1  0.79385700  0.89988500  0.84380200  1
  Cu  Cu18  1  0.70614300  0.39988500  0.34380200  1
  Cu  Cu19  1  0.29385700  0.60011500  0.34380200  1
  Cu  Cu20  1  0.10011500  0.79385700  0.15619800  1
  Cu  Cu21  1  0.89988500  0.20614300  0.15619800  1
  Cu  Cu22  1  0.60011500  0.70614300  0.65619800  1
  Cu  Cu23  1  0.39988500  0.29385700  0.65619800  1
