# generated using pymatgen
data_CuNiC3
_symmetry_space_group_name_H-M   'P 1'
_cell_length_a   12.88337202
_cell_length_b   12.88337202
_cell_length_c   12.88337215
_cell_angle_alpha   13.99469448
_cell_angle_beta   13.99469448
_cell_angle_gamma   13.99469412
_symmetry_Int_Tables_number   1
_chemical_formula_structural   CuNiC3
_chemical_formula_sum   'Cu2 Ni2 C6'
_cell_volume   108.84303473
_cell_formula_units_Z   2
loop_
 _symmetry_equiv_pos_site_id
 _symmetry_equiv_pos_as_xyz
  1  'x, y, z'
loop_
 _atom_site_type_symbol
 _atom_site_label
 _atom_site_symmetry_multiplicity
 _atom_site_fract_x
 _atom_site_fract_y
 _atom_site_fract_z
 _atom_site_occupancy
  Ni  Ni0  1  0.90000900  0.90000900  0.90000900  1
  Ni  Ni1  1  0.49843800  0.49843800  0.49843800  1
  Cu  Cu2  1  0.09867700  0.09867700  0.09867700  1
  Cu  Cu3  1  0.70121900  0.70121900  0.70121900  1
  C  C4  1  0.30162000  0.30162000  0.30162000  1
  C  C5  1  0.40016900  0.40016900  0.40016900  1
  C  C6  1  0.19934400  0.19934400  0.19934400  1
  C  C7  1  0.79853900  0.79853900  0.79853900  1
  C  C8  1  0.00204000  0.00204000  0.00204000  1
  C  C9  1  0.59994500  0.59994500  0.59994500  1
