# generated using pymatgen
data_Cu4Ni2C
_symmetry_space_group_name_H-M   'P 1'
_cell_length_a   9.52358651
_cell_length_b   9.52358651
_cell_length_c   11.78354000
_cell_angle_alpha   90.00000000
_cell_angle_beta   90.00000000
_cell_angle_gamma   120.00000354
_symmetry_Int_Tables_number   1
_chemical_formula_structural   Cu4Ni2C
_chemical_formula_sum   'Cu24 Ni12 C6'
_cell_volume   925.56614107
_cell_formula_units_Z   6
loop_
 _symmetry_equiv_pos_site_id
 _symmetry_equiv_pos_as_xyz
  1  'x, y, z'
loop_
 _atom_site_type_symbol
 _atom_site_label
 _atom_site_symmetry_multiplicity
 _atom_site_fract_x
 _atom_site_fract_y
 _atom_site_fract_z
 _atom_site_occupancy
  C  C0  1  0.99007200  0.46833200  0.84409300  1
  C  C1  1  0.47825900  0.00992800  0.51076000  1
  C  C2  1  0.46833200  0.47825900  0.67742700  1
  C  C3  1  0.53166800  0.52174100  0.17742700  1
  C  C4  1  0.52174100  0.99007200  0.01076000  1
  C  C5  1  0.00992800  0.53166800  0.34409300  1
  Ni  Ni6  1  0.02165500  0.57458700  0.48639000  1
  Ni  Ni7  1  0.18919300  0.61425400  0.83014300  1
  Ni  Ni8  1  0.38574600  0.57493900  0.16347700  1
  Ni  Ni9  1  0.42541300  0.44706700  0.81972300  1
  Ni  Ni10  1  0.42506100  0.81080700  0.49681000  1
  Ni  Ni11  1  0.55293300  0.97834500  0.15305700  1
  Ni  Ni12  1  0.44706700  0.02165500  0.65305700  1
  Ni  Ni13  1  0.57493900  0.18919300  0.99681000  1
  Ni  Ni14  1  0.57458700  0.55293300  0.31972300  1
  Ni  Ni15  1  0.61425400  0.42506100  0.66347700  1
  Ni  Ni16  1  0.81080700  0.38574600  0.33014300  1
  Ni  Ni17  1  0.97834500  0.42541300  0.98639000  1
  Cu  Cu18  1  0.98883700  0.71630500  0.31925100  1
  Cu  Cu19  1  0.30405900  0.94283100  0.01168400  1
  Cu  Cu20  1  0.41005400  0.75663000  0.00255000  1
  Cu  Cu21  1  0.48310400  0.04013300  0.34949000  1
  Cu  Cu22  1  0.95986700  0.44297100  0.68282300  1
  Cu  Cu23  1  0.05716900  0.36122800  0.34501800  1
  Cu  Cu24  1  0.28369500  0.27253200  0.65258400  1
  Cu  Cu25  1  0.34657700  0.58994600  0.66921600  1
  Cu  Cu26  1  0.24337000  0.65342300  0.33588300  1
  Cu  Cu27  1  0.36122800  0.30405900  0.17835100  1
  Cu  Cu28  1  0.27253200  0.98883700  0.48591700  1
  Cu  Cu29  1  0.55702900  0.51689600  0.01615600  1
  Cu  Cu30  1  0.44297100  0.48310400  0.51615600  1
  Cu  Cu31  1  0.72746800  0.01116300  0.98591700  1
  Cu  Cu32  1  0.63877200  0.69594100  0.67835100  1
  Cu  Cu33  1  0.75663000  0.34657700  0.83588300  1
  Cu  Cu34  1  0.65342300  0.41005400  0.16921600  1
  Cu  Cu35  1  0.71630500  0.72746800  0.15258400  1
  Cu  Cu36  1  0.94283100  0.63877200  0.84501800  1
  Cu  Cu37  1  0.04013300  0.55702900  0.18282300  1
  Cu  Cu38  1  0.51689600  0.95986700  0.84949000  1
  Cu  Cu39  1  0.58994600  0.24337000  0.50255000  1
  Cu  Cu40  1  0.69594100  0.05716900  0.51168400  1
  Cu  Cu41  1  0.01116300  0.28369500  0.81925100  1
