# generated using pymatgen
data_CuNiC5
_symmetry_space_group_name_H-M   'P 1'
_cell_length_a   5.22446300
_cell_length_b   7.08848200
_cell_length_c   10.52244600
_cell_angle_alpha   90.00000000
_cell_angle_beta   90.00000000
_cell_angle_gamma   90.00000000
_symmetry_Int_Tables_number   1
_chemical_formula_structural   CuNiC5
_chemical_formula_sum   'Cu4 Ni4 C20'
_cell_volume   389.68312953
_cell_formula_units_Z   4
loop_
 _symmetry_equiv_pos_site_id
 _symmetry_equiv_pos_as_xyz
  1  'x, y, z'
loop_
 _atom_site_type_symbol
 _atom_site_label
 _atom_site_symmetry_multiplicity
 _atom_site_fract_x
 _atom_site_fract_y
 _atom_site_fract_z
 _atom_site_occupancy
  Ni  Ni0  1  0.45229600  0.65535400  0.33728500  1
  Ni  Ni1  1  0.04770400  0.15535400  0.66271500  1
  Ni  Ni2  1  0.95229600  0.34464600  0.16271500  1
  Ni  Ni3  1  0.54770400  0.84464600  0.83728500  1
  Cu  Cu4  1  0.61190600  0.94448300  0.10810600  1
  Cu  Cu5  1  0.88809400  0.44448300  0.89189400  1
  Cu  Cu6  1  0.11190600  0.05551700  0.39189400  1
  Cu  Cu7  1  0.38809400  0.55551700  0.60810600  1
  C  C8  1  0.24334400  0.30000100  0.28239100  1
  C  C9  1  0.25665600  0.80000100  0.71760900  1
  C  C10  1  0.74334400  0.69999900  0.21760900  1
  C  C11  1  0.75665600  0.19999900  0.78239100  1
  C  C12  1  0.91115500  0.08613200  0.20806800  1
  C  C13  1  0.58884500  0.58613200  0.79193200  1
  C  C14  1  0.41115500  0.91386800  0.29193200  1
  C  C15  1  0.08884500  0.41386800  0.70806800  1
  C  C16  1  0.19016800  0.64212200  0.46130900  1
  C  C17  1  0.30983200  0.14212200  0.53869100  1
  C  C18  1  0.69016800  0.35787800  0.03869100  1
  C  C19  1  0.80983200  0.85787800  0.96130900  1
  C  C20  1  0.96434600  0.60483000  0.19584900  1
  C  C21  1  0.53565400  0.10483000  0.80415100  1
  C  C22  1  0.46434600  0.39517000  0.30415100  1
  C  C23  1  0.03565400  0.89517000  0.69584900  1
  C  C24  1  0.31548100  0.88322400  0.02209500  1
  C  C25  1  0.18451900  0.38322400  0.97790500  1
  C  C26  1  0.81548100  0.11677600  0.47790500  1
  C  C27  1  0.68451900  0.61677600  0.52209500  1
