# generated using pymatgen
data_Cu3(NiC7)2
_symmetry_space_group_name_H-M   'P 1'
_cell_length_a   10.10821029
_cell_length_b   10.10821029
_cell_length_c   10.10821029
_cell_angle_alpha   109.72858317
_cell_angle_beta   109.72858317
_cell_angle_gamma   108.95771271
_symmetry_Int_Tables_number   1
_chemical_formula_structural   Cu3(NiC7)2
_chemical_formula_sum   'Cu12 Ni8 C56'
_cell_volume   795.01400200
_cell_formula_units_Z   4
loop_
 _symmetry_equiv_pos_site_id
 _symmetry_equiv_pos_as_xyz
  1  'x, y, z'
loop_
 _atom_site_type_symbol
 _atom_site_label
 _atom_site_symmetry_multiplicity
 _atom_site_fract_x
 _atom_site_fract_y
 _atom_site_fract_z
 _atom_site_occupancy
  Ni  Ni0  1  0.74497700  0.37500000  0.86997700  1
  Ni  Ni1  1  0.62500000  0.99497700  0.86997700  1
  Ni  Ni2  1  0.12500000  0.75502300  0.13002300  1
  Ni  Ni3  1  0.50502300  0.87500000  0.13002300  1
  Ni  Ni4  1  0.00502300  0.87500000  0.63002300  1
  Ni  Ni5  1  0.12500000  0.25502300  0.63002300  1
  Ni  Ni6  1  0.62500000  0.49497700  0.36997700  1
  Ni  Ni7  1  0.24497700  0.37500000  0.36997700  1
  C  C8  1  0.87500000  0.62500000  0.25000000  1
  C  C9  1  0.37500000  0.12500000  0.75000000  1
  C  C10  1  0.87500000  0.12500000  0.25000000  1
  C  C11  1  0.37500000  0.62500000  0.75000000  1
  C  C12  1  0.37500000  0.12500000  0.25000000  1
  C  C13  1  0.87500000  0.12500000  0.75000000  1
  C  C14  1  0.87500000  0.62500000  0.75000000  1
  C  C15  1  0.37500000  0.62500000  0.25000000  1
  Cu  Cu16  1  0.24918400  0.87500000  0.87418400  1
  Cu  Cu17  1  0.12500000  0.99918400  0.37418400  1
  Cu  Cu18  1  0.50000000  0.50000000  0.00000000  1
  Cu  Cu19  1  0.62500000  0.75081600  0.62581600  1
  Cu  Cu20  1  0.00000000  0.00000000  0.00000000  1
  Cu  Cu21  1  0.75000000  0.25000000  0.50000000  1
  Cu  Cu22  1  0.74918400  0.87500000  0.37418400  1
  Cu  Cu23  1  0.25000000  0.75000000  0.50000000  1
  Cu  Cu24  1  0.00081600  0.37500000  0.12581600  1
  Cu  Cu25  1  0.62500000  0.25081600  0.12581600  1
  Cu  Cu26  1  0.12500000  0.49918400  0.87418400  1
  Cu  Cu27  1  0.50081600  0.37500000  0.62581600  1
  C  C28  1  0.25292200  0.01533900  0.82656300  1
  C  C29  1  0.17635900  0.50292200  0.73758300  1
  C  C30  1  0.76533900  0.43877600  0.26241700  1
  C  C31  1  0.06698900  0.72327700  0.45545400  1
  C  C32  1  0.18301100  0.13846400  0.15628800  1
  C  C33  1  0.35748900  0.42197100  0.62459700  1
  C  C34  1  0.45262600  0.32802900  0.43551800  1
  C  C35  1  0.36153600  0.31698900  0.84371200  1
  C  C36  1  0.17197100  0.04737400  0.56448200  1
  C  C37  1  0.77672300  0.43301100  0.54454600  1
  C  C38  1  0.07802900  0.14251100  0.37540300  1
  C  C39  1  0.47327700  0.51782300  0.15628800  1
  C  C40  1  0.76710800  0.70262600  0.62459700  1
  C  C41  1  0.48289200  0.60748900  0.43551800  1
  C  C42  1  0.88846400  0.23217700  0.45545400  1
  C  C43  1  0.18877600  0.42635900  0.17343700  1
  C  C44  1  0.48466100  0.24707800  0.17343700  1
  C  C45  1  0.99707800  0.32364100  0.26241700  1
  C  C46  1  0.26782300  0.61153600  0.54454600  1
  C  C47  1  0.06122400  0.73466100  0.73758300  1
  C  C48  1  0.95262600  0.51710800  0.12459700  1
  C  C49  1  0.07364100  0.31122400  0.82656300  1
  C  C50  1  0.98217700  0.02672300  0.84371200  1
  C  C51  1  0.79737400  0.73289200  0.37540300  1
  C  C52  1  0.49707800  0.23466100  0.67343700  1
  C  C53  1  0.57364100  0.74707800  0.76241700  1
  C  C54  1  0.98466100  0.81122400  0.23758300  1
  C  C55  1  0.68301100  0.52672300  0.04454600  1
  C  C56  1  0.56698900  0.11153600  0.34371200  1
  C  C57  1  0.39251100  0.82802900  0.87540300  1
  C  C58  1  0.29737400  0.92197100  0.06448200  1
  C  C59  1  0.38846400  0.93301100  0.65628800  1
  C  C60  1  0.57802900  0.20262600  0.93551800  1
  C  C61  1  0.97327700  0.81698900  0.95545400  1
  C  C62  1  0.67197100  0.10748900  0.12459700  1
  C  C63  1  0.27672300  0.73217700  0.34371200  1
  C  C64  1  0.98289200  0.54737400  0.87540300  1
  C  C65  1  0.26710800  0.64251100  0.06448200  1
  C  C66  1  0.86153600  0.01782300  0.04454600  1
  C  C67  1  0.56122400  0.82364100  0.32656300  1
  C  C68  1  0.26533900  0.00292200  0.32656300  1
  C  C69  1  0.75292200  0.92635900  0.23758300  1
  C  C70  1  0.48217700  0.63846400  0.95545400  1
  C  C71  1  0.68877600  0.51533900  0.76241700  1
  C  C72  1  0.85748900  0.23289200  0.93551800  1
  C  C73  1  0.67635900  0.93877600  0.67343700  1
  C  C74  1  0.76782300  0.22327700  0.65628800  1
  C  C75  1  0.89251100  0.01710800  0.56448200  1
