# generated using pymatgen
data_Cu6Ni2C17
_symmetry_space_group_name_H-M   'P 1'
_cell_length_a   11.43694215
_cell_length_b   11.43694215
_cell_length_c   10.32022100
_cell_angle_alpha   90.00000000
_cell_angle_beta   90.00000000
_cell_angle_gamma   101.90639339
_symmetry_Int_Tables_number   1
_chemical_formula_structural   Cu6Ni2C17
_chemical_formula_sum   'Cu24 Ni8 C68'
_cell_volume   1320.88025640
_cell_formula_units_Z   4
loop_
 _symmetry_equiv_pos_site_id
 _symmetry_equiv_pos_as_xyz
  1  'x, y, z'
loop_
 _atom_site_type_symbol
 _atom_site_label
 _atom_site_symmetry_multiplicity
 _atom_site_fract_x
 _atom_site_fract_y
 _atom_site_fract_z
 _atom_site_occupancy
  C  C0  1  0.98085000  0.51915000  0.75000000  1
  C  C1  1  0.51915000  0.98085000  0.25000000  1
  C  C2  1  0.01915000  0.48085000  0.25000000  1
  C  C3  1  0.48085000  0.01915000  0.75000000  1
  C  C4  1  0.90847500  0.09152500  0.76080000  1
  C  C5  1  0.59152500  0.40847500  0.26080000  1
  C  C6  1  0.09152500  0.90847500  0.23920000  1
  C  C7  1  0.40847500  0.59152500  0.73920000  1
  Ni  Ni8  1  0.66070100  0.83929900  0.75000000  1
  Ni  Ni9  1  0.83929900  0.66070100  0.25000000  1
  Ni  Ni10  1  0.33929900  0.16070100  0.25000000  1
  Ni  Ni11  1  0.16070100  0.33929900  0.75000000  1
  Ni  Ni12  1  0.74865500  0.74865500  0.50000000  1
  Ni  Ni13  1  0.75134500  0.75134500  0.00000000  1
  Ni  Ni14  1  0.25134500  0.25134500  0.50000000  1
  Ni  Ni15  1  0.24865500  0.24865500  0.00000000  1
  Cu  Cu16  1  0.69558000  0.07946700  0.95972500  1
  Cu  Cu17  1  0.80442000  0.42053300  0.45972500  1
  Cu  Cu18  1  0.07946700  0.69558000  0.04027500  1
  Cu  Cu19  1  0.42053300  0.80442000  0.54027500  1
  Cu  Cu20  1  0.30442000  0.92053300  0.04027500  1
  Cu  Cu21  1  0.19558000  0.57946700  0.54027500  1
  Cu  Cu22  1  0.92053300  0.30442000  0.95972500  1
  Cu  Cu23  1  0.57946700  0.19558000  0.45972500  1
  Cu  Cu24  1  0.81444800  0.96392300  0.18959600  1
  Cu  Cu25  1  0.68555200  0.53607700  0.68959600  1
  Cu  Cu26  1  0.96392300  0.81444800  0.81040400  1
  Cu  Cu27  1  0.53607700  0.68555200  0.31040400  1
  Cu  Cu28  1  0.18555200  0.03607700  0.81040400  1
  Cu  Cu29  1  0.31444800  0.46392300  0.31040400  1
  Cu  Cu30  1  0.03607700  0.18555200  0.18959600  1
  Cu  Cu31  1  0.46392300  0.31444800  0.68959600  1
  Cu  Cu32  1  0.75764900  0.02143600  0.48633200  1
  Cu  Cu33  1  0.74235100  0.47856400  0.98633200  1
  Cu  Cu34  1  0.02143600  0.75764900  0.51366800  1
  Cu  Cu35  1  0.47856400  0.74235100  0.01366800  1
  Cu  Cu36  1  0.24235100  0.97856400  0.51366800  1
  Cu  Cu37  1  0.25764900  0.52143600  0.01366800  1
  Cu  Cu38  1  0.97856400  0.24235100  0.48633200  1
  Cu  Cu39  1  0.52143600  0.25764900  0.98633200  1
  C  C40  1  0.18159700  0.81840300  0.05998800  1
  C  C41  1  0.31840300  0.68159700  0.55998800  1
  C  C42  1  0.81840300  0.18159700  0.94001200  1
  C  C43  1  0.68159700  0.31840300  0.44001200  1
  C  C44  1  0.05250200  0.94749800  0.82185800  1
  C  C45  1  0.44749800  0.55250200  0.32185800  1
  C  C46  1  0.94749800  0.05250200  0.17814200  1
  C  C47  1  0.55250200  0.44749800  0.67814200  1
  C  C48  1  0.12010400  0.87989600  0.47562200  1
  C  C49  1  0.37989600  0.62010400  0.97562200  1
  C  C50  1  0.87989600  0.12010400  0.52437800  1
  C  C51  1  0.62010400  0.37989600  0.02437800  1
  C  C52  1  0.67010400  0.00533300  0.82896500  1
  C  C53  1  0.82989600  0.49466700  0.32896500  1
  C  C54  1  0.00533300  0.67010400  0.17103500  1
  C  C55  1  0.49466700  0.82989600  0.67103500  1
  C  C56  1  0.32989600  0.99466700  0.17103500  1
  C  C57  1  0.17010400  0.50533300  0.67103500  1
  C  C58  1  0.99466700  0.32989600  0.82896500  1
  C  C59  1  0.50533300  0.17010400  0.32896500  1
  C  C60  1  0.71599600  0.00224700  0.09048900  1
  C  C61  1  0.78400400  0.49775300  0.59048900  1
  C  C62  1  0.00224700  0.71599600  0.90951100  1
  C  C63  1  0.49775300  0.78400400  0.40951100  1
  C  C64  1  0.24034700  0.01801200  0.66669600  1
  C  C65  1  0.28400400  0.99775300  0.90951100  1
  C  C66  1  0.99775300  0.28400400  0.09048900  1
  C  C67  1  0.50224700  0.21599600  0.59048900  1
  C  C68  1  0.82797100  0.83022400  0.15828700  1
  C  C69  1  0.67202900  0.66977600  0.65828700  1
  C  C70  1  0.83022400  0.82797100  0.84171300  1
  C  C71  1  0.66977600  0.67202900  0.34171300  1
  C  C72  1  0.17202900  0.16977600  0.84171300  1
  C  C73  1  0.32797100  0.33022400  0.34171300  1
  C  C74  1  0.16977600  0.17202900  0.15828700  1
  C  C75  1  0.33022400  0.32797100  0.65828700  1
  C  C76  1  0.75965300  0.98198800  0.33330400  1
  C  C77  1  0.74034700  0.51801200  0.83330400  1
  C  C78  1  0.98198800  0.75965300  0.66669600  1
  C  C79  1  0.51801200  0.74034700  0.16669600  1
  C  C80  1  0.58424700  0.14238800  0.00276400  1
  C  C81  1  0.91575300  0.35761200  0.50276400  1
  C  C82  1  0.14238800  0.58424700  0.99723600  1
  C  C83  1  0.35761200  0.91575300  0.49723600  1
  C  C84  1  0.41575300  0.85761200  0.99723600  1
  C  C85  1  0.08424700  0.64238800  0.49723600  1
  C  C86  1  0.85761200  0.41575300  0.00276400  1
  C  C87  1  0.64238800  0.08424700  0.50276400  1
  C  C88  1  0.40672300  0.24965600  0.07729400  1
  C  C89  1  0.09327700  0.25034400  0.57729400  1
  C  C90  1  0.24965600  0.40672300  0.92270600  1
  C  C91  1  0.25034400  0.09327700  0.42270600  1
  C  C92  1  0.59327700  0.75034400  0.92270600  1
  C  C93  1  0.90672300  0.74965600  0.42270600  1
  C  C94  1  0.75034400  0.59327700  0.07729400  1
  C  C95  1  0.74965600  0.90672300  0.57729400  1
  C  C96  1  0.48198800  0.25965300  0.83330400  1
  C  C97  1  0.01801200  0.24034700  0.33330400  1
  C  C98  1  0.25965300  0.48198800  0.16669600  1
  C  C99  1  0.21599600  0.50224700  0.40951100  1
