# generated using pymatgen
data_Cu2Ni3C11
_symmetry_space_group_name_H-M   'P 1'
_cell_length_a   5.49909700
_cell_length_b   5.56115700
_cell_length_c   16.56940400
_cell_angle_alpha   90.00000000
_cell_angle_beta   90.00000000
_cell_angle_gamma   90.00000000
_symmetry_Int_Tables_number   1
_chemical_formula_structural   Cu2Ni3C11
_chemical_formula_sum   'Cu4 Ni6 C22'
_cell_volume   506.71460674
_cell_formula_units_Z   2
loop_
 _symmetry_equiv_pos_site_id
 _symmetry_equiv_pos_as_xyz
  1  'x, y, z'
loop_
 _atom_site_type_symbol
 _atom_site_label
 _atom_site_symmetry_multiplicity
 _atom_site_fract_x
 _atom_site_fract_y
 _atom_site_fract_z
 _atom_site_occupancy
  C  C0  1  0.75046700  0.99774500  0.27671100  1
  C  C1  1  0.75046700  0.00225500  0.72328900  1
  C  C2  1  0.24953300  0.49774500  0.72328900  1
  C  C3  1  0.24953300  0.50225500  0.27671100  1
  C  C4  1  0.74973600  0.00000000  0.50000000  1
  C  C5  1  0.25026400  0.50000000  0.50000000  1
  Ni  Ni6  1  0.76813700  0.00000000  0.00000000  1
  Ni  Ni7  1  0.23186300  0.50000000  0.00000000  1
  Ni  Ni8  1  0.74993700  0.49964800  0.40065400  1
  Ni  Ni9  1  0.74993700  0.50035200  0.59934600  1
  Ni  Ni10  1  0.25006300  0.99964800  0.59934600  1
  Ni  Ni11  1  0.25006300  0.00035200  0.40065400  1
  Cu  Cu12  1  0.76079300  0.50894500  0.11004100  1
  Cu  Cu13  1  0.76079300  0.49105500  0.88995900  1
  Cu  Cu14  1  0.23920700  0.00894500  0.88995900  1
  Cu  Cu15  1  0.23920700  0.99105500  0.11004100  1
  C  C16  1  0.74802100  0.49424700  0.24351300  1
  C  C17  1  0.74802100  0.50575300  0.75648700  1
  C  C18  1  0.25197900  0.99424700  0.75648700  1
  C  C19  1  0.25197900  0.00575300  0.24351300  1
  C  C20  1  0.78269200  0.92960100  0.10925600  1
  C  C21  1  0.78269200  0.07039900  0.89074400  1
  C  C22  1  0.21730800  0.42960100  0.89074400  1
  C  C23  1  0.21730800  0.57039900  0.10925600  1
  C  C24  1  0.50000000  0.75000000  0.58704900  1
  C  C25  1  0.50000000  0.25000000  0.41295100  1
  C  C26  1  0.00000000  0.75000000  0.41231600  1
  C  C27  1  0.00000000  0.25000000  0.58768400  1
  C  C28  1  0.50000000  0.75000000  0.41237000  1
  C  C29  1  0.50000000  0.25000000  0.58763000  1
  C  C30  1  0.00000000  0.75000000  0.58733200  1
  C  C31  1  0.00000000  0.25000000  0.41266800  1
