# generated using pymatgen
data_CuNi
_symmetry_space_group_name_H-M   'P 1'
_cell_length_a   4.27887300
_cell_length_b   4.29929100
_cell_length_c   11.98585800
_cell_angle_alpha   90.00000000
_cell_angle_beta   90.00000000
_cell_angle_gamma   90.00000000
_symmetry_Int_Tables_number   1
_chemical_formula_structural   CuNi
_chemical_formula_sum   'Cu4 Ni4'
_cell_volume   220.49328422
_cell_formula_units_Z   4
loop_
 _symmetry_equiv_pos_site_id
 _symmetry_equiv_pos_as_xyz
  1  'x, y, z'
loop_
 _atom_site_type_symbol
 _atom_site_label
 _atom_site_symmetry_multiplicity
 _atom_site_fract_x
 _atom_site_fract_y
 _atom_site_fract_z
 _atom_site_occupancy
  Ni  Ni0  1  0.50926500  0.25000000  0.37259100  1
  Ni  Ni1  1  0.00926500  0.75000000  0.12740900  1
  Ni  Ni2  1  0.49073500  0.75000000  0.62740900  1
  Ni  Ni3  1  0.99073500  0.25000000  0.87259100  1
  Cu  Cu4  1  0.49526900  0.75000000  0.85602900  1
  Cu  Cu5  1  0.00473100  0.75000000  0.35602900  1
  Cu  Cu6  1  0.99526900  0.25000000  0.64397100  1
  Cu  Cu7  1  0.50473100  0.25000000  0.14397100  1
