# generated using pymatgen
data_CuNiC
_symmetry_space_group_name_H-M   'P 1'
_cell_length_a   3.36553405
_cell_length_b   3.36553405
_cell_length_c   38.22693600
_cell_angle_alpha   90.00000000
_cell_angle_beta   90.00000000
_cell_angle_gamma   120.00000100
_symmetry_Int_Tables_number   1
_chemical_formula_structural   CuNiC
_chemical_formula_sum   'Cu4 Ni4 C4'
_cell_volume   374.97999121
_cell_formula_units_Z   4
loop_
 _symmetry_equiv_pos_site_id
 _symmetry_equiv_pos_as_xyz
  1  'x, y, z'
loop_
 _atom_site_type_symbol
 _atom_site_label
 _atom_site_symmetry_multiplicity
 _atom_site_fract_x
 _atom_site_fract_y
 _atom_site_fract_z
 _atom_site_occupancy
  Ni  Ni0  1  0.33333300  0.66666700  0.33122700  1
  Ni  Ni1  1  0.33333300  0.66666700  0.70692200  1
  Ni  Ni2  1  0.33333300  0.66666700  0.23236000  1
  Ni  Ni3  1  0.33333300  0.66666700  0.60813900  1
  C  C4  1  0.33333300  0.66666700  0.09392400  1
  C  C5  1  0.33333300  0.66666700  0.46966200  1
  C  C6  1  0.66666700  0.33333300  0.28182000  1
  C  C7  1  0.66666700  0.33333300  0.65754300  1
  Cu  Cu8  1  0.66666700  0.33333300  0.05434100  1
  Cu  Cu9  1  0.66666700  0.33333300  0.43016800  1
  Cu  Cu10  1  0.66666700  0.33333300  0.13350900  1
  Cu  Cu11  1  0.66666700  0.33333300  0.50913300  1
