# generated using pymatgen
data_Cu2NiC4
_symmetry_space_group_name_H-M   'P 1'
_cell_length_a   3.00560700
_cell_length_b   9.03884000
_cell_length_c   10.48141000
_cell_angle_alpha   90.00000000
_cell_angle_beta   90.00000000
_cell_angle_gamma   90.00000000
_symmetry_Int_Tables_number   1
_chemical_formula_structural   Cu2NiC4
_chemical_formula_sum   'Cu8 Ni4 C16'
_cell_volume   284.75056988
_cell_formula_units_Z   4
loop_
 _symmetry_equiv_pos_site_id
 _symmetry_equiv_pos_as_xyz
  1  'x, y, z'
loop_
 _atom_site_type_symbol
 _atom_site_label
 _atom_site_symmetry_multiplicity
 _atom_site_fract_x
 _atom_site_fract_y
 _atom_site_fract_z
 _atom_site_occupancy
  Ni  Ni0  1  0.25000000  0.24677000  0.84558200  1
  Ni  Ni1  1  0.75000000  0.75323000  0.15441800  1
  Ni  Ni2  1  0.25000000  0.74677000  0.65441800  1
  Ni  Ni3  1  0.75000000  0.25323000  0.34558200  1
  Cu  Cu4  1  0.75000000  0.41791200  0.60562900  1
  Cu  Cu5  1  0.25000000  0.08208800  0.10562900  1
  Cu  Cu6  1  0.75000000  0.91791200  0.89437100  1
  Cu  Cu7  1  0.25000000  0.58208800  0.39437100  1
  Cu  Cu8  1  0.25000000  0.56572800  0.88533500  1
  Cu  Cu9  1  0.75000000  0.43427200  0.11466500  1
  Cu  Cu10  1  0.25000000  0.06572800  0.61466500  1
  Cu  Cu11  1  0.75000000  0.93427200  0.38533500  1
  C  C12  1  0.75000000  0.90162600  0.57218300  1
  C  C13  1  0.25000000  0.09837400  0.42781700  1
  C  C14  1  0.75000000  0.40162600  0.92781700  1
  C  C15  1  0.25000000  0.59837400  0.07218300  1
  C  C16  1  0.75000000  0.02036800  0.21798300  1
  C  C17  1  0.25000000  0.97963200  0.78201700  1
  C  C18  1  0.75000000  0.52036800  0.28201700  1
  C  C19  1  0.25000000  0.47963200  0.71798300  1
  C  C20  1  0.75000000  0.61972200  0.53413100  1
  C  C21  1  0.25000000  0.38027800  0.46586900  1
  C  C22  1  0.75000000  0.11972200  0.96586900  1
  C  C23  1  0.25000000  0.88027800  0.03413100  1
  C  C24  1  0.25000000  0.78024900  0.31588000  1
  C  C25  1  0.75000000  0.21975100  0.68412000  1
  C  C26  1  0.75000000  0.71975100  0.81588000  1
  C  C27  1  0.25000000  0.28024900  0.18412000  1
