# generated using pymatgen
data_Cu2Ni2C45
_symmetry_space_group_name_H-M   'P 1'
_cell_length_a   12.82342481
_cell_length_b   12.82342481
_cell_length_c   8.82802264
_cell_angle_alpha   87.60638418
_cell_angle_beta   87.60638418
_cell_angle_gamma   153.44762221
_symmetry_Int_Tables_number   1
_chemical_formula_structural   Cu2Ni2C45
_chemical_formula_sum   'Cu2 Ni2 C45'
_cell_volume   638.10298935
_cell_formula_units_Z   1
loop_
 _symmetry_equiv_pos_site_id
 _symmetry_equiv_pos_as_xyz
  1  'x, y, z'
loop_
 _atom_site_type_symbol
 _atom_site_label
 _atom_site_symmetry_multiplicity
 _atom_site_fract_x
 _atom_site_fract_y
 _atom_site_fract_z
 _atom_site_occupancy
  C  C0  1  0.50769800  0.92247600  0.34084300  1
  C  C1  1  0.07752400  0.49230200  0.65915700  1
  C  C2  1  0.49230200  0.07752400  0.65915700  1
  C  C3  1  0.92247600  0.50769800  0.34084300  1
  C  C4  1  0.36957400  0.10623200  0.36105900  1
  C  C5  1  0.21839900  0.33543000  0.65431800  1
  C  C6  1  0.89376800  0.63042600  0.63894100  1
  C  C7  1  0.63042600  0.89376800  0.63894100  1
  C  C8  1  0.78160100  0.66457000  0.34568200  1
  C  C9  1  0.29441200  0.70558800  0.00000000  1
  C  C10  1  0.66457000  0.78160100  0.34568200  1
  C  C11  1  0.00000000  0.00000000  0.00000000  1
  C  C12  1  0.43182800  0.56817200  0.00000000  1
  C  C13  1  0.33543000  0.21839900  0.65431800  1
  C  C14  1  0.10623200  0.36957400  0.36105900  1
  C  C15  1  0.56817200  0.43182800  0.00000000  1
  C  C16  1  0.70558800  0.29441200  0.00000000  1
  Ni  Ni17  1  0.75293100  0.75293100  0.68492800  1
  Ni  Ni18  1  0.24706900  0.24706900  0.31507200  1
  Cu  Cu19  1  0.86243700  0.13756300  0.00000000  1
  Cu  Cu20  1  0.13756300  0.86243700  0.00000000  1
  C  C21  1  0.02429200  0.28523500  0.60443400  1
  C  C22  1  0.45037000  0.87272700  0.61758700  1
  C  C23  1  0.03552100  0.03552100  0.65978800  1
  C  C24  1  0.64969500  0.64969500  0.87013300  1
  C  C25  1  0.54963000  0.12727300  0.38241300  1
  C  C26  1  0.97570800  0.71476500  0.39556600  1
  C  C27  1  0.41416200  0.99986600  0.90513300  1
  C  C28  1  0.58583800  0.00013400  0.09486700  1
  C  C29  1  0.35030500  0.35030500  0.12986700  1
  C  C30  1  0.70963500  0.83390600  0.11722000  1
  C  C31  1  0.60585700  0.71123300  0.59931000  1
  C  C32  1  0.71476500  0.97570800  0.39556600  1
  C  C33  1  0.00013400  0.58583800  0.09486700  1
  C  C34  1  0.16609400  0.29036500  0.88278000  1
  C  C35  1  0.28876700  0.39414300  0.40069000  1
  C  C36  1  0.96447900  0.96447900  0.34021200  1
  C  C37  1  0.83390600  0.70963500  0.11722000  1
  C  C38  1  0.29036500  0.16609400  0.88278000  1
  C  C39  1  0.99986600  0.41416200  0.90513300  1
  C  C40  1  0.54944800  0.80635400  0.87311800  1
  C  C41  1  0.45055200  0.19364600  0.12688200  1
  C  C42  1  0.71123300  0.60585700  0.59931000  1
  C  C43  1  0.80635400  0.54944800  0.87311800  1
  C  C44  1  0.87272700  0.45037000  0.61758700  1
  C  C45  1  0.39414300  0.28876700  0.40069000  1
  C  C46  1  0.19364600  0.45055200  0.12688200  1
  C  C47  1  0.28523500  0.02429200  0.60443400  1
  C  C48  1  0.12727300  0.54963000  0.38241300  1
