# generated using pymatgen
data_Cu2Ni15C28
_symmetry_space_group_name_H-M   'P 1'
_cell_length_a   7.35936700
_cell_length_b   12.06304538
_cell_length_c   12.70985717
_cell_angle_alpha   96.05071389
_cell_angle_beta   99.86381261
_cell_angle_gamma   96.51229777
_symmetry_Int_Tables_number   1
_chemical_formula_structural   Cu2Ni15C28
_chemical_formula_sum   'Cu4 Ni30 C56'
_cell_volume   1095.46385493
_cell_formula_units_Z   2
loop_
 _symmetry_equiv_pos_site_id
 _symmetry_equiv_pos_as_xyz
  1  'x, y, z'
loop_
 _atom_site_type_symbol
 _atom_site_label
 _atom_site_symmetry_multiplicity
 _atom_site_fract_x
 _atom_site_fract_y
 _atom_site_fract_z
 _atom_site_occupancy
  C  C0  1  0.84872000  0.01921600  0.90033600  1
  C  C1  1  0.15128000  0.98078400  0.09966400  1
  C  C2  1  0.73479800  0.03384900  0.01275600  1
  C  C3  1  0.26520200  0.96615100  0.98724400  1
  C  C4  1  0.60196600  0.98303100  0.88192900  1
  C  C5  1  0.39803400  0.01696900  0.11807100  1
  C  C6  1  0.66292600  0.31759900  0.98312000  1
  C  C7  1  0.33707400  0.68240100  0.01688000  1
  C  C8  1  0.61912500  0.20389200  0.05930700  1
  C  C9  1  0.38087500  0.79610800  0.94069300  1
  C  C10  1  0.85254300  0.25514500  0.05094400  1
  C  C11  1  0.14745700  0.74485500  0.94905600  1
  C  C12  1  0.93406600  0.50001800  0.12703200  1
  C  C13  1  0.06593400  0.49998200  0.87296800  1
  C  C14  1  0.68722300  0.49989000  0.10492300  1
  C  C15  1  0.31277700  0.50011000  0.89507700  1
  C  C16  1  0.83004600  0.60283400  0.05317200  1
  C  C17  1  0.16995400  0.39716600  0.94682800  1
  C  C18  1  0.70390400  0.53296800  0.32047800  1
  C  C19  1  0.29609600  0.46703200  0.67952200  1
  C  C20  1  0.93685600  0.50749900  0.31716500  1
  C  C21  1  0.06314400  0.49250100  0.68283500  1
  C  C22  1  0.89505300  0.63396800  0.39057500  1
  C  C23  1  0.10494700  0.36603200  0.60942500  1
  C  C24  1  0.04779100  0.18653800  0.22378200  1
  C  C25  1  0.95220900  0.81346200  0.77621800  1
  C  C26  1  0.32072300  0.21563100  0.18231800  1
  C  C27  1  0.67927700  0.78436900  0.81768200  1
  C  C28  1  0.40636200  0.36189800  0.19660000  1
  C  C29  1  0.59363800  0.63810200  0.80340000  1
  C  C30  1  0.50798600  0.27517500  0.28974300  1
  C  C31  1  0.49201400  0.72482500  0.71025700  1
  C  C32  1  0.18958800  0.41507200  0.44140800  1
  C  C33  1  0.81041200  0.58492800  0.55859200  1
  C  C34  1  0.42400900  0.38410600  0.45282600  1
  C  C35  1  0.57599100  0.61589400  0.54717400  1
  C  C36  1  0.34348600  0.48396800  0.36673200  1
  C  C37  1  0.65651400  0.51603200  0.63326800  1
  C  C38  1  0.75511200  0.08742700  0.44323500  1
  C  C39  1  0.24488800  0.91257300  0.55676500  1
  Ni  Ni40  1  0.67614600  0.13938800  0.70730400  1
  Ni  Ni41  1  0.32385400  0.86061200  0.29269600  1
  Ni  Ni42  1  0.68122400  0.19179000  0.81426800  1
  Ni  Ni43  1  0.31877600  0.80821000  0.18573200  1
  Ni  Ni44  1  0.82762600  0.83034500  0.29950100  1
  Ni  Ni45  1  0.17237400  0.16965500  0.70049900  1
  Ni  Ni46  1  0.83019400  0.73667800  0.22086900  1
  Ni  Ni47  1  0.16980600  0.26332200  0.77913100  1
  Ni  Ni48  1  0.67629400  0.24687200  0.66430300  1
  Ni  Ni49  1  0.32370600  0.75312800  0.33569700  1
  Ni  Ni50  1  0.66987700  0.30455300  0.77548000  1
  Ni  Ni51  1  0.33012300  0.69544700  0.22452000  1
  Ni  Ni52  1  0.79871500  0.90576700  0.21722300  1
  Ni  Ni53  1  0.20128500  0.09423300  0.78277700  1
  Ni  Ni54  1  0.81017900  0.80964100  0.13210200  1
  Ni  Ni55  1  0.18982100  0.19035900  0.86789800  1
  Ni  Ni56  1  0.72175300  0.04159900  0.92679000  1
  Ni  Ni57  1  0.27824700  0.95840100  0.07321000  1
  Ni  Ni58  1  0.70810300  0.23880900  0.00654800  1
  Ni  Ni59  1  0.29189700  0.76119100  0.99345200  1
  Ni  Ni60  1  0.82259800  0.55365900  0.12034300  1
  Ni  Ni61  1  0.17740200  0.44634100  0.87965700  1
  Ni  Ni62  1  0.84503800  0.57300600  0.31841800  1
  Ni  Ni63  1  0.15496200  0.42699400  0.68158200  1
  Ni  Ni64  1  0.07171500  0.25460200  0.29228700  1
  Ni  Ni65  1  0.92828500  0.74539800  0.70771300  1
  Ni  Ni66  1  0.37667700  0.29020200  0.24074800  1
  Ni  Ni67  1  0.62332300  0.70979800  0.75925200  1
  Ni  Ni68  1  0.30371200  0.40477700  0.39775000  1
  Ni  Ni69  1  0.69628800  0.59522300  0.60225000  1
  Cu  Cu70  1  0.67460200  0.00895600  0.64175800  1
  Cu  Cu71  1  0.32539800  0.99104400  0.35824200  1
  Cu  Cu72  1  0.83926900  0.85650300  0.43461500  1
  Cu  Cu73  1  0.16073100  0.14349700  0.56538500  1
  C  C74  1  0.69547300  0.15788000  0.91055500  1
  C  C75  1  0.30452700  0.84212000  0.08944500  1
  C  C76  1  0.84290100  0.62827900  0.22129300  1
  C  C77  1  0.15709900  0.37172100  0.77870700  1
  C  C78  1  0.24292000  0.31398000  0.30934400  1
  C  C79  1  0.75708000  0.68602000  0.69065600  1
  C  C80  1  0.68485500  0.27426200  0.57329900  1
  C  C81  1  0.31514500  0.72573800  0.42670100  1
  C  C82  1  0.65666900  0.39951300  0.81707800  1
  C  C83  1  0.34333100  0.60048700  0.18292200  1
  C  C84  1  0.77168600  0.00577300  0.22017600  1
  C  C85  1  0.22831400  0.99422700  0.77982400  1
  C  C86  1  0.80848100  0.79588500  0.03475300  1
  C  C87  1  0.19151900  0.20411500  0.96524700  1
  C  C88  1  0.94856200  0.27175800  0.34645700  1
  C  C89  1  0.05143800  0.72824200  0.65354300  1
