# generated using pymatgen
data_CuNiC8
_symmetry_space_group_name_H-M   'P 1'
_cell_length_a   9.91852500
_cell_length_b   5.61792900
_cell_length_c   9.61638740
_cell_angle_alpha   86.84177256
_cell_angle_beta   90.00000000
_cell_angle_gamma   90.00000000
_symmetry_Int_Tables_number   1
_chemical_formula_structural   CuNiC8
_chemical_formula_sum   'Cu4 Ni4 C32'
_cell_volume   535.02636049
_cell_formula_units_Z   4
loop_
 _symmetry_equiv_pos_site_id
 _symmetry_equiv_pos_as_xyz
  1  'x, y, z'
loop_
 _atom_site_type_symbol
 _atom_site_label
 _atom_site_symmetry_multiplicity
 _atom_site_fract_x
 _atom_site_fract_y
 _atom_site_fract_z
 _atom_site_occupancy
  C  C0  1  0.31903500  0.73628400  0.50080700  1
  C  C1  1  0.81903500  0.26371600  0.99919300  1
  C  C2  1  0.68096500  0.26371600  0.49919300  1
  C  C3  1  0.18096500  0.73628400  0.00080700  1
  Ni  Ni4  1  0.39671800  0.30169900  0.81108600  1
  Ni  Ni5  1  0.89671800  0.69830100  0.68891400  1
  Ni  Ni6  1  0.10328200  0.30169900  0.31108600  1
  Ni  Ni7  1  0.60328200  0.69830100  0.18891400  1
  Cu  Cu8  1  0.61313100  0.80558400  0.81138500  1
  Cu  Cu9  1  0.38686900  0.19441600  0.18861500  1
  Cu  Cu10  1  0.88686900  0.80558400  0.31138500  1
  Cu  Cu11  1  0.11313100  0.19441600  0.68861500  1
  C  C12  1  0.44680200  0.89117300  0.12674200  1
  C  C13  1  0.04713700  0.62840200  0.36680300  1
  C  C14  1  0.71139900  0.53081400  0.74987300  1
  C  C15  1  0.28860100  0.46918600  0.25012700  1
  C  C16  1  0.45549800  0.11707100  0.36395600  1
  C  C17  1  0.81300800  0.74395000  0.49508700  1
  C  C18  1  0.77937900  0.97567000  0.75117400  1
  C  C19  1  0.95549800  0.88292900  0.13604400  1
  C  C20  1  0.45286300  0.62840200  0.86680300  1
  C  C21  1  0.21139900  0.46918600  0.75012700  1
  C  C22  1  0.05319800  0.89117300  0.62674200  1
  C  C23  1  0.55319800  0.10882700  0.87325800  1
  C  C24  1  0.27937900  0.02433000  0.74882600  1
  C  C25  1  0.95707200  0.62107800  0.87618200  1
  C  C26  1  0.54450200  0.88292900  0.63604400  1
  C  C27  1  0.04450200  0.11707100  0.86395600  1
  C  C28  1  0.22062100  0.02433000  0.24882600  1
  C  C29  1  0.94680200  0.10882700  0.37325800  1
  C  C30  1  0.45707200  0.37892200  0.62381800  1
  C  C31  1  0.95286300  0.37159800  0.63319700  1
  C  C32  1  0.04292800  0.37892200  0.12381800  1
  C  C33  1  0.72062100  0.97567000  0.25117400  1
  C  C34  1  0.54292800  0.62107800  0.37618200  1
  C  C35  1  0.31300800  0.25605000  0.00491300  1
  C  C36  1  0.18699200  0.25605000  0.50491300  1
  C  C37  1  0.68699200  0.74395000  0.99508700  1
  C  C38  1  0.54713700  0.37159800  0.13319700  1
  C  C39  1  0.78860100  0.53081400  0.24987300  1
