# generated using pymatgen
data_Cu12Ni4C5
_symmetry_space_group_name_H-M   'P 1'
_cell_length_a   10.20327448
_cell_length_b   10.20327448
_cell_length_c   14.95364829
_cell_angle_alpha   54.44105045
_cell_angle_beta   54.44105045
_cell_angle_gamma   22.05922705
_symmetry_Int_Tables_number   1
_chemical_formula_structural   Cu12Ni4C5
_chemical_formula_sum   'Cu12 Ni4 C5'
_cell_volume   471.00003347
_cell_formula_units_Z   1
loop_
 _symmetry_equiv_pos_site_id
 _symmetry_equiv_pos_as_xyz
  1  'x, y, z'
loop_
 _atom_site_type_symbol
 _atom_site_label
 _atom_site_symmetry_multiplicity
 _atom_site_fract_x
 _atom_site_fract_y
 _atom_site_fract_z
 _atom_site_occupancy
  C  C0  1  0.24045800  0.24045800  0.86277500  1
  C  C1  1  0.75954200  0.75954200  0.13722500  1
  C  C2  1  0.19930400  0.19930400  0.62027200  1
  C  C3  1  0.80069600  0.80069600  0.37972800  1
  C  C4  1  0.00000000  0.00000000  0.00000000  1
  Ni  Ni5  1  0.10643700  0.10643700  0.45212700  1
  Ni  Ni6  1  0.89356300  0.89356300  0.54787300  1
  Ni  Ni7  1  0.46154100  0.46154100  0.81454400  1
  Ni  Ni8  1  0.53845900  0.53845900  0.18545600  1
  Cu  Cu9  1  0.05817600  0.05817600  0.80208200  1
  Cu  Cu10  1  0.94182400  0.94182400  0.19791800  1
  Cu  Cu11  1  0.59956600  0.59956600  0.97895600  1
  Cu  Cu12  1  0.40043400  0.40043400  0.02104400  1
  Cu  Cu13  1  0.83247700  0.83247700  0.89490200  1
  Cu  Cu14  1  0.16752300  0.16752300  0.10509800  1
  Cu  Cu15  1  0.41116600  0.41116600  0.65004500  1
  Cu  Cu16  1  0.58883400  0.58883400  0.34995500  1
  Cu  Cu17  1  0.25742900  0.25742900  0.29309700  1
  Cu  Cu18  1  0.74257100  0.74257100  0.70690300  1
  Cu  Cu19  1  0.34281700  0.34281700  0.45243800  1
  Cu  Cu20  1  0.65718300  0.65718300  0.54756200  1
