# generated using pymatgen
data_Cu2NiC8
_symmetry_space_group_name_H-M   'P 1'
_cell_length_a   6.60907300
_cell_length_b   7.33969600
_cell_length_c   12.93385481
_cell_angle_alpha   62.48875509
_cell_angle_beta   90.00000000
_cell_angle_gamma   90.00000000
_symmetry_Int_Tables_number   1
_chemical_formula_structural   Cu2NiC8
_chemical_formula_sum   'Cu8 Ni4 C32'
_cell_volume   556.45640465
_cell_formula_units_Z   4
loop_
 _symmetry_equiv_pos_site_id
 _symmetry_equiv_pos_as_xyz
  1  'x, y, z'
loop_
 _atom_site_type_symbol
 _atom_site_label
 _atom_site_symmetry_multiplicity
 _atom_site_fract_x
 _atom_site_fract_y
 _atom_site_fract_z
 _atom_site_occupancy
  C  C0  1  0.35232200  0.73772600  0.52588500  1
  C  C1  1  0.64767800  0.26227400  0.47411500  1
  C  C2  1  0.85232200  0.26227400  0.97411500  1
  C  C3  1  0.14767800  0.73772600  0.02588500  1
  Ni  Ni4  1  0.39738500  0.71298600  0.26978900  1
  Ni  Ni5  1  0.60261500  0.28701400  0.73021100  1
  Ni  Ni6  1  0.89738500  0.28701400  0.23021100  1
  Ni  Ni7  1  0.10261500  0.71298600  0.76978900  1
  Cu  Cu8  1  0.65751400  0.70957600  0.04921000  1
  Cu  Cu9  1  0.34248600  0.29042400  0.95079000  1
  Cu  Cu10  1  0.15751400  0.29042400  0.45079000  1
  Cu  Cu11  1  0.84248600  0.70957600  0.54921000  1
  Cu  Cu12  1  0.91000400  0.80306000  0.28037100  1
  Cu  Cu13  1  0.08999600  0.19694000  0.71962900  1
  Cu  Cu14  1  0.41000400  0.19694000  0.21962900  1
  Cu  Cu15  1  0.58999600  0.80306000  0.78037100  1
  C  C16  1  0.37470900  0.92777600  0.30110500  1
  C  C17  1  0.62529100  0.07222400  0.69889500  1
  C  C18  1  0.87470900  0.07222400  0.19889500  1
  C  C19  1  0.12529100  0.92777600  0.80110500  1
  C  C20  1  0.82335900  0.90712700  0.02324000  1
  C  C21  1  0.17664100  0.09287300  0.97676000  1
  C  C22  1  0.32335900  0.09287300  0.47676000  1
  C  C23  1  0.67664100  0.90712700  0.52324000  1
  C  C24  1  0.61548900  0.27527900  0.27726700  1
  C  C25  1  0.38451100  0.72472100  0.72273300  1
  C  C26  1  0.11548900  0.72472100  0.22273300  1
  C  C27  1  0.88451100  0.27527900  0.77726700  1
  C  C28  1  0.99812800  0.74680400  0.42694700  1
  C  C29  1  0.00187200  0.25319600  0.57305300  1
  C  C30  1  0.49812800  0.25319600  0.07305300  1
  C  C31  1  0.50187200  0.74680400  0.92694700  1
  C  C32  1  0.44922500  0.70355900  0.13549600  1
  C  C33  1  0.55077500  0.29644100  0.86450400  1
  C  C34  1  0.94922500  0.29644100  0.36450400  1
  C  C35  1  0.05077500  0.70355900  0.63549600  1
  C  C36  1  0.83886500  0.50481000  0.08606200  1
  C  C37  1  0.16113500  0.49519000  0.91393800  1
  C  C38  1  0.33886500  0.49519000  0.41393800  1
  C  C39  1  0.66113500  0.50481000  0.58606200  1
  C  C40  1  0.68179200  0.66086100  0.31274500  1
  C  C41  1  0.31820800  0.33913900  0.68725500  1
  C  C42  1  0.18179200  0.33913900  0.18725500  1
  C  C43  1  0.81820800  0.66086100  0.81274500  1
