# generated using pymatgen
data_CuNi2C9
_symmetry_space_group_name_H-M   'P 1'
_cell_length_a   2.85832966
_cell_length_b   2.85832966
_cell_length_c   14.42732700
_cell_angle_alpha   90.00000000
_cell_angle_beta   90.00000000
_cell_angle_gamma   119.99999213
_symmetry_Int_Tables_number   1
_chemical_formula_structural   CuNi2C9
_chemical_formula_sum   'Cu1 Ni2 C9'
_cell_volume   102.08012031
_cell_formula_units_Z   1
loop_
 _symmetry_equiv_pos_site_id
 _symmetry_equiv_pos_as_xyz
  1  'x, y, z'
loop_
 _atom_site_type_symbol
 _atom_site_label
 _atom_site_symmetry_multiplicity
 _atom_site_fract_x
 _atom_site_fract_y
 _atom_site_fract_z
 _atom_site_occupancy
  C  C0  1  0.66666700  0.33333300  0.83233400  1
  C  C1  1  0.33333300  0.66666700  0.16766600  1
  C  C2  1  0.00000000  0.00000000  0.50000000  1
  Ni  Ni3  1  0.66666700  0.33333300  0.33314200  1
  Ni  Ni4  1  0.33333300  0.66666700  0.66685800  1
  Cu  Cu5  1  0.00000000  0.00000000  0.00000000  1
  C  C6  1  0.33333300  0.66666700  0.92160600  1
  C  C7  1  0.00000000  0.00000000  0.26274000  1
  C  C8  1  0.66666700  0.33333300  0.59584800  1
  C  C9  1  0.66666700  0.33333300  0.07839400  1
  C  C10  1  0.33333300  0.66666700  0.40415200  1
  C  C11  1  0.00000000  0.00000000  0.73726000  1
