# generated using pymatgen
data_CuNiC38
_symmetry_space_group_name_H-M   'P 1'
_cell_length_a   5.29174932
_cell_length_b   10.20958189
_cell_length_c   10.47761967
_cell_angle_alpha   60.81128926
_cell_angle_beta   82.69111480
_cell_angle_gamma   74.85778684
_symmetry_Int_Tables_number   1
_chemical_formula_structural   CuNiC38
_chemical_formula_sum   'Cu1 Ni1 C38'
_cell_volume   477.03103700
_cell_formula_units_Z   1
loop_
 _symmetry_equiv_pos_site_id
 _symmetry_equiv_pos_as_xyz
  1  'x, y, z'
loop_
 _atom_site_type_symbol
 _atom_site_label
 _atom_site_symmetry_multiplicity
 _atom_site_fract_x
 _atom_site_fract_y
 _atom_site_fract_z
 _atom_site_occupancy
  C  C0  1  0.97854300  0.50915600  0.00387000  1
  Ni  Ni1  1  0.50039800  0.27396800  0.45148900  1
  Cu  Cu2  1  0.50041500  0.72517500  0.54906800  1
  C  C3  1  0.50030000  0.08335800  0.83359100  1
  C  C4  1  0.50007700  0.91595200  0.16901400  1
  C  C5  1  0.99975800  0.00188100  0.99718400  1
  C  C6  1  0.00049900  0.18359400  0.63319500  1
  C  C7  1  0.00014700  0.82090900  0.35881800  1
  C  C8  1  0.19568000  0.45231400  0.66121400  1
  C  C9  1  0.19651200  0.11479200  0.34133900  1
  C  C10  1  0.80408700  0.54413700  0.34182000  1
  C  C11  1  0.80471200  0.88744300  0.66063000  1
  C  C12  1  0.69712600  0.35902100  0.83188500  1
  C  C13  1  0.70094200  0.19018300  0.16972900  1
  C  C14  1  0.29957300  0.64084800  0.16997000  1
  C  C15  1  0.30325400  0.81016500  0.83153800  1
  C  C16  1  0.40242100  0.45908500  0.76756000  1
  C  C17  1  0.40361100  0.22213300  0.22932500  1
  C  C18  1  0.59717900  0.54906100  0.22933600  1
  C  C19  1  0.59832200  0.77394800  0.76773500  1
  C  C20  1  0.70107700  0.32939400  0.99996000  1
  C  C21  1  0.30209700  0.67155300  0.00000900  1
  C  C22  1  0.77590800  0.19978000  0.82251700  1
  C  C23  1  0.78867500  0.02338200  0.17360200  1
  C  C24  1  0.21152500  0.80345100  0.17411600  1
  C  C25  1  0.22390700  0.97879600  0.82182100  1
  C  C26  1  0.27938200  0.28406800  0.66738100  1
  C  C27  1  0.28017000  0.94606500  0.34510900  1
  C  C28  1  0.72014700  0.70907500  0.34531800  1
  C  C29  1  0.72069100  0.04934900  0.66691000  1
  C  C30  1  0.26737500  0.09706700  0.99016000  1
  C  C31  1  0.73315100  0.91230600  0.98998600  1
  C  C32  1  0.89881800  0.47231500  0.73816100  1
  C  C33  1  0.90440900  0.21211300  0.25920900  1
  C  C34  1  0.09541100  0.52966500  0.25867200  1
  C  C35  1  0.10076600  0.78990800  0.73886700  1
  C  C36  1  0.20554600  0.60735800  0.51061700  1
  C  C37  1  0.20464000  0.11145200  0.49431700  1
  C  C38  1  0.79586200  0.39403100  0.49420200  1
  C  C39  1  0.79488800  0.88195000  0.51075800  1
