# generated using pymatgen
data_Cu4Ni4C3
_symmetry_space_group_name_H-M   'P 1'
_cell_length_a   8.24009530
_cell_length_b   8.24009530
_cell_length_c   10.35246145
_cell_angle_alpha   88.25777635
_cell_angle_beta   88.25777635
_cell_angle_gamma   63.29781443
_symmetry_Int_Tables_number   1
_chemical_formula_structural   Cu4Ni4C3
_chemical_formula_sum   'Cu16 Ni16 C12'
_cell_volume   627.55912254
_cell_formula_units_Z   4
loop_
 _symmetry_equiv_pos_site_id
 _symmetry_equiv_pos_as_xyz
  1  'x, y, z'
loop_
 _atom_site_type_symbol
 _atom_site_label
 _atom_site_symmetry_multiplicity
 _atom_site_fract_x
 _atom_site_fract_y
 _atom_site_fract_z
 _atom_site_occupancy
  C  C0  1  0.02756200  0.47870700  0.29964700  1
  C  C1  1  0.52129300  0.97243800  0.20035300  1
  C  C2  1  0.97243800  0.52129300  0.70035300  1
  C  C3  1  0.47870700  0.02756200  0.79964700  1
  C  C4  1  0.00821000  0.99179000  0.75000000  1
  C  C5  1  0.99179000  0.00821000  0.25000000  1
  C  C6  1  0.27131200  0.11570900  0.48951200  1
  C  C7  1  0.88429100  0.72868800  0.01048800  1
  C  C8  1  0.72868800  0.88429100  0.51048800  1
  C  C9  1  0.11570900  0.27131200  0.98951200  1
  C  C10  1  0.63748600  0.36251400  0.75000000  1
  C  C11  1  0.36251400  0.63748600  0.25000000  1
  Ni  Ni12  1  0.17806900  0.66996500  0.30606700  1
  Ni  Ni13  1  0.33003500  0.82193100  0.19393300  1
  Ni  Ni14  1  0.82193100  0.33003500  0.69393300  1
  Ni  Ni15  1  0.66996500  0.17806900  0.80606700  1
  Ni  Ni16  1  0.50115800  0.41653900  0.64670400  1
  Ni  Ni17  1  0.58346100  0.49884200  0.85329600  1
  Ni  Ni18  1  0.49884200  0.58346100  0.35329600  1
  Ni  Ni19  1  0.41653900  0.50115800  0.14670400  1
  Ni  Ni20  1  0.50256100  0.08451300  0.53463700  1
  Ni  Ni21  1  0.91548700  0.49743900  0.96536300  1
  Ni  Ni22  1  0.49743900  0.91548700  0.46536300  1
  Ni  Ni23  1  0.08451300  0.50256100  0.03463700  1
  Ni  Ni24  1  0.20298800  0.64601400  0.66258300  1
  Ni  Ni25  1  0.35398600  0.79701200  0.83741700  1
  Ni  Ni26  1  0.79701200  0.35398600  0.33741700  1
  Ni  Ni27  1  0.64601400  0.20298800  0.16258300  1
  Cu  Cu28  1  0.75947300  0.95696900  0.34598400  1
  Cu  Cu29  1  0.04303100  0.24052700  0.15401600  1
  Cu  Cu30  1  0.24052700  0.04303100  0.65401600  1
  Cu  Cu31  1  0.95696900  0.75947300  0.84598400  1
  Cu  Cu32  1  0.88251000  0.95230000  0.57214500  1
  Cu  Cu33  1  0.04770000  0.11749000  0.92785500  1
  Cu  Cu34  1  0.11749000  0.04770000  0.42785500  1
  Cu  Cu35  1  0.95230000  0.88251000  0.07214500  1
  Cu  Cu36  1  0.87221100  0.65436700  0.47541300  1
  Cu  Cu37  1  0.34563300  0.12778900  0.02458700  1
  Cu  Cu38  1  0.12778900  0.34563300  0.52458700  1
  Cu  Cu39  1  0.65436700  0.87221100  0.97541300  1
  Cu  Cu40  1  0.20163500  0.29853500  0.82457300  1
  Cu  Cu41  1  0.70146500  0.79836500  0.67542700  1
  Cu  Cu42  1  0.79836500  0.70146500  0.17542700  1
  Cu  Cu43  1  0.29853500  0.20163500  0.32457300  1
