# generated using pymatgen
data_Cu3(NiC)10
_symmetry_space_group_name_H-M   'P 1'
_cell_length_a   11.37050286
_cell_length_b   11.37050286
_cell_length_c   9.21115329
_cell_angle_alpha   73.96406741
_cell_angle_beta   73.96406741
_cell_angle_gamma   100.08207250
_symmetry_Int_Tables_number   1
_chemical_formula_structural   Cu3(NiC)10
_chemical_formula_sum   'Cu12 Ni40 C40'
_cell_volume   1058.50390583
_cell_formula_units_Z   4
loop_
 _symmetry_equiv_pos_site_id
 _symmetry_equiv_pos_as_xyz
  1  'x, y, z'
loop_
 _atom_site_type_symbol
 _atom_site_label
 _atom_site_symmetry_multiplicity
 _atom_site_fract_x
 _atom_site_fract_y
 _atom_site_fract_z
 _atom_site_occupancy
  C  C0  1  0.40636900  0.59363100  0.25000000  1
  C  C1  1  0.59363100  0.40636900  0.75000000  1
  C  C2  1  0.85969800  0.14030200  0.75000000  1
  C  C3  1  0.14030200  0.85969800  0.25000000  1
  C  C4  1  0.07049500  0.43601400  0.62442100  1
  C  C5  1  0.56398600  0.92950500  0.87557900  1
  C  C6  1  0.92950500  0.56398600  0.37557900  1
  C  C7  1  0.43601400  0.07049500  0.12442100  1
  C  C8  1  0.84276500  0.31996500  0.12396800  1
  C  C9  1  0.68003500  0.15723500  0.37603200  1
  C  C10  1  0.15723500  0.68003500  0.87603200  1
  C  C11  1  0.31996500  0.84276500  0.62396800  1
  C  C12  1  0.24635900  0.34780900  0.98440300  1
  C  C13  1  0.65219100  0.75364100  0.51559700  1
  C  C14  1  0.75364100  0.65219100  0.01559700  1
  C  C15  1  0.34780900  0.24635900  0.48440300  1
  C  C16  1  0.88130800  0.33299900  0.37472200  1
  C  C17  1  0.66700100  0.11869200  0.12527800  1
  C  C18  1  0.11869200  0.66700100  0.62527800  1
  C  C19  1  0.33299900  0.88130800  0.87472200  1
  C  C20  1  0.17379900  0.16474200  0.21716900  1
  C  C21  1  0.83525800  0.82620100  0.28283100  1
  C  C22  1  0.82620100  0.83525800  0.78283100  1
  C  C23  1  0.16474200  0.17379900  0.71716900  1
  Ni  Ni24  1  0.06324000  0.40764400  0.75049300  1
  Ni  Ni25  1  0.59235600  0.93676000  0.74950700  1
  Ni  Ni26  1  0.93676000  0.59235600  0.24950700  1
  Ni  Ni27  1  0.40764400  0.06324000  0.25049300  1
  Ni  Ni28  1  0.94528900  0.38236400  0.87051400  1
  Ni  Ni29  1  0.61763600  0.05471100  0.62948600  1
  Ni  Ni30  1  0.05471100  0.61763600  0.12948600  1
  Ni  Ni31  1  0.38236400  0.94528900  0.37051400  1
  Ni  Ni32  1  0.93532800  0.34051400  0.03271200  1
  Ni  Ni33  1  0.65948600  0.06467200  0.46728800  1
  Ni  Ni34  1  0.06467200  0.65948600  0.96728800  1
  Ni  Ni35  1  0.34051400  0.93532800  0.53271200  1
  Ni  Ni36  1  0.04258200  0.32453600  0.07296300  1
  Ni  Ni37  1  0.67546400  0.95741800  0.42703700  1
  Ni  Ni38  1  0.95741800  0.67546400  0.92703700  1
  Ni  Ni39  1  0.32453600  0.04258200  0.57296300  1
  Ni  Ni40  1  0.16127600  0.35562900  0.95408100  1
  Ni  Ni41  1  0.64437100  0.83872400  0.54591900  1
  Ni  Ni42  1  0.83872400  0.64437100  0.04591900  1
  Ni  Ni43  1  0.35562900  0.16127600  0.45408100  1
  Ni  Ni44  1  0.17168600  0.39613700  0.79202700  1
  Ni  Ni45  1  0.60386300  0.82831400  0.70797300  1
  Ni  Ni46  1  0.82831400  0.60386300  0.20797300  1
  Ni  Ni47  1  0.39613700  0.17168600  0.29202700  1
  Ni  Ni48  1  0.94980900  0.27758600  0.37242900  1
  Ni  Ni49  1  0.72241400  0.05019100  0.12757100  1
  Ni  Ni50  1  0.05019100  0.72241400  0.62757100  1
  Ni  Ni51  1  0.27758600  0.94980900  0.87242900  1
  Ni  Ni52  1  0.10096400  0.19221600  0.29424500  1
  Ni  Ni53  1  0.80778400  0.89903600  0.20575500  1
  Ni  Ni54  1  0.89903600  0.80778400  0.70575500  1
  Ni  Ni55  1  0.19221600  0.10096400  0.79424500  1
  Ni  Ni56  1  0.82677100  0.39379000  0.82857500  1
  Ni  Ni57  1  0.60621000  0.17322900  0.67142500  1
  Ni  Ni58  1  0.17322900  0.60621000  0.17142500  1
  Ni  Ni59  1  0.39379000  0.82677100  0.32857500  1
  Ni  Ni60  1  0.29959300  0.41965100  0.66452600  1
  Ni  Ni61  1  0.58034900  0.70040700  0.83547400  1
  Ni  Ni62  1  0.70040700  0.58034900  0.33547400  1
  Ni  Ni63  1  0.41965100  0.29959300  0.16452600  1
  Cu  Cu64  1  0.03178500  0.27031500  0.23767000  1
  Cu  Cu65  1  0.72968500  0.96821500  0.26233000  1
  Cu  Cu66  1  0.96821500  0.72968500  0.76233000  1
  Cu  Cu67  1  0.27031500  0.03178500  0.73767000  1
  Cu  Cu68  1  0.96861100  0.20832900  0.50045200  1
  Cu  Cu69  1  0.79167100  0.03138900  0.99954800  1
  Cu  Cu70  1  0.03138900  0.79167100  0.49954800  1
  Cu  Cu71  1  0.20832900  0.96861100  0.00045200  1
  Cu  Cu72  1  0.06492500  0.15418600  0.45152100  1
  Cu  Cu73  1  0.84581400  0.93507500  0.04847900  1
  Cu  Cu74  1  0.93507500  0.84581400  0.54847900  1
  Cu  Cu75  1  0.15418600  0.06492500  0.95152100  1
  C  C76  1  0.83194400  0.41472300  0.68274300  1
  C  C77  1  0.58527700  0.16805600  0.81725700  1
  C  C78  1  0.16805600  0.58527700  0.31725700  1
  C  C79  1  0.41472300  0.83194400  0.18274300  1
  C  C80  1  0.72428100  0.38049200  0.93982400  1
  C  C81  1  0.61950800  0.27571900  0.56017600  1
  C  C82  1  0.27571900  0.61950800  0.06017600  1
  C  C83  1  0.38049200  0.72428100  0.43982400  1
  C  C84  1  0.30220000  0.44204900  0.52078700  1
  C  C85  1  0.55795100  0.69780000  0.97921300  1
  C  C86  1  0.69780000  0.55795100  0.47921300  1
  C  C87  1  0.44204900  0.30220000  0.02078700  1
  C  C88  1  0.39397100  0.40999100  0.71026700  1
  C  C89  1  0.59000900  0.60602900  0.78973300  1
  C  C90  1  0.60602900  0.59000900  0.28973300  1
  C  C91  1  0.40999100  0.39397100  0.21026700  1
