# generated using pymatgen
data_Cu3Ni2C3
_symmetry_space_group_name_H-M   'P 1'
_cell_length_a   10.15743401
_cell_length_b   10.15743401
_cell_length_c   16.84735885
_cell_angle_alpha   90.00000000
_cell_angle_beta   90.00000000
_cell_angle_gamma   112.23592819
_symmetry_Int_Tables_number   1
_chemical_formula_structural   Cu3Ni2C3
_chemical_formula_sum   'Cu24 Ni16 C24'
_cell_volume   1608.93647033
_cell_formula_units_Z   8
loop_
 _symmetry_equiv_pos_site_id
 _symmetry_equiv_pos_as_xyz
  1  'x, y, z'
loop_
 _atom_site_type_symbol
 _atom_site_label
 _atom_site_symmetry_multiplicity
 _atom_site_fract_x
 _atom_site_fract_y
 _atom_site_fract_z
 _atom_site_occupancy
  C  C0  1  0.51680510  0.02431511  0.87444114  1
  C  C1  1  0.48319490  0.97568489  0.37444114  1
  C  C2  1  0.97568489  0.48319490  0.62555886  1
  C  C3  1  0.02431511  0.51680510  0.12555886  1
  C  C4  1  0.87465588  0.12534412  0.75000000  1
  C  C5  1  0.12534412  0.87465588  0.25000000  1
  C  C6  1  0.82204771  0.10420219  0.98420861  1
  C  C7  1  0.17795229  0.89579781  0.48420861  1
  C  C8  1  0.89579781  0.17795229  0.51579139  1
  C  C9  1  0.10420219  0.82204771  0.01579139  1
  C  C10  1  0.72485026  0.75533464  0.89534808  1
  C  C11  1  0.27514974  0.24466536  0.39534808  1
  C  C12  1  0.24466536  0.27514974  0.60465192  1
  C  C13  1  0.75533464  0.72485026  0.10465192  1
  C  C14  1  0.51809711  0.05220681  0.60589229  1
  C  C15  1  0.48190289  0.94779319  0.10589229  1
  C  C16  1  0.94779319  0.48190289  0.89410771  1
  C  C17  1  0.05220681  0.51809711  0.39410771  1
  C  C18  1  0.38925616  0.64338119  0.99669504  1
  C  C19  1  0.61074384  0.35661881  0.49669504  1
  C  C20  1  0.35661881  0.61074384  0.50330496  1
  C  C21  1  0.64338119  0.38925616  0.00330496  1
  C  C22  1  0.66370964  0.33629036  0.75000000  1
  C  C23  1  0.33629036  0.66370964  0.25000000  1
  Ni  Ni24  1  0.35701438  0.16217718  0.52528213  1
  Ni  Ni25  1  0.64298562  0.83782282  0.02528213  1
  Ni  Ni26  1  0.83782282  0.64298562  0.97471787  1
  Ni  Ni27  1  0.16217718  0.35701438  0.47471787  1
  Ni  Ni28  1  0.77654455  0.21263979  0.85017766  1
  Ni  Ni29  1  0.22345545  0.78736021  0.35017766  1
  Ni  Ni30  1  0.78736021  0.22345545  0.64982234  1
  Ni  Ni31  1  0.21263979  0.77654455  0.14982234  1
  Ni  Ni32  1  0.71413711  0.27112879  0.90696586  1
  Ni  Ni33  1  0.28586289  0.72887121  0.40696586  1
  Ni  Ni34  1  0.72887121  0.28586289  0.59303414  1
  Ni  Ni35  1  0.27112879  0.71413711  0.09303414  1
  Ni  Ni36  1  0.58302868  0.89864648  0.96827260  1
  Ni  Ni37  1  0.41697132  0.10135352  0.46827260  1
  Ni  Ni38  1  0.10135352  0.41697132  0.53172740  1
  Ni  Ni39  1  0.89864648  0.58302868  0.03172740  1
  Cu  Cu40  1  0.23389388  0.74592459  0.86950418  1
  Cu  Cu41  1  0.76610612  0.25407541  0.36950418  1
  Cu  Cu42  1  0.25407541  0.76610612  0.63049582  1
  Cu  Cu43  1  0.74592459  0.23389388  0.13049582  1
  Cu  Cu44  1  0.48498563  0.47413504  0.86869350  1
  Cu  Cu45  1  0.51501437  0.52586496  0.36869350  1
  Cu  Cu46  1  0.52586496  0.51501437  0.63130650  1
  Cu  Cu47  1  0.47413504  0.48498563  0.13130650  1
  Cu  Cu48  1  0.64263430  0.88100784  0.50229731  1
  Cu  Cu49  1  0.35736570  0.11899216  0.00229731  1
  Cu  Cu50  1  0.11899216  0.35736570  0.99770269  1
  Cu  Cu51  1  0.88100784  0.64263430  0.49770269  1
  Cu  Cu52  1  0.60291975  0.86535114  0.74253420  1
  Cu  Cu53  1  0.39708025  0.13464886  0.24253420  1
  Cu  Cu54  1  0.13464886  0.39708025  0.75746580  1
  Cu  Cu55  1  0.86535114  0.60291975  0.25746580  1
  Cu  Cu56  1  0.35988095  0.12764321  0.74190467  1
  Cu  Cu57  1  0.64011905  0.87235679  0.24190467  1
  Cu  Cu58  1  0.87235679  0.64011905  0.75809533  1
  Cu  Cu59  1  0.12764321  0.35988095  0.25809533  1
  Cu  Cu60  1  0.99057323  0.00282393  0.38209355  1
  Cu  Cu61  1  0.00942677  0.99717607  0.88209355  1
  Cu  Cu62  1  0.99717607  0.00942677  0.11790645  1
  Cu  Cu63  1  0.00282393  0.99057323  0.61790645  1
