# generated using pymatgen
data_Cu2NiC20
_symmetry_space_group_name_H-M   'P 1'
_cell_length_a   7.12570172
_cell_length_b   7.16021900
_cell_length_c   8.35397954
_cell_angle_alpha   115.37566625
_cell_angle_beta   112.11048062
_cell_angle_gamma   90.00000000
_symmetry_Int_Tables_number   1
_chemical_formula_structural   Cu2NiC20
_chemical_formula_sum   'Cu2 Ni1 C20'
_cell_volume   350.10112481
_cell_formula_units_Z   1
loop_
 _symmetry_equiv_pos_site_id
 _symmetry_equiv_pos_as_xyz
  1  'x, y, z'
loop_
 _atom_site_type_symbol
 _atom_site_label
 _atom_site_symmetry_multiplicity
 _atom_site_fract_x
 _atom_site_fract_y
 _atom_site_fract_z
 _atom_site_occupancy
  C  C0  1  0.36569200  0.25151900  0.50303900  1
  C  C1  1  0.63430800  0.74848100  0.49696100  1
  Ni  Ni2  1  0.00000000  0.00000000  0.00000000  1
  Cu  Cu3  1  0.86607300  0.29617600  0.59235300  1
  Cu  Cu4  1  0.13392700  0.70382400  0.40764700  1
  C  C5  1  0.00000000  0.33086100  0.00000000  1
  C  C6  1  0.00000000  0.66913900  0.00000000  1
  C  C7  1  0.87415200  0.07687200  0.15374300  1
  C  C8  1  0.12584800  0.92312800  0.84625700  1
  C  C9  1  0.68697100  0.44686300  0.52881600  1
  C  C10  1  0.68697100  0.08195200  0.52881600  1
  C  C11  1  0.31302900  0.55313700  0.47118400  1
  C  C12  1  0.31302900  0.91804800  0.47118400  1
  C  C13  1  0.05130800  0.43982700  0.87965400  1
  C  C14  1  0.94869200  0.56017300  0.12034600  1
  C  C15  1  0.07032400  0.26283300  0.52566500  1
  C  C16  1  0.92967600  0.73716700  0.47433500  1
  C  C17  1  0.49664000  0.38245900  0.76491700  1
  C  C18  1  0.50336000  0.61754100  0.23508300  1
  C  C19  1  0.25393700  0.11317500  0.22635000  1
  C  C20  1  0.74606300  0.88682500  0.77365000  1
  C  C21  1  0.50000000  0.08501000  0.00000000  1
  C  C22  1  0.50000000  0.91499000  0.00000000  1
