# generated using pymatgen
data_Cu(NiC11)2
_symmetry_space_group_name_H-M   'P 1'
_cell_length_a   8.95638154
_cell_length_b   8.95638154
_cell_length_c   8.95638154
_cell_angle_alpha   136.30938345
_cell_angle_beta   129.64432236
_cell_angle_gamma   68.83222590
_symmetry_Int_Tables_number   1
_chemical_formula_structural   Cu(NiC11)2
_chemical_formula_sum   'Cu1 Ni2 C22'
_cell_volume   375.29874590
_cell_formula_units_Z   1
loop_
 _symmetry_equiv_pos_site_id
 _symmetry_equiv_pos_as_xyz
  1  'x, y, z'
loop_
 _atom_site_type_symbol
 _atom_site_label
 _atom_site_symmetry_multiplicity
 _atom_site_fract_x
 _atom_site_fract_y
 _atom_site_fract_z
 _atom_site_occupancy
  Ni  Ni0  1  0.73802300  0.59309300  0.85507100  1
  Ni  Ni1  1  0.26197700  0.11704800  0.85507100  1
  Cu  Cu2  1  0.50000000  0.52487000  0.02487000  1
  C  C3  1  0.69936700  0.04138200  0.94264000  1
  C  C4  1  0.30063300  0.24327300  0.34201500  1
  C  C5  1  0.90125800  0.24327300  0.94264000  1
  C  C6  1  0.09874200  0.04138200  0.34201500  1
  C  C7  1  0.60731400  0.80678100  0.74871900  1
  C  C8  1  0.39268600  0.14140500  0.19946700  1
  C  C9  1  0.94193800  0.14140500  0.74871900  1
  C  C10  1  0.05806200  0.80678100  0.19946700  1
  C  C11  1  0.42248000  0.43218900  0.63990500  1
  C  C12  1  0.57752000  0.21742400  0.00970800  1
  C  C13  1  0.20771600  0.21742400  0.63990500  1
  C  C14  1  0.79228400  0.43218900  0.00970800  1
  C  C15  1  0.21411300  0.04743200  0.26154500  1
  C  C16  1  0.78588700  0.04743200  0.83332000  1
  C  C17  1  0.89461700  0.11729900  0.22268200  1
  C  C18  1  0.10538300  0.32806500  0.22268200  1
  C  C19  1  0.90359500  0.64613300  0.54972800  1
  C  C20  1  0.09640500  0.64613300  0.74253900  1
  C  C21  1  0.34827600  0.61587800  0.26760200  1
  C  C22  1  0.65172400  0.91932600  0.26760200  1
  C  C23  1  0.89735000  0.55044200  0.65309200  1
  C  C24  1  0.10265000  0.75574100  0.65309200  1
