# generated using pymatgen
data_CuNiC8
_symmetry_space_group_name_H-M   'P 1'
_cell_length_a   5.79969000
_cell_length_b   5.47987100
_cell_length_c   9.57842909
_cell_angle_alpha   55.15374751
_cell_angle_beta   90.00000000
_cell_angle_gamma   90.00000000
_symmetry_Int_Tables_number   1
_chemical_formula_structural   CuNiC8
_chemical_formula_sum   'Cu2 Ni2 C16'
_cell_volume   249.83173742
_cell_formula_units_Z   2
loop_
 _symmetry_equiv_pos_site_id
 _symmetry_equiv_pos_as_xyz
  1  'x, y, z'
loop_
 _atom_site_type_symbol
 _atom_site_label
 _atom_site_symmetry_multiplicity
 _atom_site_fract_x
 _atom_site_fract_y
 _atom_site_fract_z
 _atom_site_occupancy
  C  C0  1  0.43219600  0.23217300  0.74902700  1
  C  C1  1  0.56780400  0.76782700  0.25097300  1
  C  C2  1  0.93219600  0.76782700  0.75097300  1
  C  C3  1  0.06780400  0.23217300  0.24902700  1
  Ni  Ni4  1  0.00000000  0.50000000  0.50000000  1
  Ni  Ni5  1  0.50000000  0.50000000  0.00000000  1
  Cu  Cu6  1  0.00000000  0.00000000  0.00000000  1
  Cu  Cu7  1  0.50000000  0.00000000  0.50000000  1
  C  C8  1  0.03299900  0.35375600  0.75069100  1
  C  C9  1  0.96700100  0.64624400  0.24930900  1
  C  C10  1  0.53299900  0.64624400  0.74930900  1
  C  C11  1  0.46700100  0.35375600  0.25069100  1
  C  C12  1  0.70301400  0.86237300  0.94600000  1
  C  C13  1  0.29698600  0.13762700  0.05400000  1
  C  C14  1  0.20301400  0.13762700  0.55400000  1
  C  C15  1  0.79698600  0.86237300  0.44600000  1
  C  C16  1  0.19766700  0.74926900  0.94754900  1
  C  C17  1  0.80233300  0.25073100  0.05245100  1
  C  C18  1  0.69766700  0.25073100  0.55245100  1
  C  C19  1  0.30233300  0.74926900  0.44754900  1
