# generated using pymatgen
data_Cu3(NiC4)2
_symmetry_space_group_name_H-M   'P 1'
_cell_length_a   7.48274493
_cell_length_b   7.48274493
_cell_length_c   5.69757941
_cell_angle_alpha   70.47377937
_cell_angle_beta   70.47377937
_cell_angle_gamma   78.32427321
_symmetry_Int_Tables_number   1
_chemical_formula_structural   Cu3(NiC4)2
_chemical_formula_sum   'Cu6 Ni4 C16'
_cell_volume   281.89725267
_cell_formula_units_Z   2
loop_
 _symmetry_equiv_pos_site_id
 _symmetry_equiv_pos_as_xyz
  1  'x, y, z'
loop_
 _atom_site_type_symbol
 _atom_site_label
 _atom_site_symmetry_multiplicity
 _atom_site_fract_x
 _atom_site_fract_y
 _atom_site_fract_z
 _atom_site_occupancy
  C  C0  1  0.15207100  0.84792900  0.00000000  1
  C  C1  1  0.84792900  0.15207100  0.00000000  1
  Ni  Ni2  1  0.26923500  0.26923500  0.95057000  1
  Ni  Ni3  1  0.73076500  0.73076500  0.04943000  1
  Ni  Ni4  1  0.34962500  0.65037500  0.50000000  1
  Ni  Ni5  1  0.65037500  0.34962500  0.50000000  1
  Cu  Cu6  1  0.02761900  0.71815300  0.50275400  1
  Cu  Cu7  1  0.71815300  0.02761900  0.50275400  1
  Cu  Cu8  1  0.97238100  0.28184700  0.49724600  1
  Cu  Cu9  1  0.28184700  0.97238100  0.49724600  1
  Cu  Cu10  1  0.30803800  0.30803800  0.32307700  1
  Cu  Cu11  1  0.69196200  0.69196200  0.67692300  1
  C  C12  1  0.13266900  0.13266900  0.92231800  1
  C  C13  1  0.86733100  0.86733100  0.07768200  1
  C  C14  1  0.20786900  0.51468100  0.83732000  1
  C  C15  1  0.51468100  0.20786900  0.83732000  1
  C  C16  1  0.79213100  0.48531900  0.16268000  1
  C  C17  1  0.48531900  0.79213100  0.16268000  1
  C  C18  1  0.22844800  0.22844800  0.28792200  1
  C  C19  1  0.77155200  0.77155200  0.71207800  1
  C  C20  1  0.14908700  0.70532800  0.36739000  1
  C  C21  1  0.70532800  0.14908700  0.36739000  1
  C  C22  1  0.85091300  0.29467200  0.63261000  1
  C  C23  1  0.29467200  0.85091300  0.63261000  1
  C  C24  1  0.42269800  0.42269800  0.40770100  1
  C  C25  1  0.57730200  0.57730200  0.59229900  1
