# generated using pymatgen
data_CuNiC32
_symmetry_space_group_name_H-M   'P 1'
_cell_length_a   8.99253013
_cell_length_b   8.98975872
_cell_length_c   8.98900456
_cell_angle_alpha   108.47524051
_cell_angle_beta   108.55081522
_cell_angle_gamma   108.60741344
_symmetry_Int_Tables_number   1
_chemical_formula_structural   CuNiC32
_chemical_formula_sum   'Cu1 Ni1 C32'
_cell_volume   577.79243157
_cell_formula_units_Z   1
loop_
 _symmetry_equiv_pos_site_id
 _symmetry_equiv_pos_as_xyz
  1  'x, y, z'
loop_
 _atom_site_type_symbol
 _atom_site_label
 _atom_site_symmetry_multiplicity
 _atom_site_fract_x
 _atom_site_fract_y
 _atom_site_fract_z
 _atom_site_occupancy
  Ni  Ni0  1  0.82904031  0.83056192  0.82912386  1
  Cu  Cu1  1  0.07517885  0.07577252  0.07547893  1
  C  C2  1  0.79069106  0.62390705  0.45179309  1
  C  C3  1  0.19457414  0.70660271  0.86420084  1
  C  C4  1  0.83421033  0.31399218  0.12185181  1
  C  C5  1  0.62558268  0.45230190  0.79065683  1
  C  C6  1  0.15255707  0.30963249  0.49902699  1
  C  C7  1  0.70642109  0.86382658  0.19444415  1
  C  C8  1  0.31489110  0.12283893  0.83498483  1
  C  C9  1  0.30910602  0.49909351  0.15256730  1
  C  C10  1  0.45107081  0.79196856  0.62433737  1
  C  C11  1  0.12130085  0.83455127  0.31308233  1
  C  C12  1  0.49889964  0.15127086  0.30905466  1
  C  C13  1  0.86479604  0.19438234  0.70703814  1
  C  C14  1  0.25795983  0.25841375  0.25854900  1
  C  C15  1  0.84940119  0.04086122  0.02801508  1
  C  C16  1  0.02735083  0.84985025  0.03991709  1
  C  C17  1  0.04036074  0.02936096  0.84998906  1
  C  C18  1  0.62719234  0.73347287  0.35308290  1
  C  C19  1  0.35921967  0.73875593  0.11240845  1
  C  C20  1  0.61588792  0.22516593  0.86947425  1
  C  C21  1  0.73338484  0.35172508  0.62634070  1
  C  C22  1  0.36119124  0.24778742  0.61002395  1
  C  C23  1  0.73822050  0.11179695  0.35846735  1
  C  C24  1  0.22644502  0.87044208  0.61639647  1
  C  C25  1  0.24628638  0.60946912  0.36087325  1
  C  C26  1  0.35298351  0.62806008  0.73392472  1
  C  C27  1  0.86914706  0.61632979  0.22531332  1
  C  C28  1  0.60916267  0.36037604  0.24673318  1
  C  C29  1  0.11241793  0.35959672  0.73862919  1
  C  C30  1  0.62828858  0.62711554  0.62759052  1
  C  C31  1  0.39022309  0.99437318  0.99954735  1
  C  C32  1  0.99932781  0.39067002  0.99412179  1
  C  C33  1  0.99437187  0.99996025  0.39010425  1
