# generated using pymatgen
data_Cu(NiC11)2
_symmetry_space_group_name_H-M   'P 1'
_cell_length_a   11.54710207
_cell_length_b   11.54710207
_cell_length_c   10.48056900
_cell_angle_alpha   90.00000000
_cell_angle_beta   90.00000000
_cell_angle_gamma   100.26442244
_symmetry_Int_Tables_number   1
_chemical_formula_structural   Cu(NiC11)2
_chemical_formula_sum   'Cu4 Ni8 C88'
_cell_volume   1375.06791456
_cell_formula_units_Z   4
loop_
 _symmetry_equiv_pos_site_id
 _symmetry_equiv_pos_as_xyz
  1  'x, y, z'
loop_
 _atom_site_type_symbol
 _atom_site_label
 _atom_site_symmetry_multiplicity
 _atom_site_fract_x
 _atom_site_fract_y
 _atom_site_fract_z
 _atom_site_occupancy
  Ni  Ni0  1  0.57849500  0.42150500  0.74357300  1
  Ni  Ni1  1  0.92150500  0.07849500  0.24357300  1
  Ni  Ni2  1  0.42150500  0.57849500  0.25642700  1
  Ni  Ni3  1  0.07849500  0.92150500  0.75642700  1
  Ni  Ni4  1  0.03235300  0.46764700  0.75000000  1
  Ni  Ni5  1  0.46764700  0.03235300  0.25000000  1
  Ni  Ni6  1  0.96764700  0.53235300  0.25000000  1
  Ni  Ni7  1  0.53235300  0.96764700  0.75000000  1
  Cu  Cu8  1  0.24477800  0.24477800  0.00000000  1
  Cu  Cu9  1  0.74477800  0.74477800  0.50000000  1
  Cu  Cu10  1  0.75522200  0.75522200  0.00000000  1
  Cu  Cu11  1  0.25522200  0.25522200  0.50000000  1
  C  C12  1  0.33889200  0.16110800  0.75000000  1
  C  C13  1  0.16110800  0.33889200  0.25000000  1
  C  C14  1  0.66110800  0.83889200  0.25000000  1
  C  C15  1  0.83889200  0.66110800  0.75000000  1
  C  C16  1  0.76826800  0.01987600  0.52294700  1
  C  C17  1  0.53085600  0.68742700  0.68565000  1
  C  C18  1  0.81257300  0.96914400  0.81435000  1
  C  C19  1  0.68742700  0.53085600  0.31435000  1
  C  C20  1  0.03085600  0.18742700  0.81435000  1
  C  C21  1  0.46914400  0.31257300  0.31435000  1
  C  C22  1  0.18742700  0.03085600  0.18565000  1
  C  C23  1  0.31257300  0.46914400  0.68565000  1
  C  C24  1  0.01987600  0.76826800  0.47705300  1
  C  C25  1  0.48012400  0.73173200  0.97705300  1
  C  C26  1  0.96914400  0.81257300  0.18565000  1
  C  C27  1  0.73173200  0.48012400  0.02294700  1
  C  C28  1  0.98012400  0.23173200  0.52294700  1
  C  C29  1  0.51987600  0.26826800  0.02294700  1
  C  C30  1  0.90973900  0.30195000  0.03987300  1
  C  C31  1  0.26826800  0.51987600  0.97705300  1
  C  C32  1  0.09026100  0.69805000  0.96012700  1
  C  C33  1  0.40973900  0.80195000  0.46012700  1
  C  C34  1  0.69805000  0.09026100  0.03987300  1
  C  C35  1  0.80195000  0.40973900  0.53987300  1
  C  C36  1  0.19805000  0.59026100  0.46012700  1
  C  C37  1  0.30195000  0.90973900  0.96012700  1
  C  C38  1  0.59026100  0.19805000  0.53987300  1
  C  C39  1  0.23173200  0.98012400  0.47705300  1
  C  C40  1  0.39621600  0.82892300  0.00846300  1
  C  C41  1  0.55942100  0.44057900  0.31695200  1
  C  C42  1  0.05942100  0.94057900  0.18304800  1
  C  C43  1  0.44057900  0.55942100  0.68304800  1
  C  C44  1  0.82707800  0.17292200  0.07325700  1
  C  C45  1  0.32707800  0.67292200  0.42674300  1
  C  C46  1  0.17292200  0.82707800  0.92674300  1
  C  C47  1  0.67292200  0.32707800  0.57325700  1
  C  C48  1  0.90006700  0.09993300  0.49883600  1
  C  C49  1  0.59993300  0.40006700  0.99883600  1
  C  C50  1  0.09993300  0.90006700  0.50116400  1
  C  C51  1  0.40006700  0.59993300  0.00116400  1
  C  C52  1  0.01501900  0.65405500  0.83592000  1
  C  C53  1  0.48498100  0.84594500  0.33592000  1
  C  C54  1  0.65405500  0.01501900  0.16408000  1
  C  C55  1  0.84594500  0.48498100  0.66408000  1
  C  C56  1  0.98498100  0.34594500  0.16408000  1
  C  C57  1  0.51501900  0.15405500  0.66408000  1
  C  C58  1  0.34594500  0.98498100  0.83592000  1
  C  C59  1  0.15405500  0.51501900  0.33592000  1
  C  C60  1  0.00983600  0.71726500  0.08608100  1
  C  C61  1  0.49016400  0.78273500  0.58608100  1
  C  C62  1  0.71726500  0.00983600  0.91391900  1
  C  C63  1  0.78273500  0.49016400  0.41391900  1
  C  C64  1  0.98215400  0.74997300  0.32542000  1
  C  C65  1  0.50983600  0.21726500  0.41391900  1
  C  C66  1  0.28273500  0.99016400  0.08608100  1
  C  C67  1  0.21726500  0.50983600  0.58608100  1
  C  C68  1  0.83915500  0.83568300  0.15632500  1
  C  C69  1  0.66084500  0.66431700  0.65632500  1
  C  C70  1  0.83568300  0.83915500  0.84367500  1
  C  C71  1  0.66431700  0.66084500  0.34367500  1
  C  C72  1  0.16084500  0.16431700  0.84367500  1
  C  C73  1  0.33915500  0.33568300  0.34367500  1
  C  C74  1  0.16431700  0.16084500  0.15632500  1
  C  C75  1  0.33568300  0.33915500  0.65632500  1
  C  C76  1  0.17107700  0.60378400  0.00846300  1
  C  C77  1  0.32892300  0.89621600  0.50846300  1
  C  C78  1  0.60378400  0.17107700  0.99153700  1
  C  C79  1  0.89621600  0.32892300  0.49153700  1
  C  C80  1  0.82892300  0.39621600  0.99153700  1
  C  C81  1  0.67107700  0.10378400  0.49153700  1
  C  C82  1  0.94057900  0.05942100  0.81695200  1
  C  C83  1  0.10378400  0.67107700  0.50846300  1
  C  C84  1  0.25289200  0.40808500  0.06925300  1
  C  C85  1  0.24710800  0.09191500  0.56925300  1
  C  C86  1  0.40808500  0.25289200  0.93074700  1
  C  C87  1  0.09191500  0.24710800  0.43074700  1
  C  C88  1  0.74710800  0.59191500  0.93074700  1
  C  C89  1  0.75289200  0.90808500  0.43074700  1
  C  C90  1  0.59191500  0.74710800  0.06925300  1
  C  C91  1  0.90808500  0.75289200  0.56925300  1
  C  C92  1  0.24997300  0.48215400  0.82542000  1
  C  C93  1  0.25002700  0.01784600  0.32542000  1
  C  C94  1  0.48215400  0.24997300  0.17458000  1
  C  C95  1  0.01784600  0.25002700  0.67458000  1
  C  C96  1  0.75002700  0.51784600  0.17458000  1
  C  C97  1  0.74997300  0.98215400  0.67458000  1
  C  C98  1  0.51784600  0.75002700  0.82542000  1
  C  C99  1  0.99016400  0.28273500  0.91391900  1
