# generated using pymatgen
data_CuNiC
_symmetry_space_group_name_H-M   'P 1'
_cell_length_a   6.39332800
_cell_length_b   6.39332800
_cell_length_c   6.39332800
_cell_angle_alpha   90.00000000
_cell_angle_beta   90.00000000
_cell_angle_gamma   90.00000000
_symmetry_Int_Tables_number   1
_chemical_formula_structural   CuNiC
_chemical_formula_sum   'Cu4 Ni4 C4'
_cell_volume   261.32499904
_cell_formula_units_Z   4
loop_
 _symmetry_equiv_pos_site_id
 _symmetry_equiv_pos_as_xyz
  1  'x, y, z'
loop_
 _atom_site_type_symbol
 _atom_site_label
 _atom_site_symmetry_multiplicity
 _atom_site_fract_x
 _atom_site_fract_y
 _atom_site_fract_z
 _atom_site_occupancy
  C  C0  1  0.37790200  0.37790200  0.37790200  1
  C  C1  1  0.12209800  0.62209800  0.87790200  1
  C  C2  1  0.62209800  0.87790200  0.12209800  1
  C  C3  1  0.87790200  0.12209800  0.62209800  1
  Ni  Ni4  1  0.66436300  0.66436300  0.66436300  1
  Ni  Ni5  1  0.83563700  0.33563700  0.16436300  1
  Ni  Ni6  1  0.33563700  0.16436300  0.83563700  1
  Ni  Ni7  1  0.16436300  0.83563700  0.33563700  1
  Cu  Cu8  1  0.07069200  0.07069200  0.07069200  1
  Cu  Cu9  1  0.42930800  0.92930800  0.57069200  1
  Cu  Cu10  1  0.92930800  0.57069200  0.42930800  1
  Cu  Cu11  1  0.57069200  0.42930800  0.92930800  1
