# generated using pymatgen
data_Cu5Ni2C25
_symmetry_space_group_name_H-M   'P 1'
_cell_length_a   5.81340100
_cell_length_b   5.87243189
_cell_length_c   8.29257524
_cell_angle_alpha   91.02348091
_cell_angle_beta   90.16924322
_cell_angle_gamma   90.63959673
_symmetry_Int_Tables_number   1
_chemical_formula_structural   Cu5Ni2C25
_chemical_formula_sum   'Cu5 Ni2 C25'
_cell_volume   283.03436993
_cell_formula_units_Z   1
loop_
 _symmetry_equiv_pos_site_id
 _symmetry_equiv_pos_as_xyz
  1  'x, y, z'
loop_
 _atom_site_type_symbol
 _atom_site_label
 _atom_site_symmetry_multiplicity
 _atom_site_fract_x
 _atom_site_fract_y
 _atom_site_fract_z
 _atom_site_occupancy
  C  C0  1  0.99667300  0.50098700  0.99314400  1
  C  C1  1  0.25434100  0.74757600  0.26079200  1
  C  C2  1  0.25849800  0.25521800  0.73856500  1
  C  C3  1  0.50140000  0.50380700  0.00114100  1
  C  C4  1  0.50196600  0.00288300  0.50234000  1
  C  C5  1  0.74519100  0.25082200  0.73761500  1
  C  C6  1  0.74327700  0.74419900  0.26124200  1
  C  C7  1  0.99931700  0.99803000  0.49997500  1
  C  C8  1  0.50445600  0.49999700  0.49912300  1
  Ni  Ni9  1  0.99732600  0.99665400  0.00257700  1
  Ni  Ni10  1  0.25442900  0.25529000  0.25694100  1
  Cu  Cu11  1  0.74128400  0.73984700  0.73728900  1
  Cu  Cu12  1  0.49928400  0.99927500  0.99567900  1
  Cu  Cu13  1  0.74609500  0.25674300  0.25936600  1
  Cu  Cu14  1  0.00152600  0.49759400  0.49894800  1
  Cu  Cu15  1  0.25463000  0.74636700  0.73467900  1
  C  C16  1  0.75752000  0.76948700  0.00560400  1
  C  C17  1  0.01550100  0.01189100  0.23653900  1
  C  C18  1  0.99887800  0.50426700  0.73278500  1
  C  C19  1  0.23747500  0.77212600  0.98889700  1
  C  C20  1  0.23794800  0.26216900  0.48409800  1
  C  C21  1  0.50610500  0.51967200  0.76019400  1
  C  C22  1  0.49537100  0.03218000  0.25492500  1
  C  C23  1  0.76748700  0.26393200  0.48003000  1
  C  C24  1  0.23742100  0.23256800  0.01347800  1
  C  C25  1  0.48501500  0.48470600  0.24458400  1
  C  C26  1  0.50173300  0.99287300  0.74762700  1
  C  C27  1  0.75713000  0.22783600  0.02175300  1
  C  C28  1  0.77186000  0.73145300  0.50496600  1
  C  C29  1  0.99117900  0.98585100  0.76952400  1
  C  C30  1  0.00422800  0.47725800  0.26260600  1
  C  C31  1  0.23545600  0.73644000  0.51297600  1
