# generated using pymatgen
data_Cu3NiC2
_symmetry_space_group_name_H-M   'P 1'
_cell_length_a   3.22127836
_cell_length_b   3.22127836
_cell_length_c   36.40122800
_cell_angle_alpha   90.00000000
_cell_angle_beta   90.00000000
_cell_angle_gamma   120.00000746
_symmetry_Int_Tables_number   1
_chemical_formula_structural   Cu3NiC2
_chemical_formula_sum   'Cu6 Ni2 C4'
_cell_volume   327.11702284
_cell_formula_units_Z   2
loop_
 _symmetry_equiv_pos_site_id
 _symmetry_equiv_pos_as_xyz
  1  'x, y, z'
loop_
 _atom_site_type_symbol
 _atom_site_label
 _atom_site_symmetry_multiplicity
 _atom_site_fract_x
 _atom_site_fract_y
 _atom_site_fract_z
 _atom_site_occupancy
  C  C0  1  0.33333300  0.66666700  0.09390800  1
  C  C1  1  0.33333300  0.66666700  0.46965600  1
  C  C2  1  0.66666700  0.33333300  0.28180500  1
  C  C3  1  0.66666700  0.33333300  0.65755700  1
  Ni  Ni4  1  0.33333300  0.66666700  0.70483600  1
  Ni  Ni5  1  0.33333300  0.66666700  0.61027400  1
  Cu  Cu6  1  0.33333300  0.66666700  0.32470400  1
  Cu  Cu7  1  0.66666700  0.33333300  0.05099500  1
  Cu  Cu8  1  0.66666700  0.33333300  0.42675100  1
  Cu  Cu9  1  0.66666700  0.33333300  0.13682300  1
  Cu  Cu10  1  0.66666700  0.33333300  0.51255100  1
  Cu  Cu11  1  0.33333300  0.66666700  0.23889000  1
