# generated using pymatgen
data_Cu2NiC2
_symmetry_space_group_name_H-M   'P 1'
_cell_length_a   6.92073700
_cell_length_b   7.25578800
_cell_length_c   16.30109500
_cell_angle_alpha   90.00000000
_cell_angle_beta   90.00000000
_cell_angle_gamma   90.00000000
_symmetry_Int_Tables_number   1
_chemical_formula_structural   Cu2NiC2
_chemical_formula_sum   'Cu16 Ni8 C16'
_cell_volume   818.56601362
_cell_formula_units_Z   8
loop_
 _symmetry_equiv_pos_site_id
 _symmetry_equiv_pos_as_xyz
  1  'x, y, z'
loop_
 _atom_site_type_symbol
 _atom_site_label
 _atom_site_symmetry_multiplicity
 _atom_site_fract_x
 _atom_site_fract_y
 _atom_site_fract_z
 _atom_site_occupancy
  Ni  Ni0  1  0.05508800  0.12528500  0.09920200  1
  Ni  Ni1  1  0.94491200  0.87471500  0.90079800  1
  Ni  Ni2  1  0.44491200  0.87471500  0.59920200  1
  Ni  Ni3  1  0.94491200  0.62528500  0.40079800  1
  Ni  Ni4  1  0.55508800  0.12528500  0.40079800  1
  Ni  Ni5  1  0.05508800  0.37471500  0.59920200  1
  Ni  Ni6  1  0.55508800  0.37471500  0.90079800  1
  Ni  Ni7  1  0.44491200  0.62528500  0.09920200  1
  Cu  Cu8  1  0.18924700  0.22355100  0.05665800  1
  Cu  Cu9  1  0.81075300  0.77644900  0.94334200  1
  Cu  Cu10  1  0.31075300  0.77644900  0.55665800  1
  Cu  Cu11  1  0.81075300  0.72355100  0.44334200  1
  Cu  Cu12  1  0.68924700  0.22355100  0.44334200  1
  Cu  Cu13  1  0.18924700  0.27644900  0.55665800  1
  Cu  Cu14  1  0.68924700  0.27644900  0.94334200  1
  Cu  Cu15  1  0.31075300  0.72355100  0.05665800  1
  Cu  Cu16  1  0.07567100  0.13372400  0.31813400  1
  Cu  Cu17  1  0.92432900  0.86627600  0.68186600  1
  Cu  Cu18  1  0.42432900  0.86627600  0.81813400  1
  Cu  Cu19  1  0.92432900  0.63372400  0.18186600  1
  Cu  Cu20  1  0.57567100  0.13372400  0.18186600  1
  Cu  Cu21  1  0.07567100  0.36627600  0.81813400  1
  Cu  Cu22  1  0.57567100  0.36627600  0.68186600  1
  Cu  Cu23  1  0.42432900  0.63372400  0.31813400  1
  C  C24  1  0.15131500  0.26014200  0.14568900  1
  C  C25  1  0.84868500  0.73985800  0.85431100  1
  C  C26  1  0.34868500  0.73985800  0.64568900  1
  C  C27  1  0.84868500  0.76014200  0.35431100  1
  C  C28  1  0.65131500  0.26014200  0.35431100  1
  C  C29  1  0.15131500  0.23985800  0.64568900  1
  C  C30  1  0.65131500  0.23985800  0.85431100  1
  C  C31  1  0.34868500  0.76014200  0.14568900  1
  C  C32  1  0.43408100  0.00963700  0.39314300  1
  C  C33  1  0.56591900  0.99036300  0.60685700  1
  C  C34  1  0.06591900  0.99036300  0.89314300  1
  C  C35  1  0.56591900  0.50963700  0.10685700  1
  C  C36  1  0.93408100  0.00963700  0.10685700  1
  C  C37  1  0.43408100  0.49036300  0.89314300  1
  C  C38  1  0.93408100  0.49036300  0.60685700  1
  C  C39  1  0.06591900  0.50963700  0.39314300  1
