# generated using pymatgen
data_Cu(Ni11C2)2
_symmetry_space_group_name_H-M   'P 1'
_cell_length_a   9.58816215
_cell_length_b   9.58816215
_cell_length_c   9.58816215
_cell_angle_alpha   109.47122063
_cell_angle_beta   109.47122063
_cell_angle_gamma   109.47122063
_symmetry_Int_Tables_number   1
_chemical_formula_structural   Cu(Ni11C2)2
_chemical_formula_sum   'Cu1 Ni22 C4'
_cell_volume   678.55369476
_cell_formula_units_Z   1
loop_
 _symmetry_equiv_pos_site_id
 _symmetry_equiv_pos_as_xyz
  1  'x, y, z'
loop_
 _atom_site_type_symbol
 _atom_site_label
 _atom_site_symmetry_multiplicity
 _atom_site_fract_x
 _atom_site_fract_y
 _atom_site_fract_z
 _atom_site_occupancy
  C  C0  1  0.37601600  0.37601600  0.37601600  1
  C  C1  1  0.62398400  0.00000000  0.00000000  1
  C  C2  1  0.00000000  0.62398400  0.00000000  1
  C  C3  1  0.00000000  0.00000000  0.62398400  1
  Ni  Ni4  1  0.71952100  0.71952100  0.71952100  1
  Ni  Ni5  1  0.28047900  0.00000000  0.00000000  1
  Ni  Ni6  1  0.00000000  0.28047900  0.00000000  1
  Ni  Ni7  1  0.00000000  0.00000000  0.28047900  1
  Ni  Ni8  1  0.25000000  0.75000000  0.50000000  1
  Ni  Ni9  1  0.75000000  0.25000000  0.50000000  1
  Ni  Ni10  1  0.75000000  0.50000000  0.25000000  1
  Ni  Ni11  1  0.25000000  0.50000000  0.75000000  1
  Ni  Ni12  1  0.50000000  0.25000000  0.75000000  1
  Ni  Ni13  1  0.50000000  0.75000000  0.25000000  1
  Ni  Ni14  1  0.83561300  0.56004200  0.56004200  1
  Ni  Ni15  1  0.16438700  0.72442900  0.72442900  1
  Ni  Ni16  1  0.00000000  0.43995800  0.27557100  1
  Ni  Ni17  1  0.56004200  0.56004200  0.83561300  1
  Ni  Ni18  1  0.00000000  0.27557100  0.43995800  1
  Ni  Ni19  1  0.72442900  0.72442900  0.16438700  1
  Ni  Ni20  1  0.43995800  0.27557100  0.00000000  1
  Ni  Ni21  1  0.27557100  0.43995800  0.00000000  1
  Ni  Ni22  1  0.56004200  0.83561300  0.56004200  1
  Ni  Ni23  1  0.27557100  0.00000000  0.43995800  1
  Ni  Ni24  1  0.43995800  0.00000000  0.27557100  1
  Ni  Ni25  1  0.72442900  0.16438700  0.72442900  1
  Cu  Cu26  1  0.00000000  0.00000000  0.00000000  1
