# generated using pymatgen
data_Cu5Ni2C25
_symmetry_space_group_name_H-M   'P 1'
_cell_length_a   2.91951200
_cell_length_b   8.37166565
_cell_length_c   11.91581748
_cell_angle_alpha   89.70516656
_cell_angle_beta   90.00000000
_cell_angle_gamma   90.00000000
_symmetry_Int_Tables_number   1
_chemical_formula_structural   Cu5Ni2C25
_chemical_formula_sum   'Cu5 Ni2 C25'
_cell_volume   291.23276410
_cell_formula_units_Z   1
loop_
 _symmetry_equiv_pos_site_id
 _symmetry_equiv_pos_as_xyz
  1  'x, y, z'
loop_
 _atom_site_type_symbol
 _atom_site_label
 _atom_site_symmetry_multiplicity
 _atom_site_fract_x
 _atom_site_fract_y
 _atom_site_fract_z
 _atom_site_occupancy
  C  C0  1  0.50000000  0.25295800  0.13254400  1
  C  C1  1  0.50000000  0.75000000  0.37500000  1
  C  C2  1  0.50000000  0.24704200  0.61745600  1
  C  C3  1  0.00000000  0.50275900  0.00919800  1
  C  C4  1  0.00000000  0.01144300  0.26300100  1
  C  C5  1  0.00000000  0.48855700  0.48699900  1
  C  C6  1  0.50000000  0.75000000  0.87500000  1
  C  C7  1  0.00000000  0.99724100  0.74080200  1
  C  C8  1  0.50000000  0.25000000  0.37500000  1
  Ni  Ni9  1  0.00000000  0.99820900  0.99955200  1
  Ni  Ni10  1  0.00000000  0.50179100  0.75044800  1
  Cu  Cu11  1  0.00000000  0.47377200  0.25489700  1
  Cu  Cu12  1  0.00000000  0.02622800  0.49510300  1
  Cu  Cu13  1  0.50000000  0.25000000  0.87500000  1
  Cu  Cu14  1  0.50000000  0.74278400  0.13229600  1
  Cu  Cu15  1  0.50000000  0.75721600  0.61770400  1
  C  C16  1  0.50000000  0.00116000  0.10741600  1
  C  C17  1  0.50000000  0.50302900  0.36384800  1
  C  C18  1  0.50000000  0.99291100  0.62070400  1
  C  C19  1  0.00000000  0.23056600  0.98990000  1
  C  C20  1  0.00000000  0.75225900  0.23825000  1
  C  C21  1  0.00000000  0.23976200  0.50367100  1
  C  C22  1  0.50000000  0.50727000  0.86159300  1
  C  C23  1  0.00000000  0.73473500  0.74108200  1
  C  C24  1  0.50000000  0.50708900  0.12929600  1
  C  C25  1  0.50000000  0.99697100  0.38615200  1
  C  C26  1  0.50000000  0.49884000  0.64258400  1
  C  C27  1  0.00000000  0.76526500  0.00891800  1
  C  C28  1  0.00000000  0.26023800  0.24632900  1
  C  C29  1  0.00000000  0.74774100  0.51175000  1
  C  C30  1  0.50000000  0.99273000  0.88840700  1
  C  C31  1  0.00000000  0.26943400  0.76010000  1
