# generated using pymatgen
data_CuNiC7
_symmetry_space_group_name_H-M   'P 1'
_cell_length_a   8.00049842
_cell_length_b   8.00049842
_cell_length_c   4.37376000
_cell_angle_alpha   90.00000000
_cell_angle_beta   90.00000000
_cell_angle_gamma   120.00000350
_symmetry_Int_Tables_number   1
_chemical_formula_structural   CuNiC7
_chemical_formula_sum   'Cu3 Ni3 C21'
_cell_volume   242.44858443
_cell_formula_units_Z   3
loop_
 _symmetry_equiv_pos_site_id
 _symmetry_equiv_pos_as_xyz
  1  'x, y, z'
loop_
 _atom_site_type_symbol
 _atom_site_label
 _atom_site_symmetry_multiplicity
 _atom_site_fract_x
 _atom_site_fract_y
 _atom_site_fract_z
 _atom_site_occupancy
  C  C0  1  0.29580700  0.29580700  0.50000000  1
  C  C1  1  0.00000000  0.70419300  0.50000000  1
  C  C2  1  0.70419300  0.00000000  0.50000000  1
  Ni  Ni3  1  0.63672300  0.63672300  0.00000000  1
  Ni  Ni4  1  0.00000000  0.36327700  0.00000000  1
  Ni  Ni5  1  0.36327700  0.00000000  0.00000000  1
  Cu  Cu6  1  0.00000000  0.00000000  0.00000000  1
  Cu  Cu7  1  0.33333300  0.66666700  0.49684800  1
  Cu  Cu8  1  0.66666700  0.33333300  0.50315200  1
  C  C9  1  0.20919500  0.09430900  0.77934400  1
  C  C10  1  0.88511300  0.79080500  0.77934400  1
  C  C11  1  0.90569100  0.11488700  0.77934400  1
  C  C12  1  0.11488700  0.90569100  0.22065600  1
  C  C13  1  0.79080500  0.88511300  0.22065600  1
  C  C14  1  0.09430900  0.20919500  0.22065600  1
  C  C15  1  0.87398600  0.45543800  0.72939400  1
  C  C16  1  0.58145200  0.12601400  0.72939400  1
  C  C17  1  0.54456200  0.41854800  0.72939400  1
  C  C18  1  0.41854800  0.54456200  0.27060600  1
  C  C19  1  0.12601400  0.58145200  0.27060600  1
  C  C20  1  0.45543800  0.87398600  0.27060600  1
  C  C21  1  0.54129900  0.76394200  0.72364300  1
  C  C22  1  0.22264300  0.45870100  0.72364300  1
  C  C23  1  0.23605800  0.77735700  0.72364300  1
  C  C24  1  0.77735700  0.23605800  0.27635700  1
  C  C25  1  0.45870100  0.22264300  0.27635700  1
  C  C26  1  0.76394200  0.54129900  0.27635700  1
