# generated using pymatgen
data_Cu2NiC
_symmetry_space_group_name_H-M   'P 1'
_cell_length_a   9.65161397
_cell_length_b   9.65161397
_cell_length_c   9.65161397
_cell_angle_alpha   132.72266874
_cell_angle_beta   132.72266874
_cell_angle_gamma   69.09001720
_symmetry_Int_Tables_number   1
_chemical_formula_structural   Cu2NiC
_chemical_formula_sum   'Cu8 Ni4 C4'
_cell_volume   476.25206348
_cell_formula_units_Z   4
loop_
 _symmetry_equiv_pos_site_id
 _symmetry_equiv_pos_as_xyz
  1  'x, y, z'
loop_
 _atom_site_type_symbol
 _atom_site_label
 _atom_site_symmetry_multiplicity
 _atom_site_fract_x
 _atom_site_fract_y
 _atom_site_fract_z
 _atom_site_occupancy
  C  C0  1  0.87500000  0.62500000  0.25000000  1
  C  C1  1  0.37500000  0.62500000  0.75000000  1
  C  C2  1  0.37500000  0.62500000  0.25000000  1
  C  C3  1  0.37500000  0.12500000  0.75000000  1
  Ni  Ni4  1  0.37500000  0.12500000  0.25000000  1
  Ni  Ni5  1  0.87500000  0.12500000  0.75000000  1
  Ni  Ni6  1  0.87500000  0.12500000  0.25000000  1
  Ni  Ni7  1  0.87500000  0.62500000  0.75000000  1
  Cu  Cu8  1  0.30653400  0.29117000  0.13266500  1
  Cu  Cu9  1  0.15850400  0.17386900  0.86733500  1
  Cu  Cu10  1  0.04117000  0.40850400  0.48463500  1
  Cu  Cu11  1  0.44346600  0.95883000  0.36733500  1
  Cu  Cu12  1  0.92386900  0.55653400  0.51536500  1
  Cu  Cu13  1  0.59149600  0.07613100  0.63266500  1
  Cu  Cu14  1  0.70883000  0.84149600  0.01536500  1
  Cu  Cu15  1  0.82613100  0.69346600  0.98463500  1
