# generated using pymatgen
data_Cu2Ni2C
_symmetry_space_group_name_H-M   'P 1'
_cell_length_a   7.16746400
_cell_length_b   8.36735400
_cell_length_c   8.82566700
_cell_angle_alpha   90.00000000
_cell_angle_beta   90.00000000
_cell_angle_gamma   90.00000000
_symmetry_Int_Tables_number   1
_chemical_formula_structural   Cu2Ni2C
_chemical_formula_sum   'Cu8 Ni8 C4'
_cell_volume   529.29915493
_cell_formula_units_Z   4
loop_
 _symmetry_equiv_pos_site_id
 _symmetry_equiv_pos_as_xyz
  1  'x, y, z'
loop_
 _atom_site_type_symbol
 _atom_site_label
 _atom_site_symmetry_multiplicity
 _atom_site_fract_x
 _atom_site_fract_y
 _atom_site_fract_z
 _atom_site_occupancy
  C  C0  1  0.00000000  0.10826500  0.00000000  1
  C  C1  1  0.50000000  0.89173500  0.50000000  1
  C  C2  1  0.00000000  0.40321500  0.50000000  1
  C  C3  1  0.50000000  0.59678500  0.00000000  1
  Ni  Ni4  1  0.17176900  0.58133100  0.20450000  1
  Ni  Ni5  1  0.82823100  0.58133100  0.79550000  1
  Ni  Ni6  1  0.32823100  0.41866900  0.70450000  1
  Ni  Ni7  1  0.67176900  0.41866900  0.29550000  1
  Ni  Ni8  1  0.14422200  0.15981100  0.33663400  1
  Ni  Ni9  1  0.85577800  0.15981100  0.66336600  1
  Ni  Ni10  1  0.35577800  0.84018900  0.83663400  1
  Ni  Ni11  1  0.64422200  0.84018900  0.16336600  1
  Cu  Cu12  1  0.44257700  0.17813700  0.05188700  1
  Cu  Cu13  1  0.55742300  0.17813700  0.94811300  1
  Cu  Cu14  1  0.05742300  0.82186300  0.55188700  1
  Cu  Cu15  1  0.94257700  0.82186300  0.44811300  1
  Cu  Cu16  1  0.23515200  0.56421100  0.38665400  1
  Cu  Cu17  1  0.76484800  0.56421100  0.61334600  1
  Cu  Cu18  1  0.26484800  0.43578900  0.88665400  1
  Cu  Cu19  1  0.73515200  0.43578900  0.11334600  1
