# generated using pymatgen
data_Cu2Ni12C41
_symmetry_space_group_name_H-M   'P 1'
_cell_length_a   9.54330413
_cell_length_b   9.54330413
_cell_length_c   9.54330413
_cell_angle_alpha   117.62121426
_cell_angle_beta   117.62121426
_cell_angle_gamma   94.17205374
_symmetry_Int_Tables_number   1
_chemical_formula_structural   Cu2Ni12C41
_chemical_formula_sum   'Cu2 Ni12 C41'
_cell_volume   634.86083570
_cell_formula_units_Z   1
loop_
 _symmetry_equiv_pos_site_id
 _symmetry_equiv_pos_as_xyz
  1  'x, y, z'
loop_
 _atom_site_type_symbol
 _atom_site_label
 _atom_site_symmetry_multiplicity
 _atom_site_fract_x
 _atom_site_fract_y
 _atom_site_fract_z
 _atom_site_occupancy
  C  C0  1  0.35474200  0.35474200  0.64809500  1
  C  C1  1  0.70664700  0.70664700  0.35190500  1
  C  C2  1  0.29335300  0.64525800  0.00000000  1
  C  C3  1  0.64525800  0.29335300  0.00000000  1
  C  C4  1  0.24413000  0.41260700  0.39950900  1
  C  C5  1  0.01309800  0.84462100  0.60049100  1
  C  C6  1  0.98690200  0.58739300  0.83152200  1
  C  C7  1  0.75587000  0.15537900  0.16847800  1
  C  C8  1  0.15537900  0.75587000  0.16847800  1
  C  C9  1  0.58739300  0.98690200  0.83152200  1
  C  C10  1  0.41260700  0.24413000  0.39950900  1
  C  C11  1  0.84462100  0.01309800  0.60049100  1
  C  C12  1  0.18424400  0.51775300  0.56280700  1
  C  C13  1  0.95494600  0.62143700  0.43719300  1
  C  C14  1  0.04505400  0.48224700  0.66649100  1
  C  C15  1  0.81575600  0.37856300  0.33350900  1
  C  C16  1  0.37856300  0.81575600  0.33350900  1
  C  C17  1  0.48224700  0.04505400  0.66649100  1
  C  C18  1  0.51775300  0.18424400  0.56280700  1
  C  C19  1  0.62143700  0.95494600  0.43719300  1
  C  C20  1  0.39691000  0.59945800  0.63436200  1
  C  C21  1  0.96509600  0.76254800  0.36563800  1
  C  C22  1  0.03490400  0.40054200  0.79745200  1
  C  C23  1  0.60309000  0.23745200  0.20254800  1
  C  C24  1  0.23745200  0.60309000  0.20254800  1
  C  C25  1  0.40054200  0.03490400  0.79745200  1
  C  C26  1  0.59945800  0.39691000  0.63436200  1
  C  C27  1  0.76254800  0.96509600  0.36563800  1
  C  C28  1  0.11568300  0.11568300  0.33001800  1
  C  C29  1  0.78566500  0.78566500  0.66998200  1
  C  C30  1  0.21433500  0.88431700  0.00000000  1
  C  C31  1  0.88431700  0.21433500  0.00000000  1
  C  C32  1  0.06159200  0.18862500  0.50122900  1
  C  C33  1  0.68739600  0.56036300  0.49877100  1
  C  C34  1  0.31260400  0.81137500  0.87296700  1
  C  C35  1  0.93840800  0.43963700  0.12703300  1
  C  C36  1  0.43963700  0.93840800  0.12703300  1
  C  C37  1  0.81137500  0.31260400  0.87296700  1
  C  C38  1  0.18862500  0.06159200  0.50122900  1
  C  C39  1  0.56036300  0.68739600  0.49877100  1
  C  C40  1  0.50000000  0.50000000  0.00000000  1
  Ni  Ni41  1  0.16174100  0.16174100  0.47856500  1
  Ni  Ni42  1  0.68317600  0.68317600  0.52143500  1
  Ni  Ni43  1  0.31682400  0.83825900  0.00000000  1
  Ni  Ni44  1  0.83825900  0.31682400  0.00000000  1
  Ni  Ni45  1  0.28701700  0.48292300  0.55051700  1
  Ni  Ni46  1  0.93240600  0.73650100  0.44948300  1
  Ni  Ni47  1  0.06759400  0.51707700  0.80409400  1
  Ni  Ni48  1  0.71298300  0.26349900  0.19590600  1
  Ni  Ni49  1  0.26349900  0.71298300  0.19590600  1
  Ni  Ni50  1  0.51707700  0.06759400  0.80409400  1
  Ni  Ni51  1  0.48292300  0.28701700  0.55051700  1
  Ni  Ni52  1  0.73650100  0.93240600  0.44948300  1
  Cu  Cu53  1  0.69025900  0.69025900  0.00000000  1
  Cu  Cu54  1  0.30974100  0.30974100  0.00000000  1
