# generated using pymatgen
data_Cu8Ni14C19
_symmetry_space_group_name_H-M   'P 1'
_cell_length_a   7.42985700
_cell_length_b   11.93040686
_cell_length_c   14.18777678
_cell_angle_alpha   113.08198676
_cell_angle_beta   99.78997852
_cell_angle_gamma   90.07367517
_symmetry_Int_Tables_number   1
_chemical_formula_structural   Cu8Ni14C19
_chemical_formula_sum   'Cu16 Ni28 C38'
_cell_volume   1136.88781872
_cell_formula_units_Z   2
loop_
 _symmetry_equiv_pos_site_id
 _symmetry_equiv_pos_as_xyz
  1  'x, y, z'
loop_
 _atom_site_type_symbol
 _atom_site_label
 _atom_site_symmetry_multiplicity
 _atom_site_fract_x
 _atom_site_fract_y
 _atom_site_fract_z
 _atom_site_occupancy
  Ni  Ni0  1  0.29406400  0.55004400  0.34536300  1
  Ni  Ni1  1  0.70593600  0.44995600  0.65463700  1
  Ni  Ni2  1  0.08276300  0.52572900  0.34264200  1
  Ni  Ni3  1  0.91723700  0.47427100  0.65735800  1
  Ni  Ni4  1  0.86202700  0.54446900  0.46177300  1
  Ni  Ni5  1  0.13797300  0.45553100  0.53822700  1
  Ni  Ni6  1  0.71974400  0.66692100  0.47160800  1
  Ni  Ni7  1  0.28025600  0.33307900  0.52839200  1
  Ni  Ni8  1  0.62934500  0.53236500  0.47641800  1
  Ni  Ni9  1  0.37065500  0.46763500  0.52358200  1
  Ni  Ni10  1  0.45381400  0.32386700  0.35593100  1
  Ni  Ni11  1  0.54618600  0.67613300  0.64406900  1
  Ni  Ni12  1  0.33413800  0.17968200  0.32085100  1
  Ni  Ni13  1  0.66586200  0.82031800  0.67914900  1
  Ni  Ni14  1  0.57784300  0.19007100  0.33384200  1
  Ni  Ni15  1  0.42215700  0.80992900  0.66615800  1
  Ni  Ni16  1  0.13659000  0.79610700  0.54277500  1
  Ni  Ni17  1  0.86341000  0.20389300  0.45722500  1
  Ni  Ni18  1  0.93389100  0.86362400  0.51023900  1
  Ni  Ni19  1  0.06610900  0.13637600  0.48976100  1
  Ni  Ni20  1  0.15633500  0.93007500  0.52013600  1
  Ni  Ni21  1  0.84366500  0.06992500  0.47986400  1
  Ni  Ni22  1  0.59910100  0.23577600  0.63619100  1
  Ni  Ni23  1  0.40089900  0.76422400  0.36380900  1
  Ni  Ni24  1  0.61999900  0.10517600  0.66667000  1
  Ni  Ni25  1  0.38000100  0.89482400  0.33333000  1
  Ni  Ni26  1  0.39819600  0.15759600  0.64346800  1
  Ni  Ni27  1  0.60180400  0.84240400  0.35653200  1
  C  C28  1  0.65699200  0.41360400  0.07998000  1
  C  C29  1  0.34300800  0.58639600  0.92002000  1
  C  C30  1  0.92404900  0.22333900  0.20501900  1
  C  C31  1  0.07595100  0.77666100  0.79498100  1
  C  C32  1  0.13988100  0.40738900  0.06840600  1
  C  C33  1  0.86011900  0.59261100  0.93159400  1
  C  C34  1  0.86528300  0.08922700  0.92128700  1
  C  C35  1  0.13471700  0.91077300  0.07871300  1
  C  C36  1  0.05821300  0.27742000  0.78424900  1
  C  C37  1  0.94178700  0.72258000  0.21575100  1
  C  C38  1  0.33610700  0.08913900  0.91528400  1
  C  C39  1  0.66389300  0.91086100  0.08471600  1
  Cu  Cu40  1  0.65946800  0.51615500  0.32284500  1
  Cu  Cu41  1  0.34053200  0.48384500  0.67715500  1
  Cu  Cu42  1  0.72240900  0.56689800  0.44008100  1
  Cu  Cu43  1  0.27759100  0.43310200  0.55991900  1
  Cu  Cu44  1  0.43033800  0.20804000  0.19579500  1
  Cu  Cu45  1  0.56966200  0.79196000  0.80420500  1
  Cu  Cu46  1  0.45094700  0.22542100  0.30859500  1
  Cu  Cu47  1  0.54905300  0.77457900  0.69140500  1
  Cu  Cu48  1  0.08108200  0.96169000  0.66851200  1
  Cu  Cu49  1  0.91891800  0.03831000  0.33148800  1
  Cu  Cu50  1  0.07511700  0.88309700  0.55351200  1
  Cu  Cu51  1  0.92488300  0.11690300  0.44648800  1
  Cu  Cu52  1  0.56866300  0.26936400  0.79182400  1
  Cu  Cu53  1  0.43133700  0.73063600  0.20817600  1
  Cu  Cu54  1  0.54294500  0.18653500  0.67721800  1
  Cu  Cu55  1  0.45705500  0.81346500  0.32278200  1
  C  C56  1  0.88561900  0.28514900  0.07391200  1
  C  C57  1  0.11438100  0.71485100  0.92608800  1
  C  C58  1  0.88405200  0.03507800  0.07665200  1
  C  C59  1  0.11594800  0.96492200  0.92334800  1
  C  C60  1  0.11086000  0.46204000  0.91935600  1
  C  C61  1  0.88914000  0.53796000  0.08064400  1
  C  C62  1  0.11131700  0.21547500  0.91847400  1
  C  C63  1  0.88868300  0.78452500  0.08152600  1
  C  C64  1  0.18637200  0.58680000  0.37531000  1
  C  C65  1  0.81362800  0.41320000  0.62469100  1
  C  C66  1  0.78632300  0.48869700  0.26648800  1
  C  C67  1  0.21367700  0.51130300  0.73351200  1
  C  C68  1  0.49112900  0.50348300  0.28421300  1
  C  C69  1  0.50887100  0.49651700  0.71578700  1
  C  C70  1  0.26967700  0.19813500  0.14256300  1
  C  C71  1  0.73032300  0.80186500  0.85743700  1
  C  C72  1  0.57396200  0.20344000  0.15528800  1
  C  C73  1  0.42603800  0.79656000  0.84471200  1
  C  C74  1  0.42896400  0.30335300  0.83495100  1
  C  C75  1  0.57103600  0.69664700  0.16504900  1
  C  C76  1  0.73279500  0.30250700  0.84370400  1
  C  C77  1  0.26720500  0.69749300  0.15629600  1
  C  C78  1  0.24302200  0.99284100  0.72551300  1
  C  C79  1  0.75697800  0.00715900  0.27448700  1
  C  C80  1  0.93314100  0.99135600  0.70160800  1
  C  C81  1  0.06685900  0.00864400  0.29839200  1
