# generated using pymatgen
data_CuNi3C10
_symmetry_space_group_name_H-M   'P 1'
_cell_length_a   5.97880934
_cell_length_b   5.97880934
_cell_length_c   15.20873353
_cell_angle_alpha   89.78351357
_cell_angle_beta   89.78351357
_cell_angle_gamma   59.85209233
_symmetry_Int_Tables_number   1
_chemical_formula_structural   CuNi3C10
_chemical_formula_sum   'Cu2 Ni6 C20'
_cell_volume   470.11028615
_cell_formula_units_Z   2
loop_
 _symmetry_equiv_pos_site_id
 _symmetry_equiv_pos_as_xyz
  1  'x, y, z'
loop_
 _atom_site_type_symbol
 _atom_site_label
 _atom_site_symmetry_multiplicity
 _atom_site_fract_x
 _atom_site_fract_y
 _atom_site_fract_z
 _atom_site_occupancy
  Ni  Ni0  1  0.67226100  0.66205900  0.91447500  1
  Ni  Ni1  1  0.33794100  0.32773900  0.58552500  1
  Ni  Ni2  1  0.32773900  0.33794100  0.08552500  1
  Ni  Ni3  1  0.66205900  0.67226100  0.41447500  1
  Ni  Ni4  1  0.01752700  0.98247300  0.75000000  1
  Ni  Ni5  1  0.98247300  0.01752700  0.25000000  1
  Cu  Cu6  1  0.00000000  0.00000000  0.50000000  1
  Cu  Cu7  1  0.00000000  0.00000000  0.00000000  1
  C  C8  1  0.67009500  0.66086100  0.63595900  1
  C  C9  1  0.33913900  0.32990500  0.86404100  1
  C  C10  1  0.32990500  0.33913900  0.36404100  1
  C  C11  1  0.66086100  0.67009500  0.13595900  1
  C  C12  1  0.65377200  0.68018700  0.74382900  1
  C  C13  1  0.31981300  0.34622800  0.75617100  1
  C  C14  1  0.34622800  0.31981300  0.25617100  1
  C  C15  1  0.68018700  0.65377200  0.24382900  1
  C  C16  1  0.37178800  0.80661400  0.59319700  1
  C  C17  1  0.19338600  0.62821200  0.90680300  1
  C  C18  1  0.62821200  0.19338600  0.40680300  1
  C  C19  1  0.80661400  0.37178800  0.09319700  1
  C  C20  1  0.82691400  0.35177500  0.60367500  1
  C  C21  1  0.64822500  0.17308600  0.89632500  1
  C  C22  1  0.17308600  0.64822500  0.39632500  1
  C  C23  1  0.35177500  0.82691400  0.10367500  1
  C  C24  1  0.82627000  0.80721600  0.59680700  1
  C  C25  1  0.19278400  0.17373000  0.90319300  1
  C  C26  1  0.17373000  0.19278400  0.40319300  1
  C  C27  1  0.80721600  0.82627000  0.09680700  1
