# generated using pymatgen
data_Cu18Ni12C5
_symmetry_space_group_name_H-M   'P 1'
_cell_length_a   5.25189083
_cell_length_b   11.11776835
_cell_length_c   17.22243918
_cell_angle_alpha   90.06997665
_cell_angle_beta   90.16358222
_cell_angle_gamma   107.74489334
_symmetry_Int_Tables_number   1
_chemical_formula_structural   Cu18Ni12C5
_chemical_formula_sum   'Cu36 Ni24 C10'
_cell_volume   957.75629136
_cell_formula_units_Z   2
loop_
 _symmetry_equiv_pos_site_id
 _symmetry_equiv_pos_as_xyz
  1  'x, y, z'
loop_
 _atom_site_type_symbol
 _atom_site_label
 _atom_site_symmetry_multiplicity
 _atom_site_fract_x
 _atom_site_fract_y
 _atom_site_fract_z
 _atom_site_occupancy
  C  C0  1  0.10624400  0.05392200  0.57642200  1
  C  C1  1  0.35959300  0.17955200  0.62182200  1
  C  C2  1  0.88014700  0.93927600  0.42565700  1
  C  C3  1  0.62857600  0.81451000  0.37885600  1
  C  C4  1  0.77409900  0.38647100  0.62073200  1
  C  C5  1  0.20746200  0.60434100  0.37926800  1
  C  C6  1  0.11303000  0.55763300  0.92213000  1
  C  C7  1  0.36988900  0.68545700  0.87974300  1
  C  C8  1  0.87848400  0.43817200  0.07491300  1
  C  C9  1  0.62621000  0.31243600  0.12088200  1
  Ni  Ni10  1  0.05861100  0.02818400  0.83531000  1
  Ni  Ni11  1  0.34175200  0.17065900  0.92289500  1
  Ni  Ni12  1  0.39503900  0.19756800  0.78292000  1
  Ni  Ni13  1  0.69631100  0.34693700  0.86987500  1
  Ni  Ni14  1  0.73381500  0.36657300  0.73837500  1
  Ni  Ni15  1  0.07140700  0.53570800  0.66381000  1
  Ni  Ni16  1  0.34009500  0.67039800  0.57587400  1
  Ni  Ni17  1  0.73856900  0.86869300  0.76420000  1
  Ni  Ni18  1  0.69652300  0.84762300  0.63000800  1
  Ni  Ni19  1  0.63322700  0.81635100  0.49866800  1
  Ni  Ni20  1  0.35074000  0.17568100  0.50214900  1
  Ni  Ni21  1  0.28629900  0.14385300  0.37087300  1
  Ni  Ni22  1  0.24363900  0.12251000  0.23683100  1
  Ni  Ni23  1  0.64315600  0.32118900  0.42450000  1
  Ni  Ni24  1  0.58442500  0.29227600  0.28417600  1
  Ni  Ni25  1  0.91072500  0.45527300  0.33630600  1
  Ni  Ni26  1  0.24776700  0.62425400  0.26171000  1
  Ni  Ni27  1  0.28645500  0.64451000  0.13027000  1
  Ni  Ni28  1  0.58711500  0.79341700  0.21789600  1
  Ni  Ni29  1  0.64208300  0.82113800  0.07827900  1
  Ni  Ni30  1  0.92298400  0.96260700  0.16610200  1
  Ni  Ni31  1  0.63390700  0.31598100  0.00111700  1
  Ni  Ni32  1  0.39780400  0.69875600  0.71636300  1
  Ni  Ni33  1  0.35161100  0.67685000  0.99909100  1
  Cu  Cu34  1  0.18760600  0.09540900  0.77307100  1
  Cu  Cu35  1  0.12975400  0.07001900  0.90958700  1
  Cu  Cu36  1  0.48006000  0.23808400  0.85821500  1
  Cu  Cu37  1  0.52366100  0.26318400  0.72214600  1
  Cu  Cu38  1  0.77234300  0.38619400  0.94082500  1
  Cu  Cu39  1  0.82418000  0.41101200  0.80823800  1
  Cu  Cu40  1  0.85494400  0.42759700  0.67212600  1
  Cu  Cu41  1  0.19096300  0.59513000  0.72751800  1
  Cu  Cu42  1  0.13333300  0.56719600  0.58915300  1
  Cu  Cu43  1  0.41903800  0.71001100  0.50453700  1
  Cu  Cu44  1  0.47764300  0.73874100  0.64063400  1
  Cu  Cu45  1  0.52659400  0.76261800  0.77688600  1
  Cu  Cu46  1  0.84959500  0.92438900  0.83076400  1
  Cu  Cu47  1  0.82174400  0.91137000  0.69208900  1
  Cu  Cu48  1  0.77384000  0.88597100  0.55887900  1
  Cu  Cu49  1  0.71846800  0.85936900  0.42836700  1
  Cu  Cu50  1  0.26766400  0.13370200  0.57269600  1
  Cu  Cu51  1  0.20951900  0.10574900  0.44212100  1
  Cu  Cu52  1  0.16057100  0.07989100  0.30897300  1
  Cu  Cu53  1  0.13204800  0.06671400  0.17041400  1
  Cu  Cu54  1  0.56487700  0.28194800  0.49593700  1
  Cu  Cu55  1  0.50496600  0.25259500  0.35996500  1
  Cu  Cu56  1  0.45544600  0.22826800  0.22370000  1
  Cu  Cu57  1  0.84967400  0.42418300  0.41101400  1
  Cu  Cu58  1  0.79088000  0.39571100  0.27267500  1
  Cu  Cu59  1  0.12668900  0.56327300  0.32785100  1
  Cu  Cu60  1  0.15778600  0.58005000  0.19163400  1
  Cu  Cu61  1  0.21169500  0.60599500  0.05895200  1
  Cu  Cu62  1  0.45747700  0.72740100  0.27836700  1
  Cu  Cu63  1  0.50255600  0.75326400  0.14247300  1
  Cu  Cu64  1  0.79437700  0.89533700  0.22827000  1
  Cu  Cu65  1  0.85374800  0.92171800  0.09162400  1
  Cu  Cu66  1  0.56663700  0.78258900  0.00685900  1
  Cu  Cu67  1  0.71639700  0.35843500  0.07162600  1
  Cu  Cu68  1  0.41896600  0.21004800  0.99410500  1
  Cu  Cu69  1  0.27446800  0.63707600  0.92788800  1
