# generated using pymatgen
data_Cu(NiC8)2
_symmetry_space_group_name_H-M   'P 1'
_cell_length_a   5.60579400
_cell_length_b   5.53276800
_cell_length_c   19.98608190
_cell_angle_alpha   76.14109794
_cell_angle_beta   90.00000000
_cell_angle_gamma   90.00000000
_symmetry_Int_Tables_number   1
_chemical_formula_structural   Cu(NiC8)2
_chemical_formula_sum   'Cu2 Ni4 C32'
_cell_volume   601.83388281
_cell_formula_units_Z   2
loop_
 _symmetry_equiv_pos_site_id
 _symmetry_equiv_pos_as_xyz
  1  'x, y, z'
loop_
 _atom_site_type_symbol
 _atom_site_label
 _atom_site_symmetry_multiplicity
 _atom_site_fract_x
 _atom_site_fract_y
 _atom_site_fract_z
 _atom_site_occupancy
  Ni  Ni0  1  0.24404100  0.31714400  0.42467600  1
  Ni  Ni1  1  0.75595900  0.68285600  0.57532400  1
  Ni  Ni2  1  0.75595900  0.31714400  0.92467600  1
  Ni  Ni3  1  0.24404100  0.68285600  0.07532400  1
  Cu  Cu4  1  0.34319800  0.50000000  0.75000000  1
  Cu  Cu5  1  0.65680200  0.50000000  0.25000000  1
  C  C6  1  0.22113900  0.18226000  0.62026700  1
  C  C7  1  0.77886100  0.18226000  0.12026700  1
  C  C8  1  0.22113900  0.81774000  0.87973300  1
  C  C9  1  0.77886100  0.81774000  0.37973300  1
  C  C10  1  0.04670200  0.83607800  0.43573000  1
  C  C11  1  0.04670200  0.16392200  0.06427000  1
  C  C12  1  0.95329800  0.16392200  0.56427000  1
  C  C13  1  0.95329800  0.83607800  0.93573000  1
  C  C14  1  0.04653300  0.36590900  0.67206200  1
  C  C15  1  0.04653300  0.63409100  0.82793800  1
  C  C16  1  0.95346700  0.63409100  0.32793800  1
  C  C17  1  0.95346700  0.36590900  0.17206200  1
  C  C18  1  0.27939400  0.48979900  0.55541500  1
  C  C19  1  0.27939400  0.51020100  0.94458500  1
  C  C20  1  0.72060600  0.51020100  0.44458500  1
  C  C21  1  0.72060600  0.48979900  0.05541500  1
  C  C22  1  0.60118200  0.03419600  0.06033700  1
  C  C23  1  0.60118200  0.96580400  0.43966300  1
  C  C24  1  0.39881800  0.96580400  0.93966300  1
  C  C25  1  0.39881800  0.03419600  0.56033700  1
  C  C26  1  0.85775800  0.88520500  0.17630400  1
  C  C27  1  0.85775800  0.11479500  0.32369600  1
  C  C28  1  0.14224200  0.11479500  0.82369600  1
  C  C29  1  0.14224200  0.88520500  0.67630400  1
  C  C30  1  0.48124000  0.75165400  0.83215300  1
  C  C31  1  0.48124000  0.24834600  0.66784700  1
  C  C32  1  0.51876000  0.24834600  0.16784700  1
  C  C33  1  0.51876000  0.75165400  0.33215300  1
  C  C34  1  0.38976100  0.71728000  0.18548100  1
  C  C35  1  0.38976100  0.28272000  0.31451900  1
  C  C36  1  0.61023900  0.28272000  0.81451900  1
  C  C37  1  0.61023900  0.71728000  0.68548100  1
