# generated using pymatgen
data_Cu4NiC16
_symmetry_space_group_name_H-M   'P 1'
_cell_length_a   5.68421842
_cell_length_b   5.98208433
_cell_length_c   7.89492300
_cell_angle_alpha   90.00000000
_cell_angle_beta   90.00000000
_cell_angle_gamma   71.85720044
_symmetry_Int_Tables_number   1
_chemical_formula_structural   Cu4NiC16
_chemical_formula_sum   'Cu4 Ni1 C16'
_cell_volume   255.10814627
_cell_formula_units_Z   1
loop_
 _symmetry_equiv_pos_site_id
 _symmetry_equiv_pos_as_xyz
  1  'x, y, z'
loop_
 _atom_site_type_symbol
 _atom_site_label
 _atom_site_symmetry_multiplicity
 _atom_site_fract_x
 _atom_site_fract_y
 _atom_site_fract_z
 _atom_site_occupancy
  Ni  Ni0  1  0.80288100  0.77826700  0.25000000  1
  C  C1  1  0.97571000  0.47727400  0.96935300  1
  C  C2  1  0.97571000  0.47727400  0.53064700  1
  C  C3  1  0.56783100  0.06448400  0.98570600  1
  C  C4  1  0.56783100  0.06448400  0.51429400  1
  Cu  Cu5  1  0.07025800  0.98308400  0.75000000  1
  Cu  Cu6  1  0.49989500  0.49367300  0.75000000  1
  Cu  Cu7  1  0.44853400  0.46810000  0.25000000  1
  Cu  Cu8  1  0.12546000  0.03327200  0.25000000  1
  C  C9  1  0.05521300  0.46385100  0.25000000  1
  C  C10  1  0.23215400  0.17639100  0.54260300  1
  C  C11  1  0.23215400  0.17639100  0.95739700  1
  C  C12  1  0.20174800  0.65380500  0.93399200  1
  C  C13  1  0.20174800  0.65380500  0.56600800  1
  C  C14  1  0.51728100  0.07016400  0.25000000  1
  C  C15  1  0.64699400  0.07291300  0.75000000  1
  C  C16  1  0.70890700  0.30495700  0.03160200  1
  C  C17  1  0.70890700  0.30495700  0.46839800  1
  C  C18  1  0.72288200  0.75669000  0.01429900  1
  C  C19  1  0.72288200  0.75669000  0.48570100  1
  C  C20  1  0.89002000  0.44447500  0.75000000  1
