# generated using pymatgen
data_CuNiC7
_symmetry_space_group_name_H-M   'P 1'
_cell_length_a   7.38170100
_cell_length_b   7.87178500
_cell_length_c   10.33547200
_cell_angle_alpha   90.00000000
_cell_angle_beta   90.00000000
_cell_angle_gamma   90.00000000
_symmetry_Int_Tables_number   1
_chemical_formula_structural   CuNiC7
_chemical_formula_sum   'Cu4 Ni4 C28'
_cell_volume   600.56495832
_cell_formula_units_Z   4
loop_
 _symmetry_equiv_pos_site_id
 _symmetry_equiv_pos_as_xyz
  1  'x, y, z'
loop_
 _atom_site_type_symbol
 _atom_site_label
 _atom_site_symmetry_multiplicity
 _atom_site_fract_x
 _atom_site_fract_y
 _atom_site_fract_z
 _atom_site_occupancy
  Ni  Ni0  1  0.75000000  0.86693300  0.74215100  1
  Ni  Ni1  1  0.75000000  0.36693300  0.75784900  1
  Ni  Ni2  1  0.25000000  0.13306700  0.25784900  1
  Ni  Ni3  1  0.25000000  0.63306700  0.24215100  1
  Cu  Cu4  1  0.25000000  0.80440400  0.55642200  1
  Cu  Cu5  1  0.25000000  0.30440400  0.94357800  1
  Cu  Cu6  1  0.75000000  0.19559600  0.44357800  1
  Cu  Cu7  1  0.75000000  0.69559600  0.05642200  1
  C  C8  1  0.75000000  0.61333500  0.69549400  1
  C  C9  1  0.75000000  0.11333500  0.80450600  1
  C  C10  1  0.25000000  0.38666500  0.30450600  1
  C  C11  1  0.25000000  0.88666500  0.19549400  1
  C  C12  1  0.75000000  0.96701900  0.52553600  1
  C  C13  1  0.75000000  0.46701900  0.97446400  1
  C  C14  1  0.25000000  0.03298100  0.47446400  1
  C  C15  1  0.25000000  0.53298100  0.02553600  1
  C  C16  1  0.92895900  0.77403500  0.93005300  1
  C  C17  1  0.57104100  0.27403500  0.56994700  1
  C  C18  1  0.42895900  0.22596500  0.06994700  1
  C  C19  1  0.07104100  0.72596500  0.43005300  1
  C  C20  1  0.07104100  0.22596500  0.06994700  1
  C  C21  1  0.42895900  0.72596500  0.43005300  1
  C  C22  1  0.57104100  0.77403500  0.93005300  1
  C  C23  1  0.92895900  0.27403500  0.56994700  1
  C  C24  1  0.43471200  0.88054200  0.67994800  1
  C  C25  1  0.06528800  0.38054200  0.82005200  1
  C  C26  1  0.93471200  0.11945800  0.32005200  1
  C  C27  1  0.56528800  0.61945800  0.17994800  1
  C  C28  1  0.56528800  0.11945800  0.32005200  1
  C  C29  1  0.93471200  0.61945800  0.17994800  1
  C  C30  1  0.06528800  0.88054200  0.67994800  1
  C  C31  1  0.43471200  0.38054200  0.82005200  1
  C  C32  1  0.25000000  0.58221300  0.63630000  1
  C  C33  1  0.25000000  0.08221300  0.86370000  1
  C  C34  1  0.75000000  0.41778700  0.36370000  1
  C  C35  1  0.75000000  0.91778700  0.13630000  1
