# generated using pymatgen
data_CuNiC8
_symmetry_space_group_name_H-M   'P 1'
_cell_length_a   5.44576088
_cell_length_b   5.61920500
_cell_length_c   7.88579015
_cell_angle_alpha   90.00000000
_cell_angle_beta   89.63601992
_cell_angle_gamma   90.00000000
_symmetry_Int_Tables_number   1
_chemical_formula_structural   CuNiC8
_chemical_formula_sum   'Cu2 Ni2 C16'
_cell_volume   241.30698676
_cell_formula_units_Z   2
loop_
 _symmetry_equiv_pos_site_id
 _symmetry_equiv_pos_as_xyz
  1  'x, y, z'
loop_
 _atom_site_type_symbol
 _atom_site_label
 _atom_site_symmetry_multiplicity
 _atom_site_fract_x
 _atom_site_fract_y
 _atom_site_fract_z
 _atom_site_occupancy
  C  C0  1  0.01003500  0.95868700  0.75026600  1
  C  C1  1  0.51003500  0.54131300  0.25026600  1
  Ni  Ni2  1  0.47795400  0.44369100  0.75138000  1
  Ni  Ni3  1  0.97795400  0.05630900  0.25138000  1
  C  C4  1  0.50023100  0.00171500  0.49947200  1
  C  C5  1  0.00023100  0.49828500  0.99947200  1
  Cu  Cu6  1  0.49881600  0.00084400  0.00235100  1
  Cu  Cu7  1  0.99881600  0.49915600  0.50235100  1
  C  C8  1  0.09159700  0.43836300  0.24588500  1
  C  C9  1  0.21082500  0.22195800  0.93766300  1
  C  C10  1  0.21701200  0.21208100  0.55901300  1
  C  C11  1  0.31235100  0.68719700  0.93739000  1
  C  C12  1  0.31838000  0.69155800  0.56336900  1
  C  C13  1  0.36279700  0.96739300  0.25321300  1
  C  C14  1  0.59159700  0.06163700  0.74588500  1
  C  C15  1  0.71082500  0.27804200  0.43766300  1
  C  C16  1  0.71701200  0.28791900  0.05901300  1
  C  C17  1  0.81235100  0.81280300  0.43739000  1
  C  C18  1  0.81838000  0.80844200  0.06336900  1
  C  C19  1  0.86279700  0.53260700  0.75321300  1
