# generated using pymatgen
data_Cu3NiC9
_symmetry_space_group_name_H-M   'P 1'
_cell_length_a   16.85689279
_cell_length_b   9.03695642
_cell_length_c   16.18045988
_cell_angle_alpha   90.00000000
_cell_angle_beta   90.00000000
_cell_angle_gamma   90.00000000
_symmetry_Int_Tables_number   1
_chemical_formula_structural   Cu3NiC9
_chemical_formula_sum   'Cu24 Ni8 C72'
_cell_volume   2464.85044513
_cell_formula_units_Z   8
loop_
 _symmetry_equiv_pos_site_id
 _symmetry_equiv_pos_as_xyz
  1  'x, y, z'
loop_
 _atom_site_type_symbol
 _atom_site_label
 _atom_site_symmetry_multiplicity
 _atom_site_fract_x
 _atom_site_fract_y
 _atom_site_fract_z
 _atom_site_occupancy
  C  C0  1  0.50000000  0.50000000  -0.00000000  1
  C  C1  1  -0.00000000  -0.00000000  0.50000000  1
  C  C2  1  0.50000000  0.50000000  0.50000000  1
  C  C3  1  -0.00000000  -0.00000000  -0.00000000  1
  C  C4  1  0.50000000  -0.00000000  -0.00000000  1
  C  C5  1  -0.00000000  0.50000000  0.50000000  1
  C  C6  1  0.50000000  -0.00000000  0.50000000  1
  C  C7  1  -0.00000000  0.50000000  -0.00000000  1
  Ni  Ni8  1  0.14363942  0.11153748  0.34314689  1
  Ni  Ni9  1  0.64363942  0.38846252  0.15685311  1
  Ni  Ni10  1  0.85636058  0.88846252  0.84314689  1
  Ni  Ni11  1  0.35636058  0.61153748  0.65685311  1
  Ni  Ni12  1  0.85636058  0.88846252  0.65685311  1
  Ni  Ni13  1  0.35636058  0.61153748  0.84314689  1
  Ni  Ni14  1  0.14363942  0.11153748  0.15685311  1
  Ni  Ni15  1  0.64363942  0.38846252  0.34314689  1
  Cu  Cu16  1  0.62995728  0.67975691  0.43747599  1
  Cu  Cu17  1  0.12995728  0.82024309  0.06252401  1
  Cu  Cu18  1  0.37004272  0.32024309  0.93747599  1
  Cu  Cu19  1  0.87004272  0.17975691  0.56252401  1
  Cu  Cu20  1  0.37004272  0.32024309  0.56252401  1
  Cu  Cu21  1  0.87004272  0.17975691  0.93747599  1
  Cu  Cu22  1  0.62995728  0.67975691  0.06252401  1
  Cu  Cu23  1  0.12995728  0.82024309  0.43747599  1
  Cu  Cu24  1  0.90190003  0.42330692  0.82155239  1
  Cu  Cu25  1  0.40190003  0.07669308  0.67844761  1
  Cu  Cu26  1  0.09809997  0.57669308  0.32155239  1
  Cu  Cu27  1  0.59809997  0.92330692  0.17844761  1
  Cu  Cu28  1  0.09809997  0.57669308  0.17844761  1
  Cu  Cu29  1  0.59809997  0.92330692  0.32155239  1
  Cu  Cu30  1  0.90190003  0.42330692  0.67844761  1
  Cu  Cu31  1  0.40190003  0.07669308  0.82155239  1
  Cu  Cu32  1  0.70478722  0.16341202  0.03577212  1
  Cu  Cu33  1  0.20478722  0.33658798  0.46422788  1
  Cu  Cu34  1  0.29521278  0.83658798  0.53577212  1
  Cu  Cu35  1  0.79521278  0.66341202  0.96422788  1
  Cu  Cu36  1  0.29521278  0.83658798  0.96422788  1
  Cu  Cu37  1  0.79521278  0.66341202  0.53577212  1
  Cu  Cu38  1  0.70478722  0.16341202  0.46422788  1
  Cu  Cu39  1  0.20478722  0.33658798  0.03577212  1
  C  C40  1  0.61614006  0.51658756  0.10143653  1
  C  C41  1  0.11614006  0.98341244  0.39856347  1
  C  C42  1  0.38385994  0.48341244  0.60143653  1
  C  C43  1  0.88385994  0.01658756  0.89856347  1
  C  C44  1  0.38385994  0.48341244  0.89856347  1
  C  C45  1  0.88385994  0.01658756  0.60143653  1
  C  C46  1  0.61614006  0.51658756  0.39856347  1
  C  C47  1  0.11614006  0.98341244  0.10143653  1
  C  C48  1  0.53378907  0.02063287  0.13850064  1
  C  C49  1  0.03378907  0.47936713  0.36149936  1
  C  C50  1  0.46621093  0.97936713  0.63850064  1
  C  C51  1  0.96621093  0.52063287  0.86149936  1
  C  C52  1  0.46621093  0.97936713  0.86149936  1
  C  C53  1  0.96621093  0.52063287  0.63850064  1
  C  C54  1  0.53378907  0.02063287  0.36149936  1
  C  C55  1  0.03378907  0.47936713  0.13850064  1
  C  C56  1  0.94932898  0.23032676  0.51551687  1
  C  C57  1  0.44932898  0.26967324  0.98448313  1
  C  C58  1  0.05067102  0.76967324  0.01551687  1
  C  C59  1  0.55067102  0.73032676  0.48448313  1
  C  C60  1  0.05067102  0.76967324  0.48448313  1
  C  C61  1  0.55067102  0.73032676  0.01551687  1
  C  C62  1  0.94932898  0.23032676  0.98448313  1
  C  C63  1  0.44932898  0.26967324  0.51551687  1
  C  C64  1  0.70680767  0.67946812  0.99933544  1
  C  C65  1  0.20680767  0.82053188  0.50066456  1
  C  C66  1  0.29319233  0.32053188  0.49933544  1
  C  C67  1  0.79319233  0.17946812  0.00066456  1
  C  C68  1  0.29319233  0.32053188  0.00066456  1
  C  C69  1  0.79319233  0.17946812  0.49933544  1
  C  C70  1  0.70680767  0.67946812  0.50066456  1
  C  C71  1  0.20680767  0.82053188  0.99933544  1
  C  C72  1  0.64689298  0.05162533  0.99446633  1
  C  C73  1  0.14689298  0.44837467  0.50553367  1
  C  C74  1  0.35310702  0.94837467  0.49446633  1
  C  C75  1  0.85310702  0.55162533  0.00553367  1
  C  C76  1  0.35310702  0.94837467  0.00553367  1
  C  C77  1  0.85310702  0.55162533  0.49446633  1
  C  C78  1  0.64689298  0.05162533  0.50553367  1
  C  C79  1  0.14689298  0.44837467  0.99446633  1
  C  C80  1  0.68780272  0.25797883  0.11537920  1
  C  C81  1  0.18780272  0.24202117  0.38462080  1
  C  C82  1  0.31219728  0.74202117  0.61537920  1
  C  C83  1  0.81219728  0.75797883  0.88462080  1
  C  C84  1  0.31219728  0.74202117  0.88462080  1
  C  C85  1  0.81219728  0.75797883  0.61537920  1
  C  C86  1  0.68780272  0.25797883  0.38462080  1
  C  C87  1  0.18780272  0.24202117  0.11537920  1
  C  C88  1  0.84564906  0.29682873  0.86019053  1
  C  C89  1  0.34564906  0.20317127  0.63980947  1
  C  C90  1  0.15435094  0.70317127  0.36019053  1
  C  C91  1  0.65435094  0.79682873  0.13980947  1
  C  C92  1  0.15435094  0.70317127  0.13980947  1
  C  C93  1  0.65435094  0.79682873  0.36019053  1
  C  C94  1  0.84564906  0.29682873  0.63980947  1
  C  C95  1  0.34564906  0.20317127  0.86019053  1
  C  C96  1  0.33530760  0.36578961  0.25000000  1
  C  C97  1  0.83530760  0.13421039  0.25000000  1
  C  C98  1  0.66469240  0.63421039  0.75000000  1
  C  C99  1  0.16469240  0.86578961  0.75000000  1
  C  C100  1  0.63059147  0.38570861  0.25000000  1
  C  C101  1  0.13059147  0.11429139  0.25000000  1
  C  C102  1  0.36940853  0.61429139  0.75000000  1
  C  C103  1  0.86940853  0.88570861  0.75000000  1
