# generated using pymatgen
data_CuNi3C20
_symmetry_space_group_name_H-M   'P 1'
_cell_length_a   5.60450289
_cell_length_b   5.59699342
_cell_length_c   10.65828488
_cell_angle_alpha   90.00000000
_cell_angle_beta   74.75674285
_cell_angle_gamma   90.00000000
_symmetry_Int_Tables_number   1
_chemical_formula_structural   CuNi3C20
_chemical_formula_sum   'Cu1 Ni3 C20'
_cell_volume   322.57056693
_cell_formula_units_Z   1
loop_
 _symmetry_equiv_pos_site_id
 _symmetry_equiv_pos_as_xyz
  1  'x, y, z'
loop_
 _atom_site_type_symbol
 _atom_site_label
 _atom_site_symmetry_multiplicity
 _atom_site_fract_x
 _atom_site_fract_y
 _atom_site_fract_z
 _atom_site_occupancy
  C  C0  1  0.99904800  0.50000000  0.00190400  1
  C  C1  1  0.81751300  0.50000000  0.36497400  1
  C  C2  1  0.31613800  0.00000000  0.36772300  1
  C  C3  1  0.49768700  0.00000000  0.00462700  1
  C  C4  1  0.68300500  0.00000000  0.63399000  1
  C  C5  1  0.18063700  0.50000000  0.63872700  1
  Ni  Ni6  1  0.59764700  0.50000000  0.80470700  1
  Ni  Ni7  1  0.09678100  0.00000000  0.80643800  1
  Ni  Ni8  1  0.89867200  0.00000000  0.20265600  1
  Cu  Cu9  1  0.39893500  0.50000000  0.20213000  1
  C  C10  1  0.19810900  0.00000000  0.60378200  1
  C  C11  1  0.70143100  0.50000000  0.59713900  1
  C  C12  1  0.29724400  0.50000000  0.40551200  1
  C  C13  1  0.79460400  0.00000000  0.41079200  1
  C  C14  1  0.34957500  0.24483000  0.80025200  1
  C  C15  1  0.85017300  0.75517000  0.80025200  1
  C  C16  1  0.85017300  0.24483000  0.80025200  1
  C  C17  1  0.34957500  0.75517000  0.80025200  1
  C  C18  1  0.16526100  0.24848300  0.18834400  1
  C  C19  1  0.64639500  0.75151700  0.18834400  1
  C  C20  1  0.64639500  0.24848300  0.18834400  1
  C  C21  1  0.16526100  0.75151700  0.18834400  1
  C  C22  1  0.49693400  0.50000000  0.00613200  1
  C  C23  1  0.00280800  0.00000000  0.99438300  1
