# generated using pymatgen
data_CuNiC16
_symmetry_space_group_name_H-M   'P 1'
_cell_length_a   5.31714078
_cell_length_b   5.31714078
_cell_length_c   7.47696111
_cell_angle_alpha   90.00000000
_cell_angle_beta   90.00000000
_cell_angle_gamma   93.37907173
_symmetry_Int_Tables_number   1
_chemical_formula_structural   CuNiC16
_chemical_formula_sum   'Cu1 Ni1 C16'
_cell_volume   211.02102498
_cell_formula_units_Z   1
loop_
 _symmetry_equiv_pos_site_id
 _symmetry_equiv_pos_as_xyz
  1  'x, y, z'
loop_
 _atom_site_type_symbol
 _atom_site_label
 _atom_site_symmetry_multiplicity
 _atom_site_fract_x
 _atom_site_fract_y
 _atom_site_fract_z
 _atom_site_occupancy
  Ni  Ni0  1  0.01017766  0.98982234  0.50000000  1
  Cu  Cu1  1  0.48098893  0.51901107  0.00000000  1
  C  C2  1  0.48681224  0.02241852  0.25797435  1
  C  C3  1  0.48681224  0.02241852  0.74202565  1
  C  C4  1  0.97758148  0.51318776  0.74202565  1
  C  C5  1  0.97758148  0.51318776  0.25797435  1
  C  C6  1  0.30267343  0.29081620  0.24822659  1
  C  C7  1  0.70918380  0.69732657  0.24822659  1
  C  C8  1  0.70918380  0.69732657  0.75177341  1
  C  C9  1  0.30267343  0.29081620  0.75177341  1
  C  C10  1  0.22467495  0.77532505  0.20563026  1
  C  C11  1  0.79405262  0.20594738  0.29155996  1
  C  C12  1  0.79405262  0.20594738  0.70844004  1
  C  C13  1  0.22467495  0.77532505  0.79436974  1
  C  C14  1  0.54722720  0.03548666  0.00000000  1
  C  C15  1  0.45335086  0.96421503  0.50000000  1
  C  C16  1  0.96451334  0.45277280  0.00000000  1
  C  C17  1  0.03578497  0.54664914  0.50000000  1
