# generated using pymatgen
data_CuNiC4
_symmetry_space_group_name_H-M   'P 1'
_cell_length_a   3.38076219
_cell_length_b   3.38076219
_cell_length_c   38.51732600
_cell_angle_alpha   90.00000000
_cell_angle_beta   90.00000000
_cell_angle_gamma   120.00000379
_symmetry_Int_Tables_number   1
_chemical_formula_structural   CuNiC4
_chemical_formula_sum   'Cu2 Ni2 C8'
_cell_volume   381.25538866
_cell_formula_units_Z   2
loop_
 _symmetry_equiv_pos_site_id
 _symmetry_equiv_pos_as_xyz
  1  'x, y, z'
loop_
 _atom_site_type_symbol
 _atom_site_label
 _atom_site_symmetry_multiplicity
 _atom_site_fract_x
 _atom_site_fract_y
 _atom_site_fract_z
 _atom_site_occupancy
  C  C0  1  0.33333300  0.66666700  0.33066800  1
  C  C1  1  0.33333300  0.66666700  0.23292100  1
  Ni  Ni2  1  0.33333300  0.66666700  0.09392500  1
  Ni  Ni3  1  0.66666700  0.33333300  0.28180200  1
  Cu  Cu4  1  0.33333300  0.66666700  0.46967500  1
  Cu  Cu5  1  0.66666700  0.33333300  0.65753000  1
  C  C6  1  0.33333300  0.66666700  0.70069300  1
  C  C7  1  0.66666700  0.33333300  0.05090400  1
  C  C8  1  0.66666700  0.33333300  0.42650600  1
  C  C9  1  0.66666700  0.33333300  0.13694800  1
  C  C10  1  0.66666700  0.33333300  0.51282500  1
  C  C11  1  0.33333300  0.66666700  0.61435200  1
