# generated using pymatgen
data_Cu4Ni2C13
_symmetry_space_group_name_H-M   'P 1'
_cell_length_a   6.69193500
_cell_length_b   9.28934391
_cell_length_c   13.02720632
_cell_angle_alpha   106.72907408
_cell_angle_beta   99.25598208
_cell_angle_gamma   102.78929700
_symmetry_Int_Tables_number   1
_chemical_formula_structural   Cu4Ni2C13
_chemical_formula_sum   'Cu12 Ni6 C39'
_cell_volume   734.11435681
_cell_formula_units_Z   3
loop_
 _symmetry_equiv_pos_site_id
 _symmetry_equiv_pos_as_xyz
  1  'x, y, z'
loop_
 _atom_site_type_symbol
 _atom_site_label
 _atom_site_symmetry_multiplicity
 _atom_site_fract_x
 _atom_site_fract_y
 _atom_site_fract_z
 _atom_site_occupancy
  C  C0  1  0.24504200  0.21758000  0.91624800  1
  C  C1  1  0.75514500  0.78571200  0.08571900  1
  C  C2  1  0.07284700  0.79757200  0.66214200  1
  C  C3  1  0.91018400  0.21396300  0.35336400  1
  C  C4  1  0.83464900  0.12339900  0.64203100  1
  C  C5  1  0.16086700  0.87587100  0.35734900  1
  C  C6  1  0.50327500  0.44453900  0.22518200  1
  C  C7  1  0.49666800  0.55304000  0.77653500  1
  Ni  Ni8  1  0.68678600  0.96148500  0.85647500  1
  Ni  Ni9  1  0.31087800  0.03843600  0.14483800  1
  Ni  Ni10  1  0.32913400  0.17458000  0.60252500  1
  Ni  Ni11  1  0.66971100  0.82387800  0.39789400  1
  Ni  Ni12  1  0.98980800  0.50856500  0.79409400  1
  Ni  Ni13  1  0.00963800  0.49146800  0.20320600  1
  Cu  Cu14  1  0.56097300  0.75918900  0.58766500  1
  Cu  Cu15  1  0.42769300  0.23078400  0.40159100  1
  Cu  Cu16  1  0.48691600  0.06190100  0.75131900  1
  Cu  Cu17  1  0.51179200  0.93782000  0.24886200  1
  Cu  Cu18  1  0.86640700  0.43802700  0.01558200  1
  Cu  Cu19  1  0.13485400  0.56208100  0.98135800  1
  Cu  Cu20  1  0.15858800  0.80989800  0.98855200  1
  Cu  Cu21  1  0.83912800  0.18893700  0.01254600  1
  Cu  Cu22  1  0.56800500  0.59252500  0.58457100  1
  Cu  Cu23  1  0.44887200  0.40473800  0.41823100  1
  Cu  Cu24  1  0.19238500  0.55631700  0.52528900  1
  Cu  Cu25  1  0.99795200  0.56335900  0.44623900  1
  C  C26  1  0.95454800  0.38946400  0.05466000  1
  C  C27  1  0.04235700  0.60875000  0.94317000  1
  C  C28  1  0.38095600  0.21553000  0.12836500  1
  C  C29  1  0.61617500  0.78303600  0.87056300  1
  C  C30  1  0.19917500  0.92550800  0.00423700  1
  C  C31  1  0.79881700  0.07331600  0.99702300  1
  C  C32  1  0.15719300  0.78782000  0.45002100  1
  C  C33  1  0.82837600  0.20731600  0.54802600  1
  C  C34  1  0.78948500  0.57177700  0.74283600  1
  C  C35  1  0.21145700  0.43242900  0.25693800  1
  C  C36  1  0.13279500  0.10165500  0.65983700  1
  C  C37  1  0.86415500  0.89954000  0.34047400  1
  C  C38  1  0.94627700  0.31788400  0.78631800  1
  C  C39  1  0.05068800  0.68252300  0.21160600  1
  C  C40  1  0.61945000  0.62499400  0.36513500  1
  C  C41  1  0.38731400  0.37375300  0.63659500  1
  C  C42  1  0.20962500  0.59283500  0.75936500  1
  C  C43  1  0.79478800  0.40978900  0.24286400  1
  C  C44  1  0.50588800  0.47717200  0.87617200  1
  C  C45  1  0.49667100  0.52118100  0.12571500  1
  C  C46  1  0.72536000  0.89134400  0.54031400  1
  C  C47  1  0.27206500  0.10549700  0.46034200  1
  C  C48  1  0.48930100  0.66801400  0.60765900  1
  C  C49  1  0.49872100  0.31887800  0.37895400  1
  C  C50  1  0.85282300  0.99682700  0.77544300  1
  C  C51  1  0.14577800  0.00201200  0.22606600  1
  C  C52  1  0.46129200  0.01802500  0.81633500  1
  C  C53  1  0.53774600  0.98327200  0.18537500  1
  C  C54  1  0.53206000  0.11315300  0.66132700  1
  C  C55  1  0.46351900  0.88214000  0.33923600  1
  C  C56  1  0.03844200  0.51100500  0.49832200  1
