# generated using pymatgen
data_Cu(NiC4)5
_symmetry_space_group_name_H-M   'P 1'
_cell_length_a   10.03547150
_cell_length_b   10.03547150
_cell_length_c   10.03547150
_cell_angle_alpha   108.88574638
_cell_angle_beta   108.88574638
_cell_angle_gamma   110.64862377
_symmetry_Int_Tables_number   1
_chemical_formula_structural   Cu(NiC4)5
_chemical_formula_sum   'Cu2 Ni10 C40'
_cell_volume   777.77425371
_cell_formula_units_Z   2
loop_
 _symmetry_equiv_pos_site_id
 _symmetry_equiv_pos_as_xyz
  1  'x, y, z'
loop_
 _atom_site_type_symbol
 _atom_site_label
 _atom_site_symmetry_multiplicity
 _atom_site_fract_x
 _atom_site_fract_y
 _atom_site_fract_z
 _atom_site_occupancy
  Ni  Ni0  1  0.01432700  0.10045300  0.67505300  1
  Ni  Ni1  1  0.35045300  0.17540000  0.58612600  1
  Ni  Ni2  1  0.58927400  0.76432700  0.41387400  1
  Ni  Ni3  1  0.42540000  0.33927400  0.32494700  1
  Ni  Ni4  1  0.23567300  0.64954700  0.82494700  1
  Ni  Ni5  1  0.50000000  0.50000000  0.00000000  1
  Ni  Ni6  1  0.66072600  0.98567300  0.08612600  1
  Ni  Ni7  1  0.82460000  0.41072600  0.17505300  1
  Ni  Ni8  1  0.75000000  0.25000000  0.50000000  1
  Ni  Ni9  1  0.89954700  0.57460000  0.91387400  1
  Cu  Cu10  1  0.00000000  0.00000000  0.00000000  1
  Cu  Cu11  1  0.25000000  0.75000000  0.50000000  1
  C  C12  1  0.08205000  0.30584800  0.40870100  1
  C  C13  1  0.92334900  0.83205000  0.27620200  1
  C  C14  1  0.55584800  0.64714700  0.72379800  1
  C  C15  1  0.89714700  0.67334900  0.59129900  1
  C  C16  1  0.35285300  0.07665100  0.90870100  1
  C  C17  1  0.32665100  0.91795000  0.22379800  1
  C  C18  1  0.69415200  0.10285300  0.77620200  1
  C  C19  1  0.16795000  0.44415200  0.09129900  1
  C  C20  1  0.38152300  0.49975700  0.17779100  1
  C  C21  1  0.74975700  0.07196600  0.61823400  1
  C  C22  1  0.45373200  0.13152300  0.38176600  1
  C  C23  1  0.32196600  0.20373200  0.82220900  1
  C  C24  1  0.86847700  0.25024300  0.32220900  1
  C  C25  1  0.50024300  0.67803400  0.88176600  1
  C  C26  1  0.79626800  0.61847700  0.11823400  1
  C  C27  1  0.92803400  0.54626800  0.67779100  1
  C  C28  1  0.14674500  0.24417600  0.25670300  1
  C  C29  1  0.49417600  0.73747300  0.59743100  1
  C  C30  1  0.14004200  0.89674500  0.40256900  1
  C  C31  1  0.98747300  0.89004200  0.74329700  1
  C  C32  1  0.10325500  0.50582400  0.24329700  1
  C  C33  1  0.75582400  0.01252700  0.90256900  1
  C  C34  1  0.10995800  0.85325500  0.09743100  1
  C  C35  1  0.26252700  0.85995800  0.75670300  1
  C  C36  1  0.04911500  0.22359200  0.94712400  1
  C  C37  1  0.47359200  0.02646700  0.67447600  1
  C  C38  1  0.35199100  0.79911500  0.32552400  1
  C  C39  1  0.27646700  0.10199100  0.05287600  1
  C  C40  1  0.67947300  0.57871500  0.46843000  1
  C  C41  1  0.82871500  0.86028500  0.39924200  1
  C  C42  1  0.46104300  0.42947300  0.60075800  1
  C  C43  1  0.11028500  0.21104300  0.53157000  1
  C  C44  1  0.57052700  0.17128500  0.03157000  1
  C  C45  1  0.42128500  0.88971500  0.10075800  1
  C  C46  1  0.78895700  0.32052700  0.89924200  1
  C  C47  1  0.13971500  0.53895700  0.96843000  1
  C  C48  1  0.97353300  0.64800900  0.44712400  1
  C  C49  1  0.89800900  0.95088500  0.17447600  1
  C  C50  1  0.77640800  0.72353300  0.82552400  1
  C  C51  1  0.20088500  0.52640800  0.55287600  1
