# generated using pymatgen
data_Cu2Ni6C19
_symmetry_space_group_name_H-M   'P 1'
_cell_length_a   7.11493900
_cell_length_b   11.93116929
_cell_length_c   11.98341413
_cell_angle_alpha   119.53520605
_cell_angle_beta   90.63380676
_cell_angle_gamma   90.17443033
_symmetry_Int_Tables_number   1
_chemical_formula_structural   Cu2Ni6C19
_chemical_formula_sum   'Cu4 Ni12 C38'
_cell_volume   884.97938807
_cell_formula_units_Z   2
loop_
 _symmetry_equiv_pos_site_id
 _symmetry_equiv_pos_as_xyz
  1  'x, y, z'
loop_
 _atom_site_type_symbol
 _atom_site_label
 _atom_site_symmetry_multiplicity
 _atom_site_fract_x
 _atom_site_fract_y
 _atom_site_fract_z
 _atom_site_occupancy
  Ni  Ni0  1  0.99714800  0.33408700  0.66262100  1
  Ni  Ni1  1  0.48754900  0.66571600  0.33400500  1
  Ni  Ni2  1  0.67458900  0.65220000  0.82212700  1
  Ni  Ni3  1  0.67529400  0.17074800  0.35290500  1
  Ni  Ni4  1  0.67576600  0.17382800  0.82007000  1
  Ni  Ni5  1  0.17621500  0.35372500  0.17446600  1
  Ni  Ni6  1  0.17394600  0.82425000  0.65012000  1
  Ni  Ni7  1  0.17077000  0.82242800  0.17863200  1
  Ni  Ni8  1  0.33439400  0.04678300  0.52050800  1
  Ni  Ni9  1  0.83761100  0.52202400  0.04979900  1
  Ni  Ni10  1  0.49923300  0.00369000  0.00367200  1
  Ni  Ni11  1  0.00066600  0.00153500  0.00045500  1
  Cu  Cu12  1  0.33809200  0.47339600  0.95279500  1
  Cu  Cu13  1  0.34430500  0.48011600  0.52569900  1
  Cu  Cu14  1  0.83932100  0.95040200  0.47421700  1
  Cu  Cu15  1  0.84583500  0.52669800  0.47983800  1
  C  C16  1  0.17752900  0.64828100  0.82334900  1
  C  C17  1  0.16533100  0.18265000  0.35496200  1
  C  C18  1  0.17145500  0.17430400  0.81934400  1
  C  C19  1  0.66793600  0.35683100  0.18336400  1
  C  C20  1  0.67536600  0.82264300  0.64802600  1
  C  C21  1  0.66904200  0.81651200  0.17063500  1
  C  C22  1  0.54269200  0.33526400  0.66547300  1
  C  C23  1  0.02766700  0.66064300  0.33140600  1
  C  C24  1  0.53782100  0.40216000  0.33158700  1
  C  C25  1  0.56077800  0.93302000  0.60601900  1
  C  C26  1  0.52096300  0.67680800  0.06514800  1
  C  C27  1  0.55123500  0.66228000  0.60159100  1
  C  C28  1  0.51938200  0.39369700  0.07006800  1
  C  C29  1  0.56065400  0.93282800  0.32983200  1
  C  C30  1  0.04852600  0.59968500  0.66242700  1
  C  C31  1  0.01727400  0.06901900  0.39199300  1
  C  C32  1  0.06257900  0.32875700  0.93653100  1
  C  C33  1  0.03710300  0.33333900  0.39880800  1
  C  C34  1  0.05811700  0.60192700  0.92767900  1
  C  C35  1  0.02138700  0.06222600  0.67500800  1
  C  C36  1  0.35315400  0.50603200  0.74663100  1
  C  C37  1  0.34755300  0.26062600  0.49551400  1
  C  C38  1  0.34163500  0.25635900  0.75792800  1
  C  C39  1  0.85482300  0.49752500  0.26185500  1
  C  C40  1  0.84771400  0.74926700  0.50599900  1
  C  C41  1  0.84439700  0.75719500  0.25932900  1
  C  C42  1  0.68515300  0.17371100  0.58458900  1
  C  C43  1  0.66193900  0.41353600  0.82418300  1
  C  C44  1  0.67942300  0.41698100  0.58108200  1
  C  C45  1  0.16476600  0.81728800  0.40932200  1
  C  C46  1  0.18774200  0.58550500  0.17145100  1
  C  C47  1  0.17634400  0.58486100  0.42003600  1
  C  C48  1  0.76886700  0.19890100  0.09020600  1
  C  C49  1  0.75637600  0.89240100  0.81320600  1
  C  C50  1  0.76766500  0.90416200  0.09741300  1
  C  C51  1  0.26536300  0.81092100  0.89126100  1
  C  C52  1  0.26285600  0.09190500  0.19563600  1
  C  C53  1  0.26164000  0.08832000  0.89917900  1
