# generated using pymatgen
data_Cu5Ni2C25
_symmetry_space_group_name_H-M   'P 1'
_cell_length_a   5.17697500
_cell_length_b   5.88875343
_cell_length_c   10.27689309
_cell_angle_alpha   104.20076623
_cell_angle_beta   95.29583620
_cell_angle_gamma   109.17977077
_symmetry_Int_Tables_number   1
_chemical_formula_structural   Cu5Ni2C25
_chemical_formula_sum   'Cu5 Ni2 C25'
_cell_volume   281.70713566
_cell_formula_units_Z   1
loop_
 _symmetry_equiv_pos_site_id
 _symmetry_equiv_pos_as_xyz
  1  'x, y, z'
loop_
 _atom_site_type_symbol
 _atom_site_label
 _atom_site_symmetry_multiplicity
 _atom_site_fract_x
 _atom_site_fract_y
 _atom_site_fract_z
 _atom_site_occupancy
  C  C0  1  0.62341000  0.93412100  0.87613800  1
  C  C1  1  0.37659000  0.06587900  0.12386200  1
  C  C2  1  0.12458600  0.19398700  0.38110000  1
  C  C3  1  0.88074200  0.32006100  0.61946000  1
  C  C4  1  0.62472100  0.44247400  0.87362400  1
  C  C5  1  0.37527900  0.55752600  0.12637600  1
  C  C6  1  0.11925800  0.67993900  0.38054000  1
  C  C7  1  0.87541400  0.80601300  0.61890000  1
  C  C8  1  0.50000000  0.50000000  0.50000000  1
  Ni  Ni9  1  0.25456700  0.12962200  0.74537000  1
  Ni  Ni10  1  0.74543300  0.87037800  0.25463000  1
  Cu  Cu11  1  0.00260600  0.24836700  0.99964000  1
  Cu  Cu12  1  0.74150200  0.37555600  0.25272200  1
  Cu  Cu13  1  0.25849800  0.62444400  0.74727800  1
  Cu  Cu14  1  0.99739400  0.75163300  0.00036000  1
  Cu  Cu15  1  0.50000000  0.00000000  0.50000000  1
  C  C16  1  0.95144600  0.79270900  0.82106600  1
  C  C17  1  0.70304000  0.92574200  0.06717400  1
  C  C18  1  0.47458500  0.02809700  0.31038800  1
  C  C19  1  0.18620200  0.15225200  0.57504400  1
  C  C20  1  0.97748800  0.28062300  0.81255200  1
  C  C21  1  0.70881700  0.42284000  0.06864400  1
  C  C22  1  0.45217500  0.55088100  0.30684800  1
  C  C23  1  0.21032400  0.67912000  0.57222600  1
  C  C24  1  0.29696000  0.07425800  0.93282600  1
  C  C25  1  0.04855400  0.20729100  0.17893400  1
  C  C26  1  0.78967600  0.32088000  0.42777400  1
  C  C27  1  0.54782500  0.44911900  0.69315200  1
  C  C28  1  0.29118300  0.57716000  0.93135600  1
  C  C29  1  0.02251200  0.71937700  0.18744800  1
  C  C30  1  0.81379800  0.84774800  0.42495600  1
  C  C31  1  0.52541500  0.97190300  0.68961200  1
