# generated using pymatgen
data_Cu2NiC
_symmetry_space_group_name_H-M   'P 1'
_cell_length_a   5.18067305
_cell_length_b   5.18067305
_cell_length_c   4.19819900
_cell_angle_alpha   90.00000000
_cell_angle_beta   90.00000000
_cell_angle_gamma   119.24537291
_symmetry_Int_Tables_number   1
_chemical_formula_structural   Cu2NiC
_chemical_formula_sum   'Cu4 Ni2 C2'
_cell_volume   98.31470461
_cell_formula_units_Z   2
loop_
 _symmetry_equiv_pos_site_id
 _symmetry_equiv_pos_as_xyz
  1  'x, y, z'
loop_
 _atom_site_type_symbol
 _atom_site_label
 _atom_site_symmetry_multiplicity
 _atom_site_fract_x
 _atom_site_fract_y
 _atom_site_fract_z
 _atom_site_occupancy
  C  C0  1  0.33555900  0.66444100  0.00000000  1
  C  C1  1  0.66378800  0.33621200  0.50000000  1
  Ni  Ni2  1  0.84222900  0.67949100  0.00000000  1
  Ni  Ni3  1  0.32050900  0.15777100  0.00000000  1
  Cu  Cu4  1  0.83961600  0.16038400  0.00000000  1
  Cu  Cu5  1  0.15929300  0.32094800  0.50000000  1
  Cu  Cu6  1  0.67905200  0.84070700  0.50000000  1
  Cu  Cu7  1  0.15971400  0.84028600  0.50000000  1
