# generated using pymatgen
data_CuNiC16
_symmetry_space_group_name_H-M   'P 1'
_cell_length_a   8.88197551
_cell_length_b   8.29904355
_cell_length_c   8.40318086
_cell_angle_alpha   59.68852157
_cell_angle_beta   63.81118405
_cell_angle_gamma   90.54006686
_symmetry_Int_Tables_number   1
_chemical_formula_structural   CuNiC16
_chemical_formula_sum   'Cu2 Ni2 C32'
_cell_volume   457.78736908
_cell_formula_units_Z   2
loop_
 _symmetry_equiv_pos_site_id
 _symmetry_equiv_pos_as_xyz
  1  'x, y, z'
loop_
 _atom_site_type_symbol
 _atom_site_label
 _atom_site_symmetry_multiplicity
 _atom_site_fract_x
 _atom_site_fract_y
 _atom_site_fract_z
 _atom_site_occupancy
  C  C0  1  0.13763100  0.32952500  0.93610800  1
  C  C1  1  0.87422300  0.92576600  0.37422100  1
  Ni  Ni2  1  0.56909700  0.86166100  0.27906700  1
  Ni  Ni3  1  0.43449400  0.13790000  0.71093500  1
  Cu  Cu4  1  0.05068300  0.35384500  0.31323600  1
  Cu  Cu5  1  0.95127300  0.65180100  0.70368100  1
  C  C6  1  0.24533100  0.04431300  0.21965400  1
  C  C7  1  0.25800300  0.46965800  0.50005000  1
  C  C8  1  0.24993800  0.75007500  0.79330400  1
  C  C9  1  0.75144400  0.24868000  0.20729600  1
  C  C10  1  0.75208200  0.53051300  0.50148700  1
  C  C11  1  0.74960500  0.95812000  0.78479500  1
  C  C12  1  0.09116100  0.84516200  0.39033000  1
  C  C13  1  0.25100100  0.13111900  0.00819200  1
  C  C14  1  0.18585500  0.18772700  0.29313300  1
  C  C15  1  0.18497100  0.47699400  0.35651500  1
  C  C16  1  0.11558700  0.49365200  0.67499700  1
  C  C17  1  0.09728100  0.77471500  0.73658300  1
  C  C18  1  0.41687200  0.02232700  0.20996800  1
  C  C19  1  0.27392900  0.26694100  0.62468800  1
  C  C20  1  0.43015300  0.63363700  0.34811200  1
  C  C21  1  0.17905600  0.53252000  0.99962500  1
  C  C22  1  0.26003000  0.89266800  0.85431100  1
  C  C23  1  0.41443000  0.77155600  0.61101400  1
  C  C24  1  0.58932000  0.23324500  0.38396600  1
  C  C25  1  0.73705600  0.10094700  0.15116500  1
  C  C26  1  0.82262100  0.46039000  0.99240600  1
  C  C27  1  0.58056500  0.36805900  0.64430700  1
  C  C28  1  0.73559200  0.73634900  0.38289900  1
  C  C29  1  0.57597700  0.97546900  0.79379900  1
  C  C30  1  0.91085600  0.21777100  0.24719700  1
  C  C31  1  0.89669400  0.50656100  0.32602900  1
  C  C32  1  0.82480300  0.52716900  0.64336900  1
  C  C33  1  0.80994900  0.82210200  0.70018500  1
  C  C34  1  0.74549700  0.88224300  0.99081800  1
  C  C35  1  0.89639700  0.16422900  0.60139100  1
