# generated using pymatgen
data_Cu(NiC5)2
_symmetry_space_group_name_H-M   'P 1'
_cell_length_a   10.02384303
_cell_length_b   10.02384303
_cell_length_c   5.47682306
_cell_angle_alpha   88.64278150
_cell_angle_beta   88.64278150
_cell_angle_gamma   37.05164606
_symmetry_Int_Tables_number   1
_chemical_formula_structural   Cu(NiC5)2
_chemical_formula_sum   'Cu2 Ni4 C20'
_cell_volume   331.46960975
_cell_formula_units_Z   2
loop_
 _symmetry_equiv_pos_site_id
 _symmetry_equiv_pos_as_xyz
  1  'x, y, z'
loop_
 _atom_site_type_symbol
 _atom_site_label
 _atom_site_symmetry_multiplicity
 _atom_site_fract_x
 _atom_site_fract_y
 _atom_site_fract_z
 _atom_site_occupancy
  C  C0  1  0.88702500  0.52998400  0.25595000  1
  C  C1  1  0.47001600  0.11297500  0.24405000  1
  C  C2  1  0.11297500  0.47001600  0.74405000  1
  C  C3  1  0.52998400  0.88702500  0.75595000  1
  Ni  Ni4  1  0.04254700  0.73626800  0.25024200  1
  Ni  Ni5  1  0.26373200  0.95745300  0.24975800  1
  Ni  Ni6  1  0.95745300  0.26373200  0.74975800  1
  Ni  Ni7  1  0.73626800  0.04254700  0.75024200  1
  Cu  Cu8  1  0.64338000  0.35662000  0.25000000  1
  Cu  Cu9  1  0.35662000  0.64338000  0.75000000  1
  C  C10  1  0.05696300  0.80477000  0.58749400  1
  C  C11  1  0.19523000  0.94303700  0.91250600  1
  C  C12  1  0.94303700  0.19523000  0.41250600  1
  C  C13  1  0.80477000  0.05696300  0.08749400  1
  C  C14  1  0.29909700  0.58748800  0.07903800  1
  C  C15  1  0.41251200  0.70090300  0.42096200  1
  C  C16  1  0.70090300  0.41251200  0.92096200  1
  C  C17  1  0.58748800  0.29909700  0.57903800  1
  C  C18  1  0.87996500  0.75523500  0.00020300  1
  C  C19  1  0.24476500  0.12003500  0.49979700  1
  C  C20  1  0.46734100  0.16510300  0.84353200  1
  C  C21  1  0.83489700  0.53265900  0.65646800  1
  C  C22  1  0.53265900  0.83489700  0.15646800  1
  C  C23  1  0.16510300  0.46734100  0.34353200  1
  C  C24  1  0.75523500  0.87996500  0.50020300  1
  C  C25  1  0.12003500  0.24476500  0.99979700  1
