# generated using pymatgen
data_Cu2Ni2C13
_symmetry_space_group_name_H-M   'P 1'
_cell_length_a   9.41588610
_cell_length_b   9.41588610
_cell_length_c   8.96204639
_cell_angle_alpha   88.00893230
_cell_angle_beta   88.00893230
_cell_angle_gamma   87.63377367
_symmetry_Int_Tables_number   1
_chemical_formula_structural   Cu2Ni2C13
_chemical_formula_sum   'Cu8 Ni8 C52'
_cell_volume   792.96692170
_cell_formula_units_Z   4
loop_
 _symmetry_equiv_pos_site_id
 _symmetry_equiv_pos_as_xyz
  1  'x, y, z'
loop_
 _atom_site_type_symbol
 _atom_site_label
 _atom_site_symmetry_multiplicity
 _atom_site_fract_x
 _atom_site_fract_y
 _atom_site_fract_z
 _atom_site_occupancy
  Ni  Ni0  1  0.56321400  0.32289900  0.13807500  1
  Ni  Ni1  1  0.43678600  0.67710100  0.86192500  1
  Ni  Ni2  1  0.67710100  0.43678600  0.36192500  1
  Ni  Ni3  1  0.32289900  0.56321400  0.63807500  1
  Ni  Ni4  1  0.82413300  0.90590700  0.36987000  1
  Ni  Ni5  1  0.17586700  0.09409300  0.63013000  1
  Ni  Ni6  1  0.09409300  0.17586700  0.13013000  1
  Ni  Ni7  1  0.90590700  0.82413300  0.86987000  1
  Cu  Cu8  1  0.79103100  0.06277400  0.05460600  1
  Cu  Cu9  1  0.20896900  0.93722600  0.94539400  1
  Cu  Cu10  1  0.93722600  0.20896900  0.44539400  1
  Cu  Cu11  1  0.06277400  0.79103100  0.55460600  1
  Cu  Cu12  1  0.40572800  0.28457300  0.45584200  1
  Cu  Cu13  1  0.59427200  0.71542700  0.54415800  1
  Cu  Cu14  1  0.71542700  0.59427200  0.04415800  1
  Cu  Cu15  1  0.28457300  0.40572800  0.95584200  1
  C  C16  1  0.52824400  0.88794200  0.21491000  1
  C  C17  1  0.47175600  0.11205800  0.78509000  1
  C  C18  1  0.11205800  0.47175600  0.28509000  1
  C  C19  1  0.88794200  0.52824400  0.71491000  1
  C  C20  1  0.43782000  0.02949000  0.29102600  1
  C  C21  1  0.56218000  0.97051000  0.70897400  1
  C  C22  1  0.97051000  0.56218000  0.20897400  1
  C  C23  1  0.02949000  0.43782000  0.79102600  1
  C  C24  1  0.41860800  0.85636500  0.36098600  1
  C  C25  1  0.58139200  0.14363500  0.63901400  1
  C  C26  1  0.14363500  0.58139200  0.13901400  1
  C  C27  1  0.85636500  0.41860800  0.86098600  1
  C  C28  1  0.35345500  0.91546000  0.19321100  1
  C  C29  1  0.64654500  0.08454000  0.80678900  1
  C  C30  1  0.08454000  0.64654500  0.30678900  1
  C  C31  1  0.91546000  0.35345500  0.69321100  1
  C  C32  1  0.43463700  0.92245600  0.26613000  1
  C  C33  1  0.56536300  0.07754400  0.73387000  1
  C  C34  1  0.07754400  0.56536300  0.23387000  1
  C  C35  1  0.92245600  0.43463700  0.76613000  1
  C  C36  1  0.55930100  0.29633300  0.50956600  1
  C  C37  1  0.44069900  0.70366700  0.49043400  1
  C  C38  1  0.70366700  0.44069900  0.99043400  1
  C  C39  1  0.29633300  0.55930100  0.00956600  1
  C  C40  1  0.40394800  0.23814700  0.29155900  1
  C  C41  1  0.59605200  0.76185300  0.70844100  1
  C  C42  1  0.76185300  0.59605200  0.20844100  1
  C  C43  1  0.23814700  0.40394800  0.79155900  1
  C  C44  1  0.35533500  0.86202200  0.93029900  1
  C  C45  1  0.64466500  0.13797800  0.06970100  1
  C  C46  1  0.13797800  0.64466500  0.56970100  1
  C  C47  1  0.86202200  0.35533500  0.43029900  1
  C  C48  1  0.80860200  0.93378600  0.16601000  1
  C  C49  1  0.19139800  0.06621400  0.83399000  1
  C  C50  1  0.06621400  0.19139800  0.33399000  1
  C  C51  1  0.93378600  0.80860200  0.66601000  1
  C  C52  1  0.83059700  0.08991300  0.43680400  1
  C  C53  1  0.16940300  0.91008700  0.56319600  1
  C  C54  1  0.91008700  0.16940300  0.06319600  1
  C  C55  1  0.08991300  0.83059700  0.93680400  1
  C  C56  1  0.57402400  0.68152400  0.02051600  1
  C  C57  1  0.42597600  0.31847600  0.97948400  1
  C  C58  1  0.31847600  0.42597600  0.47948400  1
  C  C59  1  0.68152400  0.57402400  0.52051600  1
  C  C60  1  0.65868600  0.84102700  0.44611000  1
  C  C61  1  0.34131400  0.15897300  0.55389000  1
  C  C62  1  0.15897300  0.34131400  0.05389000  1
  C  C63  1  0.84102700  0.65868600  0.94611000  1
  C  C64  1  0.19642500  0.00590400  0.10295000  1
  C  C65  1  0.80357500  0.99409600  0.89705000  1
  C  C66  1  0.99409600  0.80357500  0.39705000  1
  C  C67  1  0.00590400  0.19642500  0.60295000  1
