# generated using pymatgen
data_Cu2Ni3C4
_symmetry_space_group_name_H-M   'P 1'
_cell_length_a   7.17090760
_cell_length_b   10.47110873
_cell_length_c   5.45814679
_cell_angle_alpha   89.99999991
_cell_angle_beta   97.73683592
_cell_angle_gamma   136.89564878
_symmetry_Int_Tables_number   1
_chemical_formula_structural   Cu2Ni3C4
_chemical_formula_sum   'Cu4 Ni6 C8'
_cell_volume   274.56544751
_cell_formula_units_Z   2
loop_
 _symmetry_equiv_pos_site_id
 _symmetry_equiv_pos_as_xyz
  1  'x, y, z'
loop_
 _atom_site_type_symbol
 _atom_site_label
 _atom_site_symmetry_multiplicity
 _atom_site_fract_x
 _atom_site_fract_y
 _atom_site_fract_z
 _atom_site_occupancy
  Ni  Ni0  1  0.22013592  0.02893280  0.14245212  1
  Ni  Ni1  1  0.77986408  0.80879688  0.35754788  1
  Ni  Ni2  1  0.77986408  0.97106720  0.85754788  1
  Ni  Ni3  1  0.22013592  0.19120312  0.64245212  1
  Ni  Ni4  1  0.00000000  0.72435398  0.75000000  1
  Ni  Ni5  1  1.00000000  0.27564602  0.25000000  1
  Cu  Cu6  1  0.64294829  0.20615679  0.69694749  1
  Cu  Cu7  1  0.35705171  0.56320850  0.80305251  1
  Cu  Cu8  1  0.35705171  0.79384321  0.30305251  1
  Cu  Cu9  1  0.64294829  0.43679150  0.19694749  1
  C  C10  1  0.18800907  0.97227964  0.53471586  1
  C  C11  1  0.81199093  0.78427056  0.96528414  1
  C  C12  1  0.81199093  0.02772036  0.46528414  1
  C  C13  1  0.18800907  0.21572944  0.03471586  1
  C  C14  1  0.63948378  0.21793022  0.11424680  1
  C  C15  1  0.36051622  0.57844644  0.38575320  1
  C  C16  1  0.36051622  0.78206978  0.88575320  1
  C  C17  1  0.63948378  0.42155356  0.61424680  1
