# generated using pymatgen
data_Cu14NiC16
_symmetry_space_group_name_H-M   'P 1'
_cell_length_a   8.59749095
_cell_length_b   8.57325684
_cell_length_c   4.29864720
_cell_angle_alpha   90.00000000
_cell_angle_beta   90.00000000
_cell_angle_gamma   90.00000000
_symmetry_Int_Tables_number   1
_chemical_formula_structural   Cu14NiC16
_chemical_formula_sum   'Cu14 Ni1 C16'
_cell_volume   316.84682895
_cell_formula_units_Z   1
loop_
 _symmetry_equiv_pos_site_id
 _symmetry_equiv_pos_as_xyz
  1  'x, y, z'
loop_
 _atom_site_type_symbol
 _atom_site_label
 _atom_site_symmetry_multiplicity
 _atom_site_fract_x
 _atom_site_fract_y
 _atom_site_fract_z
 _atom_site_occupancy
  C  C0  1  0.00005615  0.00000000  -0.00000000  1
  Ni  Ni1  1  0.49270321  0.50000000  -0.00000000  1
  Cu  Cu2  1  0.99920971  0.50000000  -0.00000000  1
  Cu  Cu3  1  0.50019065  0.00000000  -0.00000000  1
  Cu  Cu4  1  0.00069529  0.24253345  0.50000000  1
  Cu  Cu5  1  0.00069529  0.75746655  0.50000000  1
  Cu  Cu6  1  0.49895942  0.23957987  0.50000000  1
  Cu  Cu7  1  0.49895942  0.76042013  0.50000000  1
  Cu  Cu8  1  0.24101134  0.00000000  0.50000000  1
  Cu  Cu9  1  0.24372962  0.50000000  0.50000000  1
  Cu  Cu10  1  0.75844693  0.00000000  0.50000000  1
  Cu  Cu11  1  0.75863761  0.50000000  0.50000000  1
  Cu  Cu12  1  0.23796451  0.23924918  -0.00000000  1
  Cu  Cu13  1  0.23796451  0.76075082  0.00000000  1
  Cu  Cu14  1  0.76152347  0.24154668  0.00000000  1
  Cu  Cu15  1  0.76152347  0.75845332  -0.00000000  1
  C  C16  1  0.26117926  0.00000000  -0.00000000  1
  C  C17  1  0.73922017  0.00000000  -0.00000000  1
  C  C18  1  0.75203285  0.50000000  -0.00000000  1
  C  C19  1  0.25131297  0.24556604  0.50000000  1
  C  C20  1  0.25131297  0.75443396  0.50000000  1
  C  C21  1  0.74777610  0.25072650  0.50000000  1
  C  C22  1  0.74777610  0.74927350  0.50000000  1
  C  C23  1  0.99908585  0.00000000  0.50000000  1
  C  C24  1  0.00011035  0.50000000  0.50000000  1
  C  C25  1  0.50098890  0.00000000  0.50000000  1
  C  C26  1  0.50575513  0.50000000  0.50000000  1
  C  C27  1  -0.00001097  0.25823806  -0.00000000  1
  C  C28  1  -0.00001097  0.74176194  0.00000000  1
  C  C29  1  0.50060035  0.25560457  -0.00000000  1
  C  C30  1  0.50060035  0.74439543  -0.00000000  1
