# generated using pymatgen
data_Cu(Ni2C)2
_symmetry_space_group_name_H-M   'P 1'
_cell_length_a   7.24037600
_cell_length_b   7.39300770
_cell_length_c   7.43338110
_cell_angle_alpha   119.47433183
_cell_angle_beta   90.00006245
_cell_angle_gamma   89.99995419
_symmetry_Int_Tables_number   1
_chemical_formula_structural   Cu(Ni2C)2
_chemical_formula_sum   'Cu4 Ni16 C8'
_cell_volume   346.39807787
_cell_formula_units_Z   4
loop_
 _symmetry_equiv_pos_site_id
 _symmetry_equiv_pos_as_xyz
  1  'x, y, z'
loop_
 _atom_site_type_symbol
 _atom_site_label
 _atom_site_symmetry_multiplicity
 _atom_site_fract_x
 _atom_site_fract_y
 _atom_site_fract_z
 _atom_site_occupancy
  C  C0  1  0.75000500  0.75000000  0.00000400  1
  C  C1  1  0.25000100  0.75000100  0.49999600  1
  C  C2  1  0.24999700  0.25000100  0.00000100  1
  C  C3  1  0.74999900  0.25000500  0.50000500  1
  C  C4  1  0.87021100  0.50000000  0.25000000  1
  C  C5  1  0.37021100  0.00000100  0.24999900  1
  C  C6  1  0.62978900  0.99999800  0.74999800  1
  C  C7  1  0.12978900  0.50000100  0.75000100  1
  Ni  Ni8  1  0.98615100  0.33790900  0.08341200  1
  Ni  Ni9  1  0.48615300  0.83791200  0.08341300  1
  Ni  Ni10  1  0.51384800  0.16208700  0.91658600  1
  Ni  Ni11  1  0.01384900  0.66209300  0.91659200  1
  Ni  Ni12  1  0.98615200  0.66208900  0.41658900  1
  Ni  Ni13  1  0.48615200  0.16209000  0.41658800  1
  Ni  Ni14  1  0.51384700  0.83790700  0.58340900  1
  Ni  Ni15  1  0.01384700  0.33791200  0.58341300  1
  Ni  Ni16  1  0.24763600  0.90354700  0.33836200  1
  Ni  Ni17  1  0.74763600  0.40354900  0.33836700  1
  Ni  Ni18  1  0.25236300  0.59645200  0.66163400  1
  Ni  Ni19  1  0.75236400  0.09645000  0.66163300  1
  Ni  Ni20  1  0.74763500  0.59645300  0.16163600  1
  Ni  Ni21  1  0.24763600  0.09645000  0.16163100  1
  Ni  Ni22  1  0.75236300  0.90354600  0.83836400  1
  Ni  Ni23  1  0.25236500  0.40354700  0.83836400  1
  Cu  Cu24  1  0.33187100  0.50000000  0.24999900  1
  Cu  Cu25  1  0.83187400  0.00000000  0.25000000  1
  Cu  Cu26  1  0.16812800  0.00000100  0.74999800  1
  Cu  Cu27  1  0.66812800  0.50000200  0.75000300  1
