# generated using pymatgen
data_CuNi5C12
_symmetry_space_group_name_H-M   'P 1'
_cell_length_a   8.26948313
_cell_length_b   8.26948313
_cell_length_c   8.26948313
_cell_angle_alpha   110.85125796
_cell_angle_beta   110.55572323
_cell_angle_gamma   107.03397306
_symmetry_Int_Tables_number   1
_chemical_formula_structural   CuNi5C12
_chemical_formula_sum   'Cu1 Ni5 C12'
_cell_volume   434.73393576
_cell_formula_units_Z   1
loop_
 _symmetry_equiv_pos_site_id
 _symmetry_equiv_pos_as_xyz
  1  'x, y, z'
loop_
 _atom_site_type_symbol
 _atom_site_label
 _atom_site_symmetry_multiplicity
 _atom_site_fract_x
 _atom_site_fract_y
 _atom_site_fract_z
 _atom_site_occupancy
  C  C0  1  0.81774300  0.71490000  0.53264300  1
  C  C1  1  0.18225700  0.28510000  0.46735700  1
  C  C2  1  0.18225700  0.71490000  0.89715600  1
  C  C3  1  0.81774300  0.28510000  0.10284400  1
  C  C4  1  0.68800200  0.38032000  0.69231800  1
  C  C5  1  0.31199800  0.61968000  0.30768200  1
  C  C6  1  0.68800200  0.99568400  0.30768200  1
  C  C7  1  0.31199800  0.00431600  0.69231800  1
  C  C8  1  0.59315000  0.78946200  0.80368800  1
  C  C9  1  0.40685000  0.21053800  0.19631200  1
  C  C10  1  0.98577400  0.78946200  0.19631200  1
  C  C11  1  0.01422600  0.21053800  0.80368800  1
  Ni  Ni12  1  0.62451900  0.00000000  0.62451900  1
  Ni  Ni13  1  0.37548100  0.00000000  0.37548100  1
  Ni  Ni14  1  0.11178600  0.61178600  0.50000000  1
  Ni  Ni15  1  0.88821400  0.38821400  0.50000000  1
  Ni  Ni16  1  0.00000000  0.00000000  0.00000000  1
  Cu  Cu17  1  0.50000000  0.50000000  0.00000000  1
