# generated using pymatgen
data_Cu4NiC
_symmetry_space_group_name_H-M   'P 1'
_cell_length_a   4.90082033
_cell_length_b   4.90082000
_cell_length_c   34.33077800
_cell_angle_alpha   90.00000000
_cell_angle_beta   90.00000000
_cell_angle_gamma   60.00000222
_symmetry_Int_Tables_number   1
_chemical_formula_structural   Cu4NiC
_chemical_formula_sum   'Cu32 Ni8 C8'
_cell_volume   714.08813934
_cell_formula_units_Z   8
loop_
 _symmetry_equiv_pos_site_id
 _symmetry_equiv_pos_as_xyz
  1  'x, y, z'
loop_
 _atom_site_type_symbol
 _atom_site_label
 _atom_site_symmetry_multiplicity
 _atom_site_fract_x
 _atom_site_fract_y
 _atom_site_fract_z
 _atom_site_occupancy
  C  C0  1  0.00000000  0.00000000  0.00000000  1
  C  C1  1  0.00000000  0.00000000  0.50000000  1
  C  C2  1  0.00000000  0.00000000  0.25000000  1
  C  C3  1  0.00000000  0.00000000  0.75000000  1
  C  C4  1  0.00000000  0.00000000  0.87500000  1
  C  C5  1  0.00000000  0.00000000  0.62500000  1
  C  C6  1  0.00000000  0.00000000  0.37500000  1
  C  C7  1  0.00000000  0.00000000  0.12500000  1
  Ni  Ni8  1  0.33333400  0.33333300  0.42453500  1
  Ni  Ni9  1  0.33333400  0.33333300  0.92453500  1
  Ni  Ni10  1  0.66666600  0.66666700  0.07546500  1
  Ni  Ni11  1  0.66666600  0.66666700  0.57546500  1
  Ni  Ni12  1  0.33333400  0.33333300  0.17453500  1
  Ni  Ni13  1  0.33333400  0.33333300  0.67453500  1
  Ni  Ni14  1  0.66666600  0.66666700  0.32546500  1
  Ni  Ni15  1  0.66666600  0.66666700  0.82546500  1
  Cu  Cu16  1  0.33333400  0.33333300  0.46713600  1
  Cu  Cu17  1  0.33333400  0.33333300  0.96713600  1
  Cu  Cu18  1  0.66666600  0.66666700  0.03286400  1
  Cu  Cu19  1  0.66666600  0.66666700  0.53286400  1
  Cu  Cu20  1  0.33333400  0.33333300  0.21713600  1
  Cu  Cu21  1  0.33333400  0.33333300  0.71713600  1
  Cu  Cu22  1  0.66666600  0.66666700  0.28286400  1
  Cu  Cu23  1  0.66666600  0.66666700  0.78286400  1
  Cu  Cu24  1  0.71190400  0.92973700  0.33994100  1
  Cu  Cu25  1  0.71190400  0.92973700  0.83994100  1
  Cu  Cu26  1  0.92973700  0.35835900  0.33994100  1
  Cu  Cu27  1  0.92973700  0.35835900  0.83994100  1
  Cu  Cu28  1  0.64164100  0.07026300  0.16005900  1
  Cu  Cu29  1  0.64164100  0.07026300  0.66005900  1
  Cu  Cu30  1  0.35835900  0.71190400  0.33994100  1
  Cu  Cu31  1  0.35835900  0.71190400  0.83994100  1
  Cu  Cu32  1  0.28809600  0.64164100  0.16005900  1
  Cu  Cu33  1  0.28809600  0.64164100  0.66005900  1
  Cu  Cu34  1  0.07026300  0.28809600  0.16005900  1
  Cu  Cu35  1  0.07026300  0.28809600  0.66005900  1
  Cu  Cu36  1  0.64164100  0.28809600  0.41005900  1
  Cu  Cu37  1  0.64164100  0.28809600  0.91005900  1
  Cu  Cu38  1  0.28809600  0.07026300  0.41005900  1
  Cu  Cu39  1  0.28809600  0.07026300  0.91005900  1
  Cu  Cu40  1  0.92973700  0.71190400  0.08994100  1
  Cu  Cu41  1  0.92973700  0.71190400  0.58994100  1
  Cu  Cu42  1  0.07026300  0.64164100  0.41005900  1
  Cu  Cu43  1  0.07026300  0.64164100  0.91005900  1
  Cu  Cu44  1  0.35835900  0.92973700  0.08994100  1
  Cu  Cu45  1  0.35835900  0.92973700  0.58994100  1
  Cu  Cu46  1  0.71190400  0.35835900  0.08994100  1
  Cu  Cu47  1  0.71190400  0.35835900  0.58994100  1
