# generated using pymatgen
data_Cu5Ni3C2
_symmetry_space_group_name_H-M   'P 1'
_cell_length_a   10.99953100
_cell_length_b   10.99953100
_cell_length_c   5.56028900
_cell_angle_alpha   90.00000000
_cell_angle_beta   90.00000000
_cell_angle_gamma   90.00000000
_symmetry_Int_Tables_number   1
_chemical_formula_structural   Cu5Ni3C2
_chemical_formula_sum   'Cu20 Ni12 C8'
_cell_volume   672.73759916
_cell_formula_units_Z   4
loop_
 _symmetry_equiv_pos_site_id
 _symmetry_equiv_pos_as_xyz
  1  'x, y, z'
loop_
 _atom_site_type_symbol
 _atom_site_label
 _atom_site_symmetry_multiplicity
 _atom_site_fract_x
 _atom_site_fract_y
 _atom_site_fract_z
 _atom_site_occupancy
  C  C0  1  0.57696600  0.73779800  0.50000000  1
  C  C1  1  0.42303400  0.26220200  0.50000000  1
  C  C2  1  0.07696600  0.76220200  0.00000000  1
  C  C3  1  0.92303400  0.23779800  0.00000000  1
  C  C4  1  0.26220200  0.57696600  0.50000000  1
  C  C5  1  0.73779800  0.42303400  0.50000000  1
  C  C6  1  0.23779800  0.07696600  0.00000000  1
  C  C7  1  0.76220200  0.92303400  0.00000000  1
  Ni  Ni8  1  0.87577600  0.85318100  0.50000000  1
  Ni  Ni9  1  0.12422400  0.14681900  0.50000000  1
  Ni  Ni10  1  0.37577600  0.64681900  0.00000000  1
  Ni  Ni11  1  0.62422400  0.35318100  0.00000000  1
  Ni  Ni12  1  0.14681900  0.87577600  0.50000000  1
  Ni  Ni13  1  0.85318100  0.12422400  0.50000000  1
  Ni  Ni14  1  0.35318100  0.37577600  0.00000000  1
  Ni  Ni15  1  0.64681900  0.62422400  0.00000000  1
  Ni  Ni16  1  0.50000000  0.00000000  0.25000000  1
  Ni  Ni17  1  0.00000000  0.50000000  0.75000000  1
  Ni  Ni18  1  0.00000000  0.50000000  0.25000000  1
  Ni  Ni19  1  0.50000000  0.00000000  0.75000000  1
  Cu  Cu20  1  0.67297500  0.17297500  0.25000000  1
  Cu  Cu21  1  0.32702500  0.82702500  0.25000000  1
  Cu  Cu22  1  0.17297500  0.32702500  0.75000000  1
  Cu  Cu23  1  0.82702500  0.67297500  0.75000000  1
  Cu  Cu24  1  0.82702500  0.67297500  0.25000000  1
  Cu  Cu25  1  0.17297500  0.32702500  0.25000000  1
  Cu  Cu26  1  0.67297500  0.17297500  0.75000000  1
  Cu  Cu27  1  0.32702500  0.82702500  0.75000000  1
  Cu  Cu28  1  0.50000000  0.50000000  0.25618200  1
  Cu  Cu29  1  0.00000000  0.00000000  0.75618200  1
  Cu  Cu30  1  0.50000000  0.50000000  0.74381800  1
  Cu  Cu31  1  0.00000000  0.00000000  0.24381800  1
  Cu  Cu32  1  0.68525800  0.97296600  0.50000000  1
  Cu  Cu33  1  0.31474200  0.02703400  0.50000000  1
  Cu  Cu34  1  0.18525800  0.52703400  0.00000000  1
  Cu  Cu35  1  0.81474200  0.47296600  0.00000000  1
  Cu  Cu36  1  0.02703400  0.68525800  0.50000000  1
  Cu  Cu37  1  0.97296600  0.31474200  0.50000000  1
  Cu  Cu38  1  0.47296600  0.18525800  0.00000000  1
  Cu  Cu39  1  0.52703400  0.81474200  0.00000000  1
