# generated using pymatgen
data_Cu(NiC10)2
_symmetry_space_group_name_H-M   'P 1'
_cell_length_a   9.05893380
_cell_length_b   9.05893380
_cell_length_c   9.05627601
_cell_angle_alpha   89.99842070
_cell_angle_beta   89.99842070
_cell_angle_gamma   89.99147580
_symmetry_Int_Tables_number   1
_chemical_formula_structural   Cu(NiC10)2
_chemical_formula_sum   'Cu2 Ni4 C40'
_cell_volume   743.19677502
_cell_formula_units_Z   2
loop_
 _symmetry_equiv_pos_site_id
 _symmetry_equiv_pos_as_xyz
  1  'x, y, z'
loop_
 _atom_site_type_symbol
 _atom_site_label
 _atom_site_symmetry_multiplicity
 _atom_site_fract_x
 _atom_site_fract_y
 _atom_site_fract_z
 _atom_site_occupancy
  C  C0  1  0.68549900  0.81621700  0.31597700  1
  C  C1  1  0.68534700  0.18341100  0.68502000  1
  C  C2  1  0.31492800  0.18445900  0.31515800  1
  C  C3  1  0.31478300  0.81526500  0.68386500  1
  C  C4  1  0.81621700  0.68549900  0.81597700  1
  C  C5  1  0.18341100  0.68534700  0.18502000  1
  C  C6  1  0.18445900  0.31492800  0.81515800  1
  C  C7  1  0.81526500  0.31478300  0.18386500  1
  Ni  Ni8  1  0.00038900  0.00041900  0.25000200  1
  Ni  Ni9  1  0.49958100  0.24917800  0.99996500  1
  Ni  Ni10  1  0.00041900  0.00038900  0.75000200  1
  Ni  Ni11  1  0.24917800  0.49958100  0.49996500  1
  Cu  Cu12  1  0.75084500  0.49968600  0.50016200  1
  Cu  Cu13  1  0.49968600  0.75084500  0.00016200  1
  C  C14  1  0.75223100  0.00221100  0.00026600  1
  C  C15  1  0.00221100  0.75223100  0.50026600  1
  C  C16  1  0.49755200  0.49808000  0.25001300  1
  C  C17  1  0.00218800  0.24778900  0.49972200  1
  C  C18  1  0.49808000  0.49755200  0.75001300  1
  C  C19  1  0.24778900  0.00218800  0.99972200  1
  C  C20  1  0.49985500  0.00013700  0.49998100  1
  C  C21  1  0.00013700  0.49985500  0.99998100  1
  C  C22  1  0.65657900  0.86220800  0.06518500  1
  C  C23  1  0.94328800  0.85004800  0.35947300  1
  C  C24  1  0.63852300  0.56438300  0.34344900  1
  C  C25  1  0.65029300  0.14011300  0.94188900  1
  C  C26  1  0.94310000  0.15004000  0.64024300  1
  C  C27  1  0.63735600  0.43138100  0.65412300  1
  C  C28  1  0.34961700  0.13983100  0.05827600  1
  C  C29  1  0.06114000  0.14767900  0.36089400  1
  C  C30  1  0.36033000  0.43849700  0.35204400  1
  C  C31  1  0.34338800  0.86237400  0.93464700  1
  C  C32  1  0.06094000  0.85239400  0.63936200  1
  C  C33  1  0.35912000  0.55733700  0.65028400  1
  C  C34  1  0.86220800  0.65657900  0.56518500  1
  C  C35  1  0.85004800  0.94328800  0.85947300  1
  C  C36  1  0.56438300  0.63852300  0.84344900  1
  C  C37  1  0.14011300  0.65029300  0.44188900  1
  C  C38  1  0.15004000  0.94310000  0.14024300  1
  C  C39  1  0.43138100  0.63735600  0.15412300  1
  C  C40  1  0.13983100  0.34961700  0.55827600  1
  C  C41  1  0.14767900  0.06114000  0.86089400  1
  C  C42  1  0.43849700  0.36033000  0.85204400  1
  C  C43  1  0.86237400  0.34338800  0.43464700  1
  C  C44  1  0.85239400  0.06094000  0.13936200  1
  C  C45  1  0.55733700  0.35912000  0.15028400  1
