# generated using pymatgen
data_Cu2(NiC2)3
_symmetry_space_group_name_H-M   'P 1'
_cell_length_a   6.06379600
_cell_length_b   8.66452512
_cell_length_c   7.52308898
_cell_angle_alpha   72.35458829
_cell_angle_beta   113.76664084
_cell_angle_gamma   90.00000000
_symmetry_Int_Tables_number   1
_chemical_formula_structural   Cu2(NiC2)3
_chemical_formula_sum   'Cu2 Ni3 C6'
_cell_volume   341.32370129
_cell_formula_units_Z   1
loop_
 _symmetry_equiv_pos_site_id
 _symmetry_equiv_pos_as_xyz
  1  'x, y, z'
loop_
 _atom_site_type_symbol
 _atom_site_label
 _atom_site_symmetry_multiplicity
 _atom_site_fract_x
 _atom_site_fract_y
 _atom_site_fract_z
 _atom_site_occupancy
  Ni  Ni0  1  0.00297100  0.99214200  0.01066800  1
  Ni  Ni1  1  0.69698700  0.16666700  0.33333300  1
  Ni  Ni2  1  0.32563600  0.34119100  0.65599900  1
  Cu  Cu3  1  0.98840800  0.50383000  0.00132300  1
  Cu  Cu4  1  0.32041700  0.82950300  0.66534400  1
  C  C5  1  0.27493800  0.74148100  0.02022700  1
  C  C6  1  0.90142300  0.89680600  0.33563200  1
  C  C7  1  0.58435500  0.08299500  0.66665800  1
  C  C8  1  0.25103200  0.25033800  0.00000900  1
  C  C9  1  0.89912400  0.43652800  0.33103400  1
  C  C10  1  0.58804400  0.59185200  0.64644000  1
