# generated using pymatgen
data_CuNi4C19
_symmetry_space_group_name_H-M   'P 1'
_cell_length_a   5.19577794
_cell_length_b   10.02249430
_cell_length_c   9.68485866
_cell_angle_alpha   63.36782805
_cell_angle_beta   82.25758796
_cell_angle_gamma   101.19315427
_symmetry_Int_Tables_number   1
_chemical_formula_structural   CuNi4C19
_chemical_formula_sum   'Cu2 Ni8 C38'
_cell_volume   427.87935143
_cell_formula_units_Z   2
loop_
 _symmetry_equiv_pos_site_id
 _symmetry_equiv_pos_as_xyz
  1  'x, y, z'
loop_
 _atom_site_type_symbol
 _atom_site_label
 _atom_site_symmetry_multiplicity
 _atom_site_fract_x
 _atom_site_fract_y
 _atom_site_fract_z
 _atom_site_occupancy
  C  C0  1  0.83328400  0.16666200  0.16667400  1
  C  C1  1  0.33329300  0.16667400  0.66665800  1
  C  C2  1  0.58322000  0.66668200  0.91669100  1
  C  C3  1  0.08342400  0.66664500  0.41663100  1
  C  C4  1  0.08330300  0.16663900  0.41670100  1
  C  C5  1  0.58332000  0.16671200  0.91667000  1
  C  C6  1  0.41319500  0.32651300  0.08677500  1
  C  C7  1  0.91319800  0.32656000  0.58671800  1
  C  C8  1  0.25332500  0.00680500  0.24662300  1
  C  C9  1  0.75342500  0.00680900  0.74660100  1
  C  C10  1  0.99944100  0.49892300  0.00054800  1
  C  C11  1  0.49944100  0.49891900  0.50053500  1
  C  C12  1  0.16720600  0.83437400  0.83279400  1
  C  C13  1  0.66720900  0.83438000  0.33278000  1
  Ni  Ni14  1  0.99962200  0.99946900  0.00022400  1
  Ni  Ni15  1  0.49985000  0.99942700  0.50030500  1
  Ni  Ni16  1  0.66687900  0.33389400  0.33304400  1
  Ni  Ni17  1  0.16686600  0.33381500  0.83309700  1
  Ni  Ni18  1  0.24820100  0.49617000  0.25187100  1
  Ni  Ni19  1  0.74800600  0.49614100  0.75189300  1
  Ni  Ni20  1  0.41856500  0.83732600  0.08134100  1
  Ni  Ni21  1  0.91865000  0.83725600  0.58144000  1
  Cu  Cu22  1  0.83336500  0.66666200  0.16666600  1
  Cu  Cu23  1  0.33335400  0.66662700  0.66670500  1
  C  C24  1  0.48051700  0.16661600  0.29949400  1
  C  C25  1  0.98051600  0.16668500  0.79946400  1
  C  C26  1  0.18616100  0.16666100  0.03390600  1
  C  C27  1  0.68615000  0.16661400  0.53392100  1
  C  C28  1  0.18716900  0.66671800  0.06220300  1
  C  C29  1  0.68710000  0.66665400  0.56224700  1
  C  C30  1  0.97956500  0.66668400  0.77108400  1
  C  C31  1  0.47953100  0.66669900  0.27105700  1
  C  C32  1  0.01648300  0.33992200  0.22311500  1
  C  C33  1  0.51645200  0.33994800  0.72314300  1
  C  C34  1  0.34316200  0.99345300  0.89630800  1
  C  C35  1  0.84319400  0.99335500  0.39639100  1
  C  C36  1  0.82350800  0.33997700  0.93694000  1
  C  C37  1  0.32353600  0.33995500  0.43691400  1
  C  C38  1  0.15028500  0.99332600  0.61023300  1
  C  C39  1  0.65027300  0.99342900  0.11017000  1
  C  C40  1  0.64382700  0.49961500  0.13166500  1
  C  C41  1  0.14381500  0.49962500  0.63169500  1
  C  C42  1  0.81082900  0.83373100  0.96461700  1
  C  C43  1  0.31084100  0.83366100  0.46467700  1
  C  C44  1  0.35583900  0.49961700  0.86874300  1
  C  C45  1  0.85581800  0.49959000  0.36870800  1
  C  C46  1  0.52290800  0.83366700  0.70168600  1
  C  C47  1  0.02288900  0.83371200  0.20163600  1
