# generated using pymatgen
data_Cu2Ni4C17
_symmetry_space_group_name_H-M   'P 1'
_cell_length_a   8.44956700
_cell_length_b   7.61398900
_cell_length_c   11.04640235
_cell_angle_alpha   89.21175376
_cell_angle_beta   90.00000000
_cell_angle_gamma   90.00000000
_symmetry_Int_Tables_number   1
_chemical_formula_structural   Cu2Ni4C17
_chemical_formula_sum   'Cu4 Ni8 C34'
_cell_volume   710.60205064
_cell_formula_units_Z   2
loop_
 _symmetry_equiv_pos_site_id
 _symmetry_equiv_pos_as_xyz
  1  'x, y, z'
loop_
 _atom_site_type_symbol
 _atom_site_label
 _atom_site_symmetry_multiplicity
 _atom_site_fract_x
 _atom_site_fract_y
 _atom_site_fract_z
 _atom_site_occupancy
  C  C0  1  0.63185400  0.84020200  0.63123900  1
  C  C1  1  0.13185400  0.65979800  0.36876100  1
  C  C2  1  0.36814600  0.15979800  0.36876100  1
  C  C3  1  0.86814600  0.34020200  0.63123900  1
  C  C4  1  0.50000000  0.50000000  0.50000000  1
  C  C5  1  0.00000000  0.00000000  0.50000000  1
  C  C6  1  0.50706300  0.92165400  0.13880200  1
  C  C7  1  0.00706300  0.57834600  0.86119800  1
  C  C8  1  0.49293700  0.07834600  0.86119800  1
  C  C9  1  0.99293700  0.42165400  0.13880200  1
  Ni  Ni10  1  0.90261900  0.99625800  0.81952300  1
  Ni  Ni11  1  0.40261900  0.50374200  0.18047700  1
  Ni  Ni12  1  0.09738100  0.00374200  0.18047700  1
  Ni  Ni13  1  0.59738100  0.49625800  0.81952300  1
  Ni  Ni14  1  0.68774800  0.82976700  0.37540400  1
  Ni  Ni15  1  0.18774800  0.67023300  0.62459600  1
  Ni  Ni16  1  0.31225200  0.17023300  0.62459600  1
  Ni  Ni17  1  0.81225200  0.32976700  0.37540400  1
  Cu  Cu18  1  0.38367000  0.84493400  0.96272700  1
  Cu  Cu19  1  0.88367000  0.65506600  0.03727300  1
  Cu  Cu20  1  0.61633000  0.15506600  0.03727300  1
  Cu  Cu21  1  0.11633000  0.34493400  0.96272700  1
  C  C22  1  0.01435400  0.81159100  0.78682800  1
  C  C23  1  0.51435400  0.68840900  0.21317200  1
  C  C24  1  0.98564600  0.18840900  0.21317200  1
  C  C25  1  0.48564600  0.31159100  0.78682800  1
  C  C26  1  0.71070700  0.93722100  0.77934000  1
  C  C27  1  0.21070700  0.56277900  0.22066000  1
  C  C28  1  0.28929300  0.06277900  0.22066000  1
  C  C29  1  0.78929300  0.43722100  0.77934000  1
  C  C30  1  0.53024500  0.62224300  0.69839500  1
  C  C31  1  0.03024500  0.87775700  0.30160500  1
  C  C32  1  0.46975500  0.37775700  0.30160500  1
  C  C33  1  0.96975500  0.12224300  0.69839500  1
  C  C34  1  0.53839100  0.75546500  0.47901300  1
  C  C35  1  0.03839100  0.74453500  0.52098700  1
  C  C36  1  0.46160900  0.24453500  0.52098700  1
  C  C37  1  0.96160900  0.25546500  0.47901300  1
  C  C38  1  0.76713800  0.95314100  0.49935000  1
  C  C39  1  0.26713800  0.54685900  0.50065000  1
  C  C40  1  0.23286200  0.04685900  0.50065000  1
  C  C41  1  0.73286200  0.45314100  0.49935000  1
  C  C42  1  0.59586500  0.99827800  0.29822900  1
  C  C43  1  0.09586500  0.50172200  0.70177100  1
  C  C44  1  0.40413500  0.00172200  0.70177100  1
  C  C45  1  0.90413500  0.49827800  0.29822900  1
