# generated using pymatgen
data_Cu3Ni5C2
_symmetry_space_group_name_H-M   'P 1'
_cell_length_a   4.48854772
_cell_length_b   7.45559738
_cell_length_c   80.16105885
_cell_angle_alpha   90.04715787
_cell_angle_beta   90.00000000
_cell_angle_gamma   90.00000000
_symmetry_Int_Tables_number   1
_chemical_formula_structural   Cu3Ni5C2
_chemical_formula_sum   'Cu36 Ni60 C24'
_cell_volume   2682.57326476
_cell_formula_units_Z   12
loop_
 _symmetry_equiv_pos_site_id
 _symmetry_equiv_pos_as_xyz
  1  'x, y, z'
loop_
 _atom_site_type_symbol
 _atom_site_label
 _atom_site_symmetry_multiplicity
 _atom_site_fract_x
 _atom_site_fract_y
 _atom_site_fract_z
 _atom_site_occupancy
  C  C0  1  0.75000000  0.25103506  0.02563161  1
  C  C1  1  0.75000000  0.25091841  0.35895506  1
  C  C2  1  0.75000000  0.25102802  0.69230048  1
  C  C3  1  0.75000000  0.75090338  0.14104919  1
  C  C4  1  0.75000000  0.75089946  0.47438446  1
  C  C5  1  0.75000000  0.75089468  0.80771720  1
  C  C6  1  0.25000000  0.74841202  0.30776396  1
  C  C7  1  0.25000000  0.74874338  0.64107638  1
  C  C8  1  0.25000000  0.74875269  0.97440256  1
  C  C9  1  0.25000000  0.24839250  0.19223532  1
  C  C10  1  0.25000000  0.24882864  0.52559798  1
  C  C11  1  0.25000000  0.24882257  0.85893619  1
  C  C12  1  0.75000000  0.28250661  0.25769009  1
  C  C13  1  0.75000000  0.28256792  0.59104283  1
  C  C14  1  0.75000000  0.28259969  0.92437186  1
  C  C15  1  0.75000000  0.78251234  0.24230500  1
  C  C16  1  0.75000000  0.78144538  0.57543641  1
  C  C17  1  0.75000000  0.78146534  0.90876684  1
  C  C18  1  0.25000000  0.71796409  0.07543281  1
  C  C19  1  0.25000000  0.71804376  0.40877186  1
  C  C20  1  0.25000000  0.71800436  0.74209025  1
  C  C21  1  0.25000000  0.21794633  0.09121508  1
  C  C22  1  0.25000000  0.21801714  0.42454099  1
  C  C23  1  0.25000000  0.21796304  0.75787073  1
  Ni  Ni24  1  0.75000000  0.37739648  0.06715920  1
  Ni  Ni25  1  0.75000000  0.37752567  0.40049583  1
  Ni  Ni26  1  0.75000000  0.37740071  0.73383285  1
  Ni  Ni27  1  0.75000000  0.87751619  0.09949581  1
  Ni  Ni28  1  0.75000000  0.87749074  0.43283471  1
  Ni  Ni29  1  0.75000000  0.87747154  0.76616312  1
  Ni  Ni30  1  0.25000000  0.62129100  0.26615568  1
  Ni  Ni31  1  0.25000000  0.62108330  0.59955672  1
  Ni  Ni32  1  0.25000000  0.62102124  0.93288867  1
  Ni  Ni33  1  0.25000000  0.12121850  0.23384274  1
  Ni  Ni34  1  0.25000000  0.12331201  0.56726950  1
  Ni  Ni35  1  0.25000000  0.12326873  0.90060343  1
  Ni  Ni36  1  0.75000000  0.90574577  0.28222728  1
  Ni  Ni37  1  0.75000000  0.90616816  0.61551447  1
  Ni  Ni38  1  0.75000000  0.90610916  0.94883390  1
  Ni  Ni39  1  0.75000000  0.40578246  0.21777408  1
  Ni  Ni40  1  0.75000000  0.40528073  0.55105945  1
  Ni  Ni41  1  0.75000000  0.40530956  0.88440190  1
  Ni  Ni42  1  0.25000000  0.09351011  0.05114554  1
  Ni  Ni43  1  0.25000000  0.09360514  0.38447377  1
  Ni  Ni44  1  0.25000000  0.09355868  0.71781866  1
  Ni  Ni45  1  0.25000000  0.59372302  0.11552359  1
  Ni  Ni46  1  0.25000000  0.59363945  0.44885164  1
  Ni  Ni47  1  0.25000000  0.59380868  0.78217208  1
  Ni  Ni48  1  0.75000000  0.71588659  0.04361583  1
  Ni  Ni49  1  0.75000000  0.71598503  0.37694762  1
  Ni  Ni50  1  0.75000000  0.71573304  0.71027360  1
  Ni  Ni51  1  0.75000000  0.21595077  0.12304884  1
  Ni  Ni52  1  0.75000000  0.21584919  0.45637867  1
  Ni  Ni53  1  0.75000000  0.21572248  0.78971539  1
  Ni  Ni54  1  0.25000000  0.28509787  0.28967922  1
  Ni  Ni55  1  0.25000000  0.28357956  0.62296114  1
  Ni  Ni56  1  0.25000000  0.28368605  0.95629602  1
  Ni  Ni57  1  0.25000000  0.78520107  0.21032301  1
  Ni  Ni58  1  0.25000000  0.78517088  0.54360302  1
  Ni  Ni59  1  0.25000000  0.78524156  0.87693984  1
  Ni  Ni60  1  0.75000000  0.46118314  0.31885446  1
  Ni  Ni61  1  0.75000000  0.46163418  0.65214805  1
  Ni  Ni62  1  0.75000000  0.46162221  0.98548908  1
  Ni  Ni63  1  0.75000000  0.96115813  0.18113360  1
  Ni  Ni64  1  0.75000000  0.96235611  0.51447915  1
  Ni  Ni65  1  0.75000000  0.96240860  0.84781173  1
  Ni  Ni66  1  0.25000000  0.53752838  0.01454543  1
  Ni  Ni67  1  0.25000000  0.53764112  0.34787926  1
  Ni  Ni68  1  0.25000000  0.53753697  0.68121382  1
  Ni  Ni69  1  0.25000000  0.03761163  0.15212347  1
  Ni  Ni70  1  0.25000000  0.03743088  0.48546798  1
  Ni  Ni71  1  0.25000000  0.03738259  0.81880217  1
  Ni  Ni72  1  0.75000000  0.03632392  0.31876320  1
  Ni  Ni73  1  0.75000000  0.03632834  0.65214675  1
  Ni  Ni74  1  0.75000000  0.03631451  0.98547384  1
  Ni  Ni75  1  0.75000000  0.53638498  0.18124028  1
  Ni  Ni76  1  0.75000000  0.53596611  0.51450135  1
  Ni  Ni77  1  0.75000000  0.53597546  0.84783221  1
  Ni  Ni78  1  0.25000000  0.96379227  0.01443736  1
  Ni  Ni79  1  0.25000000  0.96377815  0.34774724  1
  Ni  Ni80  1  0.25000000  0.96382705  0.68110180  1
  Ni  Ni81  1  0.25000000  0.46377274  0.15225156  1
  Ni  Ni82  1  0.25000000  0.46376938  0.48557676  1
  Ni  Ni83  1  0.25000000  0.46381889  0.81890771  1
  Cu  Cu84  1  0.75000000  0.53673598  0.28567878  1
  Cu  Cu85  1  0.75000000  0.53652589  0.61893967  1
  Cu  Cu86  1  0.75000000  0.53640361  0.95227364  1
  Cu  Cu87  1  0.75000000  0.03662285  0.21432681  1
  Cu  Cu88  1  0.75000000  0.02969881  0.54820128  1
  Cu  Cu89  1  0.75000000  0.02974353  0.88153015  1
  Cu  Cu90  1  0.25000000  0.46961812  0.04834863  1
  Cu  Cu91  1  0.25000000  0.46980901  0.38169297  1
  Cu  Cu92  1  0.25000000  0.46969235  0.71502018  1
  Cu  Cu93  1  0.25000000  0.96986178  0.11830850  1
  Cu  Cu94  1  0.25000000  0.96987674  0.45165508  1
  Cu  Cu95  1  0.25000000  0.96996433  0.78499196  1
  Cu  Cu96  1  0.75000000  0.75848656  0.00928844  1
  Cu  Cu97  1  0.75000000  0.75815385  0.34266251  1
  Cu  Cu98  1  0.75000000  0.75843192  0.67595189  1
  Cu  Cu99  1  0.75000000  0.25806342  0.15733750  1
  Cu  Cu100  1  0.75000000  0.25835048  0.49072568  1
  Cu  Cu101  1  0.75000000  0.25824983  0.82406158  1
  Cu  Cu102  1  0.25000000  0.24317186  0.32426763  1
  Cu  Cu103  1  0.25000000  0.24295463  0.65754176  1
  Cu  Cu104  1  0.25000000  0.24293572  0.99087914  1
  Cu  Cu105  1  0.25000000  0.74318277  0.17572772  1
  Cu  Cu106  1  0.25000000  0.74269787  0.50915104  1
  Cu  Cu107  1  0.25000000  0.74266637  0.84248932  1
  Cu  Cu108  1  0.75000000  0.99492313  0.06745805  1
  Cu  Cu109  1  0.75000000  0.99491241  0.40081003  1
  Cu  Cu110  1  0.75000000  0.99490978  0.73413869  1
  Cu  Cu111  1  0.75000000  0.49484487  0.09920335  1
  Cu  Cu112  1  0.75000000  0.49477869  0.43255693  1
  Cu  Cu113  1  0.75000000  0.49471110  0.76589001  1
  Cu  Cu114  1  0.25000000  0.99956679  0.26639265  1
  Cu  Cu115  1  0.25000000  0.99670803  0.59930846  1
  Cu  Cu116  1  0.25000000  0.99677993  0.93264106  1
  Cu  Cu117  1  0.25000000  0.49959509  0.23361072  1
  Cu  Cu118  1  0.25000000  0.50840748  0.56710881  1
  Cu  Cu119  1  0.25000000  0.50841073  0.90043914  1
