# generated using pymatgen
data_Cu2Ni2C3
_symmetry_space_group_name_H-M   'P 1'
_cell_length_a   8.33076400
_cell_length_b   5.33051600
_cell_length_c   10.63787942
_cell_angle_alpha   90.00000000
_cell_angle_beta   91.23332035
_cell_angle_gamma   90.00000000
_symmetry_Int_Tables_number   1
_chemical_formula_structural   Cu2Ni2C3
_chemical_formula_sum   'Cu12 Ni12 C18'
_cell_volume   472.28975391
_cell_formula_units_Z   6
loop_
 _symmetry_equiv_pos_site_id
 _symmetry_equiv_pos_as_xyz
  1  'x, y, z'
loop_
 _atom_site_type_symbol
 _atom_site_label
 _atom_site_symmetry_multiplicity
 _atom_site_fract_x
 _atom_site_fract_y
 _atom_site_fract_z
 _atom_site_occupancy
  C  C0  1  0.46237000  0.95062600  0.83586200  1
  C  C1  1  0.53763000  0.45062600  0.66413800  1
  C  C2  1  0.53763000  0.04937400  0.16413800  1
  C  C3  1  0.46237000  0.54937400  0.33586200  1
  C  C4  1  0.71105000  0.52892800  0.00824200  1
  C  C5  1  0.28895000  0.02892800  0.49175800  1
  C  C6  1  0.28895000  0.47107200  0.99175800  1
  C  C7  1  0.71105000  0.97107200  0.50824200  1
  C  C8  1  0.00000000  0.00000000  0.00000000  1
  C  C9  1  0.00000000  0.50000000  0.50000000  1
  C  C10  1  0.84118500  0.93802000  0.78630400  1
  C  C11  1  0.15881500  0.43802000  0.71369600  1
  C  C12  1  0.15881500  0.06198000  0.21369600  1
  C  C13  1  0.84118500  0.56198000  0.28630400  1
  C  C14  1  0.00471100  0.06821000  0.76164300  1
  C  C15  1  0.99528900  0.56821000  0.73835700  1
  C  C16  1  0.99528900  0.93179000  0.23835700  1
  C  C17  1  0.00471100  0.43179000  0.26164300  1
  Ni  Ni18  1  0.95630200  0.92835200  0.80841500  1
  Ni  Ni19  1  0.04369800  0.42835200  0.69158500  1
  Ni  Ni20  1  0.04369800  0.07164800  0.19158500  1
  Ni  Ni21  1  0.95630200  0.57164800  0.30841500  1
  Ni  Ni22  1  0.85420300  0.31728300  0.98692400  1
  Ni  Ni23  1  0.14579700  0.81728300  0.51307600  1
  Ni  Ni24  1  0.14579700  0.68271700  0.01307600  1
  Ni  Ni25  1  0.85420300  0.18271700  0.48692400  1
  Ni  Ni26  1  0.80435300  0.80009900  0.04608500  1
  Ni  Ni27  1  0.19564700  0.30009900  0.45391500  1
  Ni  Ni28  1  0.19564700  0.19990100  0.95391500  1
  Ni  Ni29  1  0.80435300  0.69990100  0.54608500  1
  Cu  Cu30  1  0.52058500  0.27448300  0.97022100  1
  Cu  Cu31  1  0.47941500  0.77448300  0.52977900  1
  Cu  Cu32  1  0.47941500  0.72551700  0.02977900  1
  Cu  Cu33  1  0.52058500  0.22551700  0.47022100  1
  Cu  Cu34  1  0.66943300  0.62007000  0.83790600  1
  Cu  Cu35  1  0.33056700  0.12007000  0.66209400  1
  Cu  Cu36  1  0.33056700  0.37993000  0.16209400  1
  Cu  Cu37  1  0.66943300  0.87993000  0.33790600  1
  Cu  Cu38  1  0.66651900  0.43698500  0.17916500  1
  Cu  Cu39  1  0.33348100  0.93698500  0.32083500  1
  Cu  Cu40  1  0.33348100  0.56301500  0.82083500  1
  Cu  Cu41  1  0.66651900  0.06301500  0.67916500  1
