# generated using pymatgen
data_Cu2Ni6C19
_symmetry_space_group_name_H-M   'P 1'
_cell_length_a   11.94448049
_cell_length_b   11.94448049
_cell_length_c   7.17301712
_cell_angle_alpha   89.83867884
_cell_angle_beta   89.83867884
_cell_angle_gamma   119.52526922
_symmetry_Int_Tables_number   1
_chemical_formula_structural   Cu2Ni6C19
_chemical_formula_sum   'Cu4 Ni12 C38'
_cell_volume   890.46727425
_cell_formula_units_Z   2
loop_
 _symmetry_equiv_pos_site_id
 _symmetry_equiv_pos_as_xyz
  1  'x, y, z'
loop_
 _atom_site_type_symbol
 _atom_site_label
 _atom_site_symmetry_multiplicity
 _atom_site_fract_x
 _atom_site_fract_y
 _atom_site_fract_z
 _atom_site_occupancy
  Ni  Ni0  1  0.33284700  0.66542000  0.98064500  1
  Ni  Ni1  1  0.66542000  0.33284700  0.48064500  1
  Ni  Ni2  1  0.34785000  0.17396300  0.16373000  1
  Ni  Ni3  1  0.82798400  0.65247300  0.16501600  1
  Ni  Ni4  1  0.82814700  0.17739500  0.16539900  1
  Ni  Ni5  1  0.65247300  0.82798400  0.66501600  1
  Ni  Ni6  1  0.17396300  0.34785000  0.66373000  1
  Ni  Ni7  1  0.17739500  0.82814700  0.66539900  1
  Ni  Ni8  1  0.95462800  0.47858200  0.83134000  1
  Ni  Ni9  1  0.47858200  0.95462800  0.33134000  1
  Ni  Ni10  1  0.99883900  0.00007500  0.50601600  1
  Ni  Ni11  1  0.00007500  0.99883900  0.00601600  1
  Cu  Cu12  1  0.52207000  0.04335300  0.83335900  1
  Cu  Cu13  1  0.52113700  0.48001200  0.83970100  1
  Cu  Cu14  1  0.04335300  0.52207000  0.33335900  1
  Cu  Cu15  1  0.48001200  0.52113700  0.33970100  1
  C  C16  1  0.66624300  0.33699700  0.02750000  1
  C  C17  1  0.33699700  0.66624300  0.52750000  1
  C  C18  1  0.18158000  0.82384800  0.16736800  1
  C  C19  1  0.64141000  0.81798500  0.15894400  1
  C  C20  1  0.18367700  0.35676000  0.17265400  1
  C  C21  1  0.82384800  0.18158000  0.66736800  1
  C  C22  1  0.35676000  0.18367700  0.67265400  1
  C  C23  1  0.81798500  0.64141000  0.65894400  1
  C  C24  1  0.80392000  0.90173600  0.26847000  1
  C  C25  1  0.10336100  0.19116200  0.27205900  1
  C  C26  1  0.10450900  0.91115400  0.27492300  1
  C  C27  1  0.19116200  0.10336100  0.77205900  1
  C  C28  1  0.90173600  0.80392000  0.76847000  1
  C  C29  1  0.91115400  0.10450900  0.77492300  1
  C  C30  1  0.73980200  0.24141800  0.84261800  1
  C  C31  1  0.49750800  0.25574900  0.84762900  1
  C  C32  1  0.73778700  0.50274900  0.84102200  1
  C  C33  1  0.24141800  0.73980200  0.34261800  1
  C  C34  1  0.50274900  0.73778700  0.34102200  1
  C  C35  1  0.25574900  0.49750800  0.34762900  1
  C  C36  1  0.41910800  0.58170700  0.67326100  1
  C  C37  1  0.17466000  0.58381000  0.66168600  1
  C  C38  1  0.41601300  0.82644600  0.68004200  1
  C  C39  1  0.58170700  0.41910800  0.17326100  1
  C  C40  1  0.82644600  0.41601300  0.18004200  1
  C  C41  1  0.58381000  0.17466000  0.16168600  1
  C  C42  1  0.67158800  0.06280200  0.55059700  1
  C  C43  1  0.39807000  0.33647500  0.53451300  1
  C  C44  1  0.92997100  0.60825300  0.50789900  1
  C  C45  1  0.39560500  0.06678000  0.55655700  1
  C  C46  1  0.93400200  0.32358700  0.50878400  1
  C  C47  1  0.66463700  0.60245800  0.52855600  1
  C  C48  1  0.32358700  0.93400200  0.00878400  1
  C  C49  1  0.60245800  0.66463700  0.02855600  1
  C  C50  1  0.06678000  0.39560500  0.05655700  1
  C  C51  1  0.60825300  0.92997100  0.00789900  1
  C  C52  1  0.06280200  0.67158800  0.05059700  1
  C  C53  1  0.33647500  0.39807000  0.03451300  1
