# generated using pymatgen
data_Cu2NiC4
_symmetry_space_group_name_H-M   'P 1'
_cell_length_a   5.52054808
_cell_length_b   5.52054808
_cell_length_c   9.97183300
_cell_angle_alpha   90.00000000
_cell_angle_beta   90.00000000
_cell_angle_gamma   147.40648925
_symmetry_Int_Tables_number   1
_chemical_formula_structural   Cu2NiC4
_chemical_formula_sum   'Cu4 Ni2 C8'
_cell_volume   163.70671964
_cell_formula_units_Z   2
loop_
 _symmetry_equiv_pos_site_id
 _symmetry_equiv_pos_as_xyz
  1  'x, y, z'
loop_
 _atom_site_type_symbol
 _atom_site_label
 _atom_site_symmetry_multiplicity
 _atom_site_fract_x
 _atom_site_fract_y
 _atom_site_fract_z
 _atom_site_occupancy
  Ni  Ni0  1  0.60965400  0.39034600  0.75000000  1
  Ni  Ni1  1  0.39034600  0.60965400  0.25000000  1
  Cu  Cu2  1  0.13056400  0.86943600  0.07204000  1
  Cu  Cu3  1  0.86943600  0.13056400  0.92796000  1
  Cu  Cu4  1  0.13056400  0.86943600  0.42796000  1
  Cu  Cu5  1  0.86943600  0.13056400  0.57204000  1
  C  C6  1  0.78717000  0.21283000  0.37987200  1
  C  C7  1  0.21283000  0.78717000  0.62012800  1
  C  C8  1  0.21283000  0.78717000  0.87987200  1
  C  C9  1  0.78717000  0.21283000  0.12012800  1
  C  C10  1  0.02437100  0.97562900  0.25000000  1
  C  C11  1  0.97562900  0.02437100  0.75000000  1
  C  C12  1  0.50000000  0.50000000  0.00000000  1
  C  C13  1  0.50000000  0.50000000  0.50000000  1
