# generated using pymatgen
data_Cu2NiC9
_symmetry_space_group_name_H-M   'P 1'
_cell_length_a   8.38505800
_cell_length_b   8.38505800
_cell_length_c   5.28056600
_cell_angle_alpha   90.00000000
_cell_angle_beta   90.00000000
_cell_angle_gamma   90.00000000
_symmetry_Int_Tables_number   1
_chemical_formula_structural   Cu2NiC9
_chemical_formula_sum   'Cu4 Ni2 C18'
_cell_volume   371.27235867
_cell_formula_units_Z   2
loop_
 _symmetry_equiv_pos_site_id
 _symmetry_equiv_pos_as_xyz
  1  'x, y, z'
loop_
 _atom_site_type_symbol
 _atom_site_label
 _atom_site_symmetry_multiplicity
 _atom_site_fract_x
 _atom_site_fract_y
 _atom_site_fract_z
 _atom_site_occupancy
  C  C0  1  0.66526600  0.16526600  0.98909200  1
  C  C1  1  0.83473400  0.66526600  0.01090800  1
  C  C2  1  0.16526600  0.33473400  0.01090800  1
  C  C3  1  0.33473400  0.83473400  0.98909200  1
  Ni  Ni4  1  0.00000000  0.00000000  0.50000000  1
  Ni  Ni5  1  0.50000000  0.50000000  0.50000000  1
  Cu  Cu6  1  0.85928400  0.35928400  0.53249500  1
  Cu  Cu7  1  0.14071600  0.64071600  0.53249500  1
  Cu  Cu8  1  0.64071600  0.85928400  0.46750500  1
  Cu  Cu9  1  0.35928400  0.14071600  0.46750500  1
  C  C10  1  0.68055500  0.41364200  0.68757500  1
  C  C11  1  0.31944500  0.58635800  0.68757500  1
  C  C12  1  0.41364200  0.31944500  0.31242500  1
  C  C13  1  0.58635800  0.68055500  0.31242500  1
  C  C14  1  0.91364200  0.18055500  0.68757500  1
  C  C15  1  0.81944500  0.91364200  0.31242500  1
  C  C16  1  0.18055500  0.08635800  0.31242500  1
  C  C17  1  0.08635800  0.81944500  0.68757500  1
  C  C18  1  0.86551300  0.36551300  0.20314700  1
  C  C19  1  0.63448700  0.86551300  0.79685300  1
  C  C20  1  0.00000000  0.50000000  0.67436800  1
  C  C21  1  0.50000000  0.00000000  0.32563200  1
  C  C22  1  0.13448700  0.63448700  0.20314700  1
  C  C23  1  0.36551300  0.13448700  0.79685300  1
