# generated using pymatgen
data_Cu(NiC4)2
_symmetry_space_group_name_H-M   'P 1'
_cell_length_a   8.98814100
_cell_length_b   10.83360200
_cell_length_c   10.92658149
_cell_angle_alpha   86.18562240
_cell_angle_beta   90.00000000
_cell_angle_gamma   90.00000000
_symmetry_Int_Tables_number   1
_chemical_formula_structural   Cu(NiC4)2
_chemical_formula_sum   'Cu6 Ni12 C48'
_cell_volume   1061.60742908
_cell_formula_units_Z   6
loop_
 _symmetry_equiv_pos_site_id
 _symmetry_equiv_pos_as_xyz
  1  'x, y, z'
loop_
 _atom_site_type_symbol
 _atom_site_label
 _atom_site_symmetry_multiplicity
 _atom_site_fract_x
 _atom_site_fract_y
 _atom_site_fract_z
 _atom_site_occupancy
  C  C0  1  0.44254800  0.57359800  0.84004300  1
  C  C1  1  0.94581700  0.75000000  0.50000000  1
  C  C2  1  0.44254800  0.92640200  0.15995700  1
  C  C3  1  0.05418300  0.25000000  0.50000000  1
  C  C4  1  0.55745200  0.42640200  0.15995700  1
  C  C5  1  0.55745200  0.07359800  0.84004300  1
  Ni  Ni6  1  0.19772300  0.29018100  0.83171200  1
  Ni  Ni7  1  0.75137500  0.38166700  0.83881500  1
  Ni  Ni8  1  0.24862500  0.88166700  0.83881500  1
  Ni  Ni9  1  0.80227700  0.79018100  0.83171200  1
  Ni  Ni10  1  0.30465700  0.96621900  0.52483000  1
  Ni  Ni11  1  0.75137500  0.11833300  0.16118500  1
  Ni  Ni12  1  0.69534300  0.46621900  0.52483000  1
  Ni  Ni13  1  0.24862500  0.61833300  0.16118500  1
  Ni  Ni14  1  0.30465700  0.53378100  0.47517000  1
  Ni  Ni15  1  0.69534300  0.03378100  0.47517000  1
  Ni  Ni16  1  0.80227700  0.70981900  0.16828800  1
  Ni  Ni17  1  0.19772300  0.20981900  0.16828800  1
  Cu  Cu18  1  0.92506100  0.41073200  0.19951300  1
  Cu  Cu19  1  0.07493900  0.58926800  0.80048700  1
  Cu  Cu20  1  0.42836600  0.25000000  0.50000000  1
  Cu  Cu21  1  0.92506100  0.08926800  0.80048700  1
  Cu  Cu22  1  0.57163400  0.75000000  0.50000000  1
  Cu  Cu23  1  0.07493900  0.91073200  0.19951300  1
  C  C24  1  0.77088600  0.96128300  0.79891700  1
  C  C25  1  0.77032200  0.29067000  0.16377800  1
  C  C26  1  0.85566900  0.75000000  0.00000000  1
  C  C27  1  0.87377900  0.10610300  0.48886800  1
  C  C28  1  0.38282300  0.57068500  0.04702600  1
  C  C29  1  0.93693000  0.71476000  0.72796500  1
  C  C30  1  0.35593500  0.94311000  0.69671100  1
  C  C31  1  0.12622100  0.60610300  0.48886800  1
  C  C32  1  0.72862900  0.86798500  0.52839700  1
  C  C33  1  0.38282300  0.92931500  0.95297400  1
  C  C34  1  0.72862900  0.63201500  0.47160300  1
  C  C35  1  0.44360900  0.88444400  0.43064900  1
  C  C36  1  0.92992100  0.03634800  0.15415400  1
  C  C37  1  0.06307000  0.21476000  0.72796500  1
  C  C38  1  0.64406500  0.05689000  0.30328900  1
  C  C39  1  0.35593500  0.55689000  0.30328900  1
  C  C40  1  0.93693000  0.78524000  0.27203500  1
  C  C41  1  0.61717700  0.42931500  0.95297400  1
  C  C42  1  0.22911400  0.46128300  0.79891700  1
  C  C43  1  0.55639100  0.11555600  0.56935100  1
  C  C44  1  0.37875000  0.27853100  0.18723300  1
  C  C45  1  0.27137100  0.13201500  0.47160300  1
  C  C46  1  0.07007900  0.53634800  0.15415400  1
  C  C47  1  0.27137100  0.36798500  0.52839700  1
  C  C48  1  0.87377900  0.39389700  0.51113200  1
  C  C49  1  0.55639100  0.38444400  0.43064900  1
  C  C50  1  0.12622100  0.89389700  0.51113200  1
  C  C51  1  0.62125000  0.77853100  0.18723300  1
  C  C52  1  0.62125000  0.72146900  0.81276700  1
  C  C53  1  0.07007900  0.96365200  0.84584600  1
  C  C54  1  0.06307000  0.28524000  0.27203500  1
  C  C55  1  0.77088600  0.53871700  0.20108300  1
  C  C56  1  0.14433100  0.25000000  0.00000000  1
  C  C57  1  0.22967800  0.79067000  0.16377800  1
  C  C58  1  0.61717700  0.07068500  0.04702600  1
  C  C59  1  0.92992100  0.46365200  0.84584600  1
  C  C60  1  0.22911400  0.03871700  0.20108300  1
  C  C61  1  0.77032200  0.20933000  0.83622200  1
  C  C62  1  0.44360900  0.61555600  0.56935100  1
  C  C63  1  0.64406500  0.44311000  0.69671100  1
  C  C64  1  0.22967800  0.70933000  0.83622200  1
  C  C65  1  0.37875000  0.22146900  0.81276700  1
