# generated using pymatgen
data_Cu13NiC6
_symmetry_space_group_name_H-M   'P 1'
_cell_length_a   12.87248088
_cell_length_b   12.87248088
_cell_length_c   12.87248088
_cell_angle_alpha   143.80099650
_cell_angle_beta   143.80099650
_cell_angle_gamma   52.12497611
_symmetry_Int_Tables_number   1
_chemical_formula_structural   Cu13NiC6
_chemical_formula_sum   'Cu26 Ni2 C12'
_cell_volume   739.72298082
_cell_formula_units_Z   2
loop_
 _symmetry_equiv_pos_site_id
 _symmetry_equiv_pos_as_xyz
  1  'x, y, z'
loop_
 _atom_site_type_symbol
 _atom_site_label
 _atom_site_symmetry_multiplicity
 _atom_site_fract_x
 _atom_site_fract_y
 _atom_site_fract_z
 _atom_site_occupancy
  C  C0  1  0.60473800  0.60473800  0.00000000  1
  C  C1  1  0.10473800  0.10473800  0.00000000  1
  C  C2  1  0.39526200  0.39526200  0.00000000  1
  C  C3  1  0.89526200  0.89526200  0.00000000  1
  C  C4  1  0.47830300  0.97830300  0.82645100  1
  C  C5  1  0.15185200  0.65185200  0.17354900  1
  C  C6  1  0.97830300  0.15185200  0.50000000  1
  C  C7  1  0.65185200  0.47830300  0.50000000  1
  C  C8  1  0.52169700  0.02169700  0.17354900  1
  C  C9  1  0.84814800  0.34814800  0.82645100  1
  C  C10  1  0.02169700  0.84814800  0.50000000  1
  C  C11  1  0.34814800  0.52169700  0.50000000  1
  Ni  Ni12  1  0.25000000  0.25000000  0.00000000  1
  Ni  Ni13  1  0.75000000  0.75000000  0.00000000  1
  Cu  Cu14  1  0.50000000  0.00000000  0.50000000  1
  Cu  Cu15  1  0.00000000  0.50000000  0.50000000  1
  Cu  Cu16  1  0.56600500  0.70974000  0.27574500  1
  Cu  Cu17  1  0.43399500  0.29026000  0.72425500  1
  Cu  Cu18  1  0.06600500  0.79026000  0.85626500  1
  Cu  Cu19  1  0.93399500  0.20974000  0.14373500  1
  Cu  Cu20  1  0.29026000  0.56600500  0.85626500  1
  Cu  Cu21  1  0.70974000  0.43399500  0.14373500  1
  Cu  Cu22  1  0.20974000  0.06600500  0.27574500  1
  Cu  Cu23  1  0.79026000  0.93399500  0.72425500  1
  Cu  Cu24  1  0.61986800  0.11986800  0.85821400  1
  Cu  Cu25  1  0.26165400  0.76165400  0.14178600  1
  Cu  Cu26  1  0.11986800  0.26165400  0.50000000  1
  Cu  Cu27  1  0.76165400  0.61986800  0.50000000  1
  Cu  Cu28  1  0.38013200  0.88013200  0.14178600  1
  Cu  Cu29  1  0.73834600  0.23834600  0.85821400  1
  Cu  Cu30  1  0.88013200  0.73834600  0.50000000  1
  Cu  Cu31  1  0.23834600  0.38013200  0.50000000  1
  Cu  Cu32  1  0.79177200  0.29177200  0.27324000  1
  Cu  Cu33  1  0.01853200  0.51853200  0.72676000  1
  Cu  Cu34  1  0.29177200  0.01853200  0.50000000  1
  Cu  Cu35  1  0.51853200  0.79177200  0.50000000  1
  Cu  Cu36  1  0.20822800  0.70822800  0.72676000  1
  Cu  Cu37  1  0.98146800  0.48146800  0.27324000  1
  Cu  Cu38  1  0.70822800  0.98146800  0.50000000  1
  Cu  Cu39  1  0.48146800  0.20822800  0.50000000  1
