# generated using pymatgen
data_CuNiC11
_symmetry_space_group_name_H-M   'P 1'
_cell_length_a   6.55380900
_cell_length_b   8.55530000
_cell_length_c   10.18682598
_cell_angle_alpha   84.52535897
_cell_angle_beta   90.00000000
_cell_angle_gamma   90.00000000
_symmetry_Int_Tables_number   1
_chemical_formula_structural   CuNiC11
_chemical_formula_sum   'Cu4 Ni4 C44'
_cell_volume   568.56792274
_cell_formula_units_Z   4
loop_
 _symmetry_equiv_pos_site_id
 _symmetry_equiv_pos_as_xyz
  1  'x, y, z'
loop_
 _atom_site_type_symbol
 _atom_site_label
 _atom_site_symmetry_multiplicity
 _atom_site_fract_x
 _atom_site_fract_y
 _atom_site_fract_z
 _atom_site_occupancy
  C  C0  1  0.25348700  0.26018800  0.63404300  1
  C  C1  1  0.74651300  0.26018800  0.13404300  1
  C  C2  1  0.51280800  0.09879000  0.88591000  1
  C  C3  1  0.48719200  0.09879000  0.38591000  1
  C  C4  1  0.72024700  0.28458200  0.62673700  1
  C  C5  1  0.27975300  0.28458200  0.12673700  1
  C  C6  1  0.77900900  0.71827700  0.87499300  1
  C  C7  1  0.23099800  0.72541400  0.87116400  1
  C  C8  1  0.76900200  0.72541400  0.37116400  1
  C  C9  1  0.22099100  0.71827700  0.37499300  1
  C  C10  1  0.98063600  0.90617800  0.62211700  1
  C  C11  1  0.01936400  0.90617800  0.12211700  1
  C  C12  1  0.00507900  0.33530300  0.89264400  1
  C  C13  1  0.99492100  0.33530300  0.39264400  1
  C  C14  1  0.49652400  0.66974200  0.60267100  1
  C  C15  1  0.50347600  0.66974200  0.10267100  1
  Ni  Ni16  1  0.50433800  0.41454200  0.85700500  1
  Ni  Ni17  1  0.49566200  0.41454200  0.35700500  1
  Ni  Ni18  1  0.99114000  0.59044300  0.63457400  1
  Ni  Ni19  1  0.00886000  0.59044300  0.13457400  1
  Cu  Cu20  1  0.99383200  0.03237000  0.85398300  1
  Cu  Cu21  1  0.00616800  0.03237000  0.35398300  1
  Cu  Cu22  1  0.50702600  0.96306300  0.65495800  1
  Cu  Cu23  1  0.49297400  0.96306300  0.15495800  1
  C  C24  1  0.53328200  0.10311800  0.68996900  1
  C  C25  1  0.46671800  0.10311800  0.18996900  1
  C  C26  1  0.99178300  0.06565000  0.97516200  1
  C  C27  1  0.00821700  0.06565000  0.47516200  1
  C  C28  1  0.99465700  0.14776900  0.76062600  1
  C  C29  1  0.00534300  0.14776900  0.26062600  1
  C  C30  1  0.31972100  0.30573100  0.90310300  1
  C  C31  1  0.69195000  0.31476700  0.90927200  1
  C  C32  1  0.30805000  0.31476700  0.40927200  1
  C  C33  1  0.68027900  0.30573100  0.40310300  1
  C  C34  1  0.51287500  0.43742600  0.70358500  1
  C  C35  1  0.96843800  0.42746200  0.58370700  1
  C  C36  1  0.48712500  0.43742600  0.20358500  1
  C  C37  1  0.03156200  0.42746200  0.08370700  1
  C  C38  1  0.49353200  0.57613100  0.91120100  1
  C  C39  1  0.99996100  0.57104300  0.78877100  1
  C  C40  1  0.50646800  0.57613100  0.41120100  1
  C  C41  1  0.00003900  0.57104300  0.28877100  1
  C  C42  1  0.81223500  0.70308100  0.58658400  1
  C  C43  1  0.18360900  0.68022000  0.57760900  1
  C  C44  1  0.81639100  0.68022000  0.07760900  1
  C  C45  1  0.18776500  0.70308100  0.08658400  1
  C  C46  1  0.48984100  0.84421300  0.74538500  1
  C  C47  1  0.51015900  0.84421300  0.24538500  1
  C  C48  1  0.49779300  0.93582200  0.53217500  1
  C  C49  1  0.50220700  0.93582200  0.03217500  1
  C  C50  1  0.99534000  0.88867200  0.82205200  1
  C  C51  1  0.00466000  0.88867200  0.32205200  1
