# generated using pymatgen
data_Cu14Ni3C11
_symmetry_space_group_name_H-M   'P 1'
_cell_length_a   7.23447400
_cell_length_b   8.31601286
_cell_length_c   20.18416949
_cell_angle_alpha   83.90508728
_cell_angle_beta   82.55262653
_cell_angle_gamma   75.94228219
_symmetry_Int_Tables_number   1
_chemical_formula_structural   Cu14Ni3C11
_chemical_formula_sum   'Cu56 Ni12 C44'
_cell_volume   1164.48883289
_cell_formula_units_Z   4
loop_
 _symmetry_equiv_pos_site_id
 _symmetry_equiv_pos_as_xyz
  1  'x, y, z'
loop_
 _atom_site_type_symbol
 _atom_site_label
 _atom_site_symmetry_multiplicity
 _atom_site_fract_x
 _atom_site_fract_y
 _atom_site_fract_z
 _atom_site_occupancy
  C  C0  1  0.23678000  0.24385600  0.61118300  1
  C  C1  1  0.76322000  0.75614400  0.38881700  1
  C  C2  1  0.25063600  0.76870000  0.89013000  1
  C  C3  1  0.74936400  0.23130000  0.10987000  1
  C  C4  1  0.19854600  0.95133900  0.69473600  1
  C  C5  1  0.80145400  0.04866100  0.30526400  1
  C  C6  1  0.26605900  0.89669200  0.62164000  1
  C  C7  1  0.73394100  0.10330800  0.37836000  1
  C  C8  1  0.95996800  0.38186200  0.71888100  1
  C  C9  1  0.04003200  0.61813800  0.28111900  1
  C  C10  1  0.87010700  0.44350500  0.64900700  1
  C  C11  1  0.12989300  0.55649500  0.35099300  1
  C  C12  1  0.59369200  0.08459500  0.54511300  1
  C  C13  1  0.40630800  0.91540500  0.45488700  1
  C  C14  1  0.62922000  0.08354200  0.62173000  1
  C  C15  1  0.37078000  0.91645800  0.37827000  1
  C  C16  1  0.27515200  0.45949500  0.49088700  1
  C  C17  1  0.72484800  0.54050500  0.50911300  1
  C  C18  1  0.30822300  0.55034700  0.55326100  1
  C  C19  1  0.69177700  0.44965300  0.44673900  1
  C  C20  1  0.90158200  0.96979700  0.94426900  1
  C  C21  1  0.09841800  0.03020300  0.05573100  1
  C  C22  1  0.86289700  0.93690800  0.87117600  1
  C  C23  1  0.13710300  0.06309200  0.12882400  1
  C  C24  1  0.61914400  0.56205900  0.86015100  1
  C  C25  1  0.38085600  0.43794100  0.13984900  1
  C  C26  1  0.51825300  0.58548800  0.79280600  1
  C  C27  1  0.48174700  0.41451200  0.20719400  1
  C  C28  1  0.16889000  0.45659900  0.94116900  1
  C  C29  1  0.83111000  0.54340100  0.05883100  1
  C  C30  1  0.20633300  0.53891500  0.00561700  1
  C  C31  1  0.79366700  0.46108500  0.99438300  1
  C  C32  1  0.24601400  0.11015700  0.87011800  1
  C  C33  1  0.75398600  0.88984300  0.12988200  1
  C  C34  1  0.46353100  0.01216400  0.84554900  1
  C  C35  1  0.53646900  0.98783600  0.15445100  1
  C  C36  1  0.90232000  0.97112400  0.66162100  1
  C  C37  1  0.09768000  0.02887600  0.33837900  1
  C  C38  1  0.74066100  0.87096900  0.67748100  1
  C  C39  1  0.25933900  0.12903100  0.32251900  1
  C  C40  1  0.69672600  0.14058300  0.81877500  1
  C  C41  1  0.30327400  0.85941700  0.18122500  1
  C  C42  1  0.72792500  0.00488300  0.76810500  1
  C  C43  1  0.27207500  0.99511700  0.23189500  1
  Ni  Ni44  1  0.38887500  0.32216500  0.71530600  1
  Ni  Ni45  1  0.61112500  0.67783500  0.28469400  1
  Ni  Ni46  1  0.08286200  0.17578800  0.50383600  1
  Ni  Ni47  1  0.91713800  0.82421200  0.49616400  1
  Ni  Ni48  1  0.39424400  0.81922500  0.00262100  1
  Ni  Ni49  1  0.60575600  0.18077500  0.99737900  1
  Ni  Ni50  1  0.10565700  0.70737200  0.77775700  1
  Ni  Ni51  1  0.89434300  0.29262800  0.22224300  1
  Ni  Ni52  1  0.92612700  0.35076300  0.87527000  1
  Ni  Ni53  1  0.07387300  0.64923700  0.12473000  1
  Ni  Ni54  1  0.56846200  0.67357400  0.61628800  1
  Ni  Ni55  1  0.43153800  0.32642600  0.38371200  1
  Cu  Cu56  1  0.18532600  0.99120200  0.64698900  1
  Cu  Cu57  1  0.81467400  0.00879800  0.35301100  1
  Cu  Cu58  1  0.46581300  0.35421300  0.76166500  1
  Cu  Cu59  1  0.53418700  0.64578700  0.23833500  1
  Cu  Cu60  1  0.01445400  0.15180400  0.45437600  1
  Cu  Cu61  1  0.98554600  0.84819600  0.54562400  1
  Cu  Cu62  1  0.97249200  0.36151500  0.67141300  1
  Cu  Cu63  1  0.02750800  0.63848500  0.32858700  1
  Cu  Cu64  1  0.33269400  0.18624600  0.71568400  1
  Cu  Cu65  1  0.66730600  0.81375400  0.28431600  1
  Cu  Cu66  1  0.35884400  0.42080800  0.66250200  1
  Cu  Cu67  1  0.64115600  0.57919200  0.33749800  1
  Cu  Cu68  1  0.53889300  0.13470900  0.58715600  1
  Cu  Cu69  1  0.46110700  0.86529100  0.41284400  1
  Cu  Cu70  1  0.98386500  0.25587100  0.55236200  1
  Cu  Cu71  1  0.01613500  0.74412900  0.44763800  1
  Cu  Cu72  1  0.26392300  0.12177500  0.51144000  1
  Cu  Cu73  1  0.73607700  0.87822500  0.48856000  1
  Cu  Cu74  1  0.25970000  0.45816000  0.54090000  1
  Cu  Cu75  1  0.74030000  0.54184000  0.45910000  1
  Cu  Cu76  1  0.95614400  0.90325500  0.90562300  1
  Cu  Cu77  1  0.04385600  0.09674500  0.09437700  1
  Cu  Cu78  1  0.51443600  0.63473400  0.83494200  1
  Cu  Cu79  1  0.48556400  0.36526600  0.16505800  1
  Cu  Cu80  1  0.20715900  0.55192200  0.95604500  1
  Cu  Cu81  1  0.79284100  0.44807800  0.04395500  1
  Cu  Cu82  1  0.46061100  0.84511600  0.05221300  1
  Cu  Cu83  1  0.53938900  0.15488400  0.94778700  1
  Cu  Cu84  1  0.49379700  0.73596900  0.95524300  1
  Cu  Cu85  1  0.50620300  0.26403100  0.04475700  1
  Cu  Cu86  1  0.21384600  0.87530300  0.99399200  1
  Cu  Cu87  1  0.78615400  0.12469700  0.00600800  1
  Cu  Cu88  1  0.33147900  0.99960800  0.86212200  1
  Cu  Cu89  1  0.66852100  0.00039200  0.13787800  1
  Cu  Cu90  1  0.17864100  0.83539500  0.77736800  1
  Cu  Cu91  1  0.82135900  0.16460500  0.22263200  1
  Cu  Cu92  1  0.03230700  0.67852500  0.73001400  1
  Cu  Cu93  1  0.96769300  0.32147500  0.26998600  1
  Cu  Cu94  1  0.11597800  0.61374700  0.83243100  1
  Cu  Cu95  1  0.88402200  0.38625300  0.16756900  1
  Cu  Cu96  1  0.76691300  0.98142700  0.67947000  1
  Cu  Cu97  1  0.23308700  0.01857300  0.32053000  1
  Cu  Cu98  1  0.69905300  0.02286900  0.81673100  1
  Cu  Cu99  1  0.30094700  0.97713100  0.18326900  1
  Cu  Cu100  1  0.89825400  0.30781300  0.82026100  1
  Cu  Cu101  1  0.10174600  0.69218700  0.17973900  1
  Cu  Cu102  1  0.08339600  0.29394600  0.90021300  1
  Cu  Cu103  1  0.91660400  0.70605400  0.09978700  1
  Cu  Cu104  1  0.79273000  0.45401800  0.90754800  1
  Cu  Cu105  1  0.20727000  0.54598200  0.09245200  1
  Cu  Cu106  1  0.42244000  0.72607400  0.58423900  1
  Cu  Cu107  1  0.57756000  0.27392600  0.41576100  1
  Cu  Cu108  1  0.70646100  0.55910900  0.59290500  1
  Cu  Cu109  1  0.29353900  0.44089100  0.40709500  1
  Cu  Cu110  1  0.57799500  0.73172700  0.67031900  1
  Cu  Cu111  1  0.42200500  0.26827300  0.32968100  1
