# generated using pymatgen
data_CuNi2C17
_symmetry_space_group_name_H-M   'P 1'
_cell_length_a   7.44975996
_cell_length_b   7.44975996
_cell_length_c   15.10340360
_cell_angle_alpha   86.75693850
_cell_angle_beta   86.75693850
_cell_angle_gamma   43.17302591
_symmetry_Int_Tables_number   1
_chemical_formula_structural   CuNi2C17
_chemical_formula_sum   'Cu2 Ni4 C34'
_cell_volume   572.45276949
_cell_formula_units_Z   2
loop_
 _symmetry_equiv_pos_site_id
 _symmetry_equiv_pos_as_xyz
  1  'x, y, z'
loop_
 _atom_site_type_symbol
 _atom_site_label
 _atom_site_symmetry_multiplicity
 _atom_site_fract_x
 _atom_site_fract_y
 _atom_site_fract_z
 _atom_site_occupancy
  Ni  Ni0  1  0.74300700  0.88107600  0.62531700  1
  Ni  Ni1  1  0.88107600  0.74300700  0.12531700  1
  Ni  Ni2  1  0.25699300  0.11892400  0.37468300  1
  Ni  Ni3  1  0.11892400  0.25699300  0.87468300  1
  Cu  Cu4  1  0.41913800  0.58086200  0.75000000  1
  Cu  Cu5  1  0.58086200  0.41913800  0.25000000  1
  C  C6  1  0.85435600  0.89986100  0.87651800  1
  C  C7  1  0.14564400  0.10013900  0.12348200  1
  C  C8  1  0.89986100  0.85435600  0.37651800  1
  C  C9  1  0.10013900  0.14564400  0.62348200  1
  C  C10  1  0.50000000  0.50000000  0.00000000  1
  C  C11  1  0.50000000  0.50000000  0.50000000  1
  C  C12  1  0.93493900  0.07454900  0.34432700  1
  C  C13  1  0.60083100  0.11725900  0.45304900  1
  C  C14  1  0.39916900  0.88274100  0.54695100  1
  C  C15  1  0.15695900  0.34908200  0.59642700  1
  C  C16  1  0.50912100  0.38340000  0.61802900  1
  C  C17  1  0.61660000  0.49087900  0.88197100  1
  C  C18  1  0.11725900  0.60083100  0.95304900  1
  C  C19  1  0.92545100  0.06506100  0.15567300  1
  C  C20  1  0.05652000  0.62150900  0.77239300  1
  C  C21  1  0.84304100  0.65091800  0.40357300  1
  C  C22  1  0.59354200  0.16539800  0.79183300  1
  C  C23  1  0.65091800  0.84304100  0.90357300  1
  C  C24  1  0.16539800  0.59354200  0.29183300  1
  C  C25  1  0.40645800  0.83460200  0.20816700  1
  C  C26  1  0.38340000  0.50912100  0.11802900  1
  C  C27  1  0.94348000  0.37849100  0.22760700  1
  C  C28  1  0.30437700  0.86591700  0.01106100  1
  C  C29  1  0.06506100  0.92545100  0.65567300  1
  C  C30  1  0.69562300  0.13408300  0.98893900  1
  C  C31  1  0.86591700  0.30437700  0.51106100  1
  C  C32  1  0.88274100  0.39916900  0.04695100  1
  C  C33  1  0.83460200  0.40645800  0.70816700  1
  C  C34  1  0.62150900  0.05652000  0.27239300  1
  C  C35  1  0.13408300  0.69562300  0.48893900  1
  C  C36  1  0.49087900  0.61660000  0.38197100  1
  C  C37  1  0.07454900  0.93493900  0.84432700  1
  C  C38  1  0.37849100  0.94348000  0.72760700  1
  C  C39  1  0.34908200  0.15695900  0.09642700  1
