# generated using pymatgen
data_Cu6NiC8
_symmetry_space_group_name_H-M   'P 1'
_cell_length_a   8.79114137
_cell_length_b   4.28410962
_cell_length_c   4.28410962
_cell_angle_alpha   90.00000000
_cell_angle_beta   90.00000000
_cell_angle_gamma   90.00000000
_symmetry_Int_Tables_number   1
_chemical_formula_structural   Cu6NiC8
_chemical_formula_sum   'Cu6 Ni1 C8'
_cell_volume   161.34905037
_cell_formula_units_Z   1
loop_
 _symmetry_equiv_pos_site_id
 _symmetry_equiv_pos_as_xyz
  1  'x, y, z'
loop_
 _atom_site_type_symbol
 _atom_site_label
 _atom_site_symmetry_multiplicity
 _atom_site_fract_x
 _atom_site_fract_y
 _atom_site_fract_z
 _atom_site_occupancy
  C  C0  1  0.98891554  0.00000000  0.00000000  1
  Ni  Ni1  1  0.00080434  0.50000000  0.50000000  1
  Cu  Cu2  1  0.50461091  0.00000000  -0.00000000  1
  Cu  Cu3  1  0.50106426  0.50000000  0.50000000  1
  Cu  Cu4  1  0.25660169  0.00000000  0.50000000  1
  Cu  Cu5  1  0.74635620  0.00000000  0.50000000  1
  Cu  Cu6  1  0.25660169  0.50000000  0.00000000  1
  Cu  Cu7  1  0.74635620  0.50000000  -0.00000000  1
  C  C8  1  0.74247532  0.00000000  0.00000000  1
  C  C9  1  0.25624435  0.50000000  0.50000000  1
  C  C10  1  0.74767790  0.50000000  0.50000000  1
  C  C11  1  0.99755488  0.00000000  0.50000000  1
  C  C12  1  0.50359091  0.00000000  0.50000000  1
  C  C13  1  0.99755488  0.50000000  -0.00000000  1
  C  C14  1  0.50359091  0.50000000  -0.00000000  1
