# generated using pymatgen
data_Cu3NiC30
_symmetry_space_group_name_H-M   'P 1'
_cell_length_a   8.75140877
_cell_length_b   8.75140877
_cell_length_c   12.09601200
_cell_angle_alpha   90.00000000
_cell_angle_beta   90.00000000
_cell_angle_gamma   90.04821237
_symmetry_Int_Tables_number   1
_chemical_formula_structural   Cu3NiC30
_chemical_formula_sum   'Cu6 Ni2 C60'
_cell_volume   926.39882448
_cell_formula_units_Z   2
loop_
 _symmetry_equiv_pos_site_id
 _symmetry_equiv_pos_as_xyz
  1  'x, y, z'
loop_
 _atom_site_type_symbol
 _atom_site_label
 _atom_site_symmetry_multiplicity
 _atom_site_fract_x
 _atom_site_fract_y
 _atom_site_fract_z
 _atom_site_occupancy
  Ni  Ni0  1  0.23173700  0.76826300  0.50000000  1
  Ni  Ni1  1  0.76826300  0.23173700  0.50000000  1
  Cu  Cu2  1  0.26808300  0.26808300  0.00000000  1
  Cu  Cu3  1  0.73191700  0.73191700  0.00000000  1
  Cu  Cu4  1  0.64191100  0.64191100  0.50000000  1
  Cu  Cu5  1  0.35808900  0.35808900  0.50000000  1
  Cu  Cu6  1  0.85850100  0.14149900  0.00000000  1
  Cu  Cu7  1  0.14149900  0.85850100  0.00000000  1
  C  C8  1  0.18264400  0.81735600  0.25448100  1
  C  C9  1  0.81735600  0.18264400  0.25448100  1
  C  C10  1  0.31722200  0.31722200  0.75406700  1
  C  C11  1  0.68277800  0.68277800  0.75406700  1
  C  C12  1  0.81735600  0.18264400  0.74551900  1
  C  C13  1  0.18264400  0.81735600  0.74551900  1
  C  C14  1  0.68277800  0.68277800  0.24593300  1
  C  C15  1  0.31722200  0.31722200  0.24593300  1
  C  C16  1  0.40186800  0.59813200  0.29531400  1
  C  C17  1  0.59813200  0.40186800  0.29531400  1
  C  C18  1  0.09787700  0.09787700  0.79484000  1
  C  C19  1  0.90212300  0.90212300  0.79484000  1
  C  C20  1  0.59813200  0.40186800  0.70468600  1
  C  C21  1  0.40186800  0.59813200  0.70468600  1
  C  C22  1  0.90212300  0.90212300  0.20516000  1
  C  C23  1  0.09787700  0.09787700  0.20516000  1
  C  C24  1  0.14002900  0.53758600  0.32393200  1
  C  C25  1  0.85997100  0.46241400  0.32393200  1
  C  C26  1  0.36035100  0.03695400  0.82370300  1
  C  C27  1  0.63964900  0.96304600  0.82370300  1
  C  C28  1  0.85997100  0.46241400  0.67606800  1
  C  C29  1  0.14002900  0.53758600  0.67606800  1
  C  C30  1  0.63964900  0.96304600  0.17629700  1
  C  C31  1  0.36035100  0.03695400  0.17629700  1
  C  C32  1  0.53758600  0.14002900  0.32393200  1
  C  C33  1  0.46241400  0.85997100  0.32393200  1
  C  C34  1  0.03695400  0.36035100  0.82370300  1
  C  C35  1  0.96304600  0.63964900  0.82370300  1
  C  C36  1  0.46241400  0.85997100  0.67606800  1
  C  C37  1  0.53758600  0.14002900  0.67606800  1
  C  C38  1  0.96304600  0.63964900  0.17629700  1
  C  C39  1  0.03695400  0.36035100  0.17629700  1
  C  C40  1  0.50000000  0.50000000  0.11399100  1
  C  C41  1  0.00000000  0.00000000  0.61367700  1
  C  C42  1  0.50000000  0.50000000  0.88600900  1
  C  C43  1  0.00000000  0.00000000  0.38632300  1
  C  C44  1  0.93273500  0.72442000  0.37284100  1
  C  C45  1  0.06726500  0.27558000  0.37284100  1
  C  C46  1  0.56753000  0.22430600  0.87261300  1
  C  C47  1  0.43247000  0.77569400  0.87261300  1
  C  C48  1  0.06726500  0.27558000  0.62715900  1
  C  C49  1  0.93273500  0.72442000  0.62715900  1
  C  C50  1  0.43247000  0.77569400  0.12738700  1
  C  C51  1  0.56753000  0.22430600  0.12738700  1
  C  C52  1  0.72442000  0.93273500  0.37284100  1
  C  C53  1  0.27558000  0.06726500  0.37284100  1
  C  C54  1  0.22430600  0.56753000  0.87261300  1
  C  C55  1  0.77569400  0.43247000  0.87261300  1
  C  C56  1  0.27558000  0.06726500  0.62715900  1
  C  C57  1  0.72442000  0.93273500  0.62715900  1
  C  C58  1  0.77569400  0.43247000  0.12738700  1
  C  C59  1  0.22430600  0.56753000  0.12738700  1
  C  C60  1  0.00000000  0.50000000  0.50000000  1
  C  C61  1  0.50000000  0.00000000  0.00000000  1
  C  C62  1  0.50000000  0.00000000  0.50000000  1
  C  C63  1  0.00000000  0.50000000  0.00000000  1
  C  C64  1  0.87399400  0.87399400  0.50000000  1
  C  C65  1  0.12600600  0.12600600  0.50000000  1
  C  C66  1  0.62599100  0.37400900  0.00000000  1
  C  C67  1  0.37400900  0.62599100  0.00000000  1
