# generated using pymatgen
data_Cu(NiC5)2
_symmetry_space_group_name_H-M   'P 1'
_cell_length_a   5.48951076
_cell_length_b   10.15898626
_cell_length_c   12.84338358
_cell_angle_alpha   108.40128802
_cell_angle_beta   89.99492983
_cell_angle_gamma   91.71041622
_symmetry_Int_Tables_number   1
_chemical_formula_structural   Cu(NiC5)2
_chemical_formula_sum   'Cu4 Ni8 C40'
_cell_volume   679.28983045
_cell_formula_units_Z   4
loop_
 _symmetry_equiv_pos_site_id
 _symmetry_equiv_pos_as_xyz
  1  'x, y, z'
loop_
 _atom_site_type_symbol
 _atom_site_label
 _atom_site_symmetry_multiplicity
 _atom_site_fract_x
 _atom_site_fract_y
 _atom_site_fract_z
 _atom_site_occupancy
  C  C0  1  0.75508500  0.57998400  0.55986200  1
  C  C1  1  0.75516700  0.58006800  0.05988900  1
  C  C2  1  0.74379900  0.42009000  0.26972500  1
  C  C3  1  0.74374500  0.41996100  0.76965100  1
  C  C4  1  0.24374500  0.42065700  0.44105900  1
  C  C5  1  0.24378000  0.42071800  0.94102300  1
  C  C6  1  0.25502100  0.58048300  0.73112800  1
  C  C7  1  0.25508000  0.58055600  0.23118300  1
  Ni  Ni8  1  0.75048700  0.22817100  0.48411500  1
  Ni  Ni9  1  0.75046800  0.22811700  0.98406400  1
  Ni  Ni10  1  0.74842600  0.77233600  0.87032300  1
  Ni  Ni11  1  0.74845400  0.77239200  0.37027300  1
  Ni  Ni12  1  0.24836400  0.77249400  0.51670200  1
  Ni  Ni13  1  0.24841400  0.77260300  0.01678800  1
  Ni  Ni14  1  0.25047000  0.22841100  0.13052400  1
  Ni  Ni15  1  0.25034900  0.22827000  0.63052400  1
  Cu  Cu16  1  0.74967900  0.00046000  0.17907700  1
  Cu  Cu17  1  0.24946700  0.00049900  0.82147700  1
  Cu  Cu18  1  0.74919200  0.99958300  0.67913000  1
  Cu  Cu19  1  0.25004000  0.00015900  0.32110200  1
  C  C20  1  0.08134600  0.14469600  0.47619500  1
  C  C21  1  0.08124300  0.14469600  0.97627300  1
  C  C22  1  0.41752900  0.85587500  0.90406300  1
  C  C23  1  0.41756500  0.85583500  0.40398500  1
  C  C24  1  0.91747600  0.85597300  0.52461400  1
  C  C25  1  0.91758700  0.85606600  0.02465000  1
  C  C26  1  0.58143600  0.14493300  0.09690600  1
  C  C27  1  0.58128800  0.14482300  0.59680100  1
  C  C28  1  0.59070700  0.11771400  0.35569400  1
  C  C29  1  0.59043600  0.11772900  0.85586500  1
  C  C30  1  0.90827300  0.88275700  0.79713200  1
  C  C31  1  0.90855300  0.88276000  0.29711800  1
  C  C32  1  0.40807600  0.88295400  0.64509700  1
  C  C33  1  0.40836700  0.88307300  0.14512100  1
  C  C34  1  0.09057400  0.11789200  0.20370700  1
  C  C35  1  0.09018200  0.11784400  0.70363200  1
  C  C36  1  0.49032300  0.36512400  0.55868200  1
  C  C37  1  0.49022400  0.36512500  0.05870100  1
  C  C38  1  0.00863200  0.63551800  0.37660700  1
  C  C39  1  0.00866300  0.63553700  0.87663300  1
  C  C40  1  0.99030800  0.36523600  0.62426400  1
  C  C41  1  0.99035600  0.36527500  0.12431600  1
  C  C42  1  0.50857900  0.63559600  0.44220400  1
  C  C43  1  0.50864400  0.63565100  0.94223500  1
  C  C44  1  0.34284700  0.37232300  0.26507900  1
  C  C45  1  0.34275300  0.37225800  0.76503500  1
  C  C46  1  0.15580400  0.62861800  0.57930000  1
  C  C47  1  0.15589000  0.62864700  0.07933900  1
  C  C48  1  0.65602000  0.62836300  0.73586000  1
  C  C49  1  0.65604900  0.62835300  0.23583100  1
  C  C50  1  0.84303400  0.37214100  0.42159200  1
  C  C51  1  0.84303800  0.37217200  0.92161100  1
