# generated using pymatgen
data_CuNi2C15
_symmetry_space_group_name_H-M   'P 1'
_cell_length_a   7.93996200
_cell_length_b   20.39070800
_cell_length_c   7.94482476
_cell_angle_alpha   90.00000000
_cell_angle_beta   93.56392380
_cell_angle_gamma   90.00000000
_symmetry_Int_Tables_number   1
_chemical_formula_structural   CuNi2C15
_chemical_formula_sum   'Cu4 Ni8 C60'
_cell_volume   1283.79104534
_cell_formula_units_Z   4
loop_
 _symmetry_equiv_pos_site_id
 _symmetry_equiv_pos_as_xyz
  1  'x, y, z'
loop_
 _atom_site_type_symbol
 _atom_site_label
 _atom_site_symmetry_multiplicity
 _atom_site_fract_x
 _atom_site_fract_y
 _atom_site_fract_z
 _atom_site_occupancy
  C  C0  1  0.34158500  0.32335300  0.61543600  1
  C  C1  1  0.65841500  0.82335300  0.38456400  1
  C  C2  1  0.28249400  0.48493100  0.40023400  1
  C  C3  1  0.71750600  0.98493100  0.59976600  1
  C  C4  1  0.96748400  0.39286600  0.72885500  1
  C  C5  1  0.03251600  0.89286600  0.27114500  1
  C  C6  1  0.06767200  0.32308900  0.35213500  1
  C  C7  1  0.93232800  0.82308900  0.64786500  1
  C  C8  1  0.28111500  0.16055800  0.40106300  1
  C  C9  1  0.71888500  0.66055800  0.59893700  1
  C  C10  1  0.96648200  0.25619100  0.73290500  1
  C  C11  1  0.03351800  0.75619100  0.26709500  1
  Ni  Ni12  1  0.33928300  0.46102700  0.80211100  1
  Ni  Ni13  1  0.66071700  0.96102700  0.19788900  1
  Ni  Ni14  1  0.88006400  0.46032200  0.35862000  1
  Ni  Ni15  1  0.11993600  0.96032200  0.64138000  1
  Ni  Ni16  1  0.33608100  0.18522400  0.80322100  1
  Ni  Ni17  1  0.66391900  0.68522400  0.19677900  1
  Ni  Ni18  1  0.87843700  0.18598400  0.36568600  1
  Ni  Ni19  1  0.12156300  0.68598400  0.63431400  1
  Cu  Cu20  1  0.58230300  0.32083000  0.10567300  1
  Cu  Cu21  1  0.41769700  0.82083000  0.89432700  1
  Cu  Cu22  1  0.94245800  0.56605800  0.99327200  1
  Cu  Cu23  1  0.05754200  0.06605800  0.00672800  1
  C  C24  1  0.50199400  0.32454400  0.50288100  1
  C  C25  1  0.49800600  0.82454400  0.49711900  1
  C  C26  1  0.41124500  0.44711500  0.27168200  1
  C  C27  1  0.58875500  0.94711500  0.72831800  1
  C  C28  1  0.34170300  0.55920700  0.33255500  1
  C  C29  1  0.65829700  0.05920700  0.66744500  1
  C  C30  1  0.83366900  0.40675200  0.86798100  1
  C  C31  1  0.16633100  0.90675200  0.13201900  1
  C  C32  1  0.17290400  0.32302400  0.18661200  1
  C  C33  1  0.82709600  0.82302400  0.81338800  1
  C  C34  1  0.40839100  0.20288900  0.27774200  1
  C  C35  1  0.59160900  0.70288900  0.72225800  1
  C  C36  1  0.34744100  0.08939500  0.32316000  1
  C  C37  1  0.65255900  0.58939500  0.67684000  1
  C  C38  1  0.83310800  0.24395200  0.87336600  1
  C  C39  1  0.16689200  0.74395200  0.12663400  1
  C  C40  1  0.40526200  0.39060500  0.78146800  1
  C  C41  1  0.59473800  0.89060500  0.21853200  1
  C  C42  1  0.36841700  0.49396700  0.62533100  1
  C  C43  1  0.63158300  0.99396700  0.37466900  1
  C  C44  1  0.14711500  0.45743500  0.80690900  1
  C  C45  1  0.85288500  0.95743500  0.19309100  1
  C  C46  1  0.88418400  0.45754800  0.55160900  1
  C  C47  1  0.11581600  0.95754800  0.44839100  1
  C  C48  1  0.05450700  0.49321000  0.31967700  1
  C  C49  1  0.94549300  0.99321000  0.68032300  1
  C  C50  1  0.89776300  0.38983000  0.29356700  1
  C  C51  1  0.10223700  0.88983000  0.70643300  1
  C  C52  1  0.40778000  0.25441900  0.77576400  1
  C  C53  1  0.59222000  0.75441900  0.22423600  1
  C  C54  1  0.35758900  0.14962400  0.62782500  1
  C  C55  1  0.64241100  0.64962400  0.37217500  1
  C  C56  1  0.14514900  0.19161600  0.81269400  1
  C  C57  1  0.85485100  0.69161600  0.18730600  1
  C  C58  1  0.05131200  0.15142900  0.32835300  1
  C  C59  1  0.94868800  0.65142900  0.67164700  1
  C  C60  1  0.88291500  0.19049000  0.55825900  1
  C  C61  1  0.11708500  0.69049000  0.44174100  1
  C  C62  1  0.89910300  0.25571500  0.29604100  1
  C  C63  1  0.10089700  0.75571500  0.70395900  1
  C  C64  1  0.19115100  0.38531900  0.49627400  1
  C  C65  1  0.80884900  0.88531900  0.50372600  1
  C  C66  1  0.19134600  0.26178700  0.49693400  1
  C  C67  1  0.80865400  0.76178700  0.50306600  1
  C  C68  1  0.87856500  0.32407500  0.59650800  1
  C  C69  1  0.12143500  0.82407500  0.40349200  1
  C  C70  1  0.10571500  0.32452000  0.81270300  1
  C  C71  1  0.89428500  0.82452000  0.18729700  1
