# generated using pymatgen
data_Cu6Ni2C13
_symmetry_space_group_name_H-M   'P 1'
_cell_length_a   7.29573600
_cell_length_b   7.61763500
_cell_length_c   9.20781905
_cell_angle_alpha   114.43434740
_cell_angle_beta   113.33900684
_cell_angle_gamma   90.00000000
_symmetry_Int_Tables_number   1
_chemical_formula_structural   Cu6Ni2C13
_chemical_formula_sum   'Cu12 Ni4 C26'
_cell_volume   419.48072785
_cell_formula_units_Z   2
loop_
 _symmetry_equiv_pos_site_id
 _symmetry_equiv_pos_as_xyz
  1  'x, y, z'
loop_
 _atom_site_type_symbol
 _atom_site_label
 _atom_site_symmetry_multiplicity
 _atom_site_fract_x
 _atom_site_fract_y
 _atom_site_fract_z
 _atom_site_occupancy
  C  C0  1  0.00000000  0.50000000  0.00000000  1
  C  C1  1  0.70939400  0.36416500  0.17897200  1
  C  C2  1  0.46957800  0.81480800  0.17897200  1
  C  C3  1  0.53042200  0.63583500  0.82102800  1
  C  C4  1  0.29060600  0.18519200  0.82102800  1
  C  C5  1  0.66495800  0.29796600  0.31393000  1
  C  C6  1  0.64897200  0.01596400  0.31393000  1
  C  C7  1  0.35102800  0.70203400  0.68607000  1
  C  C8  1  0.33504200  0.98403600  0.68607000  1
  C  C9  1  0.48506100  0.36906100  0.18302100  1
  C  C10  1  0.69796000  0.81396000  0.18302100  1
  C  C11  1  0.30204000  0.63093900  0.81697900  1
  C  C12  1  0.51493900  0.18604000  0.81697900  1
  C  C13  1  0.94493400  0.09006100  0.89220500  1
  C  C14  1  0.94727100  0.80214400  0.89220500  1
  C  C15  1  0.05272900  0.90993900  0.10779500  1
  C  C16  1  0.05506600  0.19785600  0.10779500  1
  C  C17  1  0.70265800  0.81155000  0.62217000  1
  C  C18  1  0.91951200  0.81062000  0.62217000  1
  C  C19  1  0.08048800  0.18845000  0.37783000  1
  C  C20  1  0.29734300  0.18938000  0.37783000  1
  C  C21  1  0.50000000  0.00000000  0.00000000  1
  C  C22  1  0.71013600  0.31708800  0.63614000  1
  C  C23  1  0.92600400  0.31905200  0.63614000  1
  C  C24  1  0.07399600  0.68291200  0.36386000  1
  C  C25  1  0.28986400  0.68094800  0.36386000  1
  Ni  Ni26  1  0.60039900  0.29109800  0.18953400  1
  Ni  Ni27  1  0.58913600  0.89843600  0.18953400  1
  Ni  Ni28  1  0.41086400  0.70890200  0.81046600  1
  Ni  Ni29  1  0.39960100  0.10156400  0.81046600  1
  Cu  Cu30  1  0.70642100  0.39120500  0.78763400  1
  Cu  Cu31  1  0.08121300  0.39642900  0.78763400  1
  Cu  Cu32  1  0.91878700  0.60879500  0.21236600  1
  Cu  Cu33  1  0.29357900  0.60357100  0.21236600  1
  Cu  Cu34  1  0.55896300  0.24328600  0.48778300  1
  Cu  Cu35  1  0.92882000  0.24449700  0.48778300  1
  Cu  Cu36  1  0.07118000  0.75671400  0.51221700  1
  Cu  Cu37  1  0.44103700  0.75550300  0.51221700  1
  Cu  Cu38  1  0.00000000  0.21838300  0.00000000  1
  Cu  Cu39  1  0.00000000  0.78161700  0.00000000  1
  Cu  Cu40  1  0.85117600  0.85117600  0.70235200  1
  Cu  Cu41  1  0.14882400  0.14882400  0.29764800  1
