# generated using pymatgen
data_Cu3Ni3C
_symmetry_space_group_name_H-M   'P 1'
_cell_length_a   4.30113000
_cell_length_b   8.59443900
_cell_length_c   19.05907200
_cell_angle_alpha   90.00000000
_cell_angle_beta   90.00000000
_cell_angle_gamma   90.00000000
_symmetry_Int_Tables_number   1
_chemical_formula_structural   Cu3Ni3C
_chemical_formula_sum   'Cu12 Ni12 C4'
_cell_volume   704.53383261
_cell_formula_units_Z   4
loop_
 _symmetry_equiv_pos_site_id
 _symmetry_equiv_pos_as_xyz
  1  'x, y, z'
loop_
 _atom_site_type_symbol
 _atom_site_label
 _atom_site_symmetry_multiplicity
 _atom_site_fract_x
 _atom_site_fract_y
 _atom_site_fract_z
 _atom_site_occupancy
  C  C0  1  0.63578600  0.75000000  0.01701700  1
  C  C1  1  0.36421400  0.25000000  0.98298300  1
  C  C2  1  0.13578600  0.25000000  0.48298300  1
  C  C3  1  0.86421400  0.75000000  0.51701700  1
  Ni  Ni4  1  0.81517100  0.05190500  0.57762400  1
  Ni  Ni5  1  0.18482900  0.94809500  0.42237600  1
  Ni  Ni6  1  0.31517100  0.94809500  0.92237600  1
  Ni  Ni7  1  0.18482900  0.55190500  0.42237600  1
  Ni  Ni8  1  0.68482900  0.05190500  0.07762400  1
  Ni  Ni9  1  0.81517100  0.44809500  0.57762400  1
  Ni  Ni10  1  0.68482900  0.44809500  0.07762400  1
  Ni  Ni11  1  0.31517100  0.55190500  0.92237600  1
  Ni  Ni12  1  0.30931400  0.75000000  0.65729700  1
  Ni  Ni13  1  0.69068600  0.25000000  0.34270300  1
  Ni  Ni14  1  0.80931400  0.25000000  0.84270300  1
  Ni  Ni15  1  0.19068600  0.75000000  0.15729700  1
  Cu  Cu16  1  0.80674900  0.67807400  0.80043700  1
  Cu  Cu17  1  0.19325100  0.32192600  0.19956300  1
  Cu  Cu18  1  0.30674900  0.32192600  0.69956300  1
  Cu  Cu19  1  0.19325100  0.17807400  0.19956300  1
  Cu  Cu20  1  0.69325100  0.67807400  0.30043700  1
  Cu  Cu21  1  0.80674900  0.82192600  0.80043700  1
  Cu  Cu22  1  0.69325100  0.82192600  0.30043700  1
  Cu  Cu23  1  0.30674900  0.17807400  0.69956300  1
  Cu  Cu24  1  0.35573800  0.75000000  0.56932400  1
  Cu  Cu25  1  0.64426200  0.25000000  0.43067600  1
  Cu  Cu26  1  0.85573800  0.25000000  0.93067600  1
  Cu  Cu27  1  0.14426200  0.75000000  0.06932400  1
