# generated using pymatgen
data_Cu2NiC6
_symmetry_space_group_name_H-M   'P 1'
_cell_length_a   3.57877300
_cell_length_b   3.57877300
_cell_length_c   9.51232770
_cell_angle_alpha   79.15735840
_cell_angle_beta   79.15735840
_cell_angle_gamma   90.00000000
_symmetry_Int_Tables_number   1
_chemical_formula_structural   Cu2NiC6
_chemical_formula_sum   'Cu2 Ni1 C6'
_cell_volume   117.44002576
_cell_formula_units_Z   1
loop_
 _symmetry_equiv_pos_site_id
 _symmetry_equiv_pos_as_xyz
  1  'x, y, z'
loop_
 _atom_site_type_symbol
 _atom_site_label
 _atom_site_symmetry_multiplicity
 _atom_site_fract_x
 _atom_site_fract_y
 _atom_site_fract_z
 _atom_site_occupancy
  Ni  Ni0  1  0.00006900  0.00006900  0.99986200  1
  C  C1  1  0.49891100  0.49891100  0.00217800  1
  C  C2  1  0.90625100  0.40625100  0.18749800  1
  C  C3  1  0.40625100  0.90625100  0.18749800  1
  C  C4  1  0.09096500  0.59096500  0.81807100  1
  C  C5  1  0.59096500  0.09096500  0.81807100  1
  C  C6  1  0.19881100  0.19881100  0.60237700  1
  Cu  Cu7  1  0.32446300  0.32446300  0.35107400  1
  Cu  Cu8  1  0.68171400  0.68171400  0.63657100  1
