# generated using pymatgen
data_Cu2NiC6
_symmetry_space_group_name_H-M   'P 1'
_cell_length_a   6.70176014
_cell_length_b   6.70176014
_cell_length_c   4.31396517
_cell_angle_alpha   79.26058200
_cell_angle_beta   79.26058200
_cell_angle_gamma   104.97523589
_symmetry_Int_Tables_number   1
_chemical_formula_structural   Cu2NiC6
_chemical_formula_sum   'Cu4 Ni2 C12'
_cell_volume   178.19583614
_cell_formula_units_Z   2
loop_
 _symmetry_equiv_pos_site_id
 _symmetry_equiv_pos_as_xyz
  1  'x, y, z'
loop_
 _atom_site_type_symbol
 _atom_site_label
 _atom_site_symmetry_multiplicity
 _atom_site_fract_x
 _atom_site_fract_y
 _atom_site_fract_z
 _atom_site_occupancy
  C  C0  1  0.86546800  0.32253800  0.34545800  1
  C  C1  1  0.32253800  0.86546800  0.34545800  1
  C  C2  1  0.13453200  0.67746200  0.65454200  1
  C  C3  1  0.67746200  0.13453200  0.65454200  1
  C  C4  1  0.72045800  0.40128800  0.63311600  1
  C  C5  1  0.40128800  0.72045800  0.63311600  1
  C  C6  1  0.27954200  0.59871200  0.36688400  1
  C  C7  1  0.59871200  0.27954200  0.36688400  1
  C  C8  1  0.78098800  0.78098800  0.85330900  1
  C  C9  1  0.21901200  0.21901200  0.14669100  1
  C  C10  1  0.93493900  0.93493900  0.95916100  1
  C  C11  1  0.06506100  0.06506100  0.04083900  1
  Ni  Ni12  1  0.71479300  0.28520700  0.50000000  1
  Ni  Ni13  1  0.28520700  0.71479300  0.50000000  1
  Cu  Cu14  1  0.61510700  0.82973600  0.81172500  1
  Cu  Cu15  1  0.82973600  0.61510700  0.81172500  1
  Cu  Cu16  1  0.38489300  0.17026400  0.18827500  1
  Cu  Cu17  1  0.17026400  0.38489300  0.18827500  1
