# generated using pymatgen
data_CuNiC4
_symmetry_space_group_name_H-M   'P 1'
_cell_length_a   13.50206100
_cell_length_b   10.21281500
_cell_length_c   11.02791120
_cell_angle_alpha   75.78403452
_cell_angle_beta   90.00000000
_cell_angle_gamma   90.00000000
_symmetry_Int_Tables_number   1
_chemical_formula_structural   CuNiC4
_chemical_formula_sum   'Cu8 Ni8 C32'
_cell_volume   1474.11539888
_cell_formula_units_Z   8
loop_
 _symmetry_equiv_pos_site_id
 _symmetry_equiv_pos_as_xyz
  1  'x, y, z'
loop_
 _atom_site_type_symbol
 _atom_site_label
 _atom_site_symmetry_multiplicity
 _atom_site_fract_x
 _atom_site_fract_y
 _atom_site_fract_z
 _atom_site_occupancy
  C  C0  1  0.32021800  0.38859600  0.11672600  1
  C  C1  1  0.82021800  0.61140400  0.38327400  1
  C  C2  1  0.67978200  0.61140400  0.88327400  1
  C  C3  1  0.17978200  0.38859600  0.61672600  1
  C  C4  1  0.15344100  0.86739800  0.16025000  1
  C  C5  1  0.65344100  0.13260200  0.33975000  1
  C  C6  1  0.84655900  0.13260200  0.83975000  1
  C  C7  1  0.34655900  0.86739800  0.66025000  1
  Ni  Ni8  1  0.45314100  0.45438000  0.40436300  1
  Ni  Ni9  1  0.95314100  0.54562000  0.09563700  1
  Ni  Ni10  1  0.54685900  0.54562000  0.59563700  1
  Ni  Ni11  1  0.04685900  0.45438000  0.90436300  1
  Ni  Ni12  1  0.40275600  0.98004400  0.03922400  1
  Ni  Ni13  1  0.90275600  0.01995600  0.46077600  1
  Ni  Ni14  1  0.59724400  0.01995600  0.96077600  1
  Ni  Ni15  1  0.09724400  0.98004400  0.53922400  1
  Cu  Cu16  1  0.04031300  0.78266900  0.83212100  1
  Cu  Cu17  1  0.54031300  0.21733100  0.66787900  1
  Cu  Cu18  1  0.95968700  0.21733100  0.16787900  1
  Cu  Cu19  1  0.45968700  0.78266900  0.33212100  1
  Cu  Cu20  1  0.46293400  0.28021200  0.83186900  1
  Cu  Cu21  1  0.96293400  0.71978800  0.66813100  1
  Cu  Cu22  1  0.53706600  0.71978800  0.16813100  1
  Cu  Cu23  1  0.03706600  0.28021200  0.33186900  1
  C  C24  1  0.16264300  0.63507600  0.88704700  1
  C  C25  1  0.66264300  0.36492400  0.61295300  1
  C  C26  1  0.83735700  0.36492400  0.11295300  1
  C  C27  1  0.33735700  0.63507600  0.38704700  1
  C  C28  1  0.17229700  0.15437400  0.37993800  1
  C  C29  1  0.67229700  0.84562600  0.12006200  1
  C  C30  1  0.82770300  0.84562600  0.62006200  1
  C  C31  1  0.32770300  0.15437400  0.87993800  1
  C  C32  1  0.40867400  0.99289900  0.25310300  1
  C  C33  1  0.90867400  0.00710100  0.24689700  1
  C  C34  1  0.59132600  0.00710100  0.74689700  1
  C  C35  1  0.09132600  0.99289900  0.75310300  1
  C  C36  1  0.07211500  0.22620400  0.01972300  1
  C  C37  1  0.57211500  0.77379600  0.48027700  1
  C  C38  1  0.92788500  0.77379600  0.98027700  1
  C  C39  1  0.42788500  0.22620400  0.51972300  1
  C  C40  1  0.57388400  0.24487900  0.98379400  1
  C  C41  1  0.07388400  0.75512100  0.51620600  1
  C  C42  1  0.42611600  0.75512100  0.01620600  1
  C  C43  1  0.92611600  0.24487900  0.48379400  1
  C  C44  1  0.57767600  0.50503000  0.24511500  1
  C  C45  1  0.07767600  0.49497000  0.25488500  1
  C  C46  1  0.42232400  0.49497000  0.75488500  1
  C  C47  1  0.92232400  0.50503000  0.74511500  1
