# generated using pymatgen
data_CuNi2C7
_symmetry_space_group_name_H-M   'P 1'
_cell_length_a   6.27169496
_cell_length_b   6.27169496
_cell_length_c   6.32250360
_cell_angle_alpha   60.20132591
_cell_angle_beta   60.20132591
_cell_angle_gamma   60.18673003
_symmetry_Int_Tables_number   1
_chemical_formula_structural   CuNi2C7
_chemical_formula_sum   'Cu1 Ni2 C7'
_cell_volume   176.63293498
_cell_formula_units_Z   1
loop_
 _symmetry_equiv_pos_site_id
 _symmetry_equiv_pos_as_xyz
  1  'x, y, z'
loop_
 _atom_site_type_symbol
 _atom_site_label
 _atom_site_symmetry_multiplicity
 _atom_site_fract_x
 _atom_site_fract_y
 _atom_site_fract_z
 _atom_site_occupancy
  Ni  Ni0  1  0.75136900  0.75136900  0.24096700  1
  Ni  Ni1  1  0.24863100  0.24863100  0.75903300  1
  Cu  Cu2  1  0.00000000  0.00000000  0.50000000  1
  C  C3  1  0.50000000  0.50000000  0.00000000  1
  C  C4  1  0.69915000  0.22116500  0.80300200  1
  C  C5  1  0.77883500  0.30085000  0.19699800  1
  C  C6  1  0.30085000  0.77883500  0.19699800  1
  C  C7  1  0.22116500  0.69915000  0.80300200  1
  C  C8  1  0.26336700  0.26336700  0.30834800  1
  C  C9  1  0.73663300  0.73663300  0.69165200  1
