# generated using pymatgen
data_Cu(Ni6C5)2
_symmetry_space_group_name_H-M   'P 1'
_cell_length_a   8.25573780
_cell_length_b   5.80535110
_cell_length_c   10.13562736
_cell_angle_alpha   86.30279969
_cell_angle_beta   114.41504624
_cell_angle_gamma   84.43546770
_symmetry_Int_Tables_number   1
_chemical_formula_structural   Cu(Ni6C5)2
_chemical_formula_sum   'Cu1 Ni12 C10'
_cell_volume   437.30996750
_cell_formula_units_Z   1
loop_
 _symmetry_equiv_pos_site_id
 _symmetry_equiv_pos_as_xyz
  1  'x, y, z'
loop_
 _atom_site_type_symbol
 _atom_site_label
 _atom_site_symmetry_multiplicity
 _atom_site_fract_x
 _atom_site_fract_y
 _atom_site_fract_z
 _atom_site_occupancy
  C  C0  1  0.84939400  0.99454900  0.89916400  1
  Ni  Ni1  1  0.57993800  0.55999000  0.52400500  1
  Ni  Ni2  1  0.65159900  0.43033200  0.03798400  1
  Ni  Ni3  1  0.09220600  0.56079700  0.53610900  1
  Ni  Ni4  1  0.31754900  0.08316600  0.44289000  1
  Ni  Ni5  1  0.78637300  0.23954500  0.43438200  1
  Ni  Ni6  1  0.79261800  0.21553800  0.10791700  1
  Ni  Ni7  1  0.35402300  0.66136400  0.85285900  1
  Ni  Ni8  1  0.70091200  0.20885200  0.37709400  1
  Ni  Ni9  1  0.42676100  0.83084800  0.77173200  1
  Ni  Ni10  1  0.00077600  0.68007400  0.76476200  1
  Ni  Ni11  1  0.64164000  0.01707500  0.62224000  1
  Ni  Ni12  1  0.15744300  0.62614800  0.59141700  1
  Cu  Cu13  1  0.96999300  0.47010600  0.93879900  1
  C  C14  1  0.83005300  0.67692800  0.92258600  1
  C  C15  1  0.05762100  0.35168200  0.30987400  1
  C  C16  1  0.86238700  0.30086700  0.83873100  1
  C  C17  1  0.53838700  0.92909900  0.59066300  1
  C  C18  1  0.66373600  0.26450200  0.06793300  1
  C  C19  1  0.06444200  0.55372200  0.26745100  1
  C  C20  1  0.08118400  0.57451500  0.85331800  1
  C  C21  1  0.43441600  0.04391100  0.44070000  1
  C  C22  1  0.33454800  0.82039100  0.80738800  1
