# generated using pymatgen
data_Cu(NiC5)2
_symmetry_space_group_name_H-M   'P 1'
_cell_length_a   7.91910723
_cell_length_b   8.02029716
_cell_length_c   8.01125718
_cell_angle_alpha   105.03712544
_cell_angle_beta   104.32667250
_cell_angle_gamma   105.64039604
_symmetry_Int_Tables_number   1
_chemical_formula_structural   Cu(NiC5)2
_chemical_formula_sum   'Cu2 Ni4 C20'
_cell_volume   444.79372347
_cell_formula_units_Z   2
loop_
 _symmetry_equiv_pos_site_id
 _symmetry_equiv_pos_as_xyz
  1  'x, y, z'
loop_
 _atom_site_type_symbol
 _atom_site_label
 _atom_site_symmetry_multiplicity
 _atom_site_fract_x
 _atom_site_fract_y
 _atom_site_fract_z
 _atom_site_occupancy
  C  C0  1  0.83047100  0.84269100  0.55328100  1
  C  C1  1  0.16952900  0.15730900  0.44671900  1
  Ni  Ni2  1  0.78191100  0.82714000  0.12618200  1
  Ni  Ni3  1  0.21808900  0.17286000  0.87381800  1
  Ni  Ni4  1  0.80960700  0.24868600  0.54008000  1
  Ni  Ni5  1  0.19039300  0.75131400  0.45992000  1
  Cu  Cu6  1  0.78031100  0.28059500  0.03064100  1
  Cu  Cu7  1  0.21968900  0.71940500  0.96935900  1
  C  C8  1  0.97997100  0.70977000  0.46093100  1
  C  C9  1  0.02002900  0.29023000  0.53906900  1
  C  C10  1  0.94788400  0.02713000  0.22880100  1
  C  C11  1  0.05211600  0.97287000  0.77119900  1
  C  C12  1  0.71393400  0.81145700  0.29719100  1
  C  C13  1  0.28606600  0.18854300  0.70280900  1
  C  C14  1  0.78550400  0.07484400  0.60842500  1
  C  C15  1  0.21449600  0.92515600  0.39157500  1
  C  C16  1  0.85471900  0.68645500  0.06734400  1
  C  C17  1  0.14528100  0.31354500  0.93265600  1
  C  C18  1  0.63823200  0.85458100  0.00201200  1
  C  C19  1  0.36176800  0.14541900  0.99798800  1
  C  C20  1  0.81823400  0.39810500  0.68829300  1
  C  C21  1  0.18176600  0.60189500  0.31170700  1
  C  C22  1  0.68068400  0.19643400  0.35908400  1
  C  C23  1  0.31931600  0.80356600  0.64091600  1
  C  C24  1  0.67487200  0.69616100  0.60733200  1
  C  C25  1  0.32512800  0.30383900  0.39266800  1
