# generated using pymatgen
data_CuNiC6
_symmetry_space_group_name_H-M   'P 1'
_cell_length_a   5.98139627
_cell_length_b   6.03568018
_cell_length_c   10.46779528
_cell_angle_alpha   106.86973111
_cell_angle_beta   90.01318685
_cell_angle_gamma   119.74778951
_symmetry_Int_Tables_number   1
_chemical_formula_structural   CuNiC6
_chemical_formula_sum   'Cu4 Ni4 C24'
_cell_volume   309.21918720
_cell_formula_units_Z   4
loop_
 _symmetry_equiv_pos_site_id
 _symmetry_equiv_pos_as_xyz
  1  'x, y, z'
loop_
 _atom_site_type_symbol
 _atom_site_label
 _atom_site_symmetry_multiplicity
 _atom_site_fract_x
 _atom_site_fract_y
 _atom_site_fract_z
 _atom_site_occupancy
  C  C0  1  0.74667800  0.99317100  0.24862700  1
  C  C1  1  0.24605600  0.99282300  0.74848800  1
  C  C2  1  0.99620500  0.49444300  0.50003400  1
  C  C3  1  0.50019700  0.49840300  0.00096000  1
  C  C4  1  0.24436300  0.49015300  0.25138300  1
  C  C5  1  0.74474300  0.49146400  0.75061100  1
  C  C6  1  0.74663300  0.49131300  0.25058300  1
  C  C7  1  0.24575100  0.49028000  0.75135900  1
  Ni  Ni8  1  0.47908700  0.98129600  0.48904700  1
  Ni  Ni9  1  0.01632300  0.00930200  0.00845000  1
  Ni  Ni10  1  0.99161200  0.00639100  0.50855300  1
  Ni  Ni11  1  0.50342000  0.98392100  0.98899000  1
  Cu  Cu12  1  0.74629300  0.99310000  0.74857500  1
  Cu  Cu13  1  0.99880200  0.49728400  0.99995700  1
  Cu  Cu14  1  0.24646300  0.99278300  0.24848800  1
  Cu  Cu15  1  0.49699200  0.49404000  0.49972400  1
  C  C16  1  0.12160300  0.21662700  0.38105300  1
  C  C17  1  0.61479200  0.23105100  0.88729000  1
  C  C18  1  0.61561200  0.22637800  0.38662900  1
  C  C19  1  0.09591700  0.21654400  0.88026100  1
  C  C20  1  0.87829600  0.76479500  0.11117800  1
  C  C21  1  0.39824300  0.77286900  0.61693800  1
  C  C22  1  0.37362300  0.77289100  0.11608900  1
  C  C23  1  0.88235500  0.76048200  0.61065800  1
  C  C24  1  0.63882500  0.77397700  0.38515700  1
  C  C25  1  0.13723300  0.77672700  0.88530400  1
  C  C26  1  0.35702100  0.23398000  0.11281500  1
  C  C27  1  0.87596300  0.23154600  0.61252800  1
  C  C28  1  0.13753400  0.75497400  0.38502000  1
  C  C29  1  0.61822100  0.75723400  0.88532200  1
  C  C30  1  0.85562700  0.21588900  0.11304500  1
  C  C31  1  0.35805300  0.21309800  0.61289000  1
