# generated using pymatgen
data_Cu2NiC
_symmetry_space_group_name_H-M   'P 1'
_cell_length_a   7.53720220
_cell_length_b   7.53720220
_cell_length_c   4.16713800
_cell_angle_alpha   90.00000000
_cell_angle_beta   90.00000000
_cell_angle_gamma   147.97933540
_symmetry_Int_Tables_number   1
_chemical_formula_structural   Cu2NiC
_chemical_formula_sum   'Cu2 Ni1 C1'
_cell_volume   125.52160690
_cell_formula_units_Z   1
loop_
 _symmetry_equiv_pos_site_id
 _symmetry_equiv_pos_as_xyz
  1  'x, y, z'
loop_
 _atom_site_type_symbol
 _atom_site_label
 _atom_site_symmetry_multiplicity
 _atom_site_fract_x
 _atom_site_fract_y
 _atom_site_fract_z
 _atom_site_occupancy
  C  C0  1  0.09599500  0.90400500  0.00000000  1
  Ni  Ni1  1  0.84881800  0.15118200  0.50000000  1
  Cu  Cu2  1  0.38102600  0.61897400  0.00000000  1
  Cu  Cu3  1  0.67416200  0.32583800  0.50000000  1
