# generated using pymatgen
data_Cu6NiC
_symmetry_space_group_name_H-M   'P 1'
_cell_length_a   6.09460609
_cell_length_b   9.15192795
_cell_length_c   20.01302000
_cell_angle_alpha   90.00000000
_cell_angle_beta   90.00000000
_cell_angle_gamma   94.49813697
_symmetry_Int_Tables_number   1
_chemical_formula_structural   Cu6NiC
_chemical_formula_sum   'Cu48 Ni8 C8'
_cell_volume   1112.83588410
_cell_formula_units_Z   8
loop_
 _symmetry_equiv_pos_site_id
 _symmetry_equiv_pos_as_xyz
  1  'x, y, z'
loop_
 _atom_site_type_symbol
 _atom_site_label
 _atom_site_symmetry_multiplicity
 _atom_site_fract_x
 _atom_site_fract_y
 _atom_site_fract_z
 _atom_site_occupancy
  C  C0  1  0.84314500  0.86468500  0.71072800  1
  C  C1  1  0.15685500  0.13531500  0.28927200  1
  C  C2  1  0.15685500  0.63531500  0.21072800  1
  C  C3  1  0.84314500  0.36468500  0.78927200  1
  C  C4  1  0.38134200  0.72175600  0.86046200  1
  C  C5  1  0.61865800  0.27824400  0.13953800  1
  C  C6  1  0.61865800  0.77824400  0.36046200  1
  C  C7  1  0.38134200  0.22175600  0.63953800  1
  Ni  Ni8  1  0.36777900  0.59072100  0.72153200  1
  Ni  Ni9  1  0.63222100  0.40927900  0.27846800  1
  Ni  Ni10  1  0.63222100  0.90927900  0.22153200  1
  Ni  Ni11  1  0.36777900  0.09072100  0.77846800  1
  Ni  Ni12  1  0.81280100  0.74742800  0.93005600  1
  Ni  Ni13  1  0.18719900  0.25257200  0.06994400  1
  Ni  Ni14  1  0.18719900  0.75257200  0.43005600  1
  Ni  Ni15  1  0.81280100  0.24742800  0.56994400  1
  Cu  Cu16  1  0.19054800  0.99580700  0.62590800  1
  Cu  Cu17  1  0.80945200  0.00419300  0.37409200  1
  Cu  Cu18  1  0.80945200  0.50419300  0.12590800  1
  Cu  Cu19  1  0.19054800  0.49580700  0.87409200  1
  Cu  Cu20  1  0.65383900  0.61364700  0.92220900  1
  Cu  Cu21  1  0.34616100  0.38635300  0.07779100  1
  Cu  Cu22  1  0.34616100  0.88635300  0.42220900  1
  Cu  Cu23  1  0.65383900  0.11364700  0.57779100  1
  Cu  Cu24  1  0.83107500  0.87898500  0.26437000  1
  Cu  Cu25  1  0.16892500  0.12101500  0.73563000  1
  Cu  Cu26  1  0.16892500  0.62101500  0.76437000  1
  Cu  Cu27  1  0.83107500  0.37898500  0.23563000  1
  Cu  Cu28  1  0.44248000  0.99279400  0.97485400  1
  Cu  Cu29  1  0.55752000  0.00720600  0.02514600  1
  Cu  Cu30  1  0.55752000  0.50720600  0.47485400  1
  Cu  Cu31  1  0.44248000  0.49279400  0.52514600  1
  Cu  Cu32  1  0.76266300  0.72564400  0.57077000  1
  Cu  Cu33  1  0.23733700  0.27435600  0.42923000  1
  Cu  Cu34  1  0.23733700  0.77435600  0.07077000  1
  Cu  Cu35  1  0.76266300  0.22564400  0.92923000  1
  Cu  Cu36  1  0.39033700  0.69114900  0.66564600  1
  Cu  Cu37  1  0.60966300  0.30885100  0.33435400  1
  Cu  Cu38  1  0.60966300  0.80885100  0.16564600  1
  Cu  Cu39  1  0.39033700  0.19114900  0.83435400  1
  Cu  Cu40  1  0.71485100  0.85941500  0.88545600  1
  Cu  Cu41  1  0.28514900  0.14058500  0.11454400  1
  Cu  Cu42  1  0.28514900  0.64058500  0.38545600  1
  Cu  Cu43  1  0.71485100  0.35941500  0.61454400  1
  Cu  Cu44  1  0.34776000  0.93371300  0.79874200  1
  Cu  Cu45  1  0.65224000  0.06628700  0.20125800  1
  Cu  Cu46  1  0.65224000  0.56628700  0.29874200  1
  Cu  Cu47  1  0.34776000  0.43371300  0.70125800  1
  Cu  Cu48  1  0.55829200  0.61643300  0.77073600  1
  Cu  Cu49  1  0.44170800  0.38356700  0.22926400  1
  Cu  Cu50  1  0.44170800  0.88356700  0.27073600  1
  Cu  Cu51  1  0.55829200  0.11643300  0.72926400  1
  Cu  Cu52  1  0.84520900  0.79395600  0.99833200  1
  Cu  Cu53  1  0.15479100  0.20604400  0.00166800  1
  Cu  Cu54  1  0.15479100  0.70604400  0.49833200  1
  Cu  Cu55  1  0.84520900  0.29395600  0.50166800  1
  Cu  Cu56  1  0.69101400  0.79803400  0.52515600  1
  Cu  Cu57  1  0.30898600  0.20196600  0.47484400  1
  Cu  Cu58  1  0.30898600  0.70196600  0.02515600  1
  Cu  Cu59  1  0.69101400  0.29803400  0.97484400  1
  Cu  Cu60  1  0.03276300  0.71789500  0.89844500  1
  Cu  Cu61  1  0.96723700  0.28210500  0.10155500  1
  Cu  Cu62  1  0.96723700  0.78210500  0.39844500  1
  Cu  Cu63  1  0.03276300  0.21789500  0.60155500  1
