# generated using pymatgen
data_Cu9Ni2C
_symmetry_space_group_name_H-M   'P 1'
_cell_length_a   4.86127300
_cell_length_b   8.28084000
_cell_length_c   8.28084000
_cell_angle_alpha   90.00000000
_cell_angle_beta   90.00000000
_cell_angle_gamma   90.00000000
_symmetry_Int_Tables_number   1
_chemical_formula_structural   Cu9Ni2C
_chemical_formula_sum   'Cu18 Ni4 C2'
_cell_volume   333.34872453
_cell_formula_units_Z   2
loop_
 _symmetry_equiv_pos_site_id
 _symmetry_equiv_pos_as_xyz
  1  'x, y, z'
loop_
 _atom_site_type_symbol
 _atom_site_label
 _atom_site_symmetry_multiplicity
 _atom_site_fract_x
 _atom_site_fract_y
 _atom_site_fract_z
 _atom_site_occupancy
  C  C0  1  0.00000000  0.50000000  0.50000000  1
  C  C1  1  0.00000000  0.00000000  0.00000000  1
  Ni  Ni2  1  0.00000000  0.62400400  0.12400400  1
  Ni  Ni3  1  0.00000000  0.37599600  0.87599600  1
  Ni  Ni4  1  0.00000000  0.87599600  0.62400400  1
  Ni  Ni5  1  0.00000000  0.12400400  0.37599600  1
  Cu  Cu6  1  0.75193900  0.17664500  0.67664500  1
  Cu  Cu7  1  0.75193900  0.82335500  0.32335500  1
  Cu  Cu8  1  0.75193900  0.32335500  0.17664500  1
  Cu  Cu9  1  0.75193900  0.67664500  0.82335500  1
  Cu  Cu10  1  0.24806100  0.82335500  0.32335500  1
  Cu  Cu11  1  0.24806100  0.17664500  0.67664500  1
  Cu  Cu12  1  0.24806100  0.67664500  0.82335500  1
  Cu  Cu13  1  0.24806100  0.32335500  0.17664500  1
  Cu  Cu14  1  0.50000000  0.70883100  0.56445000  1
  Cu  Cu15  1  0.50000000  0.29116900  0.43555000  1
  Cu  Cu16  1  0.50000000  0.79116900  0.06445000  1
  Cu  Cu17  1  0.50000000  0.20883100  0.93555000  1
  Cu  Cu18  1  0.50000000  0.56445000  0.29116900  1
  Cu  Cu19  1  0.50000000  0.43555000  0.70883100  1
  Cu  Cu20  1  0.50000000  0.06445000  0.20883100  1
  Cu  Cu21  1  0.50000000  0.93555000  0.79116900  1
  Cu  Cu22  1  0.50000000  0.00000000  0.50000000  1
  Cu  Cu23  1  0.50000000  0.50000000  0.00000000  1
