# generated using pymatgen
data_CuNiC6
_symmetry_space_group_name_H-M   'P 1'
_cell_length_a   6.33929844
_cell_length_b   8.25928403
_cell_length_c   5.78044613
_cell_angle_alpha   90.00000000
_cell_angle_beta   116.86989002
_cell_angle_gamma   90.00000000
_symmetry_Int_Tables_number   1
_chemical_formula_structural   CuNiC6
_chemical_formula_sum   'Cu2 Ni2 C12'
_cell_volume   269.97710394
_cell_formula_units_Z   2
loop_
 _symmetry_equiv_pos_site_id
 _symmetry_equiv_pos_as_xyz
  1  'x, y, z'
loop_
 _atom_site_type_symbol
 _atom_site_label
 _atom_site_symmetry_multiplicity
 _atom_site_fract_x
 _atom_site_fract_y
 _atom_site_fract_z
 _atom_site_occupancy
  Ni  Ni0  1  0.38442748  0.80499034  0.64957541  1
  Ni  Ni1  1  0.61557252  0.30499034  0.35042459  1
  Cu  Cu2  1  0.09856525  0.55761560  0.02931363  1
  Cu  Cu3  1  0.90143475  0.05761560  0.97068637  1
  C  C4  1  0.76032182  0.73981954  0.34038878  1
  C  C5  1  0.23967818  0.23981954  0.65961122  1
  C  C6  1  0.91163125  0.99479468  0.47785339  1
  C  C7  1  0.08836875  0.49479468  0.52214661  1
  C  C8  1  0.48133797  0.68837254  0.19923155  1
  C  C9  1  0.51866203  0.18837254  0.80076845  1
  C  C10  1  0.87153638  0.76948984  0.13453358  1
  C  C11  1  0.12846362  0.26948984  0.86546642  1
  C  C12  1  0.92248289  0.60904973  0.56636540  1
  C  C13  1  0.07751711  0.10904973  0.43363460  1
  C  C14  1  0.79368085  0.91886772  0.50572105  1
  C  C15  1  0.20631915  0.41886772  0.49427895  1
