# generated using pymatgen
data_Cu5NiC12
_symmetry_space_group_name_H-M   'P 1'
_cell_length_a   11.87183688
_cell_length_b   11.87183688
_cell_length_c   13.54247200
_cell_angle_alpha   90.00000000
_cell_angle_beta   90.00000000
_cell_angle_gamma   119.99999374
_symmetry_Int_Tables_number   1
_chemical_formula_structural   Cu5NiC12
_chemical_formula_sum   'Cu40 Ni8 C96'
_cell_volume   1652.96800200
_cell_formula_units_Z   8
loop_
 _symmetry_equiv_pos_site_id
 _symmetry_equiv_pos_as_xyz
  1  'x, y, z'
loop_
 _atom_site_type_symbol
 _atom_site_label
 _atom_site_symmetry_multiplicity
 _atom_site_fract_x
 _atom_site_fract_y
 _atom_site_fract_z
 _atom_site_occupancy
  C  C0  1  0.33333300  0.66666700  0.75000000  1
  C  C1  1  0.66666700  0.33333300  0.25000000  1
  C  C2  1  0.82265900  0.67666800  0.75000000  1
  C  C3  1  0.32333200  0.14599100  0.75000000  1
  C  C4  1  0.85400900  0.17734100  0.75000000  1
  C  C5  1  0.17734100  0.32333200  0.25000000  1
  C  C6  1  0.67666800  0.85400900  0.25000000  1
  C  C7  1  0.14599100  0.82265900  0.25000000  1
  Ni  Ni8  1  0.66666700  0.33333300  0.75000000  1
  Ni  Ni9  1  0.33333300  0.66666700  0.25000000  1
  Ni  Ni10  1  0.15060200  0.82259400  0.75000000  1
  Ni  Ni11  1  0.17740600  0.32800800  0.75000000  1
  Ni  Ni12  1  0.67199200  0.84939800  0.75000000  1
  Ni  Ni13  1  0.84939800  0.17740600  0.25000000  1
  Ni  Ni14  1  0.82259400  0.67199200  0.25000000  1
  Ni  Ni15  1  0.32800800  0.15060200  0.25000000  1
  Cu  Cu16  1  0.00000000  0.00000000  0.64784800  1
  Cu  Cu17  1  0.00000000  0.00000000  0.14784800  1
  Cu  Cu18  1  0.00000000  0.00000000  0.35215200  1
  Cu  Cu19  1  0.00000000  0.00000000  0.85215200  1
  Cu  Cu20  1  0.96949900  0.72965200  0.50464200  1
  Cu  Cu21  1  0.27034800  0.23984700  0.50464200  1
  Cu  Cu22  1  0.76015300  0.03050100  0.50464200  1
  Cu  Cu23  1  0.03050100  0.27034800  0.00464200  1
  Cu  Cu24  1  0.72965200  0.76015300  0.00464200  1
  Cu  Cu25  1  0.23984700  0.96949900  0.00464200  1
  Cu  Cu26  1  0.03050100  0.27034800  0.49535800  1
  Cu  Cu27  1  0.72965200  0.76015300  0.49535800  1
  Cu  Cu28  1  0.23984700  0.96949900  0.49535800  1
  Cu  Cu29  1  0.96949900  0.72965200  0.99535800  1
  Cu  Cu30  1  0.27034800  0.23984700  0.99535800  1
  Cu  Cu31  1  0.76015300  0.03050100  0.99535800  1
  Cu  Cu32  1  0.50806000  0.50976800  0.65591100  1
  Cu  Cu33  1  0.49023200  0.99829200  0.65591100  1
  Cu  Cu34  1  0.00170800  0.49194000  0.65591100  1
  Cu  Cu35  1  0.49194000  0.49023200  0.15591100  1
  Cu  Cu36  1  0.50976800  0.00170800  0.15591100  1
  Cu  Cu37  1  0.99829200  0.50806000  0.15591100  1
  Cu  Cu38  1  0.49194000  0.49023200  0.34408900  1
  Cu  Cu39  1  0.50976800  0.00170800  0.34408900  1
  Cu  Cu40  1  0.99829200  0.50806000  0.34408900  1
  Cu  Cu41  1  0.50806000  0.50976800  0.84408900  1
  Cu  Cu42  1  0.49023200  0.99829200  0.84408900  1
  Cu  Cu43  1  0.00170800  0.49194000  0.84408900  1
  Cu  Cu44  1  0.75431600  0.51006700  0.50121500  1
  Cu  Cu45  1  0.48993300  0.24424900  0.50121500  1
  Cu  Cu46  1  0.75575100  0.24568400  0.50121500  1
  Cu  Cu47  1  0.24568400  0.48993300  0.00121500  1
  Cu  Cu48  1  0.51006700  0.75575100  0.00121500  1
  Cu  Cu49  1  0.24424900  0.75431600  0.00121500  1
  Cu  Cu50  1  0.24568400  0.48993300  0.49878500  1
  Cu  Cu51  1  0.51006700  0.75575100  0.49878500  1
  Cu  Cu52  1  0.24424900  0.75431600  0.49878500  1
  Cu  Cu53  1  0.75431600  0.51006700  0.99878500  1
  Cu  Cu54  1  0.48993300  0.24424900  0.99878500  1
  Cu  Cu55  1  0.75575100  0.24568400  0.99878500  1
  C  C56  1  0.89190100  0.82641800  0.57866600  1
  C  C57  1  0.17358200  0.06548300  0.57866600  1
  C  C58  1  0.93451700  0.10809900  0.57866600  1
  C  C59  1  0.10809900  0.17358200  0.07866600  1
  C  C60  1  0.82641800  0.93451700  0.07866600  1
  C  C61  1  0.06548300  0.89190100  0.07866600  1
  C  C62  1  0.10809900  0.17358200  0.42133400  1
  C  C63  1  0.82641800  0.93451700  0.42133400  1
  C  C64  1  0.06548300  0.89190100  0.42133400  1
  C  C65  1  0.89190100  0.82641800  0.92133400  1
  C  C66  1  0.17358200  0.06548300  0.92133400  1
  C  C67  1  0.93451700  0.10809900  0.92133400  1
  C  C68  1  0.41597600  0.83059400  0.57620300  1
  C  C69  1  0.16940600  0.58538200  0.57620300  1
  C  C70  1  0.41461800  0.58402400  0.57620300  1
  C  C71  1  0.58402400  0.16940600  0.07620300  1
  C  C72  1  0.83059400  0.41461800  0.07620300  1
  C  C73  1  0.58538200  0.41597600  0.07620300  1
  C  C74  1  0.58402400  0.16940600  0.42379700  1
  C  C75  1  0.83059400  0.41461800  0.42379700  1
  C  C76  1  0.58538200  0.41597600  0.42379700  1
  C  C77  1  0.41597600  0.83059400  0.92379700  1
  C  C78  1  0.16940600  0.58538200  0.92379700  1
  C  C79  1  0.41461800  0.58402400  0.92379700  1
  C  C80  1  0.42182500  0.32538900  0.60001600  1
  C  C81  1  0.67461100  0.09643600  0.60001600  1
  C  C82  1  0.90356400  0.57817500  0.60001600  1
  C  C83  1  0.57817500  0.67461100  0.10001600  1
  C  C84  1  0.32538900  0.90356400  0.10001600  1
  C  C85  1  0.09643600  0.42182500  0.10001600  1
  C  C86  1  0.57817500  0.67461100  0.39998400  1
  C  C87  1  0.32538900  0.90356400  0.39998400  1
  C  C88  1  0.09643600  0.42182500  0.39998400  1
  C  C89  1  0.42182500  0.32538900  0.89998400  1
  C  C90  1  0.67461100  0.09643600  0.89998400  1
  C  C91  1  0.90356400  0.57817500  0.89998400  1
  C  C92  1  0.93007400  0.33785400  0.57016000  1
  C  C93  1  0.66214600  0.59222100  0.57016000  1
  C  C94  1  0.40777900  0.06992600  0.57016000  1
  C  C95  1  0.06992600  0.66214600  0.07016000  1
  C  C96  1  0.33785400  0.40777900  0.07016000  1
  C  C97  1  0.59222100  0.93007400  0.07016000  1
  C  C98  1  0.06992600  0.66214600  0.42984000  1
  C  C99  1  0.33785400  0.40777900  0.42984000  1
  C  C100  1  0.59222100  0.93007400  0.42984000  1
  C  C101  1  0.93007400  0.33785400  0.92984000  1
  C  C102  1  0.66214600  0.59222100  0.92984000  1
  C  C103  1  0.40777900  0.06992600  0.92984000  1
  C  C104  1  0.04649300  0.90310000  0.75000000  1
  C  C105  1  0.09690000  0.14339300  0.75000000  1
  C  C106  1  0.85660700  0.95350700  0.75000000  1
  C  C107  1  0.95350700  0.09690000  0.25000000  1
  C  C108  1  0.90310000  0.85660700  0.25000000  1
  C  C109  1  0.14339300  0.04649300  0.25000000  1
  C  C110  1  0.61398100  0.46213100  0.75000000  1
  C  C111  1  0.53786900  0.15185000  0.75000000  1
  C  C112  1  0.84815000  0.38601900  0.75000000  1
  C  C113  1  0.38601900  0.53786900  0.25000000  1
  C  C114  1  0.46213100  0.84815000  0.25000000  1
  C  C115  1  0.15185000  0.61398100  0.25000000  1
  C  C116  1  0.54882400  0.90579000  0.75000000  1
  C  C117  1  0.09421000  0.64303300  0.75000000  1
  C  C118  1  0.35696700  0.45117600  0.75000000  1
  C  C119  1  0.45117600  0.09421000  0.25000000  1
  C  C120  1  0.90579000  0.35696700  0.25000000  1
  C  C121  1  0.64303300  0.54882400  0.25000000  1
  C  C122  1  0.33572500  0.91854900  0.75000000  1
  C  C123  1  0.08145100  0.41717600  0.75000000  1
  C  C124  1  0.58282400  0.66427500  0.75000000  1
  C  C125  1  0.66427500  0.08145100  0.25000000  1
  C  C126  1  0.91854900  0.58282400  0.25000000  1
  C  C127  1  0.41717600  0.33572500  0.25000000  1
  C  C128  1  0.66666700  0.33333300  0.92650000  1
  C  C129  1  0.33333300  0.66666700  0.42650000  1
  C  C130  1  0.33333300  0.66666700  0.07350000  1
  C  C131  1  0.66666700  0.33333300  0.57350000  1
  C  C132  1  0.13994200  0.81160200  0.91640600  1
  C  C133  1  0.18839800  0.32834000  0.91640600  1
  C  C134  1  0.67166000  0.86005800  0.91640600  1
  C  C135  1  0.86005800  0.18839800  0.41640600  1
  C  C136  1  0.81160200  0.67166000  0.41640600  1
  C  C137  1  0.32834000  0.13994200  0.41640600  1
  C  C138  1  0.86005800  0.18839800  0.08359400  1
  C  C139  1  0.81160200  0.67166000  0.08359400  1
  C  C140  1  0.32834000  0.13994200  0.08359400  1
  C  C141  1  0.13994200  0.81160200  0.58359400  1
  C  C142  1  0.18839800  0.32834000  0.58359400  1
  C  C143  1  0.67166000  0.86005800  0.58359400  1
