# generated using pymatgen
data_Cu3Ni2C19
_symmetry_space_group_name_H-M   'P 1'
_cell_length_a   5.02323500
_cell_length_b   5.19120761
_cell_length_c   8.72223013
_cell_angle_alpha   73.96468299
_cell_angle_beta   85.29307621
_cell_angle_gamma   79.63646034
_symmetry_Int_Tables_number   1
_chemical_formula_structural   Cu3Ni2C19
_chemical_formula_sum   'Cu3 Ni2 C19'
_cell_volume   214.90479649
_cell_formula_units_Z   1
loop_
 _symmetry_equiv_pos_site_id
 _symmetry_equiv_pos_as_xyz
  1  'x, y, z'
loop_
 _atom_site_type_symbol
 _atom_site_label
 _atom_site_symmetry_multiplicity
 _atom_site_fract_x
 _atom_site_fract_y
 _atom_site_fract_z
 _atom_site_occupancy
  C  C0  1  0.25016800  0.41655300  0.08707500  1
  C  C1  1  0.75151900  0.58730300  0.90868600  1
  C  C2  1  0.25590600  0.75473500  0.73575300  1
  C  C3  1  0.25433700  0.07911800  0.42646500  1
  C  C4  1  0.74142400  0.24606600  0.26639600  1
  C  C5  1  0.74596100  0.91824300  0.57958300  1
  C  C6  1  0.50842300  0.50475000  0.49772600  1
  Ni  Ni7  1  0.99698700  0.99361600  0.99846100  1
  Ni  Ni8  1  0.49956400  0.83025300  0.17121900  1
  Cu  Cu9  1  0.49805200  0.17385000  0.81876300  1
  Cu  Cu10  1  0.99481000  0.33291200  0.66414400  1
  Cu  Cu11  1  0.01249600  0.66151900  0.35372800  1
  C  C12  1  0.13703100  0.02981500  0.19353100  1
  C  C13  1  0.63046200  0.17162000  0.03708600  1
  C  C14  1  0.10988900  0.33488700  0.87666800  1
  C  C15  1  0.11586700  0.71575900  0.53495900  1
  C  C16  1  0.62246000  0.88000900  0.35735000  1
  C  C17  1  0.64254600  0.51291900  0.71114500  1
  C  C18  1  0.35805700  0.80479400  0.96821000  1
  C  C19  1  0.87421700  0.95308500  0.80649700  1
  C  C20  1  0.36053100  0.13559200  0.63645200  1
  C  C21  1  0.38021600  0.49839300  0.27842100  1
  C  C22  1  0.86513800  0.65875000  0.12610900  1
  C  C23  1  0.89393900  0.30545900  0.46557200  1
