# generated using pymatgen
data_Cu12Ni5C8
_symmetry_space_group_name_H-M   'P 1'
_cell_length_a   3.77333500
_cell_length_b   3.91681100
_cell_length_c   52.04448211
_cell_angle_alpha   90.00000000
_cell_angle_beta   87.92251168
_cell_angle_gamma   90.00000000
_symmetry_Int_Tables_number   1
_chemical_formula_structural   Cu12Ni5C8
_chemical_formula_sum   'Cu24 Ni10 C16'
_cell_volume   768.68272577
_cell_formula_units_Z   2
loop_
 _symmetry_equiv_pos_site_id
 _symmetry_equiv_pos_as_xyz
  1  'x, y, z'
loop_
 _atom_site_type_symbol
 _atom_site_label
 _atom_site_symmetry_multiplicity
 _atom_site_fract_x
 _atom_site_fract_y
 _atom_site_fract_z
 _atom_site_occupancy
  Ni  Ni0  1  0.98240900  0.00000000  0.03518100  1
  Ni  Ni1  1  0.38279800  0.00000000  0.23440400  1
  Ni  Ni2  1  0.78278700  0.00000000  0.43442700  1
  Ni  Ni3  1  0.18275100  0.00000000  0.63449700  1
  Ni  Ni4  1  0.58277000  0.00000000  0.83446000  1
  Ni  Ni5  1  0.41723000  0.00000000  0.16554000  1
  Ni  Ni6  1  0.81724900  0.00000000  0.36550300  1
  Ni  Ni7  1  0.21721300  0.00000000  0.56557300  1
  Ni  Ni8  1  0.61720200  0.00000000  0.76559600  1
  Ni  Ni9  1  0.01759100  0.00000000  0.96481900  1
  Cu  Cu10  1  0.95559900  0.00000000  0.08880200  1
  Cu  Cu11  1  0.35569000  0.00000000  0.28861900  1
  Cu  Cu12  1  0.75569700  0.00000000  0.48860700  1
  Cu  Cu13  1  0.15567800  0.00000000  0.68864500  1
  Cu  Cu14  1  0.55569300  0.00000000  0.88861500  1
  Cu  Cu15  1  0.44430700  0.00000000  0.11138500  1
  Cu  Cu16  1  0.84432200  0.00000000  0.31135500  1
  Cu  Cu17  1  0.24430300  0.00000000  0.51139300  1
  Cu  Cu18  1  0.64431000  0.00000000  0.71138100  1
  Cu  Cu19  1  0.04440100  0.00000000  0.91119800  1
  Cu  Cu20  1  0.46397900  0.50000000  0.07204200  1
  Cu  Cu21  1  0.86391200  0.50000000  0.27217700  1
  Cu  Cu22  1  0.26391600  0.50000000  0.47216800  1
  Cu  Cu23  1  0.66390200  0.50000000  0.67219600  1
  Cu  Cu24  1  0.06389400  0.50000000  0.87221100  1
  Cu  Cu25  1  0.93610600  0.50000000  0.12778900  1
  Cu  Cu26  1  0.33609800  0.50000000  0.32780400  1
  Cu  Cu27  1  0.73608400  0.50000000  0.52783200  1
  Cu  Cu28  1  0.13608800  0.50000000  0.72782300  1
  Cu  Cu29  1  0.53602100  0.50000000  0.92795800  1
  Cu  Cu30  1  0.89999800  0.50000000  0.20000400  1
  Cu  Cu31  1  0.30000700  0.50000000  0.39998500  1
  Cu  Cu32  1  0.69999300  0.50000000  0.60001500  1
  Cu  Cu33  1  0.10000200  0.50000000  0.79999600  1
  C  C34  1  0.50000000  0.50000000  0.00000000  1
  C  C35  1  0.93508500  0.00000000  0.12983000  1
  C  C36  1  0.33509800  0.00000000  0.32980400  1
  C  C37  1  0.73512000  0.00000000  0.52976000  1
  C  C38  1  0.13513200  0.00000000  0.72973600  1
  C  C39  1  0.53526500  0.00000000  0.92946900  1
  C  C40  1  0.46473500  0.00000000  0.07053100  1
  C  C41  1  0.86486800  0.00000000  0.27026400  1
  C  C42  1  0.26488000  0.00000000  0.47024000  1
  C  C43  1  0.66490200  0.00000000  0.67019600  1
  C  C44  1  0.06491500  0.00000000  0.87017000  1
  C  C45  1  0.00000000  0.50000000  0.00000000  1
  C  C46  1  0.39998900  0.50000000  0.20002300  1
  C  C47  1  0.80000100  0.50000000  0.39999800  1
  C  C48  1  0.19999900  0.50000000  0.60000200  1
  C  C49  1  0.60001100  0.50000000  0.79997700  1
