# generated using pymatgen
data_Cu5(NiC2)2
_symmetry_space_group_name_H-M   'P 1'
_cell_length_a   8.82469387
_cell_length_b   8.82469387
_cell_length_c   8.82469387
_cell_angle_alpha   146.10022139
_cell_angle_beta   144.54354710
_cell_angle_gamma   49.86647579
_symmetry_Int_Tables_number   1
_chemical_formula_structural   Cu5(NiC2)2
_chemical_formula_sum   'Cu5 Ni2 C4'
_cell_volume   221.28497474
_cell_formula_units_Z   1
loop_
 _symmetry_equiv_pos_site_id
 _symmetry_equiv_pos_as_xyz
  1  'x, y, z'
loop_
 _atom_site_type_symbol
 _atom_site_label
 _atom_site_symmetry_multiplicity
 _atom_site_fract_x
 _atom_site_fract_y
 _atom_site_fract_z
 _atom_site_occupancy
  C  C0  1  0.50000000  0.00000000  0.50000000  1
  C  C1  1  0.00000000  0.50000000  0.50000000  1
  C  C2  1  0.66490200  0.66490200  0.00000000  1
  C  C3  1  0.33509800  0.33509800  0.00000000  1
  Ni  Ni4  1  0.88040000  0.88040000  0.00000000  1
  Ni  Ni5  1  0.11960000  0.11960000  0.00000000  1
  Cu  Cu6  1  0.50000000  0.50000000  0.00000000  1
  Cu  Cu7  1  0.03991700  0.83826800  0.20164900  1
  Cu  Cu8  1  0.63661900  0.83826800  0.79835100  1
  Cu  Cu9  1  0.96008300  0.16173200  0.79835100  1
  Cu  Cu10  1  0.36338100  0.16173200  0.20164900  1
