# generated using pymatgen
data_Cu8(Ni2C5)5
_symmetry_space_group_name_H-M   'P 1'
_cell_length_a   11.39022822
_cell_length_b   11.61177905
_cell_length_c   17.56582645
_cell_angle_alpha   94.92825065
_cell_angle_beta   90.00000000
_cell_angle_gamma   90.00000000
_symmetry_Int_Tables_number   1
_chemical_formula_structural   Cu8(Ni2C5)5
_chemical_formula_sum   'Cu32 Ni40 C100'
_cell_volume   2314.68149945
_cell_formula_units_Z   4
loop_
 _symmetry_equiv_pos_site_id
 _symmetry_equiv_pos_as_xyz
  1  'x, y, z'
loop_
 _atom_site_type_symbol
 _atom_site_label
 _atom_site_symmetry_multiplicity
 _atom_site_fract_x
 _atom_site_fract_y
 _atom_site_fract_z
 _atom_site_occupancy
  C  C0  1  0.35760370  0.51410340  0.89860483  1
  C  C1  1  0.85760370  0.48589660  0.60139517  1
  C  C2  1  0.64239630  0.48589660  0.10139517  1
  C  C3  1  0.14239630  0.51410340  0.39860483  1
  C  C4  1  0.11440237  0.51015131  0.75238002  1
  C  C5  1  0.61440237  0.48984869  0.74761998  1
  C  C6  1  0.88559763  0.48984869  0.24761998  1
  C  C7  1  0.38559763  0.51015131  0.25238002  1
  C  C8  1  0.13171679  0.16885798  0.75410964  1
  C  C9  1  0.63171679  0.83114202  0.74589036  1
  C  C10  1  0.86828321  0.83114202  0.24589036  1
  C  C11  1  0.36828321  0.16885798  0.25410964  1
  C  C12  1  0.12741833  0.66216734  0.59348922  1
  C  C13  1  0.62741833  0.33783266  0.90651078  1
  C  C14  1  0.87258167  0.33783266  0.40651078  1
  C  C15  1  0.37258167  0.66216734  0.09348922  1
  C  C16  1  0.12737051  0.34284745  0.91043460  1
  C  C17  1  0.62737051  0.65715255  0.58956540  1
  C  C18  1  0.87262949  0.65715255  0.08956540  1
  C  C19  1  0.37262949  0.34284745  0.41043460  1
  C  C20  1  0.85823988  0.51105727  0.89406607  1
  C  C21  1  0.35823988  0.48894273  0.60593393  1
  C  C22  1  0.14176012  0.48894273  0.10593393  1
  C  C23  1  0.64176012  0.51105727  0.39406607  1
  C  C24  1  0.89975058  0.81522846  0.90385753  1
  C  C25  1  0.39975058  0.18477154  0.59614247  1
  C  C26  1  0.10024942  0.18477154  0.09614247  1
  C  C27  1  0.60024942  0.81522846  0.40385753  1
  C  C28  1  0.39894563  0.82447390  0.91010583  1
  C  C29  1  0.89894563  0.17552610  0.58989417  1
  C  C30  1  0.60105437  0.17552610  0.08989417  1
  C  C31  1  0.10105437  0.82447390  0.41010583  1
  Ni  Ni32  1  0.88791297  0.06347223  0.88268802  1
  Ni  Ni33  1  0.38791297  0.93652777  0.61731198  1
  Ni  Ni34  1  0.11208703  0.93652777  0.11731198  1
  Ni  Ni35  1  0.61208703  0.06347223  0.38268802  1
  Ni  Ni36  1  0.89983655  0.07426378  0.97287903  1
  Ni  Ni37  1  0.39983655  0.92573622  0.52712097  1
  Ni  Ni38  1  0.10016345  0.92573622  0.02712097  1
  Ni  Ni39  1  0.60016345  0.07426378  0.47287903  1
  Ni  Ni40  1  0.06253881  0.92718929  0.72293078  1
  Ni  Ni41  1  0.56253881  0.07281071  0.77706922  1
  Ni  Ni42  1  0.93746119  0.07281071  0.27706922  1
  Ni  Ni43  1  0.43746119  0.92718929  0.22293078  1
  Ni  Ni44  1  0.20100848  0.93047490  0.72222565  1
  Ni  Ni45  1  0.70100848  0.06952510  0.77777435  1
  Ni  Ni46  1  0.79899152  0.06952510  0.27777435  1
  Ni  Ni47  1  0.29899152  0.93047490  0.22222565  1
  Ni  Ni48  1  0.06797597  0.08838547  0.90338228  1
  Ni  Ni49  1  0.56797597  0.91161453  0.59661772  1
  Ni  Ni50  1  0.93202403  0.91161453  0.09661772  1
  Ni  Ni51  1  0.43202403  0.08838547  0.40338228  1
  Ni  Ni52  1  0.20697466  0.09547933  0.90546556  1
  Ni  Ni53  1  0.70697466  0.90452067  0.59453444  1
  Ni  Ni54  1  0.79302534  0.90452067  0.09453444  1
  Ni  Ni55  1  0.29302534  0.09547933  0.40546556  1
  Ni  Ni56  1  0.38319472  0.07206705  0.88019317  1
  Ni  Ni57  1  0.88319472  0.92793295  0.61980683  1
  Ni  Ni58  1  0.61680528  0.92793295  0.11980683  1
  Ni  Ni59  1  0.11680528  0.07206705  0.38019317  1
  Ni  Ni60  1  0.37431846  0.07880236  0.97037463  1
  Ni  Ni61  1  0.87431846  0.92119764  0.52962537  1
  Ni  Ni62  1  0.62568154  0.92119764  0.02962537  1
  Ni  Ni63  1  0.12568154  0.07880236  0.47037463  1
  Ni  Ni64  1  0.21771306  0.86183865  0.53697705  1
  Ni  Ni65  1  0.71771306  0.13816135  0.96302295  1
  Ni  Ni66  1  0.78228694  0.13816135  0.46302295  1
  Ni  Ni67  1  0.28228694  0.86183865  0.03697705  1
  Ni  Ni68  1  0.13093809  0.90909903  0.60205941  1
  Ni  Ni69  1  0.63093809  0.09090097  0.89794059  1
  Ni  Ni70  1  0.86906191  0.09090097  0.39794059  1
  Ni  Ni71  1  0.36906191  0.90909903  0.10205941  1
  Cu  Cu72  1  0.88483828  0.85683919  0.73823005  1
  Cu  Cu73  1  0.38483828  0.14316081  0.76176995  1
  Cu  Cu74  1  0.11516172  0.14316081  0.26176995  1
  Cu  Cu75  1  0.61516172  0.85683919  0.23823005  1
  Cu  Cu76  1  0.37953802  0.85887930  0.73648880  1
  Cu  Cu77  1  0.87953802  0.14112070  0.76351120  1
  Cu  Cu78  1  0.62046198  0.14112070  0.26351120  1
  Cu  Cu79  1  0.12046198  0.85887930  0.23648880  1
  Cu  Cu80  1  0.35386884  0.19706654  0.08509901  1
  Cu  Cu81  1  0.85386884  0.80293346  0.41490099  1
  Cu  Cu82  1  0.64613116  0.80293346  0.91490099  1
  Cu  Cu83  1  0.14613116  0.19706654  0.58509901  1
  Cu  Cu84  1  0.85245642  0.19353419  0.07842160  1
  Cu  Cu85  1  0.35245642  0.80646581  0.42157840  1
  Cu  Cu86  1  0.14754358  0.80646581  0.92157840  1
  Cu  Cu87  1  0.64754358  0.19353419  0.57842160  1
  Cu  Cu88  1  0.87874244  0.68198391  0.73246093  1
  Cu  Cu89  1  0.37874244  0.31801609  0.76753907  1
  Cu  Cu90  1  0.12125756  0.31801609  0.26753907  1
  Cu  Cu91  1  0.62125756  0.68198391  0.23246093  1
  Cu  Cu92  1  0.37652168  0.68401518  0.73536496  1
  Cu  Cu93  1  0.87652168  0.31598482  0.76463504  1
  Cu  Cu94  1  0.62347832  0.31598482  0.26463504  1
  Cu  Cu95  1  0.12347832  0.68401518  0.23536496  1
  Cu  Cu96  1  0.38373755  0.35601584  0.04812291  1
  Cu  Cu97  1  0.88373755  0.64398416  0.45187709  1
  Cu  Cu98  1  0.61626245  0.64398416  0.95187709  1
  Cu  Cu99  1  0.11626245  0.35601584  0.54812291  1
  Cu  Cu100  1  0.88693217  0.35201131  0.04417635  1
  Cu  Cu101  1  0.38693217  0.64798869  0.45582365  1
  Cu  Cu102  1  0.11306783  0.64798869  0.95582365  1
  Cu  Cu103  1  0.61306783  0.35201131  0.54417635  1
  C  C104  1  0.75959049  0.64438665  0.70440694  1
  C  C105  1  0.25959049  0.35561335  0.79559306  1
  C  C106  1  0.24040951  0.35561335  0.29559306  1
  C  C107  1  0.74040951  0.64438665  0.20440694  1
  C  C108  1  0.89978668  0.64775763  0.81052989  1
  C  C109  1  0.39978668  0.35224237  0.68947011  1
  C  C110  1  0.10021332  0.35224237  0.18947011  1
  C  C111  1  0.60021332  0.64775763  0.31052989  1
  C  C112  1  0.97035808  0.63003258  0.67956207  1
  C  C113  1  0.47035808  0.36996742  0.82043793  1
  C  C114  1  0.02964192  0.36996742  0.32043793  1
  C  C115  1  0.52964192  0.63003258  0.17956207  1
  C  C116  1  0.38716164  0.65585586  0.81560126  1
  C  C117  1  0.88716164  0.34414414  0.68439874  1
  C  C118  1  0.61283836  0.34414414  0.18439874  1
  C  C119  1  0.11283836  0.65585586  0.31560126  1
  C  C120  1  0.26647954  0.63598886  0.69997228  1
  C  C121  1  0.76647954  0.36401114  0.80002772  1
  C  C122  1  0.73352046  0.36401114  0.30002772  1
  C  C123  1  0.23352046  0.63598886  0.19997228  1
  C  C124  1  0.48029861  0.63676027  0.69030248  1
  C  C125  1  0.98029861  0.36323973  0.80969752  1
  C  C126  1  0.51970139  0.36323973  0.30969752  1
  C  C127  1  0.01970139  0.63676027  0.19030248  1
  C  C128  1  0.30448366  0.37110923  0.98262905  1
  C  C129  1  0.80448366  0.62889077  0.51737095  1
  C  C130  1  0.69551634  0.62889077  0.01737095  1
  C  C131  1  0.19551634  0.37110923  0.48262905  1
  C  C132  1  0.50895662  0.36216367  0.02469098  1
  C  C133  1  0.00895662  0.63783633  0.47530902  1
  C  C134  1  0.49104338  0.63783633  0.97530902  1
  C  C135  1  0.99104338  0.36216367  0.52469098  1
  C  C136  1  0.35755075  0.44641157  0.11136307  1
  C  C137  1  0.85755075  0.55358843  0.38863693  1
  C  C138  1  0.64244925  0.55358843  0.88863693  1
  C  C139  1  0.14244925  0.44641157  0.61136307  1
  C  C140  1  0.85934319  0.44298760  0.10702664  1
  C  C141  1  0.35934319  0.55701240  0.39297336  1
  C  C142  1  0.14065681  0.55701240  0.89297336  1
  C  C143  1  0.64065681  0.44298760  0.60702664  1
  C  C144  1  0.01456140  0.35651174  0.02468049  1
  C  C145  1  0.51456140  0.64348826  0.47531951  1
  C  C146  1  0.98543860  0.64348826  0.97531951  1
  C  C147  1  0.48543860  0.35651174  0.52468049  1
  C  C148  1  0.81282790  0.36979489  0.97676080  1
  C  C149  1  0.31282790  0.63020511  0.52323920  1
  C  C150  1  0.18717210  0.63020511  0.02323920  1
  C  C151  1  0.68717210  0.36979489  0.47676080  1
  C  C152  1  0.91832096  0.02302684  0.92599903  1
  C  C153  1  0.41832096  0.97697316  0.57400097  1
  C  C154  1  0.08167904  0.97697316  0.07400097  1
  C  C155  1  0.58167904  0.02302684  0.42599903  1
  C  C156  1  0.13042279  0.96965125  0.70356215  1
  C  C157  1  0.63042279  0.03034875  0.79643785  1
  C  C158  1  0.86957721  0.03034875  0.29643785  1
  C  C159  1  0.36957721  0.96965125  0.20356215  1
  C  C160  1  0.13521978  0.13756371  0.89176169  1
  C  C161  1  0.63521978  0.86243629  0.60823831  1
  C  C162  1  0.86478022  0.86243629  0.10823831  1
  C  C163  1  0.36478022  0.13756371  0.39176169  1
  C  C164  1  0.35250746  0.03096816  0.92305172  1
  C  C165  1  0.85250746  0.96903184  0.57694828  1
  C  C166  1  0.64749254  0.96903184  0.07694828  1
  C  C167  1  0.14749254  0.03096816  0.42305172  1
  C  C168  1  0.13709798  0.85486226  0.55523030  1
  C  C169  1  0.63709798  0.14513774  0.94476970  1
  C  C170  1  0.86290202  0.14513774  0.44476970  1
  C  C171  1  0.36290202  0.85486226  0.05523030  1
