# generated using pymatgen
data_Cu2NiC2
_symmetry_space_group_name_H-M   'P 1'
_cell_length_a   8.38021816
_cell_length_b   8.38021816
_cell_length_c   8.72191052
_cell_angle_alpha   110.78462461
_cell_angle_beta   110.78462461
_cell_angle_gamma   105.15019598
_symmetry_Int_Tables_number   1
_chemical_formula_structural   Cu2NiC2
_chemical_formula_sum   'Cu8 Ni4 C8'
_cell_volume   479.97345987
_cell_formula_units_Z   4
loop_
 _symmetry_equiv_pos_site_id
 _symmetry_equiv_pos_as_xyz
  1  'x, y, z'
loop_
 _atom_site_type_symbol
 _atom_site_label
 _atom_site_symmetry_multiplicity
 _atom_site_fract_x
 _atom_site_fract_y
 _atom_site_fract_z
 _atom_site_occupancy
  C  C0  1  0.38871500  0.09128400  0.64832600  1
  C  C1  1  0.25961100  0.55704200  0.64832600  1
  C  C2  1  0.90871600  0.61128500  0.35167400  1
  C  C3  1  0.86128500  0.65871600  0.85167400  1
  C  C4  1  0.44295800  0.74038900  0.35167400  1
  C  C5  1  0.99038900  0.19295800  0.85167400  1
  C  C6  1  0.34128400  0.13871500  0.14832600  1
  C  C7  1  0.80704200  0.00961100  0.14832600  1
  Ni  Ni8  1  0.62500000  0.87500000  0.75000000  1
  Ni  Ni9  1  0.12500000  0.87500000  0.75000000  1
  Ni  Ni10  1  0.12500000  0.37500000  0.25000000  1
  Ni  Ni11  1  0.12500000  0.87500000  0.25000000  1
  Cu  Cu12  1  0.58490100  0.68746500  0.79067800  1
  Cu  Cu13  1  0.20577700  0.10321300  0.79067800  1
  Cu  Cu14  1  0.31253500  0.41509900  0.20932200  1
  Cu  Cu15  1  0.66509900  0.06253500  0.70932200  1
  Cu  Cu16  1  0.89678700  0.79422300  0.20932200  1
  Cu  Cu17  1  0.04422300  0.64678700  0.70932200  1
  Cu  Cu18  1  0.93746500  0.33490100  0.29067800  1
  Cu  Cu19  1  0.35321300  0.95577700  0.29067800  1
