# generated using pymatgen
data_CuNi3C10
_symmetry_space_group_name_H-M   'P 1'
_cell_length_a   5.37020633
_cell_length_b   14.02238954
_cell_length_c   18.72349106
_cell_angle_alpha   90.00000000
_cell_angle_beta   90.00000000
_cell_angle_gamma   90.00000000
_symmetry_Int_Tables_number   1
_chemical_formula_structural   CuNi3C10
_chemical_formula_sum   'Cu8 Ni24 C80'
_cell_volume   1409.93738903
_cell_formula_units_Z   8
loop_
 _symmetry_equiv_pos_site_id
 _symmetry_equiv_pos_as_xyz
  1  'x, y, z'
loop_
 _atom_site_type_symbol
 _atom_site_label
 _atom_site_symmetry_multiplicity
 _atom_site_fract_x
 _atom_site_fract_y
 _atom_site_fract_z
 _atom_site_occupancy
  Ni  Ni0  1  0.98868136  0.21641535  0.99280509  1
  Ni  Ni1  1  0.01131864  0.78358465  0.49280509  1
  Ni  Ni2  1  0.01131864  0.71641535  0.99280509  1
  Ni  Ni3  1  0.98868136  0.28358465  0.49280509  1
  Ni  Ni4  1  0.99131243  0.95222598  0.64827014  1
  Ni  Ni5  1  0.00868757  0.04777402  0.14827014  1
  Ni  Ni6  1  0.00868757  0.45222598  0.64827014  1
  Ni  Ni7  1  0.99131243  0.54777402  0.14827014  1
  Ni  Ni8  1  0.99462391  0.86231370  0.82816219  1
  Ni  Ni9  1  0.00537609  0.13768630  0.32816219  1
  Ni  Ni10  1  0.00537609  0.36231370  0.82816219  1
  Ni  Ni11  1  0.99462391  0.63768630  0.32816219  1
  Ni  Ni12  1  0.47754468  0.79693835  0.72998202  1
  Ni  Ni13  1  0.52245532  0.20306165  0.22998202  1
  Ni  Ni14  1  0.52245532  0.29693835  0.72998202  1
  Ni  Ni15  1  0.47754468  0.70306165  0.22998202  1
  Ni  Ni16  1  0.53849346  0.96820720  0.88778170  1
  Ni  Ni17  1  0.46150654  0.03179280  0.38778170  1
  Ni  Ni18  1  0.46150654  0.46820720  0.88778170  1
  Ni  Ni19  1  0.53849346  0.53179280  0.38778170  1
  Ni  Ni20  1  0.49929927  0.88684642  0.54957710  1
  Ni  Ni21  1  0.50070073  0.11315358  0.04957710  1
  Ni  Ni22  1  0.50070073  0.38684642  0.54957710  1
  Ni  Ni23  1  0.49929927  0.61315358  0.04957710  1
  Cu  Cu24  1  0.92894211  0.61294820  0.80276959  1
  Cu  Cu25  1  0.07105789  0.38705180  0.30276959  1
  Cu  Cu26  1  0.07105789  0.11294820  0.80276959  1
  Cu  Cu27  1  0.92894211  0.88705180  0.30276959  1
  Cu  Cu28  1  0.55652646  0.63682752  0.57420721  1
  Cu  Cu29  1  0.44347354  0.36317248  0.07420721  1
  Cu  Cu30  1  0.44347354  0.13682752  0.57420721  1
  Cu  Cu31  1  0.55652646  0.86317248  0.07420721  1
  C  C32  1  0.96920193  0.47544580  0.98069043  1
  C  C33  1  0.03079807  0.52455420  0.48069043  1
  C  C34  1  0.03079807  0.97544580  0.98069043  1
  C  C35  1  0.96920193  0.02455420  0.48069043  1
  C  C36  1  0.98933994  0.22633107  0.65305231  1
  C  C37  1  0.01066006  0.77366893  0.15305231  1
  C  C38  1  0.01066006  0.72633107  0.65305231  1
  C  C39  1  0.98933994  0.27366893  0.15305231  1
  C  C40  1  0.47740104  0.52280072  0.72449564  1
  C  C41  1  0.52259896  0.47719928  0.22449564  1
  C  C42  1  0.52259896  0.02280072  0.72449564  1
  C  C43  1  0.47740104  0.97719928  0.22449564  1
  C  C44  1  0.46171758  0.72647910  0.89639731  1
  C  C45  1  0.53828242  0.27352090  0.39639731  1
  C  C46  1  0.53828242  0.22647910  0.89639731  1
  C  C47  1  0.46171758  0.77352090  0.39639731  1
  C  C48  1  0.57984583  0.80616245  0.85091299  1
  C  C49  1  0.42015417  0.19383755  0.35091299  1
  C  C50  1  0.42015417  0.30616245  0.85091299  1
  C  C51  1  0.57984583  0.69383755  0.35091299  1
  C  C52  1  0.69521191  0.47071636  0.76343939  1
  C  C53  1  0.30478809  0.52928364  0.26343939  1
  C  C54  1  0.30478809  0.97071636  0.76343939  1
  C  C55  1  0.69521191  0.02928364  0.26343939  1
  C  C56  1  0.88955347  0.87974309  0.99419425  1
  C  C57  1  0.11044653  0.12025691  0.49419425  1
  C  C58  1  0.11044653  0.37974309  0.99419425  1
  C  C59  1  0.88955347  0.62025691  0.49419425  1
  C  C60  1  0.79604201  0.77728462  0.61175699  1
  C  C61  1  0.20395799  0.22271538  0.11175699  1
  C  C62  1  0.20395799  0.27728462  0.61175699  1
  C  C63  1  0.79604201  0.72271538  0.11175699  1
  C  C64  1  0.68640500  0.46299965  0.99932992  1
  C  C65  1  0.31359500  0.53700035  0.49932992  1
  C  C66  1  0.31359500  0.96299965  0.99932992  1
  C  C67  1  0.68640500  0.03700035  0.49932992  1
  C  C68  1  0.91399192  0.44509192  0.52713540  1
  C  C69  1  0.08600808  0.55490808  0.02713540  1
  C  C70  1  0.08600808  0.94509192  0.52713540  1
  C  C71  1  0.91399192  0.05490808  0.02713540  1
  C  C72  1  0.77217888  0.99598871  0.76108150  1
  C  C73  1  0.22782112  0.00401129  0.26108150  1
  C  C74  1  0.22782112  0.49598871  0.76108150  1
  C  C75  1  0.77217888  0.50401129  0.26108150  1
  C  C76  1  0.60475581  0.63082662  0.88450193  1
  C  C77  1  0.39524419  0.36917338  0.38450193  1
  C  C78  1  0.39524419  0.13082662  0.88450193  1
  C  C79  1  0.60475581  0.86917338  0.38450193  1
  C  C80  1  0.52779452  0.63174604  0.72827108  1
  C  C81  1  0.47220548  0.36825396  0.22827108  1
  C  C82  1  0.47220548  0.13174604  0.72827108  1
  C  C83  1  0.52779452  0.86825396  0.22827108  1
  C  C84  1  0.96245520  0.61741654  0.65004941  1
  C  C85  1  0.03754480  0.38258346  0.15004941  1
  C  C86  1  0.03754480  0.11741654  0.65004941  1
  C  C87  1  0.96245520  0.88258346  0.15004941  1
  C  C88  1  0.81887708  0.21286267  0.87503467  1
  C  C89  1  0.18112292  0.78713733  0.37503467  1
  C  C90  1  0.18112292  0.71286267  0.87503467  1
  C  C91  1  0.81887708  0.28713733  0.37503467  1
  C  C92  1  0.99124028  0.25872323  0.73248135  1
  C  C93  1  0.00875972  0.74127677  0.23248135  1
  C  C94  1  0.00875972  0.75872323  0.73248135  1
  C  C95  1  0.99124028  0.24127677  0.23248135  1
  C  C96  1  0.52798261  0.99253208  0.64457750  1
  C  C97  1  0.47201739  0.00746792  0.14457750  1
  C  C98  1  0.47201739  0.49253208  0.64457750  1
  C  C99  1  0.52798261  0.50746792  0.14457750  1
  C  C100  1  0.00245791  0.99847832  0.89960236  1
  C  C101  1  0.99754209  0.00152168  0.39960236  1
  C  C102  1  0.99754209  0.49847832  0.89960236  1
  C  C103  1  0.00245791  0.50152168  0.39960236  1
  C  C104  1  0.26297562  0.75345883  0.61815926  1
  C  C105  1  0.73702438  0.24654117  0.11815926  1
  C  C106  1  0.73702438  0.25345883  0.61815926  1
  C  C107  1  0.26297562  0.74654117  0.11815926  1
  C  C108  1  0.47137190  0.74921726  0.97788128  1
  C  C109  1  0.52862810  0.25078274  0.47788128  1
  C  C110  1  0.52862810  0.24921726  0.97788128  1
  C  C111  1  0.47137190  0.75078274  0.47788128  1
