# generated using pymatgen
data_Cu5Ni2C25
_symmetry_space_group_name_H-M   'P 1'
_cell_length_a   2.90534800
_cell_length_b   8.44261800
_cell_length_c   11.85497368
_cell_angle_alpha   89.79125492
_cell_angle_beta   90.00000000
_cell_angle_gamma   90.00000000
_symmetry_Int_Tables_number   1
_chemical_formula_structural   Cu5Ni2C25
_chemical_formula_sum   'Cu5 Ni2 C25'
_cell_volume   290.78567655
_cell_formula_units_Z   1
loop_
 _symmetry_equiv_pos_site_id
 _symmetry_equiv_pos_as_xyz
  1  'x, y, z'
loop_
 _atom_site_type_symbol
 _atom_site_label
 _atom_site_symmetry_multiplicity
 _atom_site_fract_x
 _atom_site_fract_y
 _atom_site_fract_z
 _atom_site_occupancy
  C  C0  1  0.50000000  0.74572900  0.86714200  1
  C  C1  1  0.50000000  0.25323000  0.62089900  1
  C  C2  1  0.50000000  0.74847500  0.38252800  1
  C  C3  1  0.00000000  0.49978300  0.99833400  1
  C  C4  1  0.00000000  0.99839700  0.74413700  1
  C  C5  1  0.00000000  0.49105900  0.49773500  1
  C  C6  1  0.50000000  0.25490300  0.12647500  1
  C  C7  1  0.00000000  0.01305100  0.25981500  1
  C  C8  1  0.50000000  0.24870200  0.37782700  1
  Ni  Ni9  1  0.00000000  0.00022500  0.99751000  1
  Ni  Ni10  1  0.50000000  0.74399000  0.12882200  1
  Cu  Cu11  1  0.00000000  0.50364000  0.74767300  1
  Cu  Cu12  1  0.00000000  0.02259200  0.49741900  1
  Cu  Cu13  1  0.00000000  0.47145600  0.25773500  1
  Cu  Cu14  1  0.50000000  0.26006100  0.87458600  1
  Cu  Cu15  1  0.50000000  0.75146400  0.61927500  1
  C  C16  1  0.50000000  0.00023500  0.88541100  1
  C  C17  1  0.50000000  0.50462100  0.63501600  1
  C  C18  1  0.50000000  0.99700600  0.38770500  1
  C  C19  1  0.00000000  0.74131300  0.01731200  1
  C  C20  1  0.00000000  0.25581800  0.76055500  1
  C  C21  1  0.00000000  0.74877500  0.50646400  1
  C  C22  1  0.50000000  0.51976900  0.13698500  1
  C  C23  1  0.00000000  0.26070100  0.24392000  1
  C  C24  1  0.50000000  0.50020800  0.86665200  1
  C  C25  1  0.50000000  0.99026600  0.61427200  1
  C  C26  1  0.50000000  0.50089300  0.36439100  1
  C  C27  1  0.00000000  0.25439100  0.99119400  1
  C  C28  1  0.00000000  0.74628300  0.74245700  1
  C  C29  1  0.00000000  0.23547800  0.50251300  1
  C  C30  1  0.50000000  0.98190700  0.11174200  1
  C  C31  1  0.00000000  0.75558000  0.23549900  1
