# generated using pymatgen
data_Cu3NiC12
_symmetry_space_group_name_H-M   'P 1'
_cell_length_a   5.10927600
_cell_length_b   5.86610638
_cell_length_c   10.57097270
_cell_angle_alpha   106.07405306
_cell_angle_beta   94.57649008
_cell_angle_gamma   106.66712268
_symmetry_Int_Tables_number   1
_chemical_formula_structural   Cu3NiC12
_chemical_formula_sum   'Cu6 Ni2 C24'
_cell_volume   287.25676603
_cell_formula_units_Z   2
loop_
 _symmetry_equiv_pos_site_id
 _symmetry_equiv_pos_as_xyz
  1  'x, y, z'
loop_
 _atom_site_type_symbol
 _atom_site_label
 _atom_site_symmetry_multiplicity
 _atom_site_fract_x
 _atom_site_fract_y
 _atom_site_fract_z
 _atom_site_occupancy
  C  C0  1  0.49999400  0.74979800  0.00021300  1
  C  C1  1  0.49969600  0.12614700  0.74893700  1
  C  C2  1  0.50060200  0.37529500  0.25115300  1
  C  C3  1  0.50000000  0.00000000  0.50000000  1
  C  C4  1  0.50000600  0.25020200  0.99978700  1
  C  C5  1  0.49939800  0.62470500  0.74884700  1
  C  C6  1  0.50030400  0.87385300  0.25106300  1
  C  C7  1  0.50000000  0.50000000  0.50000000  1
  Ni  Ni8  1  0.00024600  0.68548700  0.37680100  1
  Ni  Ni9  1  0.99975400  0.31451300  0.62319900  1
  Cu  Cu10  1  0.99988400  0.93978900  0.87286800  1
  Cu  Cu11  1  0.99981900  0.56284100  0.12640600  1
  Cu  Cu12  1  0.99967600  0.18794500  0.37673500  1
  Cu  Cu13  1  0.00018100  0.43715900  0.87359400  1
  Cu  Cu14  1  0.00032400  0.81205500  0.62326500  1
  Cu  Cu15  1  0.00011600  0.06021100  0.12713200  1
  C  C16  1  0.78304400  0.35775500  0.44329600  1
  C  C17  1  0.22025200  0.53234700  0.31386100  1
  C  C18  1  0.77289300  0.59910800  0.93891700  1
  C  C19  1  0.22736500  0.77684300  0.80950200  1
  C  C20  1  0.22014700  0.15764900  0.56326300  1
  C  C21  1  0.77809600  0.98598700  0.68481400  1
  C  C22  1  0.77263500  0.22315700  0.19049800  1
  C  C23  1  0.22710700  0.40089200  0.06108300  1
  C  C24  1  0.77985300  0.84235100  0.43673700  1
  C  C25  1  0.22190400  0.01401300  0.31518600  1
  C  C26  1  0.77282100  0.09802000  0.93993900  1
  C  C27  1  0.22153500  0.27994000  0.80229100  1
  C  C28  1  0.77974800  0.46765300  0.68613900  1
  C  C29  1  0.77846500  0.72006000  0.19770900  1
  C  C30  1  0.21695600  0.64224500  0.55670400  1
  C  C31  1  0.22717900  0.90198000  0.06006100  1
