# generated using pymatgen
data_CuNiC10
_symmetry_space_group_name_H-M   'P 1'
_cell_length_a   5.63612600
_cell_length_b   10.18487600
_cell_length_c   12.25699182
_cell_angle_alpha   80.86539727
_cell_angle_beta   90.00000000
_cell_angle_gamma   90.00000000
_symmetry_Int_Tables_number   1
_chemical_formula_structural   CuNiC10
_chemical_formula_sum   'Cu4 Ni4 C40'
_cell_volume   694.66823264
_cell_formula_units_Z   4
loop_
 _symmetry_equiv_pos_site_id
 _symmetry_equiv_pos_as_xyz
  1  'x, y, z'
loop_
 _atom_site_type_symbol
 _atom_site_label
 _atom_site_symmetry_multiplicity
 _atom_site_fract_x
 _atom_site_fract_y
 _atom_site_fract_z
 _atom_site_occupancy
  C  C0  1  0.97837000  0.86936600  0.02462300  1
  C  C1  1  0.02163000  0.13063400  0.97537700  1
  C  C2  1  0.47837000  0.63063400  0.97537700  1
  C  C3  1  0.52163000  0.36936600  0.02462300  1
  C  C4  1  0.79656500  0.74754900  0.10316900  1
  C  C5  1  0.20343500  0.25245100  0.89683100  1
  C  C6  1  0.29656500  0.75245100  0.89683100  1
  C  C7  1  0.70343500  0.24754900  0.10316900  1
  C  C8  1  0.72268400  0.94543800  0.11152900  1
  C  C9  1  0.27731600  0.05456200  0.88847100  1
  C  C10  1  0.22268400  0.55456200  0.88847100  1
  C  C11  1  0.77731600  0.44543800  0.11152900  1
  C  C12  1  0.58965100  0.89356800  0.31599600  1
  C  C13  1  0.41034900  0.10643200  0.68400400  1
  C  C14  1  0.08965100  0.60643200  0.68400400  1
  C  C15  1  0.91034900  0.39356800  0.31599600  1
  C  C16  1  0.51145400  0.90616400  0.19245100  1
  C  C17  1  0.48854600  0.09383600  0.80754900  1
  C  C18  1  0.01145400  0.59383600  0.80754900  1
  C  C19  1  0.98854600  0.40616400  0.19245100  1
  Ni  Ni20  1  0.84085300  0.84576800  0.07934700  1
  Ni  Ni21  1  0.15914700  0.15423200  0.92065300  1
  Ni  Ni22  1  0.34085300  0.65423200  0.92065300  1
  Ni  Ni23  1  0.65914700  0.34576800  0.07934700  1
  C  C24  1  0.85348800  0.64657800  0.59141100  1
  C  C25  1  0.14651200  0.35342200  0.40858900  1
  C  C26  1  0.35348800  0.85342200  0.40858900  1
  C  C27  1  0.64651200  0.14657800  0.59141100  1
  Cu  Cu28  1  0.73133300  0.56591000  0.08355300  1
  Cu  Cu29  1  0.26866700  0.43409000  0.91644700  1
  Cu  Cu30  1  0.23133300  0.93409000  0.91644700  1
  Cu  Cu31  1  0.76866700  0.06591000  0.08355300  1
  C  C32  1  0.75878200  0.79623700  0.33373600  1
  C  C33  1  0.24121800  0.20376300  0.66626400  1
  C  C34  1  0.25878200  0.70376300  0.66626400  1
  C  C35  1  0.74121800  0.29623700  0.33373600  1
  C  C36  1  0.41675400  0.78590900  0.17737500  1
  C  C37  1  0.58324600  0.21409100  0.82262500  1
  C  C38  1  0.91675400  0.71409100  0.82262500  1
  C  C39  1  0.08324600  0.28590900  0.17737500  1
  C  C40  1  0.80657700  0.50917500  0.33356700  1
  C  C41  1  0.19342300  0.49082500  0.66643300  1
  C  C42  1  0.30657700  0.99082500  0.66643300  1
  C  C43  1  0.69342300  0.00917500  0.33356700  1
  C  C44  1  0.33753200  0.00018100  0.17218000  1
  C  C45  1  0.66246800  0.99981900  0.82782000  1
  C  C46  1  0.83753200  0.49981900  0.82782000  1
  C  C47  1  0.16246800  0.50018100  0.17218000  1
