# generated using pymatgen
data_Cu15Ni4C17
_symmetry_space_group_name_H-M   'P 1'
_cell_length_a   15.27165158
_cell_length_b   15.27165158
_cell_length_c   15.95710254
_cell_angle_alpha   90.66590733
_cell_angle_beta   90.66590733
_cell_angle_gamma   60.16317135
_symmetry_Int_Tables_number   1
_chemical_formula_structural   Cu15Ni4C17
_chemical_formula_sum   'Cu60 Ni16 C68'
_cell_volume   3227.96812678
_cell_formula_units_Z   4
loop_
 _symmetry_equiv_pos_site_id
 _symmetry_equiv_pos_as_xyz
  1  'x, y, z'
loop_
 _atom_site_type_symbol
 _atom_site_label
 _atom_site_symmetry_multiplicity
 _atom_site_fract_x
 _atom_site_fract_y
 _atom_site_fract_z
 _atom_site_occupancy
  C  C0  1  0.48656280  0.94906313  0.58601219  1
  C  C1  1  0.05093687  0.51343720  0.41398781  1
  C  C2  1  0.68078179  0.98209863  0.58861472  1
  C  C3  1  0.01790137  0.31921821  0.41138528  1
  C  C4  1  0.20298692  0.95102525  0.58753567  1
  C  C5  1  0.04897475  0.79701308  0.41246433  1
  C  C6  1  0.09272022  0.64529160  0.78549406  1
  C  C7  1  0.35470840  0.90727978  0.21450594  1
  C  C8  1  0.58195050  0.64993585  0.80400134  1
  C  C9  1  0.35006415  0.41804950  0.19599866  1
  C  C10  1  0.61894298  0.01679078  0.00166088  1
  C  C11  1  0.98320922  0.38105702  0.99833912  1
  C  C12  1  0.37874088  0.15005834  0.80166259  1
  C  C13  1  0.84994166  0.62125912  0.19833741  1
  C  C14  1  0.80099195  0.79163932  0.40162772  1
  C  C15  1  0.20836068  0.19900805  0.59837228  1
  C  C16  1  0.07897239  0.15323400  0.80732768  1
  C  C17  1  0.84676600  0.92102761  0.19267232  1
  C  C18  1  0.11439342  0.75475459  0.99894994  1
  C  C19  1  0.24524541  0.88560658  0.00105006  1
  C  C20  1  0.00828123  0.99171877  -0.00000000  1
  C  C21  1  0.64983898  0.11734948  0.20563414  1
  C  C22  1  0.88265052  0.35016102  0.79436586  1
  C  C23  1  0.18252552  0.75668468  0.58664033  1
  C  C24  1  0.24331532  0.81747448  0.41335967  1
  C  C25  1  0.47708708  0.88470791  0.00011701  1
  C  C26  1  0.11529209  0.52291292  0.99988299  1
  C  C27  1  0.33894971  0.66105029  -0.00000000  1
  C  C28  1  0.60333131  0.24818834  0.99776356  1
  C  C29  1  0.75181166  0.39666869  0.00223644  1
  C  C30  1  0.53680307  0.02175007  0.41541984  1
  C  C31  1  0.97824993  0.46319693  0.58458016  1
  C  C32  1  0.38497098  0.64851952  0.80731861  1
  C  C33  1  0.35148048  0.61502902  0.19268139  1
  C  C34  1  0.70742210  0.79309614  0.99879859  1
  C  C35  1  0.20690386  0.29257790  0.00120141  1
  C  C36  1  0.68306823  0.26114799  0.58637332  1
  C  C37  1  0.73885201  0.31693177  0.41362668  1
  C  C38  1  0.85372768  0.11563303  0.20118137  1
  C  C39  1  0.88436697  0.14627232  0.79881863  1
  C  C40  1  0.55472443  0.29258408  0.41453580  1
  C  C41  1  0.70741592  0.44527557  0.58546420  1
  C  C42  1  0.38578330  0.34299631  0.80330612  1
  C  C43  1  0.65700369  0.61421670  0.19669388  1
  C  C44  1  0.52682611  0.82864751  0.41474334  1
  C  C45  1  0.17135249  0.47317389  0.58525666  1
  C  C46  1  0.37867439  0.85681463  0.78978802  1
  C  C47  1  0.14318537  0.62132561  0.21021198  1
  C  C48  1  0.88704601  0.84187668  0.80685265  1
  C  C49  1  0.15812332  0.11295399  0.19314735  1
  C  C50  1  0.92985265  0.97541533  0.59483934  1
  C  C51  1  0.02458467  0.07014735  0.40516066  1
  C  C52  1  0.42596389  0.47631427  0.59534970  1
  C  C53  1  0.52368573  0.57403611  0.40465030  1
  C  C54  1  0.39867633  0.10314757  0.99852477  1
  C  C55  1  0.89685243  0.60132367  0.00147523  1
  C  C56  1  0.58893765  0.14685674  0.79171502  1
  C  C57  1  0.85314326  0.41106235  0.20828498  1
  C  C58  1  0.68997154  0.71350781  0.59405185  1
  C  C59  1  0.28649219  0.31002846  0.40594815  1
  C  C60  1  0.88112094  0.65093217  0.80306062  1
  C  C61  1  0.34906783  0.11887906  0.19693938  1
  C  C62  1  0.52900382  0.47099618  -0.00000000  1
  C  C63  1  0.81523086  0.18476914  -0.00000000  1
  C  C64  1  0.86764440  0.88395815  0.00063328  1
  C  C65  1  0.11604185  0.13235560  0.99936672  1
  C  C66  1  0.35919959  0.38685901  0.00129236  1
  C  C67  1  0.61314099  0.64080041  0.99870764  1
  Ni  Ni68  1  0.44859522  0.71004071  0.57562535  1
  Ni  Ni69  1  0.28995929  0.55140478  0.42437465  1
  Ni  Ni70  1  0.44041577  0.22497718  0.57410742  1
  Ni  Ni71  1  0.77502282  0.55958423  0.42589258  1
  Ni  Ni72  1  0.78547628  0.04470753  0.42494458  1
  Ni  Ni73  1  0.95529247  0.21452372  0.57505542  1
  Ni  Ni74  1  0.60696571  0.89149546  0.78823865  1
  Ni  Ni75  1  0.10850454  0.39303429  0.21176135  1
  Ni  Ni76  1  0.10940717  0.39203440  0.78830775  1
  Ni  Ni77  1  0.60796560  0.89059283  0.21169225  1
  Ni  Ni78  1  0.11950812  0.87931995  0.78885589  1
  Ni  Ni79  1  0.12068005  0.88049188  0.21114411  1
  Ni  Ni80  1  0.62351218  0.37722625  0.21119151  1
  Ni  Ni81  1  0.62277375  0.37648782  0.78880849  1
  Ni  Ni82  1  0.27260019  0.06562647  0.42509540  1
  Ni  Ni83  1  0.93437353  0.72739981  0.57490460  1
  Cu  Cu84  1  0.63012728  0.11529148  0.36327877  1
  Cu  Cu85  1  0.88470852  0.36987272  0.63672123  1
  Cu  Cu86  1  0.08339431  0.91660569  0.50000000  1
  Cu  Cu87  1  0.59640824  0.16110456  0.63481507  1
  Cu  Cu88  1  0.83889544  0.40359176  0.36518493  1
  Cu  Cu89  1  0.54722519  0.29854222  0.14670148  1
  Cu  Cu90  1  0.70145778  0.45277481  0.85329852  1
  Cu  Cu91  1  0.86021880  0.87282175  0.65244965  1
  Cu  Cu92  1  0.12717825  0.13978120  0.34755035  1
  Cu  Cu93  1  0.18306302  0.47237455  0.85437310  1
  Cu  Cu94  1  0.52762545  0.81693698  0.14562690  1
  Cu  Cu95  1  0.69003168  0.73944633  0.85432282  1
  Cu  Cu96  1  0.26055367  0.30996832  0.14567718  1
  Cu  Cu97  1  0.20078933  0.95173757  0.85546561  1
  Cu  Cu98  1  0.04826243  0.79921067  0.14453439  1
  Cu  Cu99  1  0.38283346  0.86813785  0.63308596  1
  Cu  Cu100  1  0.13186215  0.61716654  0.36691404  1
  Cu  Cu101  1  0.95825133  0.46137166  0.85567749  1
  Cu  Cu102  1  0.53862834  0.04174867  0.14432251  1
  Cu  Cu103  1  0.35804185  0.65475927  0.64942436  1
  Cu  Cu104  1  0.34524073  0.64195815  0.35057564  1
  Cu  Cu105  1  0.69492701  0.22556694  0.85681442  1
  Cu  Cu106  1  0.77443306  0.30507299  0.14318558  1
  Cu  Cu107  1  0.94764983  0.22437308  0.93465036  1
  Cu  Cu108  1  0.77562692  0.05235017  0.06534964  1
  Cu  Cu109  1  0.44482992  0.72723252  0.93354438  1
  Cu  Cu110  1  0.27276748  0.55517008  0.06645562  1
  Cu  Cu111  1  0.19211846  0.24040357  0.85582643  1
  Cu  Cu112  1  0.75959643  0.80788154  0.14417357  1
  Cu  Cu113  1  0.45614067  0.96135322  0.85619083  1
  Cu  Cu114  1  0.03864678  0.54385933  0.14380917  1
  Cu  Cu115  1  0.64893622  0.86251002  0.49937375  1
  Cu  Cu116  1  0.13748998  0.35106378  0.50062625  1
  Cu  Cu117  1  0.38775070  0.12920267  0.64374100  1
  Cu  Cu118  1  0.87079733  0.61224930  0.35625900  1
  Cu  Cu119  1  0.35464246  0.37241417  0.64853445  1
  Cu  Cu120  1  0.62758583  0.64535754  0.35146555  1
  Cu  Cu121  1  0.59828002  0.62972831  0.64706083  1
  Cu  Cu122  1  0.37027169  0.40171998  0.35293917  1
  Cu  Cu123  1  0.84411597  0.13787092  0.35912127  1
  Cu  Cu124  1  0.86212908  0.15588403  0.64087873  1
  Cu  Cu125  1  0.57861032  0.42138968  0.50000000  1
  Cu  Cu126  1  0.09434476  0.65448547  0.62885284  1
  Cu  Cu127  1  0.34551453  0.90565524  0.37114716  1
  Cu  Cu128  1  0.36142032  0.12604677  0.35589030  1
  Cu  Cu129  1  0.87395323  0.63857968  0.64410970  1
  Cu  Cu130  1  0.47135174  0.45740454  0.85585563  1
  Cu  Cu131  1  0.54259546  0.52864826  0.14414437  1
  Cu  Cu132  1  0.68211972  0.97020072  0.85515767  1
  Cu  Cu133  1  0.02979928  0.31788028  0.14484233  1
  Cu  Cu134  1  0.95425136  0.71594501  0.93455177  1
  Cu  Cu135  1  0.28405499  0.04574864  0.06544823  1
  Cu  Cu136  1  0.18959494  0.72812307  0.85589088  1
  Cu  Cu137  1  0.27187693  0.81040506  0.14410912  1
  Cu  Cu138  1  0.86838972  0.89881595  0.34848355  1
  Cu  Cu139  1  0.10118405  0.13161028  0.65151645  1
  Cu  Cu140  1  0.45306576  0.22039062  0.93377767  1
  Cu  Cu141  1  0.77960938  0.54693424  0.06622233  1
  Cu  Cu142  1  0.96700015  0.96196911  0.85464416  1
  Cu  Cu143  1  0.03803089  0.03299985  0.14535584  1
