# generated using pymatgen
data_Cu3Ni3C16
_symmetry_space_group_name_H-M   'P 1'
_cell_length_a   10.14711220
_cell_length_b   10.14711220
_cell_length_c   7.11982800
_cell_angle_alpha   90.00000000
_cell_angle_beta   90.00000000
_cell_angle_gamma   120.00000132
_symmetry_Int_Tables_number   1
_chemical_formula_structural   Cu3Ni3C16
_chemical_formula_sum   'Cu6 Ni6 C32'
_cell_volume   634.87036223
_cell_formula_units_Z   2
loop_
 _symmetry_equiv_pos_site_id
 _symmetry_equiv_pos_as_xyz
  1  'x, y, z'
loop_
 _atom_site_type_symbol
 _atom_site_label
 _atom_site_symmetry_multiplicity
 _atom_site_fract_x
 _atom_site_fract_y
 _atom_site_fract_z
 _atom_site_occupancy
  Ni  Ni0  1  0.50000000  0.00000000  0.00000000  1
  Ni  Ni1  1  0.50000000  0.50000000  0.00000000  1
  Ni  Ni2  1  0.00000000  0.50000000  0.00000000  1
  Ni  Ni3  1  0.50000000  0.00000000  0.50000000  1
  Ni  Ni4  1  0.50000000  0.50000000  0.50000000  1
  Ni  Ni5  1  0.00000000  0.50000000  0.50000000  1
  C  C6  1  0.60781500  0.80885300  0.75000000  1
  C  C7  1  0.20103900  0.39218500  0.75000000  1
  C  C8  1  0.19114700  0.79896100  0.75000000  1
  C  C9  1  0.39218500  0.19114700  0.25000000  1
  C  C10  1  0.79896100  0.60781500  0.25000000  1
  C  C11  1  0.80885300  0.20103900  0.25000000  1
  C  C12  1  0.66666700  0.33333300  0.75000000  1
  C  C13  1  0.33333300  0.66666700  0.25000000  1
  Cu  Cu14  1  0.84747300  0.13316400  0.75000000  1
  Cu  Cu15  1  0.28569200  0.15252700  0.75000000  1
  Cu  Cu16  1  0.86683600  0.71430800  0.75000000  1
  Cu  Cu17  1  0.15252700  0.86683600  0.25000000  1
  Cu  Cu18  1  0.71430800  0.84747300  0.25000000  1
  Cu  Cu19  1  0.13316400  0.28569200  0.25000000  1
  C  C20  1  0.65093700  0.18843000  0.75000000  1
  C  C21  1  0.53749300  0.34906300  0.75000000  1
  C  C22  1  0.81157000  0.46250700  0.75000000  1
  C  C23  1  0.34906300  0.81157000  0.25000000  1
  C  C24  1  0.46250700  0.65093700  0.25000000  1
  C  C25  1  0.18843000  0.53749300  0.25000000  1
  C  C26  1  0.34583400  0.89351000  0.75000000  1
  C  C27  1  0.54767500  0.65416600  0.75000000  1
  C  C28  1  0.10649000  0.45232500  0.75000000  1
  C  C29  1  0.65416600  0.10649000  0.25000000  1
  C  C30  1  0.45232500  0.34583400  0.25000000  1
  C  C31  1  0.89351000  0.54767500  0.25000000  1
  C  C32  1  0.64829100  0.89402400  0.91674600  1
  C  C33  1  0.24573300  0.35170900  0.91674600  1
  C  C34  1  0.10597600  0.75426700  0.91674600  1
  C  C35  1  0.35170900  0.10597600  0.41674600  1
  C  C36  1  0.75426700  0.64829100  0.41674600  1
  C  C37  1  0.89402400  0.24573300  0.41674600  1
  C  C38  1  0.35170900  0.10597600  0.08325400  1
  C  C39  1  0.75426700  0.64829100  0.08325400  1
  C  C40  1  0.89402400  0.24573300  0.08325400  1
  C  C41  1  0.64829100  0.89402400  0.58325400  1
  C  C42  1  0.24573300  0.35170900  0.58325400  1
  C  C43  1  0.10597600  0.75426700  0.58325400  1
