# generated using pymatgen
data_CuNi2C
_symmetry_space_group_name_H-M   'P 1'
_cell_length_a   4.45121800
_cell_length_b   5.56495199
_cell_length_c   6.59264400
_cell_angle_alpha   90.00000000
_cell_angle_beta   90.00000000
_cell_angle_gamma   113.57400189
_symmetry_Int_Tables_number   1
_chemical_formula_structural   CuNi2C
_chemical_formula_sum   'Cu2 Ni4 C2'
_cell_volume   149.67641405
_cell_formula_units_Z   2
loop_
 _symmetry_equiv_pos_site_id
 _symmetry_equiv_pos_as_xyz
  1  'x, y, z'
loop_
 _atom_site_type_symbol
 _atom_site_label
 _atom_site_symmetry_multiplicity
 _atom_site_fract_x
 _atom_site_fract_y
 _atom_site_fract_z
 _atom_site_occupancy
  C  C0  1  0.41201600  0.82403200  0.25000000  1
  C  C1  1  0.58798400  0.17596800  0.75000000  1
  Ni  Ni2  1  0.12771400  0.25542800  0.44681300  1
  Ni  Ni3  1  0.87228600  0.74457200  0.55318700  1
  Ni  Ni4  1  0.12771400  0.25542800  0.05318700  1
  Ni  Ni5  1  0.87228600  0.74457200  0.94681300  1
  Cu  Cu6  1  0.69984400  0.39968800  0.25000000  1
  Cu  Cu7  1  0.30015600  0.60031200  0.75000000  1
