# generated using pymatgen
data_CuNi4C5
_symmetry_space_group_name_H-M   'P 1'
_cell_length_a   7.86886200
_cell_length_b   7.31403700
_cell_length_c   17.13244121
_cell_angle_alpha   78.36200167
_cell_angle_beta   90.00000000
_cell_angle_gamma   90.00000000
_symmetry_Int_Tables_number   1
_chemical_formula_structural   CuNi4C5
_chemical_formula_sum   'Cu4 Ni16 C20'
_cell_volume   965.75488492
_cell_formula_units_Z   4
loop_
 _symmetry_equiv_pos_site_id
 _symmetry_equiv_pos_as_xyz
  1  'x, y, z'
loop_
 _atom_site_type_symbol
 _atom_site_label
 _atom_site_symmetry_multiplicity
 _atom_site_fract_x
 _atom_site_fract_y
 _atom_site_fract_z
 _atom_site_occupancy
  C  C0  1  0.88944300  0.98697000  0.25223700  1
  C  C1  1  0.11055700  0.01303000  0.74776300  1
  C  C2  1  0.38944300  0.01303000  0.24776300  1
  C  C3  1  0.61055700  0.98697000  0.75223700  1
  C  C4  1  0.88193400  0.65810200  0.18285300  1
  C  C5  1  0.11806600  0.34189800  0.81714700  1
  C  C6  1  0.38193400  0.34189800  0.31714700  1
  C  C7  1  0.61806600  0.65810200  0.68285300  1
  C  C8  1  0.85791900  0.25227100  0.04448300  1
  C  C9  1  0.14208100  0.74772900  0.95551700  1
  C  C10  1  0.35791900  0.74772900  0.45551700  1
  C  C11  1  0.64208100  0.25227100  0.54448300  1
  C  C12  1  0.87696000  0.71916200  0.45077100  1
  C  C13  1  0.12304000  0.28083800  0.54922900  1
  C  C14  1  0.37696000  0.28083800  0.04922900  1
  C  C15  1  0.62304000  0.71916200  0.95077100  1
  Ni  Ni16  1  0.63409400  0.92314600  0.09615000  1
  Ni  Ni17  1  0.36590600  0.07685400  0.90385000  1
  Ni  Ni18  1  0.13409400  0.07685400  0.40385000  1
  Ni  Ni19  1  0.86590600  0.92314600  0.59615000  1
  Ni  Ni20  1  0.13126900  0.91772400  0.09888200  1
  Ni  Ni21  1  0.86873100  0.08227600  0.90111800  1
  Ni  Ni22  1  0.63126900  0.08227600  0.40111800  1
  Ni  Ni23  1  0.36873100  0.91772400  0.59888200  1
  Ni  Ni24  1  0.62497600  0.64384400  0.32457500  1
  Ni  Ni25  1  0.37502400  0.35615600  0.67542500  1
  Ni  Ni26  1  0.12497600  0.35615600  0.17542500  1
  Ni  Ni27  1  0.87502400  0.64384400  0.82457500  1
  Ni  Ni28  1  0.63604100  0.34916800  0.17903700  1
  Ni  Ni29  1  0.36395900  0.65083200  0.82096300  1
  Ni  Ni30  1  0.13604100  0.65083200  0.32096300  1
  Ni  Ni31  1  0.86395900  0.34916800  0.67903700  1
  Cu  Cu32  1  0.38554400  0.59866200  0.01931600  1
  Cu  Cu33  1  0.61445600  0.40133800  0.98068400  1
  Cu  Cu34  1  0.88554400  0.40133800  0.48068400  1
  Cu  Cu35  1  0.11445600  0.59866200  0.51931600  1
  C  C36  1  0.87937900  0.61428900  0.03851200  1
  C  C37  1  0.12062100  0.38571100  0.96148800  1
  C  C38  1  0.37937900  0.38571100  0.46148800  1
  C  C39  1  0.62062100  0.61428900  0.53851200  1
