# generated using pymatgen
data_CuNiC11
_symmetry_space_group_name_H-M   'P 1'
_cell_length_a   12.71903906
_cell_length_b   12.71903906
_cell_length_c   12.71903906
_cell_angle_alpha   147.19423370
_cell_angle_beta   120.19068819
_cell_angle_gamma   69.91635864
_symmetry_Int_Tables_number   1
_chemical_formula_structural   CuNiC11
_chemical_formula_sum   'Cu4 Ni4 C44'
_cell_volume   949.67269190
_cell_formula_units_Z   4
loop_
 _symmetry_equiv_pos_site_id
 _symmetry_equiv_pos_as_xyz
  1  'x, y, z'
loop_
 _atom_site_type_symbol
 _atom_site_label
 _atom_site_symmetry_multiplicity
 _atom_site_fract_x
 _atom_site_fract_y
 _atom_site_fract_z
 _atom_site_occupancy
  C  C0  1  0.23934200  0.62373800  0.54796400  1
  C  C1  1  0.26065800  0.80862200  0.38439600  1
  C  C2  1  0.92422600  0.87626200  0.11560400  1
  C  C3  1  0.57577400  0.69137800  0.95203600  1
  C  C4  1  0.76065800  0.37626200  0.45203600  1
  C  C5  1  0.73934200  0.19137800  0.61560400  1
  C  C6  1  0.07577400  0.12373800  0.88439600  1
  C  C7  1  0.42422600  0.30862200  0.04796400  1
  Ni  Ni8  1  0.16591800  0.75000000  0.91591800  1
  Ni  Ni9  1  0.33408200  0.25000000  0.58408200  1
  Ni  Ni10  1  0.83408200  0.25000000  0.08408200  1
  Ni  Ni11  1  0.66591800  0.75000000  0.41591800  1
  Cu  Cu12  1  0.92673700  0.75000000  0.67673700  1
  Cu  Cu13  1  0.57326300  0.25000000  0.82326300  1
  Cu  Cu14  1  0.07326300  0.25000000  0.32326300  1
  Cu  Cu15  1  0.42673700  0.75000000  0.17673700  1
  C  C16  1  0.08719000  0.33719000  0.75000000  1
  C  C17  1  0.41281000  0.16281000  0.25000000  1
  C  C18  1  0.91281000  0.66281000  0.25000000  1
  C  C19  1  0.58719000  0.83719000  0.75000000  1
  C  C20  1  0.94211200  0.71582000  0.77542100  1
  C  C21  1  0.55788800  0.33330900  0.77370800  1
  C  C22  1  0.05960100  0.78418000  0.72629200  1
  C  C23  1  0.44039900  0.16669100  0.72457900  1
  C  C24  1  0.05788800  0.28418000  0.22457900  1
  C  C25  1  0.44211200  0.66669100  0.22629200  1
  C  C26  1  0.94039900  0.21582000  0.27370800  1
  C  C27  1  0.55960100  0.83330900  0.27542100  1
  C  C28  1  0.10076300  0.58875100  0.91695500  1
  C  C29  1  0.39923700  0.31619200  0.48798800  1
  C  C30  1  0.32820400  0.91124900  0.01201200  1
  C  C31  1  0.17179600  0.18380800  0.58304500  1
  C  C32  1  0.89923700  0.41124900  0.08304500  1
  C  C33  1  0.60076300  0.68380800  0.51201200  1
  C  C34  1  0.67179600  0.08875100  0.98798800  1
  C  C35  1  0.82820400  0.81619200  0.41695500  1
  C  C36  1  0.35998100  0.59160400  0.93200200  1
  C  C37  1  0.14001900  0.07202200  0.23162400  1
  C  C38  1  0.34039800  0.90839600  0.26837600  1
  C  C39  1  0.15960200  0.42797800  0.56799800  1
  C  C40  1  0.64001900  0.40839600  0.06799800  1
  C  C41  1  0.85998100  0.92797800  0.76837600  1
  C  C42  1  0.65960200  0.09160400  0.73162400  1
  C  C43  1  0.84039800  0.57202200  0.43200200  1
  C  C44  1  0.92662800  0.22290300  0.57420600  1
  C  C45  1  0.57337200  0.14757700  0.29627400  1
  C  C46  1  0.35130300  0.27709700  0.20372600  1
  C  C47  1  0.14869700  0.35242300  0.92579400  1
  C  C48  1  0.07337200  0.77709700  0.42579400  1
  C  C49  1  0.42662800  0.85242300  0.70372600  1
  C  C50  1  0.64869700  0.72290300  0.79627400  1
  C  C51  1  0.85130300  0.64757700  0.07420600  1
