# generated using pymatgen
data_CuNi14C
_symmetry_space_group_name_H-M   'P 1'
_cell_length_a   6.45372173
_cell_length_b   6.44224162
_cell_length_c   10.52225363
_cell_angle_alpha   90.00000000
_cell_angle_beta   90.00000000
_cell_angle_gamma   119.94117948
_symmetry_Int_Tables_number   1
_chemical_formula_structural   CuNi14C
_chemical_formula_sum   'Cu1 Ni14 C1'
_cell_volume   379.09124093
_cell_formula_units_Z   1
loop_
 _symmetry_equiv_pos_site_id
 _symmetry_equiv_pos_as_xyz
  1  'x, y, z'
loop_
 _atom_site_type_symbol
 _atom_site_label
 _atom_site_symmetry_multiplicity
 _atom_site_fract_x
 _atom_site_fract_y
 _atom_site_fract_z
 _atom_site_occupancy
  C  C0  1  0.16509460  0.33254680  0.12500000  1
  Ni  Ni1  1  0.16694877  0.33347388  0.62500000  1
  Ni  Ni2  1  0.16692471  0.83346185  0.62500000  1
  Ni  Ni3  1  0.66328409  0.32475751  0.12500000  1
  Ni  Ni4  1  0.66623812  0.33319575  0.62500000  1
  Ni  Ni5  1  0.66328409  0.83852558  0.12500000  1
  Ni  Ni6  1  0.66623812  0.83304136  0.62500000  1
  Ni  Ni7  1  0.33512664  0.16396493  0.37993768  1
  Ni  Ni8  1  0.33512664  0.16396493  0.87006232  1
  Ni  Ni9  1  0.33512664  0.67116271  0.37993768  1
  Ni  Ni10  1  0.33512664  0.67116271  0.87006232  1
  Ni  Ni11  1  0.82877678  0.16438889  0.38191554  1
  Ni  Ni12  1  0.82877678  0.16438889  0.86808446  1
  Ni  Ni13  1  0.83373206  0.66686653  0.37082261  1
  Ni  Ni14  1  0.83373206  0.66686653  0.87917739  1
  Cu  Cu15  1  0.17646327  0.83823114  0.12500000  1
