# generated using pymatgen
data_Cu2NiC3
_symmetry_space_group_name_H-M   'P 1'
_cell_length_a   3.51154900
_cell_length_b   6.18832800
_cell_length_c   6.61618193
_cell_angle_alpha   75.41636457
_cell_angle_beta   90.00000000
_cell_angle_gamma   90.00000000
_symmetry_Int_Tables_number   1
_chemical_formula_structural   Cu2NiC3
_chemical_formula_sum   'Cu4 Ni2 C6'
_cell_volume   139.14148834
_cell_formula_units_Z   2
loop_
 _symmetry_equiv_pos_site_id
 _symmetry_equiv_pos_as_xyz
  1  'x, y, z'
loop_
 _atom_site_type_symbol
 _atom_site_label
 _atom_site_symmetry_multiplicity
 _atom_site_fract_x
 _atom_site_fract_y
 _atom_site_fract_z
 _atom_site_occupancy
  C  C0  1  0.25000000  0.72118500  0.10500300  1
  C  C1  1  0.75000000  0.27881500  0.89499700  1
  C  C2  1  0.75000000  0.87181400  0.76714200  1
  C  C3  1  0.25000000  0.12818600  0.23285800  1
  C  C4  1  0.75000000  0.36277500  0.30162100  1
  C  C5  1  0.25000000  0.63722500  0.69837900  1
  Ni  Ni6  1  0.75000000  0.77274600  0.41930900  1
  Ni  Ni7  1  0.25000000  0.22725400  0.58069100  1
  Cu  Cu8  1  0.75000000  0.89361100  0.90883200  1
  Cu  Cu9  1  0.25000000  0.10638900  0.09116800  1
  Cu  Cu10  1  0.75000000  0.45650500  0.15761900  1
  Cu  Cu11  1  0.25000000  0.54349500  0.84238100  1
