# generated using pymatgen
data_Cu2Ni2C5
_symmetry_space_group_name_H-M   'P 1'
_cell_length_a   3.53118600
_cell_length_b   7.06145082
_cell_length_c   12.47001218
_cell_angle_alpha   92.18127064
_cell_angle_beta   92.33878362
_cell_angle_gamma   90.46725931
_symmetry_Int_Tables_number   1
_chemical_formula_structural   Cu2Ni2C5
_chemical_formula_sum   'Cu4 Ni4 C10'
_cell_volume   310.44463752
_cell_formula_units_Z   2
loop_
 _symmetry_equiv_pos_site_id
 _symmetry_equiv_pos_as_xyz
  1  'x, y, z'
loop_
 _atom_site_type_symbol
 _atom_site_label
 _atom_site_symmetry_multiplicity
 _atom_site_fract_x
 _atom_site_fract_y
 _atom_site_fract_z
 _atom_site_occupancy
  Ni  Ni0  1  0.50026600  0.37519700  0.09375300  1
  Ni  Ni1  1  0.48951300  0.61637800  0.88353000  1
  Ni  Ni2  1  0.48853300  0.87800200  0.38655500  1
  Ni  Ni3  1  0.51221500  0.11932800  0.60211900  1
  Cu  Cu4  1  0.98864800  0.31877600  0.37682200  1
  Cu  Cu5  1  0.01274000  0.72651000  0.63089700  1
  Cu  Cu6  1  0.98361900  0.11691800  0.88996900  1
  Cu  Cu7  1  0.01447300  0.77224600  0.13611400  1
  C  C8  1  0.00318600  0.48158100  0.51633600  1
  C  C9  1  0.02173800  0.07341700  0.66494500  1
  C  C10  1  0.98164800  0.69622400  0.83155600  1
  C  C11  1  0.01187800  0.43538000  0.16331500  1
  C  C12  1  0.48671900  0.31260000  0.92284500  1
  C  C13  1  0.50774400  0.66671100  0.04291000  1
  C  C14  1  0.97749200  0.86314100  0.32372600  1
  C  C15  1  0.49255300  0.16836800  0.43962800  1
  C  C16  1  0.01950900  0.05053600  0.04986500  1
  C  C17  1  0.50751900  0.82868800  0.54511400  1
