# generated using pymatgen
data_Cu2NiC12
_symmetry_space_group_name_H-M   'P 1'
_cell_length_a   5.51742700
_cell_length_b   5.96096539
_cell_length_c   7.29635897
_cell_angle_alpha   89.17964218
_cell_angle_beta   89.44061519
_cell_angle_gamma   76.40744636
_symmetry_Int_Tables_number   1
_chemical_formula_structural   Cu2NiC12
_chemical_formula_sum   'Cu2 Ni1 C12'
_cell_volume   233.22115953
_cell_formula_units_Z   1
loop_
 _symmetry_equiv_pos_site_id
 _symmetry_equiv_pos_as_xyz
  1  'x, y, z'
loop_
 _atom_site_type_symbol
 _atom_site_label
 _atom_site_symmetry_multiplicity
 _atom_site_fract_x
 _atom_site_fract_y
 _atom_site_fract_z
 _atom_site_occupancy
  Ni  Ni0  1  0.48875600  0.59051800  0.27096000  1
  Cu  Cu1  1  0.76816000  0.03350800  0.02103400  1
  Cu  Cu2  1  0.47886200  0.59110400  0.79646600  1
  C  C3  1  0.04638000  0.47359700  0.06609800  1
  C  C4  1  0.97293200  0.40109200  0.52953200  1
  C  C5  1  0.52923300  0.03486300  0.52973800  1
  C  C6  1  0.16060500  0.75043400  0.02162700  1
  C  C7  1  0.33457500  0.35945800  0.53319900  1
  C  C8  1  0.38558300  0.32901500  0.05700200  1
  C  C9  1  0.51170000  0.98484100  0.77615300  1
  C  C10  1  0.52279200  0.99656500  0.28316400  1
  C  C11  1  0.72159200  0.65431400  0.03612800  1
  C  C12  1  0.69886300  0.68603300  0.52491600  1
  C  C13  1  0.89230200  0.31842300  0.77428100  1
  C  C14  1  0.91945200  0.32126200  0.27776900  1
