# generated using pymatgen
data_Cu30NiC33
_symmetry_space_group_name_H-M   'P 1'
_cell_length_a   8.61074800
_cell_length_b   8.61074800
_cell_length_c   8.59346100
_cell_angle_alpha   90.00000000
_cell_angle_beta   90.00000000
_cell_angle_gamma   90.00000000
_symmetry_Int_Tables_number   1
_chemical_formula_structural   Cu30NiC33
_chemical_formula_sum   'Cu30 Ni1 C33'
_cell_volume   637.16200360
_cell_formula_units_Z   1
loop_
 _symmetry_equiv_pos_site_id
 _symmetry_equiv_pos_as_xyz
  1  'x, y, z'
loop_
 _atom_site_type_symbol
 _atom_site_label
 _atom_site_symmetry_multiplicity
 _atom_site_fract_x
 _atom_site_fract_y
 _atom_site_fract_z
 _atom_site_occupancy
  Ni  Ni0  1  0.50000000  0.50000000  0.00000000  1
  Cu  Cu1  1  0.50000000  0.00000000  0.00000000  1
  Cu  Cu2  1  0.00000000  0.50000000  0.00000000  1
  Cu  Cu3  1  0.00000000  0.00000000  0.50000000  1
  Cu  Cu4  1  0.50000000  0.00000000  0.50000000  1
  Cu  Cu5  1  0.00000000  0.50000000  0.50000000  1
  Cu  Cu6  1  0.50000000  0.50000000  0.50000000  1
  Cu  Cu7  1  0.23965000  0.23965000  0.00000000  1
  Cu  Cu8  1  0.76035000  0.23965000  0.00000000  1
  Cu  Cu9  1  0.23965000  0.76035000  0.00000000  1
  Cu  Cu10  1  0.76035000  0.76035000  0.00000000  1
  Cu  Cu11  1  0.24768400  0.24768400  0.50000000  1
  Cu  Cu12  1  0.75231600  0.24768400  0.50000000  1
  Cu  Cu13  1  0.24768400  0.75231600  0.50000000  1
  Cu  Cu14  1  0.75231600  0.75231600  0.50000000  1
  Cu  Cu15  1  0.24607300  0.00000000  0.24856800  1
  Cu  Cu16  1  0.75392700  0.00000000  0.24856800  1
  Cu  Cu17  1  0.24220200  0.50000000  0.25604700  1
  Cu  Cu18  1  0.75779800  0.50000000  0.25604700  1
  Cu  Cu19  1  0.24607300  0.00000000  0.75143200  1
  Cu  Cu20  1  0.75392700  0.00000000  0.75143200  1
  Cu  Cu21  1  0.24220200  0.50000000  0.74395300  1
  Cu  Cu22  1  0.75779800  0.50000000  0.74395300  1
  Cu  Cu23  1  0.00000000  0.24607300  0.24856800  1
  Cu  Cu24  1  0.50000000  0.24220200  0.25604700  1
  Cu  Cu25  1  0.00000000  0.75392700  0.24856800  1
  Cu  Cu26  1  0.50000000  0.75779800  0.25604700  1
  Cu  Cu27  1  0.00000000  0.24607300  0.75143200  1
  Cu  Cu28  1  0.50000000  0.24220200  0.74395300  1
  Cu  Cu29  1  0.00000000  0.75392700  0.75143200  1
  Cu  Cu30  1  0.50000000  0.75779800  0.74395300  1
  C  C31  1  0.00000000  0.00000000  0.00000000  1
  C  C32  1  0.00000000  0.00000000  0.26358700  1
  C  C33  1  0.50000000  0.00000000  0.25148400  1
  C  C34  1  0.00000000  0.50000000  0.25148400  1
  C  C35  1  0.50000000  0.50000000  0.24532200  1
  C  C36  1  0.00000000  0.00000000  0.73641300  1
  C  C37  1  0.50000000  0.00000000  0.74851600  1
  C  C38  1  0.00000000  0.50000000  0.74851600  1
  C  C39  1  0.50000000  0.50000000  0.75467800  1
  C  C40  1  0.25126600  0.25126600  0.24872200  1
  C  C41  1  0.74873400  0.25126600  0.24872200  1
  C  C42  1  0.25126600  0.74873400  0.24872200  1
  C  C43  1  0.74873400  0.74873400  0.24872200  1
  C  C44  1  0.25126600  0.25126600  0.75127800  1
  C  C45  1  0.74873400  0.25126600  0.75127800  1
  C  C46  1  0.25126600  0.74873400  0.75127800  1
  C  C47  1  0.74873400  0.74873400  0.75127800  1
  C  C48  1  0.26705600  0.00000000  0.00000000  1
  C  C49  1  0.73294400  0.00000000  0.00000000  1
  C  C50  1  0.25706900  0.50000000  0.00000000  1
  C  C51  1  0.74293100  0.50000000  0.00000000  1
  C  C52  1  0.25313500  0.00000000  0.50000000  1
  C  C53  1  0.74686500  0.00000000  0.50000000  1
  C  C54  1  0.25239300  0.50000000  0.50000000  1
  C  C55  1  0.74760700  0.50000000  0.50000000  1
  C  C56  1  0.00000000  0.26705600  0.00000000  1
  C  C57  1  0.50000000  0.25706900  0.00000000  1
  C  C58  1  0.00000000  0.73294400  0.00000000  1
  C  C59  1  0.50000000  0.74293100  0.00000000  1
  C  C60  1  0.00000000  0.25313500  0.50000000  1
  C  C61  1  0.50000000  0.25239300  0.50000000  1
  C  C62  1  0.00000000  0.74686500  0.50000000  1
  C  C63  1  0.50000000  0.74760700  0.50000000  1
