# generated using pymatgen
data_Cu6NiC2
_symmetry_space_group_name_H-M   'P 1'
_cell_length_a   5.13658900
_cell_length_b   7.17448235
_cell_length_c   8.02030681
_cell_angle_alpha   89.63313333
_cell_angle_beta   90.00000000
_cell_angle_gamma   90.00000000
_symmetry_Int_Tables_number   1
_chemical_formula_structural   Cu6NiC2
_chemical_formula_sum   'Cu12 Ni2 C4'
_cell_volume   295.56123198
_cell_formula_units_Z   2
loop_
 _symmetry_equiv_pos_site_id
 _symmetry_equiv_pos_as_xyz
  1  'x, y, z'
loop_
 _atom_site_type_symbol
 _atom_site_label
 _atom_site_symmetry_multiplicity
 _atom_site_fract_x
 _atom_site_fract_y
 _atom_site_fract_z
 _atom_site_occupancy
  C  C0  1  0.40415900  0.69657500  0.83200600  1
  C  C1  1  0.90415900  0.30342500  0.16799400  1
  C  C2  1  0.33386700  0.57011100  0.21528300  1
  C  C3  1  0.83386700  0.42988900  0.78471700  1
  Ni  Ni4  1  0.54165400  0.14281100  0.56945000  1
  Ni  Ni5  1  0.04165400  0.85718900  0.43055000  1
  Cu  Cu6  1  0.22729900  0.62377200  0.04398800  1
  Cu  Cu7  1  0.72729900  0.37622800  0.95601200  1
  Cu  Cu8  1  0.11576300  0.43600100  0.74778000  1
  Cu  Cu9  1  0.61576300  0.56399900  0.25222000  1
  Cu  Cu10  1  0.63707300  0.82000800  0.91355900  1
  Cu  Cu11  1  0.13707300  0.17999200  0.08644100  1
  Cu  Cu12  1  0.63482200  0.54205700  0.68602200  1
  Cu  Cu13  1  0.13482200  0.45794300  0.31397800  1
  Cu  Cu14  1  0.23086000  0.83904200  0.71597600  1
  Cu  Cu15  1  0.73086000  0.16095800  0.28402400  1
  Cu  Cu16  1  0.22040300  0.84718100  0.34186300  1
  Cu  Cu17  1  0.72040300  0.15281900  0.65813700  1
