# generated using pymatgen
data_Cu3NiC10
_symmetry_space_group_name_H-M   'P 1'
_cell_length_a   4.74363800
_cell_length_b   12.75180500
_cell_length_c   14.44537600
_cell_angle_alpha   90.00000000
_cell_angle_beta   90.00000000
_cell_angle_gamma   90.00000000
_symmetry_Int_Tables_number   1
_chemical_formula_structural   Cu3NiC10
_chemical_formula_sum   'Cu6 Ni2 C20'
_cell_volume   873.80002526
_cell_formula_units_Z   2
loop_
 _symmetry_equiv_pos_site_id
 _symmetry_equiv_pos_as_xyz
  1  'x, y, z'
loop_
 _atom_site_type_symbol
 _atom_site_label
 _atom_site_symmetry_multiplicity
 _atom_site_fract_x
 _atom_site_fract_y
 _atom_site_fract_z
 _atom_site_occupancy
  C  C0  1  0.50000000  0.37224500  0.86702100  1
  C  C1  1  0.50000000  0.62775500  0.13297900  1
  C  C2  1  0.50000000  0.87224500  0.63297900  1
  C  C3  1  0.50000000  0.12775500  0.36702100  1
  C  C4  1  0.50000000  0.83419300  0.39639200  1
  C  C5  1  0.50000000  0.16580700  0.60360800  1
  C  C6  1  0.50000000  0.66580700  0.89639200  1
  C  C7  1  0.50000000  0.33419300  0.10360800  1
  C  C8  1  0.00000000  0.47955600  0.30338900  1
  C  C9  1  0.00000000  0.52044400  0.69661100  1
  C  C10  1  0.00000000  0.97955600  0.19661100  1
  C  C11  1  0.00000000  0.02044400  0.80338900  1
  C  C12  1  0.50000000  0.22723900  0.96949300  1
  C  C13  1  0.50000000  0.77276100  0.03050700  1
  C  C14  1  0.50000000  0.72723900  0.53050700  1
  C  C15  1  0.50000000  0.27276100  0.46949300  1
  C  C16  1  0.50000000  0.96689000  0.27085600  1
  C  C17  1  0.50000000  0.03311000  0.72914400  1
  C  C18  1  0.50000000  0.53311000  0.77085600  1
  C  C19  1  0.50000000  0.46689000  0.22914400  1
  Ni  Ni20  1  0.00000000  0.50000000  0.50000000  1
  Ni  Ni21  1  0.00000000  0.00000000  0.00000000  1
  Cu  Cu22  1  0.00000000  0.50000000  0.00000000  1
  Cu  Cu23  1  0.00000000  0.00000000  0.50000000  1
  Cu  Cu24  1  0.00000000  0.28299900  0.72894300  1
  Cu  Cu25  1  0.00000000  0.71700100  0.27105700  1
  Cu  Cu26  1  0.00000000  0.78299900  0.77105700  1
  Cu  Cu27  1  0.00000000  0.21700100  0.22894300  1
