# generated using pymatgen
data_Cu8Ni2C5
_symmetry_space_group_name_H-M   'P 1'
_cell_length_a   6.17902000
_cell_length_b   8.98473900
_cell_length_c   23.31704500
_cell_angle_alpha   90.00000000
_cell_angle_beta   90.00000000
_cell_angle_gamma   90.00000000
_symmetry_Int_Tables_number   1
_chemical_formula_structural   Cu8Ni2C5
_chemical_formula_sum   'Cu64 Ni16 C40'
_cell_volume   1294.48963529
_cell_formula_units_Z   8
loop_
 _symmetry_equiv_pos_site_id
 _symmetry_equiv_pos_as_xyz
  1  'x, y, z'
loop_
 _atom_site_type_symbol
 _atom_site_label
 _atom_site_symmetry_multiplicity
 _atom_site_fract_x
 _atom_site_fract_y
 _atom_site_fract_z
 _atom_site_occupancy
  C  C0  1  0.66183300  0.97470700  0.46576200  1
  C  C1  1  0.83816700  0.02529300  0.96576200  1
  C  C2  1  0.16183300  0.52529300  0.53423800  1
  C  C3  1  0.33816700  0.47470700  0.03423800  1
  C  C4  1  0.76497900  0.86599000  0.21939200  1
  C  C5  1  0.73502100  0.13401000  0.71939200  1
  C  C6  1  0.26497900  0.63401000  0.78060800  1
  C  C7  1  0.23502100  0.36599000  0.28060800  1
  C  C8  1  0.88798000  0.94770200  0.35675500  1
  C  C9  1  0.61202000  0.05229800  0.85675500  1
  C  C10  1  0.38798000  0.55229800  0.64324500  1
  C  C11  1  0.11202000  0.44770200  0.14324500  1
  C  C12  1  0.92999800  0.10304400  0.38677200  1
  C  C13  1  0.57000200  0.89695600  0.88677200  1
  C  C14  1  0.42999800  0.39695600  0.61322800  1
  C  C15  1  0.07000200  0.60304400  0.11322800  1
  C  C16  1  0.34568200  0.99974400  0.38574600  1
  C  C17  1  0.15431800  0.00025600  0.88574600  1
  C  C18  1  0.84568200  0.50025600  0.61425400  1
  C  C19  1  0.65431800  0.49974400  0.11425400  1
  C  C20  1  0.32323200  0.83638100  0.40816900  1
  C  C21  1  0.17676800  0.16361900  0.90816900  1
  C  C22  1  0.82323200  0.66361900  0.59183100  1
  C  C23  1  0.67676800  0.33638100  0.09183100  1
  C  C24  1  0.00773200  0.91269800  0.11831700  1
  C  C25  1  0.49226800  0.08730200  0.61831700  1
  C  C26  1  0.50773200  0.58730200  0.88168300  1
  C  C27  1  0.99226800  0.41269800  0.38168300  1
  C  C28  1  0.17729000  0.87032900  0.16505700  1
  C  C29  1  0.32271000  0.12967100  0.66505700  1
  C  C30  1  0.67729000  0.62967100  0.83494300  1
  C  C31  1  0.82271000  0.37032900  0.33494300  1
  C  C32  1  0.51585100  0.84898900  0.11896700  1
  C  C33  1  0.98414900  0.15101100  0.61896700  1
  C  C34  1  0.01585100  0.65101100  0.88103300  1
  C  C35  1  0.48414900  0.34898900  0.38103300  1
  C  C36  1  0.49664300  0.01095600  0.14430200  1
  C  C37  1  0.00335700  0.98904400  0.64430200  1
  C  C38  1  0.99664300  0.48904400  0.85569800  1
  C  C39  1  0.50335700  0.51095600  0.35569800  1
  Ni  Ni40  1  0.84230700  0.66180600  0.44592900  1
  Ni  Ni41  1  0.65769300  0.33819400  0.94592900  1
  Ni  Ni42  1  0.34230700  0.83819400  0.55407100  1
  Ni  Ni43  1  0.15769300  0.16180600  0.05407100  1
  Ni  Ni44  1  0.50961800  0.31088700  0.48845700  1
  Ni  Ni45  1  0.99038200  0.68911300  0.98845700  1
  Ni  Ni46  1  0.00961800  0.18911300  0.51154300  1
  Ni  Ni47  1  0.49038200  0.81088700  0.01154300  1
  Ni  Ni48  1  0.58707700  0.57650900  0.21745200  1
  Ni  Ni49  1  0.91292300  0.42349100  0.71745200  1
  Ni  Ni50  1  0.08707700  0.92349100  0.78254800  1
  Ni  Ni51  1  0.41292300  0.07650900  0.28254800  1
  Ni  Ni52  1  0.90805700  0.20334500  0.19793000  1
  Ni  Ni53  1  0.59194300  0.79665500  0.69793000  1
  Ni  Ni54  1  0.40805700  0.29665500  0.80207000  1
  Ni  Ni55  1  0.09194300  0.70334500  0.30207000  1
  Cu  Cu56  1  0.71556200  0.67014200  0.40446400  1
  Cu  Cu57  1  0.78443800  0.32985800  0.90446400  1
  Cu  Cu58  1  0.21556200  0.82985800  0.59553600  1
  Cu  Cu59  1  0.28443800  0.17014200  0.09553600  1
  Cu  Cu60  1  0.85767000  0.76736700  0.48233300  1
  Cu  Cu61  1  0.64233000  0.23263300  0.98233300  1
  Cu  Cu62  1  0.35767000  0.73263300  0.51766700  1
  Cu  Cu63  1  0.14233000  0.26736700  0.01766700  1
  Cu  Cu64  1  0.96349800  0.54690900  0.45263300  1
  Cu  Cu65  1  0.53650200  0.45309100  0.95263300  1
  Cu  Cu66  1  0.46349800  0.95309100  0.54736700  1
  Cu  Cu67  1  0.03650200  0.04690900  0.04736700  1
  Cu  Cu68  1  0.54877700  0.27393100  0.53866100  1
  Cu  Cu69  1  0.95122300  0.72606900  0.03866100  1
  Cu  Cu70  1  0.04877700  0.22606900  0.46133900  1
  Cu  Cu71  1  0.45122300  0.77393100  0.96133900  1
  Cu  Cu72  1  0.41599600  0.43353600  0.47612700  1
  Cu  Cu73  1  0.08400400  0.56646400  0.97612700  1
  Cu  Cu74  1  0.91599600  0.06646400  0.52387300  1
  Cu  Cu75  1  0.58400400  0.93353600  0.02387300  1
  Cu  Cu76  1  0.56240600  0.22616400  0.44621700  1
  Cu  Cu77  1  0.93759400  0.77383600  0.94621700  1
  Cu  Cu78  1  0.06240600  0.27383600  0.55378300  1
  Cu  Cu79  1  0.43759400  0.72616400  0.05378300  1
  Cu  Cu80  1  0.49094300  0.45318300  0.21790200  1
  Cu  Cu81  1  0.00905700  0.54681700  0.71790200  1
  Cu  Cu82  1  0.99094300  0.04681700  0.78209800  1
  Cu  Cu83  1  0.50905700  0.95318300  0.28209800  1
  Cu  Cu84  1  0.58370200  0.66381300  0.26013900  1
  Cu  Cu85  1  0.91629800  0.33618700  0.76013900  1
  Cu  Cu86  1  0.08370200  0.83618700  0.73986100  1
  Cu  Cu87  1  0.41629800  0.16381300  0.23986100  1
  Cu  Cu88  1  0.69256900  0.61765300  0.17322100  1
  Cu  Cu89  1  0.80743100  0.38234700  0.67322100  1
  Cu  Cu90  1  0.19256900  0.88234700  0.82677900  1
  Cu  Cu91  1  0.30743100  0.11765300  0.32677900  1
  Cu  Cu92  1  0.81444900  0.18664100  0.15103600  1
  Cu  Cu93  1  0.68555100  0.81335900  0.65103600  1
  Cu  Cu94  1  0.31444900  0.31335900  0.84896400  1
  Cu  Cu95  1  0.18555100  0.68664100  0.34896400  1
  Cu  Cu96  1  0.90632700  0.10304600  0.23622500  1
  Cu  Cu97  1  0.59367300  0.89695400  0.73622500  1
  Cu  Cu98  1  0.40632700  0.39695400  0.76377500  1
  Cu  Cu99  1  0.09367300  0.60304600  0.26377500  1
  Cu  Cu100  1  0.01015400  0.32572500  0.20842700  1
  Cu  Cu101  1  0.48984600  0.67427500  0.70842700  1
  Cu  Cu102  1  0.51015400  0.17427500  0.79157300  1
  Cu  Cu103  1  0.98984600  0.82572500  0.29157300  1
  Cu  Cu104  1  0.82854900  0.01970600  0.38429600  1
  Cu  Cu105  1  0.67145100  0.98029400  0.88429600  1
  Cu  Cu106  1  0.32854900  0.48029400  0.61570400  1
  Cu  Cu107  1  0.17145100  0.51970600  0.11570400  1
  Cu  Cu108  1  0.36244200  0.93673700  0.42042600  1
  Cu  Cu109  1  0.13755800  0.06326300  0.92042600  1
  Cu  Cu110  1  0.86244200  0.56326300  0.57957400  1
  Cu  Cu111  1  0.63755800  0.43673700  0.07957400  1
  Cu  Cu112  1  0.02500700  0.85601900  0.15421800  1
  Cu  Cu113  1  0.47499300  0.14398100  0.65421800  1
  Cu  Cu114  1  0.52500700  0.64398100  0.84578200  1
  Cu  Cu115  1  0.97499300  0.35601900  0.34578200  1
  Cu  Cu116  1  0.50719700  0.90593700  0.15533800  1
  Cu  Cu117  1  0.99280300  0.09406300  0.65533800  1
  Cu  Cu118  1  0.00719700  0.59406300  0.84466200  1
  Cu  Cu119  1  0.49280300  0.40593700  0.34466200  1
