# generated using pymatgen
data_Cu15Ni4
_symmetry_space_group_name_H-M   'P 1'
_cell_length_a   3.57520000
_cell_length_b   3.57520000
_cell_length_c   17.29246200
_cell_angle_alpha   90.00000000
_cell_angle_beta   90.00000000
_cell_angle_gamma   90.00000000
_symmetry_Int_Tables_number   1
_chemical_formula_structural   Cu15Ni4
_chemical_formula_sum   'Cu15 Ni4'
_cell_volume   221.03320106
_cell_formula_units_Z   1
loop_
 _symmetry_equiv_pos_site_id
 _symmetry_equiv_pos_as_xyz
  1  'x, y, z'
loop_
 _atom_site_type_symbol
 _atom_site_label
 _atom_site_symmetry_multiplicity
 _atom_site_fract_x
 _atom_site_fract_y
 _atom_site_fract_z
 _atom_site_occupancy
  Ni  Ni0  1  0.00000000  0.00000000  0.19358200  1
  Ni  Ni1  1  0.00000000  0.00000000  0.40007400  1
  Ni  Ni2  1  0.00000000  0.00000000  0.59992600  1
  Ni  Ni3  1  0.00000000  0.00000000  0.80641800  1
  Cu  Cu4  1  0.50000000  0.50000000  0.00000000  1
  Cu  Cu5  1  0.50000000  0.50000000  0.19386400  1
  Cu  Cu6  1  0.50000000  0.50000000  0.39901600  1
  Cu  Cu7  1  0.50000000  0.50000000  0.60098400  1
  Cu  Cu8  1  0.50000000  0.50000000  0.80613600  1
  Cu  Cu9  1  0.50000000  0.00000000  0.09027900  1
  Cu  Cu10  1  0.50000000  0.00000000  0.29746800  1
  Cu  Cu11  1  0.50000000  0.00000000  0.50000000  1
  Cu  Cu12  1  0.50000000  0.00000000  0.70253200  1
  Cu  Cu13  1  0.50000000  0.00000000  0.90972100  1
  Cu  Cu14  1  0.00000000  0.50000000  0.09027900  1
  Cu  Cu15  1  0.00000000  0.50000000  0.29746800  1
  Cu  Cu16  1  0.00000000  0.50000000  0.50000000  1
  Cu  Cu17  1  0.00000000  0.50000000  0.70253200  1
  Cu  Cu18  1  0.00000000  0.50000000  0.90972100  1
