# generated using pymatgen
data_Cu4Ni3C13
_symmetry_space_group_name_H-M   'P 1'
_cell_length_a   6.61412800
_cell_length_b   6.70184521
_cell_length_c   6.70389546
_cell_angle_alpha   109.58139116
_cell_angle_beta   108.64272316
_cell_angle_gamma   109.20567294
_symmetry_Int_Tables_number   1
_chemical_formula_structural   Cu4Ni3C13
_chemical_formula_sum   'Cu4 Ni3 C13'
_cell_volume   231.48003394
_cell_formula_units_Z   1
loop_
 _symmetry_equiv_pos_site_id
 _symmetry_equiv_pos_as_xyz
  1  'x, y, z'
loop_
 _atom_site_type_symbol
 _atom_site_label
 _atom_site_symmetry_multiplicity
 _atom_site_fract_x
 _atom_site_fract_y
 _atom_site_fract_z
 _atom_site_occupancy
  C  C0  1  0.00000000  0.00000000  0.00000000  1
  Ni  Ni1  1  0.50000000  0.50000000  0.00000000  1
  Ni  Ni2  1  0.50000000  0.00000000  0.50000000  1
  Ni  Ni3  1  0.00000000  0.50000000  0.50000000  1
  Cu  Cu4  1  0.50000000  0.50000000  0.50000000  1
  Cu  Cu5  1  0.00000000  0.00000000  0.50000000  1
  Cu  Cu6  1  0.00000000  0.50000000  0.00000000  1
  Cu  Cu7  1  0.50000000  0.00000000  0.00000000  1
  C  C8  1  0.82191500  0.51465900  0.69812800  1
  C  C9  1  0.17808500  0.48534100  0.30187200  1
  C  C10  1  0.81272500  0.11395100  0.29948100  1
  C  C11  1  0.29034200  0.79520500  0.10103500  1
  C  C12  1  0.49336600  0.31986400  0.19747000  1
  C  C13  1  0.10978800  0.28620500  0.80825000  1
  C  C14  1  0.69287500  0.82498200  0.51862600  1
  C  C15  1  0.50663400  0.68013600  0.80253000  1
  C  C16  1  0.18727500  0.88604900  0.70051900  1
  C  C17  1  0.70965800  0.20479500  0.89896500  1
  C  C18  1  0.89021200  0.71379500  0.19175000  1
  C  C19  1  0.30712500  0.17501800  0.48137400  1
