# generated using pymatgen
data_Cu4Ni2C3
_symmetry_space_group_name_H-M   'P 1'
_cell_length_a   8.03837078
_cell_length_b   8.03837078
_cell_length_c   6.48148631
_cell_angle_alpha   89.15362269
_cell_angle_beta   89.15362269
_cell_angle_gamma   76.09321039
_symmetry_Int_Tables_number   1
_chemical_formula_structural   Cu4Ni2C3
_chemical_formula_sum   'Cu8 Ni4 C6'
_cell_volume   406.45636362
_cell_formula_units_Z   2
loop_
 _symmetry_equiv_pos_site_id
 _symmetry_equiv_pos_as_xyz
  1  'x, y, z'
loop_
 _atom_site_type_symbol
 _atom_site_label
 _atom_site_symmetry_multiplicity
 _atom_site_fract_x
 _atom_site_fract_y
 _atom_site_fract_z
 _atom_site_occupancy
  C  C0  1  0.99477100  0.24830000  0.02696600  1
  C  C1  1  0.75170000  0.00522900  0.47303400  1
  C  C2  1  0.00522900  0.75170000  0.97303400  1
  C  C3  1  0.24830000  0.99477100  0.52696600  1
  C  C4  1  0.60025900  0.39974100  0.75000000  1
  C  C5  1  0.39974100  0.60025900  0.25000000  1
  Ni  Ni6  1  0.17536100  0.41934600  0.59025600  1
  Ni  Ni7  1  0.58065400  0.82463900  0.90974400  1
  Ni  Ni8  1  0.82463900  0.58065400  0.40974400  1
  Ni  Ni9  1  0.41934600  0.17536100  0.09025600  1
  Cu  Cu10  1  0.94102400  0.28381800  0.52167900  1
  Cu  Cu11  1  0.71618200  0.05897600  0.97832100  1
  Cu  Cu12  1  0.05897600  0.71618200  0.47832100  1
  Cu  Cu13  1  0.28381800  0.94102400  0.02167900  1
  Cu  Cu14  1  0.25718800  0.43488200  0.93893100  1
  Cu  Cu15  1  0.56511800  0.74281200  0.56106900  1
  Cu  Cu16  1  0.74281200  0.56511800  0.06106900  1
  Cu  Cu17  1  0.43488200  0.25718800  0.43893100  1
