# generated using pymatgen
data_Cu2NiC11
_symmetry_space_group_name_H-M   'P 1'
_cell_length_a   4.95255800
_cell_length_b   5.12195824
_cell_length_c   10.24540239
_cell_angle_alpha   100.31488782
_cell_angle_beta   98.10248081
_cell_angle_gamma   100.05603004
_symmetry_Int_Tables_number   1
_chemical_formula_structural   Cu2NiC11
_chemical_formula_sum   'Cu4 Ni2 C22'
_cell_volume   247.75461980
_cell_formula_units_Z   2
loop_
 _symmetry_equiv_pos_site_id
 _symmetry_equiv_pos_as_xyz
  1  'x, y, z'
loop_
 _atom_site_type_symbol
 _atom_site_label
 _atom_site_symmetry_multiplicity
 _atom_site_fract_x
 _atom_site_fract_y
 _atom_site_fract_z
 _atom_site_occupancy
  C  C0  1  0.30093500  0.57275100  0.07262500  1
  C  C1  1  0.43341100  0.85691200  0.36739300  1
  C  C2  1  0.85128000  0.70941900  0.21765900  1
  C  C3  1  0.00751700  0.01277400  0.50943600  1
  C  C4  1  0.55790200  0.13232100  0.63801700  1
  C  C5  1  0.13451600  0.29734900  0.76944100  1
  C  C6  1  0.70631500  0.42653700  0.92190200  1
  C  C7  1  0.28190600  0.57735700  0.57223300  1
  Ni  Ni8  1  0.00206300  0.99353800  0.00104400  1
  Ni  Ni9  1  0.14446400  0.28215400  0.28548700  1
  Cu  Cu10  1  0.42715900  0.85829000  0.85571400  1
  Cu  Cu11  1  0.57766400  0.13721800  0.14385900  1
  Cu  Cu12  1  0.71707500  0.43533000  0.43603300  1
  Cu  Cu13  1  0.85679600  0.71880300  0.70463800  1
  C  C14  1  0.08294800  0.67125300  0.89951900  1
  C  C15  1  0.22270400  0.95223900  0.17105500  1
  C  C16  1  0.66597600  0.81153500  0.04513300  1
  C  C17  1  0.79318400  0.08620300  0.30872900  1
  C  C18  1  0.34782500  0.21757900  0.44344300  1
  C  C19  1  0.89971600  0.36997200  0.60501000  1
  C  C20  1  0.51096100  0.54512800  0.76164000  1
  C  C21  1  0.48680300  0.46137100  0.24337500  1
  C  C22  1  0.65505800  0.77669900  0.53382600  1
  C  C23  1  0.05877600  0.60303200  0.37752600  1
  C  C24  1  0.19770300  0.93337900  0.68806700  1
  C  C25  1  0.78783200  0.05668300  0.84057300  1
  C  C26  1  0.36102700  0.18298000  0.97447800  1
  C  C27  1  0.93048500  0.32119500  0.11214500  1
