# generated using pymatgen
data_CuNiC32
_symmetry_space_group_name_H-M   'P 1'
_cell_length_a   5.03166600
_cell_length_b   9.71564373
_cell_length_c   9.74263186
_cell_angle_alpha   72.61618173
_cell_angle_beta   75.45702663
_cell_angle_gamma   75.20340343
_symmetry_Int_Tables_number   1
_chemical_formula_structural   CuNiC32
_chemical_formula_sum   'Cu1 Ni1 C32'
_cell_volume   431.49189223
_cell_formula_units_Z   1
loop_
 _symmetry_equiv_pos_site_id
 _symmetry_equiv_pos_as_xyz
  1  'x, y, z'
loop_
 _atom_site_type_symbol
 _atom_site_label
 _atom_site_symmetry_multiplicity
 _atom_site_fract_x
 _atom_site_fract_y
 _atom_site_fract_z
 _atom_site_occupancy
  Ni  Ni0  1  0.99484200  0.00330300  0.00024800  1
  Cu  Cu1  1  0.25617300  0.72343800  0.72659900  1
  C  C2  1  0.00125400  0.50484100  0.49504000  1
  C  C3  1  0.49743900  0.36502700  0.63558900  1
  C  C4  1  0.37085200  0.00831500  0.28816600  1
  C  C5  1  0.35836000  0.28622500  0.01593300  1
  C  C6  1  0.64116000  0.98447600  0.71278300  1
  C  C7  1  0.62977000  0.71168100  0.99099300  1
  C  C8  1  0.90032300  0.84676100  0.42537600  1
  C  C9  1  0.88583700  0.42522000  0.85263700  1
  C  C10  1  0.11211900  0.14626300  0.57596800  1
  C  C11  1  0.09842000  0.57697200  0.15271200  1
  C  C12  1  0.50044800  0.63890900  0.36095800  1
  C  C13  1  0.77437500  0.27742300  0.27805900  1
  C  C14  1  0.85725400  0.87291300  0.60037400  1
  C  C15  1  0.84596000  0.60008800  0.87817500  1
  C  C16  1  0.14556600  0.12078900  0.40086200  1
  C  C17  1  0.13618000  0.40002100  0.12736000  1
  C  C18  1  0.24112900  0.31042500  0.55126400  1
  C  C19  1  0.24487700  0.55771700  0.30814100  1
  C  C20  1  0.75069600  0.69091100  0.44762500  1
  C  C21  1  0.75310100  0.45379300  0.68760300  1
  C  C22  1  0.28956900  0.00178000  0.69983900  1
  C  C23  1  0.27762600  0.69962400  0.00655100  1
  C  C24  1  0.72366600  0.98570900  0.29711000  1
  C  C25  1  0.71012200  0.29755800  0.99022300  1
  C  C26  1  0.74965700  0.15892600  0.66361000  1
  C  C27  1  0.73201100  0.66607300  0.16695200  1
  C  C28  1  0.26659900  0.83209700  0.33792800  1
  C  C29  1  0.24512100  0.33777100  0.84464400  1
  C  C30  1  0.74786600  0.44451200  0.41924300  1
  C  C31  1  0.26307000  0.57391100  0.55793700  1
  C  C32  1  0.67183500  0.89310600  0.89571100  1
  C  C33  1  0.32672300  0.10342200  0.10778600  1
