# generated using pymatgen
data_Cu2Ni
_symmetry_space_group_name_H-M   'P 1'
_cell_length_a   7.33273372
_cell_length_b   7.33273372
_cell_length_c   12.65508453
_cell_angle_alpha   99.78270565
_cell_angle_beta   99.78270565
_cell_angle_gamma   114.42613890
_symmetry_Int_Tables_number   1
_chemical_formula_structural   Cu2Ni
_chemical_formula_sum   'Cu12 Ni6'
_cell_volume   588.25942457
_cell_formula_units_Z   6
loop_
 _symmetry_equiv_pos_site_id
 _symmetry_equiv_pos_as_xyz
  1  'x, y, z'
loop_
 _atom_site_type_symbol
 _atom_site_label
 _atom_site_symmetry_multiplicity
 _atom_site_fract_x
 _atom_site_fract_y
 _atom_site_fract_z
 _atom_site_occupancy
  Ni  Ni0  1  0.25682900  0.75682900  0.50000000  1
  Ni  Ni1  1  0.00682900  0.00682900  0.00000000  1
  Ni  Ni2  1  0.26789300  0.01298200  0.77956500  1
  Ni  Ni3  1  0.23341700  0.48832800  0.22043500  1
  Ni  Ni4  1  0.26298200  0.01789300  0.27956500  1
  Ni  Ni5  1  0.73832800  0.98341700  0.72043500  1
  Cu  Cu6  1  0.11048200  0.67220500  0.65253000  1
  Cu  Cu7  1  0.01967500  0.45795100  0.34747000  1
  Cu  Cu8  1  0.92220500  0.86048200  0.15253000  1
  Cu  Cu9  1  0.70795100  0.76967500  0.84747000  1
  Cu  Cu10  1  0.24419800  0.06654900  0.46823600  1
  Cu  Cu11  1  0.59831300  0.77596200  0.53176400  1
  Cu  Cu12  1  0.31654900  0.99419800  0.96823600  1
  Cu  Cu13  1  0.02596200  0.34831300  0.03176400  1
  Cu  Cu14  1  0.60673700  0.23036700  0.76191100  1
  Cu  Cu15  1  0.46845600  0.84482600  0.23808900  1
  Cu  Cu16  1  0.48036700  0.35673700  0.26191100  1
  Cu  Cu17  1  0.09482600  0.21845600  0.73808900  1
