# generated using pymatgen
data_Cu2NiC10
_symmetry_space_group_name_H-M   'P 1'
_cell_length_a   6.86131442
_cell_length_b   6.86131442
_cell_length_c   6.86131442
_cell_angle_alpha   120.15277718
_cell_angle_beta   119.51718018
_cell_angle_gamma   90.28694071
_symmetry_Int_Tables_number   1
_chemical_formula_structural   Cu2NiC10
_chemical_formula_sum   'Cu2 Ni1 C10'
_cell_volume   228.96356528
_cell_formula_units_Z   1
loop_
 _symmetry_equiv_pos_site_id
 _symmetry_equiv_pos_as_xyz
  1  'x, y, z'
loop_
 _atom_site_type_symbol
 _atom_site_label
 _atom_site_symmetry_multiplicity
 _atom_site_fract_x
 _atom_site_fract_y
 _atom_site_fract_z
 _atom_site_occupancy
  Ni  Ni0  1  0.00035100  0.00035100  0.00000000  1
  Cu  Cu1  1  0.39538700  0.60161400  0.20622700  1
  Cu  Cu2  1  0.39538700  0.18916000  0.79377300  1
  C  C3  1  0.39846100  0.60258400  0.79587700  1
  C  C4  1  0.80670700  0.60258400  0.20412300  1
  C  C5  1  0.63015700  0.36413200  0.26602600  1
  C  C6  1  0.09810600  0.36413200  0.73397400  1
  C  C7  1  0.63347100  0.36350300  0.73003200  1
  C  C8  1  0.63347100  0.90343900  0.26996800  1
  C  C9  1  0.14214900  0.86647600  0.27567300  1
  C  C10  1  0.59080400  0.86647600  0.72432700  1
  C  C11  1  0.13777500  0.86929900  0.73152400  1
  C  C12  1  0.13777500  0.40625000  0.26847600  1
