# generated using pymatgen
data_Cu2NiC7
_symmetry_space_group_name_H-M   'P 1'
_cell_length_a   7.69637300
_cell_length_b   5.29575400
_cell_length_c   5.34439807
_cell_angle_alpha   89.60489556
_cell_angle_beta   90.00000000
_cell_angle_gamma   90.00000000
_symmetry_Int_Tables_number   1
_chemical_formula_structural   Cu2NiC7
_chemical_formula_sum   'Cu4 Ni2 C14'
_cell_volume   217.82232169
_cell_formula_units_Z   2
loop_
 _symmetry_equiv_pos_site_id
 _symmetry_equiv_pos_as_xyz
  1  'x, y, z'
loop_
 _atom_site_type_symbol
 _atom_site_label
 _atom_site_symmetry_multiplicity
 _atom_site_fract_x
 _atom_site_fract_y
 _atom_site_fract_z
 _atom_site_occupancy
  C  C0  1  0.00000000  0.00000000  0.50000000  1
  C  C1  1  0.50000000  0.00000000  0.50000000  1
  Ni  Ni2  1  0.00000000  0.50000000  0.00000000  1
  Ni  Ni3  1  0.50000000  0.50000000  0.00000000  1
  Cu  Cu4  1  0.75000000  0.01196100  0.01763200  1
  Cu  Cu5  1  0.75000000  0.50821900  0.54631200  1
  Cu  Cu6  1  0.25000000  0.49178100  0.45368800  1
  Cu  Cu7  1  0.25000000  0.98803900  0.98236800  1
  C  C8  1  0.43596900  0.17299000  0.18198700  1
  C  C9  1  0.56641600  0.68292700  0.32021600  1
  C  C10  1  0.56403100  0.82701000  0.81801300  1
  C  C11  1  0.06641600  0.31707300  0.67978400  1
  C  C12  1  0.25000000  0.87298300  0.55505700  1
  C  C13  1  0.43358400  0.31707300  0.67978400  1
  C  C14  1  0.93358400  0.68292700  0.32021600  1
  C  C15  1  0.06403100  0.17299000  0.18198700  1
  C  C16  1  0.75000000  0.38541000  0.93104900  1
  C  C17  1  0.93596900  0.82701000  0.81801300  1
  C  C18  1  0.25000000  0.61459000  0.06895100  1
  C  C19  1  0.75000000  0.12701700  0.44494300  1
