# generated using pymatgen
data_Cu7NiC30
_symmetry_space_group_name_H-M   'P 1'
_cell_length_a   10.91666168
_cell_length_b   15.62622307
_cell_length_c   10.88079671
_cell_angle_alpha   90.19321870
_cell_angle_beta   90.86193517
_cell_angle_gamma   90.06562636
_symmetry_Int_Tables_number   1
_chemical_formula_structural   Cu7NiC30
_chemical_formula_sum   'Cu28 Ni4 C120'
_cell_volume   1855.89175606
_cell_formula_units_Z   4
loop_
 _symmetry_equiv_pos_site_id
 _symmetry_equiv_pos_as_xyz
  1  'x, y, z'
loop_
 _atom_site_type_symbol
 _atom_site_label
 _atom_site_symmetry_multiplicity
 _atom_site_fract_x
 _atom_site_fract_y
 _atom_site_fract_z
 _atom_site_occupancy
  C  C0  1  0.99888303  0.11135424  0.50383000  1
  C  C1  1  0.50142809  0.38749976  0.99863124  1
  C  C2  1  0.24283975  0.38807691  0.25611316  1
  C  C3  1  0.23098232  0.11952364  0.25069432  1
  C  C4  1  0.98892601  0.11481873  0.00886139  1
  C  C5  1  0.01716085  0.62743075  0.49936315  1
  C  C6  1  0.01645313  0.62621998  0.99472342  1
  C  C7  1  0.53944661  0.12728352  0.48098429  1
  C  C8  1  0.54908980  0.12396288  0.98403571  1
  C  C9  1  0.52217598  0.62530631  0.49944872  1
  C  C10  1  0.52207772  0.62402199  0.99873296  1
  C  C11  1  0.49507641  0.39456642  0.50033830  1
  C  C12  1  0.49483542  0.85610298  0.00368275  1
  C  C13  1  0.49595426  0.85565969  0.49711455  1
  C  C14  1  0.96627178  0.38900491  0.99837163  1
  C  C15  1  0.96446072  0.39178074  0.50272701  1
  C  C16  1  0.96770447  0.86530549  0.00441373  1
  C  C17  1  0.96908010  0.86984811  0.51559603  1
  C  C18  1  0.23463692  0.40079798  0.74690958  1
  C  C19  1  0.22903564  0.86014035  0.26009731  1
  C  C20  1  0.22616318  0.86792280  0.74795301  1
  C  C21  1  0.73985609  0.39392506  0.25093613  1
  C  C22  1  0.73450640  0.38907926  0.75064863  1
  C  C23  1  0.73354809  0.86015093  0.25086149  1
  C  C24  1  0.73891256  0.86069603  0.74989751  1
  C  C25  1  0.22266910  0.10864427  0.72770318  1
  C  C26  1  0.27126411  0.62733479  0.26004658  1
  C  C27  1  0.27116937  0.62910822  0.75691606  1
  C  C28  1  0.77339427  0.11479030  0.24577967  1
  C  C29  1  0.78247679  0.12177643  0.75618148  1
  C  C30  1  0.76694180  0.62625345  0.25369396  1
  C  C31  1  0.76893738  0.62492858  0.75572018  1
  Ni  Ni32  1  0.98768310  0.98337952  0.26070557  1
  Ni  Ni33  1  0.23080929  0.98874134  0.01305205  1
  Ni  Ni34  1  0.26325948  0.23294866  0.93483424  1
  Ni  Ni35  1  0.98086671  0.25598661  0.27388426  1
  Cu  Cu36  1  0.99305157  0.99219718  0.75672605  1
  Cu  Cu37  1  0.00196323  0.50410009  0.24955496  1
  Cu  Cu38  1  0.00031937  0.50412057  0.74951945  1
  Cu  Cu39  1  0.50683141  0.98975677  0.23238791  1
  Cu  Cu40  1  0.50824541  0.98354656  0.73585812  1
  Cu  Cu41  1  0.49952141  0.50692419  0.25027632  1
  Cu  Cu42  1  0.49766322  0.50565565  0.75068331  1
  Cu  Cu43  1  0.24462814  0.99282038  0.51057710  1
  Cu  Cu44  1  0.24920513  0.51067505  0.00458979  1
  Cu  Cu45  1  0.25017563  0.50578107  0.50459833  1
  Cu  Cu46  1  0.74676974  0.99438227  0.99145789  1
  Cu  Cu47  1  0.73942717  0.99749338  0.49883997  1
  Cu  Cu48  1  0.75094324  0.50476176  0.00167506  1
  Cu  Cu49  1  0.74841301  0.50546994  0.50160262  1
  Cu  Cu50  1  0.26990948  0.24529121  0.47182236  1
  Cu  Cu51  1  0.25002435  0.74995839  0.00523492  1
  Cu  Cu52  1  0.25162182  0.74955793  0.50590560  1
  Cu  Cu53  1  0.75760671  0.25056927  0.00305938  1
  Cu  Cu54  1  0.74585830  0.25256555  0.50623778  1
  Cu  Cu55  1  0.75013892  0.74610476  0.00109148  1
  Cu  Cu56  1  0.75056047  0.74698197  0.50247604  1
  Cu  Cu57  1  0.99201943  0.25805770  0.75729583  1
  Cu  Cu58  1  0.00047960  0.74477246  0.25186401  1
  Cu  Cu59  1  0.00251657  0.74805748  0.75329360  1
  Cu  Cu60  1  0.52759243  0.25784801  0.25750843  1
  Cu  Cu61  1  0.51637221  0.25364710  0.74918691  1
  Cu  Cu62  1  0.49947975  0.74700298  0.25327178  1
  Cu  Cu63  1  0.49966516  0.74655844  0.75424351  1
  C  C64  1  0.10968014  0.77680008  0.10663686  1
  C  C65  1  0.10865888  0.77395370  0.60658041  1
  C  C66  1  0.59121248  0.25094350  0.09776581  1
  C  C67  1  0.58288796  0.25836826  0.58172102  1
  C  C68  1  0.61139950  0.76392542  0.11329530  1
  C  C69  1  0.60921829  0.76590457  0.61644283  1
  C  C70  1  0.40579019  0.20840905  0.35364405  1
  C  C71  1  0.39762072  0.18279051  0.85434731  1
  C  C72  1  0.39506005  0.72872571  0.39949854  1
  C  C73  1  0.39679440  0.72868978  0.90198912  1
  C  C74  1  0.90252606  0.24307890  0.41769496  1
  C  C75  1  0.91402295  0.24140273  0.92196977  1
  C  C76  1  0.89371435  0.72911033  0.39266731  1
  C  C77  1  0.89458728  0.72992233  0.89416114  1
  C  C78  1  0.14622611  0.24912368  0.33019468  1
  C  C79  1  0.17393650  0.25137185  0.79096390  1
  C  C80  1  0.14874068  0.73352433  0.35445019  1
  C  C81  1  0.14905226  0.73300753  0.85549568  1
  C  C82  1  0.66217382  0.21831837  0.35010008  1
  C  C83  1  0.65980284  0.22628565  0.85675605  1
  C  C84  1  0.64203771  0.72848602  0.35912159  1
  C  C85  1  0.64363633  0.72563742  0.85936683  1
  C  C86  1  0.35743478  0.77403688  0.14599994  1
  C  C87  1  0.35710565  0.77114573  0.64992104  1
  C  C88  1  0.85389388  0.27342885  0.15462362  1
  C  C89  1  0.84761784  0.27791227  0.65152651  1
  C  C90  1  0.85937735  0.76843017  0.14295594  1
  C  C91  1  0.86169627  0.76919082  0.64346258  1
  C  C92  1  0.36068275  0.49003634  0.13949986  1
  C  C93  1  0.35424763  0.49543923  0.64597644  1
  C  C94  1  0.35831314  0.01503441  0.13021213  1
  C  C95  1  0.34867767  0.99149017  0.66668807  1
  C  C96  1  0.86178611  0.48342290  0.14136845  1
  C  C97  1  0.85800064  0.48220762  0.64307929  1
  C  C98  1  0.85490938  0.97729211  0.14258913  1
  C  C99  1  0.84707747  0.97741755  0.64422815  1
  C  C100  1  0.13895638  0.00393805  0.36449684  1
  C  C101  1  0.14784481  0.02001988  0.86999226  1
  C  C102  1  0.14513321  0.52075312  0.35568192  1
  C  C103  1  0.14679754  0.51951544  0.85487068  1
  C  C104  1  0.63017270  0.02892217  0.34790898  1
  C  C105  1  0.63364741  0.02755956  0.84207605  1
  C  C106  1  0.64250509  0.52265251  0.35956263  1
  C  C107  1  0.64106710  0.51797498  0.85959331  1
  C  C108  1  0.39191592  0.51851199  0.39610286  1
  C  C109  1  0.38981822  0.51764405  0.89369208  1
  C  C110  1  0.88003890  0.00968939  0.38824079  1
  C  C111  1  0.89076614  0.01360424  0.89385856  1
  C  C112  1  0.89464693  0.51968766  0.39310924  1
  C  C113  1  0.89483520  0.51804201  0.89257195  1
  C  C114  1  0.10759469  0.47897811  0.10454081  1
  C  C115  1  0.10565113  0.48043260  0.60607546  1
  C  C116  1  0.10423696  0.97479440  0.11575001  1
  C  C117  1  0.09993777  0.98223894  0.62226750  1
  C  C118  1  0.61673199  0.49000540  0.11658912  1
  C  C119  1  0.60899999  0.48807716  0.61204918  1
  C  C120  1  0.59994957  0.98892762  0.08069187  1
  C  C121  1  0.58385897  0.99097795  0.57934302  1
  C  C122  1  0.00288760  0.38042311  0.28320954  1
  C  C123  1  0.01445288  0.37966003  0.78583518  1
  C  C124  1  0.99993862  0.86852428  0.29224124  1
  C  C125  1  0.00775920  0.86954935  0.79374389  1
  C  C126  1  0.50026446  0.37908359  0.27742469  1
  C  C127  1  0.48875711  0.37840002  0.76691963  1
  C  C128  1  0.50555628  0.87086974  0.28412861  1
  C  C129  1  0.51360137  0.87017954  0.79442446  1
  C  C130  1  0.48779722  0.62648251  0.21296651  1
  C  C131  1  0.48955524  0.62771758  0.71399081  1
  C  C132  1  0.99224022  0.13077800  0.22779320  1
  C  C133  1  0.99851038  0.13509836  0.72630968  1
  C  C134  1  0.99150097  0.62552146  0.20889237  1
  C  C135  1  0.99102691  0.62509622  0.71320135  1
  C  C136  1  0.20253318  0.15041795  0.03245947  1
  C  C137  1  0.24874610  0.12286646  0.52021902  1
  C  C138  1  0.23363132  0.63377294  0.04436232  1
  C  C139  1  0.23433381  0.62959590  0.54066039  1
  C  C140  1  0.75889102  0.12364639  0.03269988  1
  C  C141  1  0.74908115  0.12353386  0.54103411  1
  C  C142  1  0.74665169  0.62496442  0.03719820  1
  C  C143  1  0.74446943  0.62623586  0.54033725  1
  C  C144  1  0.27686552  0.36725850  0.49796561  1
  C  C145  1  0.28308740  0.33421613  0.00969068  1
  C  C146  1  0.28049265  0.87826470  0.46765447  1
  C  C147  1  0.27556617  0.88220988  0.96470441  1
  C  C148  1  0.74524406  0.37909199  0.46582926  1
  C  C149  1  0.74847815  0.37661033  0.96853214  1
  C  C150  1  0.74491421  0.87254914  0.46560973  1
  C  C151  1  0.74893937  0.87085599  0.96333245  1
