# generated using pymatgen
data_Cu7(NiC7)3
_symmetry_space_group_name_H-M   'P 1'
_cell_length_a   3.72324914
_cell_length_b   6.47209603
_cell_length_c   17.31883175
_cell_angle_alpha   91.67133846
_cell_angle_beta   96.19706108
_cell_angle_gamma   90.02627643
_symmetry_Int_Tables_number   1
_chemical_formula_structural   Cu7(NiC7)3
_chemical_formula_sum   'Cu7 Ni3 C21'
_cell_volume   414.71786148
_cell_formula_units_Z   1
loop_
 _symmetry_equiv_pos_site_id
 _symmetry_equiv_pos_as_xyz
  1  'x, y, z'
loop_
 _atom_site_type_symbol
 _atom_site_label
 _atom_site_symmetry_multiplicity
 _atom_site_fract_x
 _atom_site_fract_y
 _atom_site_fract_z
 _atom_site_occupancy
  C  C0  1  0.85555249  0.95133591  0.71061055  1
  Ni  Ni1  1  0.42232862  0.82437187  0.84360543  1
  Ni  Ni2  1  0.19219348  0.38769753  0.38164352  1
  Ni  Ni3  1  0.50945019  0.51959055  0.02482102  1
  Cu  Cu4  1  0.91654058  0.34011196  0.83120270  1
  Cu  Cu5  1  0.78564052  0.57149107  0.56852007  1
  Cu  Cu6  1  0.69363638  0.88676216  0.38557892  1
  Cu  Cu7  1  0.28379699  0.07370595  0.56523489  1
  Cu  Cu8  1  0.10093976  0.70591629  0.20084111  1
  Cu  Cu9  1  0.60212607  0.20411368  0.20244920  1
  Cu  Cu10  1  0.00769273  0.02325609  0.01454415  1
  C  C11  1  0.94037661  0.01233776  0.87944127  1
  C  C12  1  0.48348980  0.82413856  0.96667271  1
  C  C13  1  0.76150081  0.89416632  0.52014110  1
  C  C14  1  0.31501959  0.76314067  0.62621950  1
  C  C15  1  0.43209714  0.49927900  0.86169745  1
  C  C16  1  0.98463116  0.37417661  0.96483581  1
  C  C17  1  0.89116922  0.70327619  0.78048552  1
  C  C18  1  0.17172682  0.70888930  0.34232800  1
  C  C19  1  0.81769267  0.20256315  0.63326472  1
  C  C20  1  0.62486066  0.87383140  0.24840265  1
  C  C21  1  0.26452003  0.40225107  0.52707833  1
  C  C22  1  0.71736094  0.54389559  0.43327326  1
  C  C23  1  0.38070809  0.05949089  0.76003989  1
  C  C24  1  0.67126658  0.22594484  0.34003123  1
  C  C25  1  0.57502340  0.53106930  0.14924474  1
  C  C26  1  0.12757901  0.37796734  0.25290198  1
  C  C27  1  0.21647735  0.07320523  0.43026820  1
  C  C28  1  0.03131709  0.68406611  0.06226429  1
  C  C29  1  0.07713087  0.03626463  0.15323979  1
  C  C30  1  0.52997735  0.19824595  0.05747596  1
