# generated using pymatgen
data_Cu4NiC20
_symmetry_space_group_name_H-M   'P 1'
_cell_length_a   5.64701207
_cell_length_b   5.71056916
_cell_length_c   23.25119757
_cell_angle_alpha   96.28590824
_cell_angle_beta   89.73919354
_cell_angle_gamma   119.62501620
_symmetry_Int_Tables_number   1
_chemical_formula_structural   Cu4NiC20
_chemical_formula_sum   'Cu8 Ni2 C40'
_cell_volume   646.79689638
_cell_formula_units_Z   2
loop_
 _symmetry_equiv_pos_site_id
 _symmetry_equiv_pos_as_xyz
  1  'x, y, z'
loop_
 _atom_site_type_symbol
 _atom_site_label
 _atom_site_symmetry_multiplicity
 _atom_site_fract_x
 _atom_site_fract_y
 _atom_site_fract_z
 _atom_site_occupancy
  Ni  Ni0  1  0.00848000  0.01729500  0.14338900  1
  Ni  Ni1  1  0.40595700  0.80823100  0.34452700  1
  Cu  Cu2  1  0.81303600  0.62707700  0.54496100  1
  Cu  Cu3  1  0.21136900  0.42403000  0.74496100  1
  Cu  Cu4  1  0.61106300  0.22532600  0.94464700  1
  Cu  Cu5  1  0.11397900  0.22549800  0.44438200  1
  Cu  Cu6  1  0.51365300  0.02558500  0.64499700  1
  Cu  Cu7  1  0.91304800  0.82449300  0.84444900  1
  Cu  Cu8  1  0.30844500  0.62183700  0.04392400  1
  Cu  Cu9  1  0.71822500  0.43167400  0.24617400  1
  C  C10  1  0.10396800  0.19677800  0.29877100  1
  C  C11  1  0.50391000  0.00601800  0.50064700  1
  C  C12  1  0.90257200  0.80392600  0.70075400  1
  C  C13  1  0.30172200  0.60320000  0.90013800  1
  C  C14  1  0.70171400  0.40628200  0.10161000  1
  C  C15  1  0.99658400  0.00091600  0.00009800  1
  C  C16  1  0.40946000  0.81668400  0.20092200  1
  C  C17  1  0.80290200  0.60149100  0.40031500  1
  C  C18  1  0.20297000  0.40627900  0.60106600  1
  C  C19  1  0.60115100  0.20356400  0.80039300  1
  C  C20  1  0.60996400  0.07067200  0.29261600  1
  C  C21  1  0.01264000  0.87985300  0.48660900  1
  C  C22  1  0.41554000  0.67876500  0.68705100  1
  C  C23  1  0.81572000  0.47952400  0.88673100  1
  C  C24  1  0.21049000  0.27684600  0.08784900  1
  C  C25  1  0.32001300  0.16980800  0.21205000  1
  C  C26  1  0.70335000  0.96160200  0.40676900  1
  C  C27  1  0.10614200  0.75773400  0.60781600  1
  C  C28  1  0.50653100  0.55768600  0.80730400  1
  C  C29  1  0.90228800  0.35661800  0.00803900  1
  C  C30  1  0.20055700  0.98985100  0.37708200  1
  C  C31  1  0.59545100  0.79314400  0.57785400  1
  C  C32  1  0.99524000  0.59202100  0.77722900  1
  C  C33  1  0.38880500  0.38668100  0.97625500  1
  C  C34  1  0.80097800  0.19337900  0.17803600  1
  C  C35  1  0.10735600  0.59885100  0.28200300  1
  C  C36  1  0.49544800  0.39009900  0.47758300  1
  C  C37  1  0.89646800  0.19192800  0.67768900  1
  C  C38  1  0.29620400  0.99020000  0.87641200  1
  C  C39  1  0.68415600  0.77774500  0.07332500  1
  C  C40  1  0.54764000  0.57079500  0.31205300  1
  C  C41  1  0.95173800  0.35625300  0.50747500  1
  C  C42  1  0.35031500  0.15582200  0.70767700  1
  C  C43  1  0.75291800  0.95767900  0.90743700  1
  C  C44  1  0.15738000  0.76323900  0.10773100  1
  C  C45  1  0.17095000  0.49007900  0.38979900  1
  C  C46  1  0.56260800  0.27953300  0.58746800  1
  C  C47  1  0.96293400  0.07937600  0.78705900  1
  C  C48  1  0.35939000  0.87626800  0.98615900  1
  C  C49  1  0.77577900  0.70016400  0.18531500  1
