# generated using pymatgen
data_CuNiC9
_symmetry_space_group_name_H-M   'P 1'
_cell_length_a   7.46185800
_cell_length_b   7.67550200
_cell_length_c   10.62244900
_cell_angle_alpha   90.00000000
_cell_angle_beta   90.00000000
_cell_angle_gamma   90.00000000
_symmetry_Int_Tables_number   1
_chemical_formula_structural   CuNiC9
_chemical_formula_sum   'Cu4 Ni4 C36'
_cell_volume   608.38489657
_cell_formula_units_Z   4
loop_
 _symmetry_equiv_pos_site_id
 _symmetry_equiv_pos_as_xyz
  1  'x, y, z'
loop_
 _atom_site_type_symbol
 _atom_site_label
 _atom_site_symmetry_multiplicity
 _atom_site_fract_x
 _atom_site_fract_y
 _atom_site_fract_z
 _atom_site_occupancy
  C  C0  1  0.00000000  0.00000000  0.00000000  1
  C  C1  1  0.50000000  0.00000000  0.00000000  1
  C  C2  1  0.00000000  0.50000000  0.50000000  1
  C  C3  1  0.50000000  0.50000000  0.50000000  1
  C  C4  1  0.25000000  0.23288700  0.27160900  1
  C  C5  1  0.25000000  0.26711300  0.77160900  1
  C  C6  1  0.75000000  0.73288700  0.22839100  1
  C  C7  1  0.75000000  0.76711300  0.72839100  1
  Ni  Ni8  1  0.50000000  0.00000000  0.50000000  1
  Ni  Ni9  1  0.50000000  0.50000000  0.00000000  1
  Ni  Ni10  1  0.00000000  0.00000000  0.50000000  1
  Ni  Ni11  1  0.00000000  0.50000000  0.00000000  1
  Cu  Cu12  1  0.25000000  0.74974200  0.26323100  1
  Cu  Cu13  1  0.75000000  0.25025800  0.73676900  1
  Cu  Cu14  1  0.75000000  0.24974200  0.23676900  1
  Cu  Cu15  1  0.25000000  0.75025800  0.76323100  1
  C  C16  1  0.45205900  0.67496700  0.13541900  1
  C  C17  1  0.95205900  0.32503300  0.86458100  1
  C  C18  1  0.54794100  0.17496700  0.36458100  1
  C  C19  1  0.04794100  0.82503300  0.63541900  1
  C  C20  1  0.54794100  0.32503300  0.86458100  1
  C  C21  1  0.04794100  0.67496700  0.13541900  1
  C  C22  1  0.45205900  0.82503300  0.63541900  1
  C  C23  1  0.95205900  0.17496700  0.36458100  1
  C  C24  1  0.51913000  0.29955600  0.12479100  1
  C  C25  1  0.01913000  0.70044400  0.87520900  1
  C  C26  1  0.48087000  0.79955600  0.37520900  1
  C  C27  1  0.98087000  0.20044400  0.62479100  1
  C  C28  1  0.48087000  0.70044400  0.87520900  1
  C  C29  1  0.98087000  0.29955600  0.12479100  1
  C  C30  1  0.51913000  0.20044400  0.62479100  1
  C  C31  1  0.01913000  0.79955600  0.37520900  1
  C  C32  1  0.25000000  0.50634100  0.35987500  1
  C  C33  1  0.75000000  0.49365900  0.64012500  1
  C  C34  1  0.75000000  0.00634100  0.14012500  1
  C  C35  1  0.25000000  0.99365900  0.85987500  1
  C  C36  1  0.25000000  0.98358300  0.15961700  1
  C  C37  1  0.75000000  0.01641700  0.84038300  1
  C  C38  1  0.75000000  0.48358300  0.34038300  1
  C  C39  1  0.25000000  0.51641700  0.65961700  1
  C  C40  1  0.25000000  0.05166800  0.46560800  1
  C  C41  1  0.75000000  0.94833200  0.53439200  1
  C  C42  1  0.75000000  0.55166800  0.03439200  1
  C  C43  1  0.25000000  0.44833200  0.96560800  1
