# generated using pymatgen
data_Cu4NiC7
_symmetry_space_group_name_H-M   'P 1'
_cell_length_a   10.91721700
_cell_length_b   7.49552000
_cell_length_c   12.86729308
_cell_angle_alpha   59.23468288
_cell_angle_beta   90.00000000
_cell_angle_gamma   90.00000000
_symmetry_Int_Tables_number   1
_chemical_formula_structural   Cu4NiC7
_chemical_formula_sum   'Cu16 Ni4 C28'
_cell_volume   904.75376363
_cell_formula_units_Z   4
loop_
 _symmetry_equiv_pos_site_id
 _symmetry_equiv_pos_as_xyz
  1  'x, y, z'
loop_
 _atom_site_type_symbol
 _atom_site_label
 _atom_site_symmetry_multiplicity
 _atom_site_fract_x
 _atom_site_fract_y
 _atom_site_fract_z
 _atom_site_occupancy
  Ni  Ni0  1  0.40307500  0.79149300  0.69875600  1
  Ni  Ni1  1  0.90307500  0.20850700  0.80124400  1
  Ni  Ni2  1  0.59692500  0.20850700  0.30124400  1
  Ni  Ni3  1  0.09692500  0.79149300  0.19875600  1
  Cu  Cu4  1  0.92685900  0.64363000  0.09098800  1
  Cu  Cu5  1  0.42685900  0.35637000  0.40901200  1
  Cu  Cu6  1  0.07314100  0.35637000  0.90901200  1
  Cu  Cu7  1  0.57314100  0.64363000  0.59098800  1
  Cu  Cu8  1  0.95232100  0.22894200  0.31359700  1
  Cu  Cu9  1  0.45232100  0.77105800  0.18640300  1
  Cu  Cu10  1  0.04767900  0.77105800  0.68640300  1
  Cu  Cu11  1  0.54767900  0.22894200  0.81359700  1
  Cu  Cu12  1  0.84383900  0.41413000  0.44976300  1
  Cu  Cu13  1  0.34383900  0.58587000  0.05023700  1
  Cu  Cu14  1  0.15616100  0.58587000  0.55023700  1
  Cu  Cu15  1  0.65616100  0.41413000  0.94976300  1
  Cu  Cu16  1  0.83387000  0.81810600  0.21812900  1
  Cu  Cu17  1  0.33387000  0.18189400  0.28187100  1
  Cu  Cu18  1  0.16613000  0.18189400  0.78187100  1
  Cu  Cu19  1  0.66613000  0.81810600  0.71812900  1
  C  C20  1  0.43771500  0.70902200  0.08564000  1
  C  C21  1  0.43791700  0.60299400  0.32313500  1
  C  C22  1  0.06208300  0.60299400  0.82313500  1
  C  C23  1  0.56208300  0.39700600  0.67686500  1
  C  C24  1  0.93771500  0.29097800  0.41436000  1
  C  C25  1  0.56228500  0.29097800  0.91436000  1
  C  C26  1  0.06228500  0.70902200  0.58564000  1
  C  C27  1  0.93791700  0.39700600  0.17686500  1
  C  C28  1  0.80171600  0.63807600  0.35275700  1
  C  C29  1  0.30171600  0.36192400  0.14724300  1
  C  C30  1  0.19828400  0.36192400  0.64724300  1
  C  C31  1  0.45973800  0.23941400  0.33176800  1
  C  C32  1  0.54026200  0.76058600  0.66823200  1
  C  C33  1  0.04026200  0.23941400  0.83176800  1
  C  C34  1  0.95973800  0.76058600  0.16823200  1
  C  C35  1  0.69828400  0.63807600  0.85275700  1
  C  C36  1  0.15219800  0.59579100  0.27056300  1
  C  C37  1  0.58973400  0.09866000  0.24005000  1
  C  C38  1  0.91026600  0.09866000  0.74005000  1
  C  C39  1  0.41026600  0.90134000  0.75995000  1
  C  C40  1  0.08973400  0.90134000  0.25995000  1
  C  C41  1  0.83933100  0.09620100  0.91162000  1
  C  C42  1  0.66066900  0.09620100  0.41162000  1
  C  C43  1  0.16066900  0.90379900  0.08838000  1
  C  C44  1  0.34780200  0.59579100  0.77056300  1
  C  C45  1  0.84780200  0.40420900  0.72943700  1
  C  C46  1  0.65219800  0.40420900  0.22943700  1
  C  C47  1  0.33933100  0.90379900  0.58838000  1
