# generated using pymatgen
data_CuNi3C22
_symmetry_space_group_name_H-M   'P 1'
_cell_length_a   9.32109264
_cell_length_b   9.32109264
_cell_length_c   11.17047166
_cell_angle_alpha   80.60612335
_cell_angle_beta   80.60612335
_cell_angle_gamma   46.13090156
_symmetry_Int_Tables_number   1
_chemical_formula_structural   CuNi3C22
_chemical_formula_sum   'Cu2 Ni6 C44'
_cell_volume   688.57525048
_cell_formula_units_Z   2
loop_
 _symmetry_equiv_pos_site_id
 _symmetry_equiv_pos_as_xyz
  1  'x, y, z'
loop_
 _atom_site_type_symbol
 _atom_site_label
 _atom_site_symmetry_multiplicity
 _atom_site_fract_x
 _atom_site_fract_y
 _atom_site_fract_z
 _atom_site_occupancy
  Ni  Ni0  1  0.19292600  0.52848000  0.97135200  1
  Ni  Ni1  1  0.47211800  0.80746500  0.52827900  1
  Ni  Ni2  1  0.80746500  0.47211800  0.02827900  1
  Ni  Ni3  1  0.52848000  0.19292600  0.47135200  1
  Ni  Ni4  1  0.80142200  0.20071400  0.75061300  1
  Ni  Ni5  1  0.20071400  0.80142200  0.25061300  1
  Cu  Cu6  1  0.49805100  0.99989900  0.00000400  1
  Cu  Cu7  1  0.99989900  0.49805100  0.50000400  1
  C  C8  1  0.78374300  0.82634800  0.25577000  1
  C  C9  1  0.17377700  0.21598500  0.24462500  1
  C  C10  1  0.21598500  0.17377700  0.74462500  1
  C  C11  1  0.82634800  0.78374300  0.75577000  1
  C  C12  1  0.67611000  0.18558600  0.10624200  1
  C  C13  1  0.80630100  0.33119500  0.39225100  1
  C  C14  1  0.33119500  0.80630100  0.89225100  1
  C  C15  1  0.18558600  0.67611000  0.60624200  1
  C  C16  1  0.52397300  0.87483800  0.23434400  1
  C  C17  1  0.12662400  0.47437100  0.26585800  1
  C  C18  1  0.47437100  0.12662400  0.76585800  1
  C  C19  1  0.87483800  0.52397300  0.73434400  1
  C  C20  1  0.01721800  0.98849400  0.99187100  1
  C  C21  1  0.98849400  0.01721800  0.49187100  1
  C  C22  1  0.57617500  0.40955300  0.23278900  1
  C  C23  1  0.40955300  0.57617500  0.73278900  1
  C  C24  1  0.67888200  0.05722800  0.22657300  1
  C  C25  1  0.94475200  0.31794400  0.27421300  1
  C  C26  1  0.31794400  0.94475200  0.77421300  1
  C  C27  1  0.05722800  0.67888200  0.72657300  1
  C  C28  1  0.99710300  0.69040700  0.19977500  1
  C  C29  1  0.31164500  0.00184500  0.29988000  1
  C  C30  1  0.00184500  0.31164500  0.79988000  1
  C  C31  1  0.69040700  0.99710300  0.69977500  1
  C  C32  1  0.74885500  0.80695900  0.39135700  1
  C  C33  1  0.19280100  0.25213000  0.10918200  1
  C  C34  1  0.25213000  0.19280100  0.60918200  1
  C  C35  1  0.80695900  0.74885500  0.89135700  1
  C  C36  1  0.65976800  0.80875200  0.18661000  1
  C  C37  1  0.19185400  0.33960300  0.31393800  1
  C  C38  1  0.33960300  0.19185400  0.81393800  1
  C  C39  1  0.80875200  0.65976800  0.68661000  1
  C  C40  1  0.59210100  0.18558000  0.00275400  1
  C  C41  1  0.81626700  0.40483200  0.49811100  1
  C  C42  1  0.40483200  0.81626700  0.99811100  1
  C  C43  1  0.18558000  0.59210100  0.50275400  1
  C  C44  1  0.52872800  0.39987900  0.15726100  1
  C  C45  1  0.60496800  0.45766000  0.34003700  1
  C  C46  1  0.45766000  0.60496800  0.84003700  1
  C  C47  1  0.39987900  0.52872800  0.65726100  1
  C  C48  1  0.88438300  0.11030500  0.08513100  1
  C  C49  1  0.89336400  0.11224000  0.41848100  1
  C  C50  1  0.11224000  0.89336400  0.91848100  1
  C  C51  1  0.11030500  0.88438300  0.58513100  1
