# generated using pymatgen
data_Cu12NiC6
_symmetry_space_group_name_H-M   'P 1'
_cell_length_a   6.76015300
_cell_length_b   7.17330500
_cell_length_c   12.26738800
_cell_angle_alpha   90.00000000
_cell_angle_beta   90.00000000
_cell_angle_gamma   90.00000000
_symmetry_Int_Tables_number   1
_chemical_formula_structural   Cu12NiC6
_chemical_formula_sum   'Cu24 Ni2 C12'
_cell_volume   594.87802163
_cell_formula_units_Z   2
loop_
 _symmetry_equiv_pos_site_id
 _symmetry_equiv_pos_as_xyz
  1  'x, y, z'
loop_
 _atom_site_type_symbol
 _atom_site_label
 _atom_site_symmetry_multiplicity
 _atom_site_fract_x
 _atom_site_fract_y
 _atom_site_fract_z
 _atom_site_occupancy
  C  C0  1  0.47946300  0.00000000  0.32582800  1
  C  C1  1  0.47946300  0.00000000  0.67417200  1
  C  C2  1  0.52053700  0.50000000  0.17417200  1
  C  C3  1  0.52053700  0.50000000  0.82582800  1
  C  C4  1  0.82879000  0.00000000  0.00000000  1
  C  C5  1  0.17121000  0.50000000  0.50000000  1
  C  C6  1  0.00000000  0.75000000  0.75000000  1
  C  C7  1  0.00000000  0.25000000  0.75000000  1
  C  C8  1  0.00000000  0.75000000  0.25000000  1
  C  C9  1  0.00000000  0.25000000  0.25000000  1
  C  C10  1  0.95337100  0.00000000  0.50000000  1
  C  C11  1  0.04662900  0.50000000  0.00000000  1
  Ni  Ni12  1  0.38903300  0.00000000  0.00000000  1
  Ni  Ni13  1  0.61096700  0.50000000  0.50000000  1
  Cu  Cu14  1  0.95024700  0.81252400  0.60575300  1
  Cu  Cu15  1  0.95024700  0.18747600  0.60575300  1
  Cu  Cu16  1  0.95024700  0.81252400  0.39424700  1
  Cu  Cu17  1  0.95024700  0.18747600  0.39424700  1
  Cu  Cu18  1  0.04975300  0.68747600  0.89424700  1
  Cu  Cu19  1  0.04975300  0.31252400  0.89424700  1
  Cu  Cu20  1  0.04975300  0.68747600  0.10575300  1
  Cu  Cu21  1  0.04975300  0.31252400  0.10575300  1
  Cu  Cu22  1  0.74696000  0.78879400  0.78460800  1
  Cu  Cu23  1  0.74696000  0.21120600  0.78460800  1
  Cu  Cu24  1  0.74696000  0.78879400  0.21539200  1
  Cu  Cu25  1  0.74696000  0.21120600  0.21539200  1
  Cu  Cu26  1  0.25304000  0.71120600  0.71539200  1
  Cu  Cu27  1  0.25304000  0.28879400  0.71539200  1
  Cu  Cu28  1  0.25304000  0.71120600  0.28460800  1
  Cu  Cu29  1  0.25304000  0.28879400  0.28460800  1
  Cu  Cu30  1  0.94233300  0.50000000  0.71525400  1
  Cu  Cu31  1  0.94233300  0.50000000  0.28474600  1
  Cu  Cu32  1  0.05766700  0.00000000  0.78474600  1
  Cu  Cu33  1  0.05766700  0.00000000  0.21525400  1
  Cu  Cu34  1  0.69156500  0.00000000  0.50000000  1
  Cu  Cu35  1  0.30843500  0.50000000  0.00000000  1
  Cu  Cu36  1  0.21646900  0.00000000  0.50000000  1
  Cu  Cu37  1  0.78353100  0.50000000  0.00000000  1
