# generated using pymatgen
data_Cu14NiC16
_symmetry_space_group_name_H-M   'P 1'
_cell_length_a   8.64835913
_cell_length_b   8.70186728
_cell_length_c   4.32469620
_cell_angle_alpha   90.00000000
_cell_angle_beta   90.00000000
_cell_angle_gamma   90.00000000
_symmetry_Int_Tables_number   1
_chemical_formula_structural   Cu14NiC16
_chemical_formula_sum   'Cu14 Ni1 C16'
_cell_volume   325.46311415
_cell_formula_units_Z   1
loop_
 _symmetry_equiv_pos_site_id
 _symmetry_equiv_pos_as_xyz
  1  'x, y, z'
loop_
 _atom_site_type_symbol
 _atom_site_label
 _atom_site_symmetry_multiplicity
 _atom_site_fract_x
 _atom_site_fract_y
 _atom_site_fract_z
 _atom_site_occupancy
  C  C0  1  0.00274188  -0.00000000  -0.00000000  1
  Ni  Ni1  1  0.99932655  0.50000000  -0.00000000  1
  Cu  Cu2  1  0.49893436  -0.00000000  -0.00000000  1
  Cu  Cu3  1  0.50112553  0.50000000  -0.00000000  1
  Cu  Cu4  1  0.00053969  0.23467174  0.50000000  1
  Cu  Cu5  1  0.00053969  0.76532826  0.50000000  1
  Cu  Cu6  1  0.50023278  0.24741352  0.50000000  1
  Cu  Cu7  1  0.50023278  0.75258648  0.50000000  1
  Cu  Cu8  1  0.24990397  -0.00000000  0.50000000  1
  Cu  Cu9  1  0.25761543  0.50000000  0.50000000  1
  Cu  Cu10  1  0.75198714  -0.00000000  0.50000000  1
  Cu  Cu11  1  0.74256690  0.50000000  0.50000000  1
  Cu  Cu12  1  0.25702902  0.24611862  -0.00000000  1
  Cu  Cu13  1  0.25702902  0.75388138  0.00000000  1
  Cu  Cu14  1  0.74472058  0.24127360  0.00000000  1
  Cu  Cu15  1  0.74472058  0.75872640  0.00000000  1
  C  C16  1  0.25475080  0.50000000  -0.00000000  1
  C  C17  1  0.73584529  -0.00000000  -0.00000000  1
  C  C18  1  0.74567814  0.50000000  -0.00000000  1
  C  C19  1  0.24871617  0.25406281  0.50000000  1
  C  C20  1  0.24871617  0.74593719  0.50000000  1
  C  C21  1  0.75193417  0.25084850  0.50000000  1
  C  C22  1  0.75193417  0.74915150  0.50000000  1
  C  C23  1  0.00057654  -0.00000000  0.50000000  1
  C  C24  1  0.99959685  0.50000000  0.50000000  1
  C  C25  1  0.50159014  -0.00000000  0.50000000  1
  C  C26  1  0.50032817  0.50000000  0.50000000  1
  C  C27  1  0.99917299  0.26342024  -0.00000000  1
  C  C28  1  0.99917299  0.73657976  -0.00000000  1
  C  C29  1  0.50137075  0.25442637  -0.00000000  1
  C  C30  1  0.50137075  0.74557363  -0.00000000  1
