# generated using pymatgen
data_CuNiC61
_symmetry_space_group_name_H-M   'P 1'
_cell_length_a   8.63580800
_cell_length_b   8.63580800
_cell_length_c   8.46674000
_cell_angle_alpha   90.00000000
_cell_angle_beta   90.00000000
_cell_angle_gamma   90.00000000
_symmetry_Int_Tables_number   1
_chemical_formula_structural   CuNiC61
_chemical_formula_sum   'Cu1 Ni1 C61'
_cell_volume   631.42559141
_cell_formula_units_Z   1
loop_
 _symmetry_equiv_pos_site_id
 _symmetry_equiv_pos_as_xyz
  1  'x, y, z'
loop_
 _atom_site_type_symbol
 _atom_site_label
 _atom_site_symmetry_multiplicity
 _atom_site_fract_x
 _atom_site_fract_y
 _atom_site_fract_z
 _atom_site_occupancy
  Ni  Ni0  1  0.00000000  0.00000000  0.05575200  1
  Cu  Cu1  1  0.50000000  0.50000000  0.99633500  1
  C  C2  1  0.50000000  0.00000000  0.99231800  1
  C  C3  1  0.00000000  0.50000000  0.99231800  1
  C  C4  1  0.00000000  0.00000000  0.52032100  1
  C  C5  1  0.50000000  0.00000000  0.50365400  1
  C  C6  1  0.00000000  0.50000000  0.50365400  1
  C  C7  1  0.50000000  0.50000000  0.50029800  1
  C  C8  1  0.25511800  0.25511800  0.99733400  1
  C  C9  1  0.74488200  0.25511800  0.99733400  1
  C  C10  1  0.25511800  0.74488200  0.99733400  1
  C  C11  1  0.74488200  0.74488200  0.99733400  1
  C  C12  1  0.24933400  0.24933400  0.49939100  1
  C  C13  1  0.75066600  0.24933400  0.49939100  1
  C  C14  1  0.24933400  0.75066600  0.49939100  1
  C  C15  1  0.75066600  0.75066600  0.49939100  1
  C  C16  1  0.27785300  0.00000000  0.24733800  1
  C  C17  1  0.72214700  0.00000000  0.24733800  1
  C  C18  1  0.25668000  0.50000000  0.24492700  1
  C  C19  1  0.74332000  0.50000000  0.24492700  1
  C  C20  1  0.24868100  0.00000000  0.75700600  1
  C  C21  1  0.75131900  0.00000000  0.75700600  1
  C  C22  1  0.25415400  0.50000000  0.75207500  1
  C  C23  1  0.74584600  0.50000000  0.75207500  1
  C  C24  1  0.00000000  0.27785300  0.24733800  1
  C  C25  1  0.50000000  0.25668000  0.24492700  1
  C  C26  1  0.00000000  0.72214700  0.24733800  1
  C  C27  1  0.50000000  0.74332000  0.24492700  1
  C  C28  1  0.00000000  0.24868100  0.75700600  1
  C  C29  1  0.50000000  0.25415400  0.75207500  1
  C  C30  1  0.00000000  0.75131900  0.75700600  1
  C  C31  1  0.50000000  0.74584600  0.75207500  1
  C  C32  1  0.50000000  0.00000000  0.25708800  1
  C  C33  1  0.00000000  0.50000000  0.25708800  1
  C  C34  1  0.50000000  0.50000000  0.25664800  1
  C  C35  1  0.00000000  0.00000000  0.75030800  1
  C  C36  1  0.50000000  0.00000000  0.74307200  1
  C  C37  1  0.00000000  0.50000000  0.74307200  1
  C  C38  1  0.50000000  0.50000000  0.74124800  1
  C  C39  1  0.24256500  0.24256500  0.24808400  1
  C  C40  1  0.75743500  0.24256500  0.24808400  1
  C  C41  1  0.24256500  0.75743500  0.24808400  1
  C  C42  1  0.75743500  0.75743500  0.24808400  1
  C  C43  1  0.24904400  0.24904400  0.74772100  1
  C  C44  1  0.75095600  0.24904400  0.74772100  1
  C  C45  1  0.24904400  0.75095600  0.74772100  1
  C  C46  1  0.75095600  0.75095600  0.74772100  1
  C  C47  1  0.27026400  0.00000000  0.00198600  1
  C  C48  1  0.72973600  0.00000000  0.00198600  1
  C  C49  1  0.24669100  0.50000000  0.00056800  1
  C  C50  1  0.75330900  0.50000000  0.00056800  1
  C  C51  1  0.24234500  0.00000000  0.49159800  1
  C  C52  1  0.75765500  0.00000000  0.49159800  1
  C  C53  1  0.24799600  0.50000000  0.49617800  1
  C  C54  1  0.75200400  0.50000000  0.49617800  1
  C  C55  1  0.00000000  0.27026400  0.00198600  1
  C  C56  1  0.50000000  0.24669100  0.00056800  1
  C  C57  1  0.00000000  0.72973600  0.00198600  1
  C  C58  1  0.50000000  0.75330900  0.00056800  1
  C  C59  1  0.00000000  0.24234500  0.49159800  1
  C  C60  1  0.50000000  0.24799600  0.49617800  1
  C  C61  1  0.00000000  0.75765500  0.49159800  1
  C  C62  1  0.50000000  0.75200400  0.49617800  1
