# generated using pymatgen
data_Cu3NiC9
_symmetry_space_group_name_H-M   'P 1'
_cell_length_a   6.26099778
_cell_length_b   8.11147289
_cell_length_c   8.78586775
_cell_angle_alpha   87.04143133
_cell_angle_beta   75.65198239
_cell_angle_gamma   107.54298579
_symmetry_Int_Tables_number   1
_chemical_formula_structural   Cu3NiC9
_chemical_formula_sum   'Cu3 Ni1 C9'
_cell_volume   408.30445475
_cell_formula_units_Z   1
loop_
 _symmetry_equiv_pos_site_id
 _symmetry_equiv_pos_as_xyz
  1  'x, y, z'
loop_
 _atom_site_type_symbol
 _atom_site_label
 _atom_site_symmetry_multiplicity
 _atom_site_fract_x
 _atom_site_fract_y
 _atom_site_fract_z
 _atom_site_occupancy
  C  C0  1  0.01078100  0.98186600  0.44647100  1
  C  C1  1  0.42155200  0.49872000  0.00812600  1
  C  C2  1  0.92488100  0.50617600  0.00885800  1
  C  C3  1  0.74392200  0.27005100  0.72730900  1
  C  C4  1  0.76071700  0.82376900  0.28093900  1
  C  C5  1  0.51115600  0.84610600  0.86874900  1
  C  C6  1  0.89424500  0.01531200  0.72617700  1
  C  C7  1  0.57366700  0.80880000  0.80185300  1
  C  C8  1  0.83891700  0.27729000  0.76757100  1
  Ni  Ni9  1  0.96332700  0.95570400  0.21461100  1
  Cu  Cu10  1  0.67886800  0.57220200  0.06563100  1
  Cu  Cu11  1  0.16233500  0.43019700  0.95298100  1
  Cu  Cu12  1  0.02530300  0.01380600  0.64039600  1
