# generated using pymatgen
data_Cu(NiC2)6
_symmetry_space_group_name_H-M   'P 1'
_cell_length_a   14.78310400
_cell_length_b   9.88280800
_cell_length_c   10.39920597
_cell_angle_alpha   90.00000000
_cell_angle_beta   110.03565294
_cell_angle_gamma   90.00000000
_symmetry_Int_Tables_number   1
_chemical_formula_structural   Cu(NiC2)6
_chemical_formula_sum   'Cu8 Ni48 C96'
_cell_volume   1427.36002814
_cell_formula_units_Z   8
loop_
 _symmetry_equiv_pos_site_id
 _symmetry_equiv_pos_as_xyz
  1  'x, y, z'
loop_
 _atom_site_type_symbol
 _atom_site_label
 _atom_site_symmetry_multiplicity
 _atom_site_fract_x
 _atom_site_fract_y
 _atom_site_fract_z
 _atom_site_occupancy
  C  C0  1  0.67515200  0.76309200  0.00794700  1
  C  C1  1  0.32484800  0.26309200  0.49205300  1
  C  C2  1  0.32484800  0.23690800  0.99205300  1
  C  C3  1  0.67515200  0.73690800  0.50794700  1
  C  C4  1  0.85253700  0.81522800  0.95552700  1
  C  C5  1  0.14746300  0.31522800  0.54447300  1
  C  C6  1  0.14746300  0.18477200  0.04447300  1
  C  C7  1  0.85253700  0.68477200  0.45552700  1
  C  C8  1  0.17301000  0.70214500  0.95845600  1
  C  C9  1  0.82699000  0.20214500  0.54154400  1
  C  C10  1  0.82699000  0.29785500  0.04154400  1
  C  C11  1  0.17301000  0.79785500  0.45845600  1
  C  C12  1  0.36544900  0.69270500  0.93723200  1
  C  C13  1  0.63455100  0.19270500  0.56276800  1
  C  C14  1  0.63455100  0.30729500  0.06276800  1
  C  C15  1  0.36544900  0.80729500  0.43723200  1
  C  C16  1  0.54227400  0.89589900  0.90330400  1
  C  C17  1  0.45772600  0.39589900  0.59669600  1
  C  C18  1  0.45772600  0.10410100  0.09669600  1
  C  C19  1  0.54227400  0.60410100  0.40330400  1
  C  C20  1  0.64103900  0.96027500  0.88394400  1
  C  C21  1  0.35896100  0.46027500  0.61605600  1
  C  C22  1  0.35896100  0.03972500  0.11605600  1
  C  C23  1  0.64103900  0.53972500  0.38394400  1
  C  C24  1  0.65879300  0.55451600  0.90751500  1
  C  C25  1  0.34120700  0.05451600  0.59248500  1
  C  C26  1  0.34120700  0.44548400  0.09248500  1
  C  C27  1  0.65879300  0.94548400  0.40751500  1
  C  C28  1  0.63964100  0.68014800  0.79076600  1
  C  C29  1  0.36035900  0.18014800  0.70923400  1
  C  C30  1  0.36035900  0.31985200  0.20923400  1
  C  C31  1  0.63964100  0.81985200  0.29076600  1
  C  C32  1  0.76533100  0.90087800  0.74815600  1
  C  C33  1  0.23466900  0.40087800  0.75184400  1
  C  C34  1  0.23466900  0.09912200  0.25184400  1
  C  C35  1  0.76533100  0.59912200  0.24815600  1
  C  C36  1  0.81884900  0.02862200  0.86017000  1
  C  C37  1  0.18115100  0.52862200  0.63983000  1
  C  C38  1  0.18115100  0.97137800  0.13983000  1
  C  C39  1  0.81884900  0.47137800  0.36017000  1
  C  C40  1  0.97390300  0.82401400  0.16037700  1
  C  C41  1  0.02609700  0.32401400  0.33962300  1
  C  C42  1  0.02609700  0.17598600  0.83962300  1
  C  C43  1  0.97390300  0.67598600  0.66037700  1
  C  C44  1  0.01477100  0.86316000  0.03413500  1
  C  C45  1  0.98522900  0.36316000  0.46586500  1
  C  C46  1  0.98522900  0.13684000  0.96586500  1
  C  C47  1  0.01477100  0.63684000  0.53413500  1
  C  C48  1  0.85654300  0.58671800  0.91642500  1
  C  C49  1  0.14345700  0.08671800  0.58357500  1
  C  C50  1  0.14345700  0.41328200  0.08357500  1
  C  C51  1  0.85654300  0.91328200  0.41642500  1
  C  C52  1  0.83482400  0.67928400  0.76573800  1
  C  C53  1  0.16517600  0.17928400  0.73426200  1
  C  C54  1  0.16517600  0.32071600  0.23426200  1
  C  C55  1  0.83482400  0.82071600  0.26573800  1
  C  C56  1  0.13995400  0.79451900  0.74047700  1
  C  C57  1  0.86004600  0.29451900  0.75952300  1
  C  C58  1  0.86004600  0.20548100  0.25952300  1
  C  C59  1  0.13995400  0.70548100  0.24047700  1
  C  C60  1  0.12400400  0.90881100  0.85488500  1
  C  C61  1  0.87599600  0.40881100  0.64511500  1
  C  C62  1  0.87599600  0.09118900  0.14511500  1
  C  C63  1  0.12400400  0.59118900  0.35488500  1
  C  C64  1  0.10552500  0.50645500  0.85363300  1
  C  C65  1  0.89447500  0.00645500  0.64636700  1
  C  C66  1  0.89447500  0.49354500  0.14636700  1
  C  C67  1  0.10552500  0.99354500  0.35363300  1
  C  C68  1  0.03009300  0.59055000  0.91441200  1
  C  C69  1  0.96990700  0.09055000  0.58558800  1
  C  C70  1  0.96990700  0.40945000  0.08558800  1
  C  C71  1  0.03009300  0.90945000  0.41441200  1
  C  C72  1  0.35716900  0.92027600  0.89666700  1
  C  C73  1  0.64283100  0.42027600  0.60333300  1
  C  C74  1  0.64283100  0.07972400  0.10333300  1
  C  C75  1  0.35716900  0.57972400  0.39666700  1
  C  C76  1  0.30544800  0.82888300  0.75030500  1
  C  C77  1  0.69455200  0.32888300  0.74969500  1
  C  C78  1  0.69455200  0.17111700  0.24969500  1
  C  C79  1  0.30544800  0.67111700  0.25030500  1
  C  C80  1  0.51752800  0.73479400  0.10277900  1
  C  C81  1  0.48247200  0.23479400  0.39722100  1
  C  C82  1  0.48247200  0.26520600  0.89722100  1
  C  C83  1  0.51752800  0.76520600  0.60277900  1
  C  C84  1  0.42335900  0.75449000  0.16550400  1
  C  C85  1  0.57664100  0.25449000  0.33449600  1
  C  C86  1  0.57664100  0.24551000  0.83449600  1
  C  C87  1  0.42335900  0.74551000  0.66550400  1
  C  C88  1  0.39455500  0.48172000  0.87127000  1
  C  C89  1  0.60544500  0.98172000  0.62873000  1
  C  C90  1  0.60544500  0.51828000  0.12873000  1
  C  C91  1  0.39455500  0.01828000  0.37127000  1
  C  C92  1  0.47605000  0.59530400  0.85518800  1
  C  C93  1  0.52395000  0.09530400  0.64481200  1
  C  C94  1  0.52395000  0.40469600  0.14481200  1
  C  C95  1  0.47605000  0.90469600  0.35518800  1
  Ni  Ni96  1  0.61519700  0.90806200  0.94906200  1
  Ni  Ni97  1  0.38480300  0.40806200  0.55093800  1
  Ni  Ni98  1  0.38480300  0.09193800  0.05093800  1
  Ni  Ni99  1  0.61519700  0.59193800  0.44906200  1
  Ni  Ni100  1  0.63085000  0.64983300  0.88037800  1
  Ni  Ni101  1  0.36915000  0.14983300  0.61962200  1
  Ni  Ni102  1  0.36915000  0.35016700  0.11962200  1
  Ni  Ni103  1  0.63085000  0.85016700  0.38037800  1
  Ni  Ni104  1  0.78800300  0.79677400  0.05068700  1
  Ni  Ni105  1  0.21199700  0.29677400  0.44931300  1
  Ni  Ni106  1  0.21199700  0.20322600  0.94931300  1
  Ni  Ni107  1  0.78800300  0.70322600  0.55068700  1
  Ni  Ni108  1  0.82269100  0.92940000  0.83221600  1
  Ni  Ni109  1  0.17730900  0.42940000  0.66778400  1
  Ni  Ni110  1  0.17730900  0.07060000  0.16778400  1
  Ni  Ni111  1  0.82269100  0.57060000  0.33221600  1
  Ni  Ni112  1  0.95664800  0.86776700  0.06613400  1
  Ni  Ni113  1  0.04335200  0.36776700  0.43386600  1
  Ni  Ni114  1  0.04335200  0.13223300  0.93386600  1
  Ni  Ni115  1  0.95664800  0.63223300  0.56613400  1
  Ni  Ni116  1  0.86221100  0.67721300  0.87094500  1
  Ni  Ni117  1  0.13778900  0.17721300  0.62905500  1
  Ni  Ni118  1  0.13778900  0.32278700  0.12905500  1
  Ni  Ni119  1  0.86221100  0.82278700  0.37094500  1
  Ni  Ni120  1  0.12456900  0.80961900  0.82874700  1
  Ni  Ni121  1  0.87543100  0.30961900  0.67125300  1
  Ni  Ni122  1  0.87543100  0.19038100  0.17125300  1
  Ni  Ni123  1  0.12456900  0.69038100  0.32874700  1
  Ni  Ni124  1  0.10062700  0.56508400  0.93211200  1
  Ni  Ni125  1  0.89937300  0.06508400  0.56788800  1
  Ni  Ni126  1  0.89937300  0.43491600  0.06788800  1
  Ni  Ni127  1  0.10062700  0.93491600  0.43211200  1
  Ni  Ni128  1  0.27148700  0.63358800  0.95622800  1
  Ni  Ni129  1  0.72851300  0.13358800  0.54377200  1
  Ni  Ni130  1  0.72851300  0.36641200  0.04377200  1
  Ni  Ni131  1  0.27148700  0.86641200  0.45622800  1
  Ni  Ni132  1  0.35886700  0.83254300  0.84442500  1
  Ni  Ni133  1  0.64113300  0.33254300  0.65557500  1
  Ni  Ni134  1  0.64113300  0.16745700  0.15557500  1
  Ni  Ni135  1  0.35886700  0.66745700  0.34442500  1
  Ni  Ni136  1  0.44571300  0.72285400  0.08848600  1
  Ni  Ni137  1  0.55428700  0.22285400  0.41151400  1
  Ni  Ni138  1  0.55428700  0.27714600  0.91151400  1
  Ni  Ni139  1  0.44571300  0.77714600  0.58848600  1
  Ni  Ni140  1  0.40603500  0.58084600  0.85096200  1
  Ni  Ni141  1  0.59396500  0.08084600  0.64903800  1
  Ni  Ni142  1  0.59396500  0.41915400  0.14903800  1
  Ni  Ni143  1  0.40603500  0.91915400  0.35096200  1
  Cu  Cu144  1  0.64965100  0.71080700  0.12870100  1
  Cu  Cu145  1  0.35034900  0.21080700  0.37129900  1
  Cu  Cu146  1  0.35034900  0.28919300  0.87129900  1
  Cu  Cu147  1  0.64965100  0.78919300  0.62870100  1
  Cu  Cu148  1  0.17411900  0.77255900  0.08858300  1
  Cu  Cu149  1  0.82588100  0.27255900  0.41141700  1
  Cu  Cu150  1  0.82588100  0.22744100  0.91141700  1
  Cu  Cu151  1  0.17411900  0.72744100  0.58858300  1
