# generated using pymatgen
data_Cu2NiC8
_symmetry_space_group_name_H-M   'P 1'
_cell_length_a   5.51777200
_cell_length_b   7.23501100
_cell_length_c   15.48998200
_cell_angle_alpha   90.00000000
_cell_angle_beta   90.00000000
_cell_angle_gamma   90.00000000
_symmetry_Int_Tables_number   1
_chemical_formula_structural   Cu2NiC8
_chemical_formula_sum   'Cu8 Ni4 C32'
_cell_volume   618.37775730
_cell_formula_units_Z   4
loop_
 _symmetry_equiv_pos_site_id
 _symmetry_equiv_pos_as_xyz
  1  'x, y, z'
loop_
 _atom_site_type_symbol
 _atom_site_label
 _atom_site_symmetry_multiplicity
 _atom_site_fract_x
 _atom_site_fract_y
 _atom_site_fract_z
 _atom_site_occupancy
  C  C0  1  0.75000000  0.77376500  0.45792100  1
  C  C1  1  0.25000000  0.22623500  0.54207900  1
  C  C2  1  0.25000000  0.77376500  0.04207900  1
  C  C3  1  0.75000000  0.22623500  0.95792100  1
  Ni  Ni4  1  0.25000000  0.73890900  0.61366400  1
  Ni  Ni5  1  0.75000000  0.26109100  0.38633600  1
  Ni  Ni6  1  0.75000000  0.73890900  0.88633600  1
  Ni  Ni7  1  0.25000000  0.26109100  0.11366400  1
  Cu  Cu8  1  0.75000000  0.99192400  0.67128100  1
  Cu  Cu9  1  0.25000000  0.00807600  0.32871900  1
  Cu  Cu10  1  0.25000000  0.99192400  0.82871900  1
  Cu  Cu11  1  0.75000000  0.00807600  0.17128100  1
  Cu  Cu12  1  0.75000000  0.48644800  0.67478900  1
  Cu  Cu13  1  0.25000000  0.51355200  0.32521100  1
  Cu  Cu14  1  0.25000000  0.48644800  0.82521100  1
  Cu  Cu15  1  0.75000000  0.51355200  0.17478900  1
  C  C16  1  0.75000000  0.23254700  0.61148500  1
  C  C17  1  0.25000000  0.76745300  0.38851500  1
  C  C18  1  0.25000000  0.23254700  0.88851500  1
  C  C19  1  0.75000000  0.76745300  0.11148500  1
  C  C20  1  0.00952600  0.54029000  0.59855700  1
  C  C21  1  0.50952600  0.45971000  0.40144300  1
  C  C22  1  0.99047400  0.54029000  0.90144300  1
  C  C23  1  0.49047400  0.45971000  0.09855700  1
  C  C24  1  0.99047400  0.45971000  0.40144300  1
  C  C25  1  0.49047400  0.54029000  0.59855700  1
  C  C26  1  0.00952600  0.45971000  0.09855700  1
  C  C27  1  0.50952600  0.54029000  0.90144300  1
  C  C28  1  0.75000000  0.75699500  0.73046700  1
  C  C29  1  0.25000000  0.24300500  0.26953300  1
  C  C30  1  0.25000000  0.75699500  0.76953300  1
  C  C31  1  0.75000000  0.24300500  0.23046700  1
  C  C32  1  0.99995900  0.92359700  0.58944800  1
  C  C33  1  0.49995900  0.07640300  0.41055200  1
  C  C34  1  0.00004100  0.92359700  0.91055200  1
  C  C35  1  0.50004100  0.07640300  0.08944800  1
  C  C36  1  0.00004100  0.07640300  0.41055200  1
  C  C37  1  0.50004100  0.92359700  0.58944800  1
  C  C38  1  0.99995900  0.07640300  0.08944800  1
  C  C39  1  0.49995900  0.92359700  0.91055200  1
  C  C40  1  0.50000000  0.10518300  0.75000000  1
  C  C41  1  0.00000000  0.89481700  0.25000000  1
  C  C42  1  0.50000000  0.89481700  0.25000000  1
  C  C43  1  0.00000000  0.10518300  0.75000000  1
