# generated using pymatgen
data_CuNiC
_symmetry_space_group_name_H-M   'P 1'
_cell_length_a   5.90963100
_cell_length_b   7.95133000
_cell_length_c   9.63013400
_cell_angle_alpha   90.00000000
_cell_angle_beta   90.00000000
_cell_angle_gamma   90.00000000
_symmetry_Int_Tables_number   1
_chemical_formula_structural   CuNiC
_chemical_formula_sum   'Cu8 Ni8 C8'
_cell_volume   452.51447146
_cell_formula_units_Z   8
loop_
 _symmetry_equiv_pos_site_id
 _symmetry_equiv_pos_as_xyz
  1  'x, y, z'
loop_
 _atom_site_type_symbol
 _atom_site_label
 _atom_site_symmetry_multiplicity
 _atom_site_fract_x
 _atom_site_fract_y
 _atom_site_fract_z
 _atom_site_occupancy
  C  C0  1  0.25000000  0.66330600  0.18200600  1
  C  C1  1  0.75000000  0.33669400  0.81799400  1
  C  C2  1  0.75000000  0.16330600  0.31799400  1
  C  C3  1  0.25000000  0.83669400  0.68200600  1
  C  C4  1  0.25000000  0.20187600  0.06501000  1
  C  C5  1  0.75000000  0.79812400  0.93499000  1
  C  C6  1  0.75000000  0.70187600  0.43499000  1
  C  C7  1  0.25000000  0.29812400  0.56501000  1
  Ni  Ni8  1  0.07085800  0.29738400  0.07936600  1
  Ni  Ni9  1  0.92914200  0.70261600  0.92063400  1
  Ni  Ni10  1  0.92914200  0.79738400  0.42063400  1
  Ni  Ni11  1  0.57085800  0.70261600  0.92063400  1
  Ni  Ni12  1  0.07085800  0.20261600  0.57936600  1
  Ni  Ni13  1  0.42914200  0.29738400  0.07936600  1
  Ni  Ni14  1  0.42914200  0.20261600  0.57936600  1
  Ni  Ni15  1  0.57085800  0.79738400  0.42063400  1
  Cu  Cu16  1  0.25000000  0.39035900  0.43482100  1
  Cu  Cu17  1  0.75000000  0.60964100  0.56517900  1
  Cu  Cu18  1  0.75000000  0.89035900  0.06517900  1
  Cu  Cu19  1  0.25000000  0.10964100  0.93482100  1
  Cu  Cu20  1  0.25000000  0.06118700  0.16397300  1
  Cu  Cu21  1  0.75000000  0.93881300  0.83602700  1
  Cu  Cu22  1  0.75000000  0.56118700  0.33602700  1
  Cu  Cu23  1  0.25000000  0.43881300  0.66397300  1
