# generated using pymatgen
data_Cu(NiC3)2
_symmetry_space_group_name_H-M   'P 1'
_cell_length_a   3.34611200
_cell_length_b   3.34611200
_cell_length_c   22.74546900
_cell_angle_alpha   90.00000000
_cell_angle_beta   90.00000000
_cell_angle_gamma   120.00000007
_symmetry_Int_Tables_number   1
_chemical_formula_structural   Cu(NiC3)2
_chemical_formula_sum   'Cu2 Ni4 C12'
_cell_volume   220.54970203
_cell_formula_units_Z   2
loop_
 _symmetry_equiv_pos_site_id
 _symmetry_equiv_pos_as_xyz
  1  'x, y, z'
loop_
 _atom_site_type_symbol
 _atom_site_label
 _atom_site_symmetry_multiplicity
 _atom_site_fract_x
 _atom_site_fract_y
 _atom_site_fract_z
 _atom_site_occupancy
  Ni  Ni0  1  0.66666700  0.33333300  0.13543300  1
  Ni  Ni1  1  0.66666700  0.33333300  0.36456700  1
  Ni  Ni2  1  0.33333300  0.66666700  0.63543300  1
  Ni  Ni3  1  0.33333300  0.66666700  0.86456700  1
  Cu  Cu4  1  0.00000000  0.00000000  0.00000000  1
  Cu  Cu5  1  0.00000000  0.00000000  0.50000000  1
  C  C6  1  0.00000000  0.00000000  0.25000000  1
  C  C7  1  0.00000000  0.00000000  0.75000000  1
  C  C8  1  0.66666700  0.33333300  0.04813600  1
  C  C9  1  0.00000000  0.00000000  0.16220300  1
  C  C10  1  0.66666700  0.33333300  0.25000000  1
  C  C11  1  0.00000000  0.00000000  0.33779700  1
  C  C12  1  0.66666700  0.33333300  0.45186400  1
  C  C13  1  0.33333300  0.66666700  0.54813600  1
  C  C14  1  0.00000000  0.00000000  0.66220300  1
  C  C15  1  0.33333300  0.66666700  0.75000000  1
  C  C16  1  0.00000000  0.00000000  0.83779700  1
  C  C17  1  0.33333300  0.66666700  0.95186400  1
