# generated using pymatgen
data_Cu4NiC22
_symmetry_space_group_name_H-M   'P 1'
_cell_length_a   19.94370100
_cell_length_b   5.57047700
_cell_length_c   6.92317714
_cell_angle_alpha   73.34380840
_cell_angle_beta   90.00000000
_cell_angle_gamma   90.00000000
_symmetry_Int_Tables_number   1
_chemical_formula_structural   Cu4NiC22
_chemical_formula_sum   'Cu8 Ni2 C44'
_cell_volume   736.86529318
_cell_formula_units_Z   2
loop_
 _symmetry_equiv_pos_site_id
 _symmetry_equiv_pos_as_xyz
  1  'x, y, z'
loop_
 _atom_site_type_symbol
 _atom_site_label
 _atom_site_symmetry_multiplicity
 _atom_site_fract_x
 _atom_site_fract_y
 _atom_site_fract_z
 _atom_site_occupancy
  Ni  Ni0  1  0.25000000  0.75638300  0.81271900  1
  Ni  Ni1  1  0.75000000  0.24361700  0.18728100  1
  Cu  Cu2  1  0.03891300  0.69859800  0.11700000  1
  Cu  Cu3  1  0.53891300  0.30140200  0.88300000  1
  Cu  Cu4  1  0.96108700  0.30140200  0.88300000  1
  Cu  Cu5  1  0.46108700  0.69859800  0.11700000  1
  Cu  Cu6  1  0.15832700  0.35201600  0.48139000  1
  Cu  Cu7  1  0.65832700  0.64798400  0.51861000  1
  Cu  Cu8  1  0.84167300  0.64798400  0.51861000  1
  Cu  Cu9  1  0.34167300  0.35201600  0.48139000  1
  C  C10  1  0.25000000  0.93535500  0.28195000  1
  C  C11  1  0.75000000  0.06464500  0.71805000  1
  C  C12  1  0.13565300  0.22939200  0.00717200  1
  C  C13  1  0.63565300  0.77060800  0.99282800  1
  C  C14  1  0.86434700  0.77060800  0.99282800  1
  C  C15  1  0.36434700  0.22939200  0.00717200  1
  C  C16  1  0.06082700  0.80260300  0.59523400  1
  C  C17  1  0.56082700  0.19739700  0.40476600  1
  C  C18  1  0.93917300  0.19739700  0.40476600  1
  C  C19  1  0.43917300  0.80260300  0.59523400  1
  C  C20  1  0.25000000  0.13426600  0.41614500  1
  C  C21  1  0.75000000  0.86573400  0.58385500  1
  C  C22  1  0.25000000  0.64128100  0.41861100  1
  C  C23  1  0.75000000  0.35871900  0.58138900  1
  C  C24  1  0.18361900  0.98141800  0.13070100  1
  C  C25  1  0.68361900  0.01858200  0.86929900  1
  C  C26  1  0.81638100  0.01858200  0.86929900  1
  C  C27  1  0.31638100  0.98141800  0.13070100  1
  C  C28  1  0.17349600  0.36153900  0.79522300  1
  C  C29  1  0.67349600  0.63846100  0.20477700  1
  C  C30  1  0.82650400  0.63846100  0.20477700  1
  C  C31  1  0.32650400  0.36153900  0.79522300  1
  C  C32  1  0.12987700  0.42241900  0.14774600  1
  C  C33  1  0.62987700  0.57758100  0.85225400  1
  C  C34  1  0.87012300  0.57758100  0.85225400  1
  C  C35  1  0.37012300  0.42241900  0.14774600  1
  C  C36  1  0.06308600  0.10253600  0.98177300  1
  C  C37  1  0.56308600  0.89746400  0.01822700  1
  C  C38  1  0.93691400  0.89746400  0.01822700  1
  C  C39  1  0.43691400  0.10253600  0.98177300  1
  C  C40  1  0.12817200  0.95858700  0.61486100  1
  C  C41  1  0.62817200  0.04141300  0.38513900  1
  C  C42  1  0.87182800  0.04141300  0.38513900  1
  C  C43  1  0.37182800  0.95858700  0.61486100  1
  C  C44  1  0.03357000  0.62532900  0.81369900  1
  C  C45  1  0.53357000  0.37467100  0.18630100  1
  C  C46  1  0.96643000  0.37467100  0.18630100  1
  C  C47  1  0.46643000  0.62532900  0.81369900  1
  C  C48  1  0.00000000  0.00000000  0.50000000  1
  C  C49  1  0.50000000  0.00000000  0.50000000  1
  C  C50  1  0.07342100  0.62971600  0.43987200  1
  C  C51  1  0.57342100  0.37028400  0.56012800  1
  C  C52  1  0.92657900  0.37028400  0.56012800  1
  C  C53  1  0.42657900  0.62971600  0.43987200  1
