# generated using pymatgen
data_Cu2Ni3C2
_symmetry_space_group_name_H-M   'P 1'
_cell_length_a   7.52266600
_cell_length_b   6.62840300
_cell_length_c   18.07403287
_cell_angle_alpha   68.48068780
_cell_angle_beta   90.00000000
_cell_angle_gamma   90.00000000
_symmetry_Int_Tables_number   1
_chemical_formula_structural   Cu2Ni3C2
_chemical_formula_sum   'Cu16 Ni24 C16'
_cell_volume   838.40906287
_cell_formula_units_Z   8
loop_
 _symmetry_equiv_pos_site_id
 _symmetry_equiv_pos_as_xyz
  1  'x, y, z'
loop_
 _atom_site_type_symbol
 _atom_site_label
 _atom_site_symmetry_multiplicity
 _atom_site_fract_x
 _atom_site_fract_y
 _atom_site_fract_z
 _atom_site_occupancy
  C  C0  1  0.09823100  0.38276200  0.86900700  1
  C  C1  1  0.59823100  0.61723800  0.63099300  1
  C  C2  1  0.87365200  0.38778200  0.36905200  1
  C  C3  1  0.37365200  0.61221800  0.13094800  1
  C  C4  1  0.90176900  0.61723800  0.13099300  1
  C  C5  1  0.40176900  0.38276200  0.36900700  1
  C  C6  1  0.12634800  0.61221800  0.63094800  1
  C  C7  1  0.62634800  0.38778200  0.86905200  1
  C  C8  1  0.86039700  0.91024200  0.86369400  1
  C  C9  1  0.36039700  0.08975800  0.63630600  1
  C  C10  1  0.13951300  0.86194600  0.36375500  1
  C  C11  1  0.63951300  0.13805400  0.13624500  1
  C  C12  1  0.13960300  0.08975800  0.13630600  1
  C  C13  1  0.63960300  0.91024200  0.36369400  1
  C  C14  1  0.86048700  0.13805400  0.63624500  1
  C  C15  1  0.36048700  0.86194600  0.86375500  1
  Ni  Ni16  1  0.85217900  0.97385800  0.74997300  1
  Ni  Ni17  1  0.35217900  0.02614200  0.75002700  1
  Ni  Ni18  1  0.14782100  0.02614200  0.25002700  1
  Ni  Ni19  1  0.64782100  0.97385800  0.24997300  1
  Ni  Ni20  1  0.05279700  0.10049200  0.86062100  1
  Ni  Ni21  1  0.55279700  0.89950800  0.63937900  1
  Ni  Ni22  1  0.94791600  0.67748700  0.36058400  1
  Ni  Ni23  1  0.44791600  0.32251300  0.13941600  1
  Ni  Ni24  1  0.94720300  0.89950800  0.13937900  1
  Ni  Ni25  1  0.44720300  0.10049200  0.36062100  1
  Ni  Ni26  1  0.05208400  0.32251300  0.63941600  1
  Ni  Ni27  1  0.55208400  0.67748700  0.86058400  1
  Ni  Ni28  1  0.67092400  0.09691400  0.86798400  1
  Ni  Ni29  1  0.17092400  0.90308600  0.63201600  1
  Ni  Ni30  1  0.32803100  0.66613000  0.36803600  1
  Ni  Ni31  1  0.82803100  0.33387000  0.13196400  1
  Ni  Ni32  1  0.32907600  0.90308600  0.13201600  1
  Ni  Ni33  1  0.82907600  0.09691400  0.36798400  1
  Ni  Ni34  1  0.67196900  0.33387000  0.63196400  1
  Ni  Ni35  1  0.17196900  0.66613000  0.86803600  1
  Ni  Ni36  1  0.86278600  0.45209800  0.86523200  1
  Ni  Ni37  1  0.36278600  0.54790200  0.63476800  1
  Ni  Ni38  1  0.13721400  0.54790200  0.13476800  1
  Ni  Ni39  1  0.63721400  0.45209800  0.36523200  1
  Cu  Cu40  1  0.11478200  0.50571700  0.75006400  1
  Cu  Cu41  1  0.61478200  0.49428300  0.74993600  1
  Cu  Cu42  1  0.88521800  0.49428300  0.24993600  1
  Cu  Cu43  1  0.38521800  0.50571700  0.25006400  1
  Cu  Cu44  1  0.11205400  0.25178500  0.97943900  1
  Cu  Cu45  1  0.61205400  0.74821500  0.52056100  1
  Cu  Cu46  1  0.89081400  0.28848200  0.47948600  1
  Cu  Cu47  1  0.39081400  0.71151800  0.02051400  1
  Cu  Cu48  1  0.88794600  0.74821500  0.02056100  1
  Cu  Cu49  1  0.38794600  0.25178500  0.47943900  1
  Cu  Cu50  1  0.10918600  0.71151800  0.52051400  1
  Cu  Cu51  1  0.60918600  0.28848200  0.97948600  1
  Cu  Cu52  1  0.13717600  0.31291000  0.36451500  1
  Cu  Cu53  1  0.63717600  0.68709000  0.13548500  1
  Cu  Cu54  1  0.86282400  0.68709000  0.63548500  1
  Cu  Cu55  1  0.36282400  0.31291000  0.86451500  1
