# generated using pymatgen
data_Cu(NiC2)2
_symmetry_space_group_name_H-M   'P 1'
_cell_length_a   6.59259535
_cell_length_b   6.59259535
_cell_length_c   6.59259535
_cell_angle_alpha   153.44466498
_cell_angle_beta   153.06171780
_cell_angle_gamma   38.18691966
_symmetry_Int_Tables_number   1
_chemical_formula_structural   Cu(NiC2)2
_chemical_formula_sum   'Cu1 Ni2 C4'
_cell_volume   57.93881010
_cell_formula_units_Z   1
loop_
 _symmetry_equiv_pos_site_id
 _symmetry_equiv_pos_as_xyz
  1  'x, y, z'
loop_
 _atom_site_type_symbol
 _atom_site_label
 _atom_site_symmetry_multiplicity
 _atom_site_fract_x
 _atom_site_fract_y
 _atom_site_fract_z
 _atom_site_occupancy
  Ni  Ni0  1  0.81441600  0.81441600  0.00000000  1
  Ni  Ni1  1  0.18558400  0.18558400  0.00000000  1
  C  C2  1  0.42499100  0.92499100  0.50000000  1
  C  C3  1  0.57500900  0.07500900  0.50000000  1
  C  C4  1  0.34836100  0.34836100  0.00000000  1
  C  C5  1  0.65163900  0.65163900  0.00000000  1
  Cu  Cu6  1  0.00000000  0.50000000  0.50000000  1
