# generated using pymatgen
data_Cu(NiC8)2
_symmetry_space_group_name_H-M   'P 1'
_cell_length_a   9.40490021
_cell_length_b   9.40490021
_cell_length_c   11.58711523
_cell_angle_alpha   76.15997108
_cell_angle_beta   76.15997108
_cell_angle_gamma   36.70226148
_symmetry_Int_Tables_number   1
_chemical_formula_structural   Cu(NiC8)2
_chemical_formula_sum   'Cu2 Ni4 C32'
_cell_volume   592.76856442
_cell_formula_units_Z   2
loop_
 _symmetry_equiv_pos_site_id
 _symmetry_equiv_pos_as_xyz
  1  'x, y, z'
loop_
 _atom_site_type_symbol
 _atom_site_label
 _atom_site_symmetry_multiplicity
 _atom_site_fract_x
 _atom_site_fract_y
 _atom_site_fract_z
 _atom_site_occupancy
  Ni  Ni0  1  0.93409400  0.49464100  0.22968600  1
  Ni  Ni1  1  0.50535900  0.06590600  0.27031400  1
  Ni  Ni2  1  0.06590600  0.50535900  0.77031400  1
  Ni  Ni3  1  0.49464100  0.93409400  0.72968600  1
  C  C4  1  0.01450700  0.67389100  0.43051900  1
  C  C5  1  0.32610900  0.98549300  0.06948100  1
  C  C6  1  0.98549300  0.32610900  0.56948100  1
  C  C7  1  0.67389100  0.01450700  0.93051900  1
  C  C8  1  0.62852400  0.18693200  0.59558900  1
  C  C9  1  0.81306800  0.37147600  0.90441100  1
  C  C10  1  0.37147600  0.81306800  0.40441100  1
  C  C11  1  0.18693200  0.62852400  0.09558900  1
  Cu  Cu12  1  0.15804800  0.84195200  0.75000000  1
  Cu  Cu13  1  0.84195200  0.15804800  0.25000000  1
  C  C14  1  0.86226900  0.11811100  0.63425400  1
  C  C15  1  0.88188900  0.13773100  0.86574600  1
  C  C16  1  0.13773100  0.88188900  0.36574600  1
  C  C17  1  0.11811100  0.86226900  0.13425400  1
  C  C18  1  0.79134700  0.98910300  0.33404100  1
  C  C19  1  0.01089700  0.20865300  0.16595900  1
  C  C20  1  0.20865300  0.01089700  0.66595900  1
  C  C21  1  0.98910300  0.79134700  0.83404100  1
  C  C22  1  0.81301500  0.67630600  0.42524400  1
  C  C23  1  0.32369400  0.18698500  0.07475600  1
  C  C24  1  0.18698500  0.32369400  0.57475600  1
  C  C25  1  0.67630600  0.81301500  0.92524400  1
  C  C26  1  0.32359500  0.63334300  0.64323200  1
  C  C27  1  0.36665700  0.67640500  0.85676800  1
  C  C28  1  0.67640500  0.36665700  0.35676800  1
  C  C29  1  0.63334300  0.32359500  0.14323200  1
  C  C30  1  0.83030900  0.85681200  0.58299300  1
  C  C31  1  0.14318800  0.16969100  0.91700700  1
  C  C32  1  0.16969100  0.14318800  0.41700700  1
  C  C33  1  0.85681200  0.83030900  0.08299300  1
  C  C34  1  0.50176600  0.18711000  0.75245400  1
  C  C35  1  0.81289000  0.49823400  0.74754600  1
  C  C36  1  0.49823400  0.81289000  0.24754600  1
  C  C37  1  0.18711000  0.50176600  0.25245400  1
