# generated using pymatgen
data_Cu(NiC14)2
_symmetry_space_group_name_H-M   'P 1'
_cell_length_a   6.38971600
_cell_length_b   12.61367000
_cell_length_c   9.27523938
_cell_angle_alpha   90.00000000
_cell_angle_beta   105.48712244
_cell_angle_gamma   90.00000000
_symmetry_Int_Tables_number   1
_chemical_formula_structural   Cu(NiC14)2
_chemical_formula_sum   'Cu2 Ni4 C56'
_cell_volume   720.41993445
_cell_formula_units_Z   2
loop_
 _symmetry_equiv_pos_site_id
 _symmetry_equiv_pos_as_xyz
  1  'x, y, z'
loop_
 _atom_site_type_symbol
 _atom_site_label
 _atom_site_symmetry_multiplicity
 _atom_site_fract_x
 _atom_site_fract_y
 _atom_site_fract_z
 _atom_site_occupancy
  Ni  Ni0  1  0.35021000  0.86278400  0.61828900  1
  Ni  Ni1  1  0.64979000  0.36278400  0.88171100  1
  Ni  Ni2  1  0.64979000  0.13721600  0.38171100  1
  Ni  Ni3  1  0.35021000  0.63721600  0.11828900  1
  Cu  Cu4  1  0.00000000  0.50000000  0.50000000  1
  Cu  Cu5  1  0.00000000  0.00000000  0.00000000  1
  C  C6  1  0.31299500  0.59399600  0.71396800  1
  C  C7  1  0.68700500  0.09399600  0.78603200  1
  C  C8  1  0.68700500  0.40600400  0.28603200  1
  C  C9  1  0.31299500  0.90600400  0.21396800  1
  C  C10  1  0.08366800  0.62691800  0.74319000  1
  C  C11  1  0.91633200  0.12691800  0.75681000  1
  C  C12  1  0.91633200  0.37308200  0.25681000  1
  C  C13  1  0.08366800  0.87308200  0.24319000  1
  C  C14  1  0.93318000  0.59904000  0.23037200  1
  C  C15  1  0.06682000  0.09904000  0.26962800  1
  C  C16  1  0.06682000  0.40096000  0.76962800  1
  C  C17  1  0.93318000  0.90096000  0.73037200  1
  C  C18  1  0.99600000  0.68699400  0.35648000  1
  C  C19  1  0.00400000  0.18699400  0.14352000  1
  C  C20  1  0.00400000  0.31300600  0.64352000  1
  C  C21  1  0.99600000  0.81300600  0.85648000  1
  C  C22  1  0.33325300  0.43924300  0.40226100  1
  C  C23  1  0.66674700  0.93924300  0.09773900  1
  C  C24  1  0.66674700  0.56075700  0.59773900  1
  C  C25  1  0.33325300  0.06075700  0.90226100  1
  C  C26  1  0.31873000  0.35683200  0.52786900  1
  C  C27  1  0.68127000  0.85683200  0.97213100  1
  C  C28  1  0.68127000  0.64316800  0.47213100  1
  C  C29  1  0.31873000  0.14316800  0.02786900  1
  C  C30  1  0.73674700  0.64060700  0.90406800  1
  C  C31  1  0.26325300  0.14060700  0.59593200  1
  C  C32  1  0.26325300  0.35939300  0.09593200  1
  C  C33  1  0.73674700  0.85939300  0.40406800  1
  C  C34  1  0.60079800  0.73461900  0.91534800  1
  C  C35  1  0.39920200  0.23461900  0.58465200  1
  C  C36  1  0.39920200  0.26538100  0.08465200  1
  C  C37  1  0.60079800  0.76538100  0.41534800  1
  C  C38  1  0.78001500  0.57680500  0.04452300  1
  C  C39  1  0.21998500  0.07680500  0.45547700  1
  C  C40  1  0.21998500  0.42319500  0.95547700  1
  C  C41  1  0.78001500  0.92319500  0.54452300  1
  C  C42  1  0.61352400  0.57248000  0.77673500  1
  C  C43  1  0.38647600  0.07248000  0.72326500  1
  C  C44  1  0.38647600  0.42752000  0.22326500  1
  C  C45  1  0.61352400  0.92752000  0.27673500  1
  C  C46  1  0.94693800  0.67640400  0.87584100  1
  C  C47  1  0.05306200  0.17640400  0.62415900  1
  C  C48  1  0.05306200  0.32359600  0.12415900  1
  C  C49  1  0.94693800  0.82359600  0.37584100  1
  C  C50  1  0.16002200  0.61257500  0.66509700  1
  C  C51  1  0.83997800  0.11257500  0.83490300  1
  C  C52  1  0.83997800  0.38742500  0.33490300  1
  C  C53  1  0.16002200  0.88742500  0.16509700  1
  C  C54  1  0.02979100  0.61341400  0.33195000  1
  C  C55  1  0.97020900  0.11341400  0.16805000  1
  C  C56  1  0.97020900  0.38658600  0.66805000  1
  C  C57  1  0.02979100  0.88658600  0.83195000  1
  C  C58  1  0.29674400  0.43311400  0.49949300  1
  C  C59  1  0.70325600  0.93311400  0.00050700  1
  C  C60  1  0.70325600  0.56688600  0.50050700  1
  C  C61  1  0.29674400  0.06688600  0.99949300  1
