# generated using pymatgen
data_CuNiC6
_symmetry_space_group_name_H-M   'P 1'
_cell_length_a   7.75471000
_cell_length_b   11.17606700
_cell_length_c   13.05222400
_cell_angle_alpha   90.00000000
_cell_angle_beta   90.00000000
_cell_angle_gamma   90.00000000
_symmetry_Int_Tables_number   1
_chemical_formula_structural   CuNiC6
_chemical_formula_sum   'Cu8 Ni8 C48'
_cell_volume   1131.19916652
_cell_formula_units_Z   8
loop_
 _symmetry_equiv_pos_site_id
 _symmetry_equiv_pos_as_xyz
  1  'x, y, z'
loop_
 _atom_site_type_symbol
 _atom_site_label
 _atom_site_symmetry_multiplicity
 _atom_site_fract_x
 _atom_site_fract_y
 _atom_site_fract_z
 _atom_site_occupancy
  Ni  Ni0  1  0.18797400  0.79666700  0.87409900  1
  Ni  Ni1  1  0.81202600  0.20333300  0.12590100  1
  Ni  Ni2  1  0.31202600  0.29666700  0.12590100  1
  Ni  Ni3  1  0.81202600  0.70333300  0.37409900  1
  Ni  Ni4  1  0.68797400  0.70333300  0.87409900  1
  Ni  Ni5  1  0.18797400  0.29666700  0.62590100  1
  Ni  Ni6  1  0.68797400  0.20333300  0.62590100  1
  Ni  Ni7  1  0.31202600  0.79666700  0.37409900  1
  Cu  Cu8  1  0.00876400  0.58545300  0.67441500  1
  Cu  Cu9  1  0.99123600  0.41454700  0.32558500  1
  Cu  Cu10  1  0.49123600  0.08545300  0.32558500  1
  Cu  Cu11  1  0.99123600  0.91454700  0.17441500  1
  Cu  Cu12  1  0.50876400  0.91454700  0.67441500  1
  Cu  Cu13  1  0.00876400  0.08545300  0.82558500  1
  Cu  Cu14  1  0.50876400  0.41454700  0.82558500  1
  Cu  Cu15  1  0.49123600  0.58545300  0.17441500  1
  C  C16  1  0.43887900  0.61828500  0.62388800  1
  C  C17  1  0.56112100  0.38171500  0.37611200  1
  C  C18  1  0.06112100  0.11828500  0.37611200  1
  C  C19  1  0.56112100  0.88171500  0.12388800  1
  C  C20  1  0.93887900  0.88171500  0.62388800  1
  C  C21  1  0.43887900  0.11828500  0.87611200  1
  C  C22  1  0.93887900  0.38171500  0.87611200  1
  C  C23  1  0.06112100  0.61828500  0.12388800  1
  C  C24  1  0.22207900  0.56525800  0.59820200  1
  C  C25  1  0.77792100  0.43474200  0.40179800  1
  C  C26  1  0.27792100  0.06525800  0.40179800  1
  C  C27  1  0.77792100  0.93474200  0.09820200  1
  C  C28  1  0.72207900  0.93474200  0.59820200  1
  C  C29  1  0.22207900  0.06525800  0.90179800  1
  C  C30  1  0.72207900  0.43474200  0.90179800  1
  C  C31  1  0.27792100  0.56525800  0.09820200  1
  C  C32  1  0.03924900  0.84350100  0.50459100  1
  C  C33  1  0.96075100  0.15649900  0.49540900  1
  C  C34  1  0.46075100  0.34350100  0.49540900  1
  C  C35  1  0.96075100  0.65649900  0.00459100  1
  C  C36  1  0.53924900  0.65649900  0.50459100  1
  C  C37  1  0.03924900  0.34350100  0.99540900  1
  C  C38  1  0.53924900  0.15649900  0.99540900  1
  C  C39  1  0.46075100  0.84350100  0.00459100  1
  C  C40  1  0.06518700  0.99205100  0.69845800  1
  C  C41  1  0.93481300  0.00794900  0.30154200  1
  C  C42  1  0.43481300  0.49205100  0.30154200  1
  C  C43  1  0.93481300  0.50794900  0.19845800  1
  C  C44  1  0.56518700  0.50794900  0.69845800  1
  C  C45  1  0.06518700  0.49205100  0.80154200  1
  C  C46  1  0.56518700  0.00794900  0.80154200  1
  C  C47  1  0.43481300  0.99205100  0.19845800  1
  C  C48  1  0.33222100  0.54230600  0.87934200  1
  C  C49  1  0.66777900  0.45769400  0.12065800  1
  C  C50  1  0.16777900  0.04230600  0.12065800  1
  C  C51  1  0.66777900  0.95769400  0.37934200  1
  C  C52  1  0.83222100  0.95769400  0.87934200  1
  C  C53  1  0.33222100  0.04230600  0.62065800  1
  C  C54  1  0.83222100  0.45769400  0.62065800  1
  C  C55  1  0.16777900  0.54230600  0.37934200  1
  C  C56  1  0.42570600  0.75343400  0.70187200  1
  C  C57  1  0.57429400  0.24656600  0.29812800  1
  C  C58  1  0.07429400  0.25343400  0.29812800  1
  C  C59  1  0.57429400  0.74656600  0.20187200  1
  C  C60  1  0.92570600  0.74656600  0.70187200  1
  C  C61  1  0.42570600  0.25343400  0.79812800  1
  C  C62  1  0.92570600  0.24656600  0.79812800  1
  C  C63  1  0.07429400  0.75343400  0.20187200  1
