# generated using pymatgen
data_CuNiC11
_symmetry_space_group_name_H-M   'P 1'
_cell_length_a   13.24006715
_cell_length_b   13.24006715
_cell_length_c   13.24006738
_cell_angle_alpha   72.46178374
_cell_angle_beta   72.46178374
_cell_angle_gamma   72.46178663
_symmetry_Int_Tables_number   1
_chemical_formula_structural   CuNiC11
_chemical_formula_sum   'Cu6 Ni6 C66'
_cell_volume   2052.85942920
_cell_formula_units_Z   6
loop_
 _symmetry_equiv_pos_site_id
 _symmetry_equiv_pos_as_xyz
  1  'x, y, z'
loop_
 _atom_site_type_symbol
 _atom_site_label
 _atom_site_symmetry_multiplicity
 _atom_site_fract_x
 _atom_site_fract_y
 _atom_site_fract_z
 _atom_site_occupancy
  Ni  Ni0  1  0.25000000  0.25000000  0.25000000  1
  Ni  Ni1  1  0.75000000  0.75000000  0.75000000  1
  Ni  Ni2  1  0.42256281  0.42256281  0.42256281  1
  Ni  Ni3  1  0.92256281  0.92256281  0.92256281  1
  Ni  Ni4  1  0.57743719  0.57743719  0.57743719  1
  Ni  Ni5  1  0.07743719  0.07743719  0.07743719  1
  Cu  Cu6  1  0.88893714  0.61106286  0.25000000  1
  Cu  Cu7  1  0.61106286  0.25000000  0.88893714  1
  Cu  Cu8  1  0.25000000  0.88893714  0.61106286  1
  Cu  Cu9  1  0.38893714  0.75000000  0.11106286  1
  Cu  Cu10  1  0.75000000  0.11106286  0.38893714  1
  Cu  Cu11  1  0.11106286  0.38893714  0.75000000  1
  C  C12  1  0.58658434  0.91341566  0.25000000  1
  C  C13  1  0.91341566  0.25000000  0.58658434  1
  C  C14  1  0.25000000  0.58658434  0.91341566  1
  C  C15  1  0.08658434  0.75000000  0.41341566  1
  C  C16  1  0.75000000  0.41341566  0.08658434  1
  C  C17  1  0.41341566  0.08658434  0.75000000  1
  C  C18  1  0.18926310  0.17288827  0.62509332  1
  C  C19  1  0.17288827  0.62509332  0.18926310  1
  C  C20  1  0.62509332  0.18926310  0.17288827  1
  C  C21  1  0.68926310  0.12509332  0.67288827  1
  C  C22  1  0.12509332  0.67288827  0.68926310  1
  C  C23  1  0.67288827  0.68926310  0.12509332  1
  C  C24  1  0.81073690  0.82711173  0.37490668  1
  C  C25  1  0.82711173  0.37490668  0.81073690  1
  C  C26  1  0.37490668  0.81073690  0.82711173  1
  C  C27  1  0.31073690  0.87490668  0.32711173  1
  C  C28  1  0.87490668  0.32711173  0.31073690  1
  C  C29  1  0.32711173  0.31073690  0.87490668  1
  C  C30  1  0.35011895  0.16355509  0.54587665  1
  C  C31  1  0.16355509  0.54587665  0.35011895  1
  C  C32  1  0.54587665  0.35011895  0.16355509  1
  C  C33  1  0.85011895  0.04587665  0.66355509  1
  C  C34  1  0.04587665  0.66355509  0.85011895  1
  C  C35  1  0.66355509  0.85011895  0.04587665  1
  C  C36  1  0.64988105  0.83644491  0.45412335  1
  C  C37  1  0.83644491  0.45412335  0.64988105  1
  C  C38  1  0.45412335  0.64988105  0.83644491  1
  C  C39  1  0.14988105  0.95412335  0.33644491  1
  C  C40  1  0.95412335  0.33644491  0.14988105  1
  C  C41  1  0.33644491  0.14988105  0.95412335  1
  C  C42  1  0.37269344  0.30996149  0.71183792  1
  C  C43  1  0.30996149  0.71183792  0.37269344  1
  C  C44  1  0.71183792  0.37269344  0.30996149  1
  C  C45  1  0.87269344  0.21183792  0.80996149  1
  C  C46  1  0.21183792  0.80996149  0.87269344  1
  C  C47  1  0.80996149  0.87269344  0.21183792  1
  C  C48  1  0.62730656  0.69003851  0.28816208  1
  C  C49  1  0.69003851  0.28816208  0.62730656  1
  C  C50  1  0.28816208  0.62730656  0.69003851  1
  C  C51  1  0.12730656  0.78816208  0.19003851  1
  C  C52  1  0.78816208  0.19003851  0.12730656  1
  C  C53  1  0.19003851  0.12730656  0.78816208  1
  C  C54  1  0.09429053  0.32645772  0.58839735  1
  C  C55  1  0.32645772  0.58839735  0.09429053  1
  C  C56  1  0.58839735  0.09429053  0.32645772  1
  C  C57  1  0.59429053  0.08839735  0.82645772  1
  C  C58  1  0.08839735  0.82645772  0.59429053  1
  C  C59  1  0.82645772  0.59429053  0.08839735  1
  C  C60  1  0.90570947  0.67354228  0.41160265  1
  C  C61  1  0.67354228  0.41160265  0.90570947  1
  C  C62  1  0.41160265  0.90570947  0.67354228  1
  C  C63  1  0.40570947  0.91160265  0.17354228  1
  C  C64  1  0.91160265  0.17354228  0.40570947  1
  C  C65  1  0.17354228  0.40570947  0.91160265  1
  C  C66  1  0.61437724  0.08560145  0.57957294  1
  C  C67  1  0.08560145  0.57957294  0.61437724  1
  C  C68  1  0.57957294  0.61437724  0.08560145  1
  C  C69  1  0.11437724  0.07957294  0.58560145  1
  C  C70  1  0.07957294  0.58560145  0.11437724  1
  C  C71  1  0.58560145  0.11437724  0.07957294  1
  C  C72  1  0.38562276  0.91439855  0.42042706  1
  C  C73  1  0.91439855  0.42042706  0.38562276  1
  C  C74  1  0.42042706  0.38562276  0.91439855  1
  C  C75  1  0.88562276  0.92042706  0.41439855  1
  C  C76  1  0.92042706  0.41439855  0.88562276  1
  C  C77  1  0.41439855  0.88562276  0.92042706  1
