# generated using pymatgen
data_Cu8(NiC5)5
_symmetry_space_group_name_H-M   'P 1'
_cell_length_a   10.35178530
_cell_length_b   10.35178530
_cell_length_c   10.35178530
_cell_angle_alpha   94.52569342
_cell_angle_beta   94.52569342
_cell_angle_gamma   147.37186358
_symmetry_Int_Tables_number   1
_chemical_formula_structural   Cu8(NiC5)5
_chemical_formula_sum   'Cu8 Ni5 C25'
_cell_volume   574.03060807
_cell_formula_units_Z   1
loop_
 _symmetry_equiv_pos_site_id
 _symmetry_equiv_pos_as_xyz
  1  'x, y, z'
loop_
 _atom_site_type_symbol
 _atom_site_label
 _atom_site_symmetry_multiplicity
 _atom_site_fract_x
 _atom_site_fract_y
 _atom_site_fract_z
 _atom_site_occupancy
  Ni  Ni0  1  0.53338900  0.86155100  0.39493900  1
  Ni  Ni1  1  0.86155100  0.46661100  0.32816200  1
  Ni  Ni2  1  0.13844900  0.53338900  0.67183800  1
  Ni  Ni3  1  0.46661100  0.13844900  0.60506100  1
  Ni  Ni4  1  0.00000000  0.00000000  0.00000000  1
  Cu  Cu5  1  0.41095800  0.64266300  0.05362100  1
  Cu  Cu6  1  0.64266300  0.58904200  0.23170500  1
  Cu  Cu7  1  0.35733700  0.41095800  0.76829500  1
  Cu  Cu8  1  0.58904200  0.35733700  0.94637900  1
  Cu  Cu9  1  0.24739500  0.83281100  0.08020600  1
  Cu  Cu10  1  0.83281100  0.75260500  0.58541600  1
  Cu  Cu11  1  0.16718900  0.24739500  0.41458400  1
  Cu  Cu12  1  0.75260500  0.16718900  0.91979400  1
  C  C13  1  0.04095500  0.74760700  0.78856100  1
  C  C14  1  0.74760700  0.95904500  0.70665200  1
  C  C15  1  0.25239300  0.04095500  0.29334800  1
  C  C16  1  0.95904500  0.25239300  0.21143900  1
  C  C17  1  0.90147600  0.49509000  0.88863100  1
  C  C18  1  0.49509000  0.60646000  0.59361400  1
  C  C19  1  0.01284600  0.90147600  0.40638600  1
  C  C20  1  0.60646000  0.01284600  0.11136900  1
  C  C21  1  0.09852400  0.50491000  0.11136900  1
  C  C22  1  0.50491000  0.39354000  0.40638600  1
  C  C23  1  0.98715400  0.09852400  0.59361400  1
  C  C24  1  0.39354000  0.98715400  0.88863100  1
  C  C25  1  0.06990000  0.29527400  0.86835900  1
  C  C26  1  0.29527400  0.42691600  0.22537500  1
  C  C27  1  0.20154100  0.06990000  0.77462500  1
  C  C28  1  0.42691600  0.20154100  0.13164100  1
  C  C29  1  0.93010000  0.70472600  0.13164100  1
  C  C30  1  0.70472600  0.57308400  0.77462500  1
  C  C31  1  0.79845900  0.93010000  0.22537500  1
  C  C32  1  0.57308400  0.79845900  0.86835900  1
  C  C33  1  0.62649100  0.03460200  0.66109300  1
  C  C34  1  0.50000000  0.50000000  0.00000000  1
  C  C35  1  0.37350900  0.96539800  0.33890700  1
  C  C36  1  0.96539800  0.62649100  0.59188900  1
  C  C37  1  0.03460200  0.37350900  0.40811100  1
