# generated using pymatgen
data_Cu7Ni2C
_symmetry_space_group_name_H-M   'P 1'
_cell_length_a   13.32055162
_cell_length_b   15.84002742
_cell_length_c   15.84000023
_cell_angle_alpha   120.00000576
_cell_angle_beta   90.00015276
_cell_angle_gamma   89.99987744
_symmetry_Int_Tables_number   1
_chemical_formula_structural   Cu7Ni2C
_chemical_formula_sum   'Cu126 Ni36 C18'
_cell_volume   2894.43585343
_cell_formula_units_Z   18
loop_
 _symmetry_equiv_pos_site_id
 _symmetry_equiv_pos_as_xyz
  1  'x, y, z'
loop_
 _atom_site_type_symbol
 _atom_site_label
 _atom_site_symmetry_multiplicity
 _atom_site_fract_x
 _atom_site_fract_y
 _atom_site_fract_z
 _atom_site_occupancy
  C  C0  1  0.04754671  0.96934665  0.31054914  1
  C  C1  1  0.04755388  0.68945692  0.65880019  1
  C  C2  1  0.04754795  0.34119907  0.03065157  1
  C  C3  1  0.95245329  0.03065335  0.68945086  1
  C  C4  1  0.95244612  0.31054308  0.34119981  1
  C  C5  1  0.95245205  0.65880093  0.96934843  1
  C  C6  1  0.46166957  0.02607319  0.35170452  1
  C  C7  1  0.46166830  0.64829911  0.67436941  1
  C  C8  1  0.46166567  0.32562716  0.97392569  1
  C  C9  1  0.53833043  0.97392681  0.64829548  1
  C  C10  1  0.53833170  0.35170089  0.32563059  1
  C  C11  1  0.53833433  0.67437284  0.02607431  1
  C  C12  1  0.76924419  0.33333717  0.66666827  1
  C  C13  1  0.23075581  0.66666283  0.33333173  1
  C  C14  1  0.74202068  0.99999953  0.99999947  1
  C  C15  1  0.25797932  0.00000047  0.00000053  1
  C  C16  1  0.25805544  0.33334003  0.66667100  1
  C  C17  1  0.74194456  0.66665997  0.33332900  1
  Ni  Ni18  1  0.13854437  0.22200082  0.45201278  1
  Ni  Ni19  1  0.13854412  0.54799161  0.76999074  1
  Ni  Ni20  1  0.13854449  0.23001266  0.77800022  1
  Ni  Ni21  1  0.86145563  0.77799918  0.54798722  1
  Ni  Ni22  1  0.86145588  0.45200839  0.23000926  1
  Ni  Ni23  1  0.86145551  0.76998734  0.22199978  1
  Ni  Ni24  1  0.34749733  0.27344007  0.45407816  1
  Ni  Ni25  1  0.34749673  0.54592612  0.81936536  1
  Ni  Ni26  1  0.34749711  0.18063946  0.72656070  1
  Ni  Ni27  1  0.65250267  0.72655993  0.54592184  1
  Ni  Ni28  1  0.65250327  0.45407388  0.18063464  1
  Ni  Ni29  1  0.65250289  0.81936054  0.27343930  1
  Ni  Ni30  1  0.63360931  0.10841793  0.22176212  1
  Ni  Ni31  1  0.63360932  0.77823712  0.88665498  1
  Ni  Ni32  1  0.63360952  0.11334451  0.89158151  1
  Ni  Ni33  1  0.36639069  0.89158207  0.77823788  1
  Ni  Ni34  1  0.36639068  0.22176288  0.11334502  1
  Ni  Ni35  1  0.36639048  0.88665549  0.10841849  1
  Ni  Ni36  1  0.84413008  0.05280417  0.20633626  1
  Ni  Ni37  1  0.84413022  0.79366347  0.84646773  1
  Ni  Ni38  1  0.84412997  0.15353179  0.94719565  1
  Ni  Ni39  1  0.15586992  0.94719583  0.79366374  1
  Ni  Ni40  1  0.15586978  0.20633653  0.15353227  1
  Ni  Ni41  1  0.15587003  0.84646821  0.05280435  1
  Ni  Ni42  1  0.64635220  0.45576700  0.57721121  1
  Ni  Ni43  1  0.64635251  0.42278987  0.87855532  1
  Ni  Ni44  1  0.64635216  0.12144670  0.54423497  1
  Ni  Ni45  1  0.35364780  0.54423300  0.42278879  1
  Ni  Ni46  1  0.35364749  0.57721013  0.12144468  1
  Ni  Ni47  1  0.35364784  0.87855330  0.45576503  1
  Ni  Ni48  1  0.86241769  0.46785105  0.58677520  1
  Ni  Ni49  1  0.86241797  0.41322539  0.88107581  1
  Ni  Ni50  1  0.86241838  0.11892623  0.53214981  1
  Ni  Ni51  1  0.13758231  0.53214895  0.41322480  1
  Ni  Ni52  1  0.13758203  0.58677461  0.11892419  1
  Ni  Ni53  1  0.13758162  0.88107377  0.46785019  1
  Cu  Cu54  1  0.16755651  0.23628883  0.55143322  1
  Cu  Cu55  1  0.16755522  0.44857209  0.68485601  1
  Cu  Cu56  1  0.16755548  0.31514769  0.76371605  1
  Cu  Cu57  1  0.83244349  0.76371117  0.44856678  1
  Cu  Cu58  1  0.83244478  0.55142791  0.31514399  1
  Cu  Cu59  1  0.83244452  0.68485231  0.23628395  1
  Cu  Cu60  1  0.22858330  0.28036929  0.42869335  1
  Cu  Cu61  1  0.22858330  0.57130850  0.85167654  1
  Cu  Cu62  1  0.22858274  0.14832642  0.71963218  1
  Cu  Cu63  1  0.77141670  0.71963071  0.57130665  1
  Cu  Cu64  1  0.77141670  0.42869150  0.14832346  1
  Cu  Cu65  1  0.77141726  0.85167358  0.28036782  1
  Cu  Cu66  1  0.35025854  0.34028921  0.56455272  1
  Cu  Cu67  1  0.35025959  0.43545117  0.77573863  1
  Cu  Cu68  1  0.35025843  0.22426731  0.65971429  1
  Cu  Cu69  1  0.64974146  0.65971079  0.43544728  1
  Cu  Cu70  1  0.64974041  0.56454883  0.22426137  1
  Cu  Cu71  1  0.64974157  0.77573269  0.34028571  1
  Cu  Cu72  1  0.36887098  0.17377386  0.42522504  1
  Cu  Cu73  1  0.36887059  0.57477912  0.74855092  1
  Cu  Cu74  1  0.36887079  0.25145177  0.82622841  1
  Cu  Cu75  1  0.63112902  0.82622614  0.57477496  1
  Cu  Cu76  1  0.63112941  0.42522088  0.25144908  1
  Cu  Cu77  1  0.63112921  0.74854823  0.17377159  1
  Cu  Cu78  1  0.14495706  0.12037408  0.38032816  1
  Cu  Cu79  1  0.14495581  0.61967798  0.74005042  1
  Cu  Cu80  1  0.14495648  0.25995271  0.87962724  1
  Cu  Cu81  1  0.85504294  0.87962592  0.61967184  1
  Cu  Cu82  1  0.85504419  0.38032202  0.25994958  1
  Cu  Cu83  1  0.85504352  0.74004729  0.12037276  1
  Cu  Cu84  1  0.72774310  0.05172379  0.24205931  1
  Cu  Cu85  1  0.72774310  0.75794033  0.80966424  1
  Cu  Cu86  1  0.72774314  0.19033598  0.94827593  1
  Cu  Cu87  1  0.27225690  0.94827621  0.75794069  1
  Cu  Cu88  1  0.27225690  0.24205967  0.19033576  1
  Cu  Cu89  1  0.27225686  0.80966402  0.05172407  1
  Cu  Cu90  1  0.65114140  0.08761956  0.11810323  1
  Cu  Cu91  1  0.65114156  0.88189664  0.96951592  1
  Cu  Cu92  1  0.65114149  0.03048394  0.91238001  1
  Cu  Cu93  1  0.34885860  0.91238044  0.88189677  1
  Cu  Cu94  1  0.34885844  0.11810336  0.03048408  1
  Cu  Cu95  1  0.34885851  0.96951606  0.08761999  1
  Cu  Cu96  1  0.83645939  0.98614142  0.09625975  1
  Cu  Cu97  1  0.83645915  0.90374061  0.88988157  1
  Cu  Cu98  1  0.83645928  0.11011874  0.01385920  1
  Cu  Cu99  1  0.16354061  0.01385858  0.90374025  1
  Cu  Cu100  1  0.16354085  0.09625939  0.11011843  1
  Cu  Cu101  1  0.16354072  0.88988126  0.98614080  1
  Cu  Cu102  1  0.05075812  0.27601033  0.45577161  1
  Cu  Cu103  1  0.05075796  0.54423134  0.82023994  1
  Cu  Cu104  1  0.05075866  0.17976245  0.72398953  1
  Cu  Cu105  1  0.94924188  0.72398967  0.54422839  1
  Cu  Cu106  1  0.94924204  0.45576866  0.17976006  1
  Cu  Cu107  1  0.94924134  0.82023755  0.27601047  1
  Cu  Cu108  1  0.86069054  0.38822673  0.48811654  1
  Cu  Cu109  1  0.86069062  0.51188557  0.90011238  1
  Cu  Cu110  1  0.86069034  0.09989116  0.61177503  1
  Cu  Cu111  1  0.13930946  0.61177327  0.51188346  1
  Cu  Cu112  1  0.13930938  0.48811443  0.09988762  1
  Cu  Cu113  1  0.13930966  0.90010884  0.38822497  1
  Cu  Cu114  1  0.75155205  0.52155957  0.60978019  1
  Cu  Cu115  1  0.75155154  0.39021987  0.91177779  1
  Cu  Cu116  1  0.75155113  0.08822357  0.47844170  1
  Cu  Cu117  1  0.24844795  0.47844043  0.39021981  1
  Cu  Cu118  1  0.24844846  0.60978013  0.08822221  1
  Cu  Cu119  1  0.24844887  0.91177643  0.52155830  1
  Cu  Cu120  1  0.54786314  0.05767051  0.22894693  1
  Cu  Cu121  1  0.54786337  0.77105255  0.82872281  1
  Cu  Cu122  1  0.54786300  0.17127701  0.94232974  1
  Cu  Cu123  1  0.45213686  0.94232949  0.77105307  1
  Cu  Cu124  1  0.45213663  0.22894745  0.17127719  1
  Cu  Cu125  1  0.45213700  0.82872299  0.05767026  1
  Cu  Cu126  1  0.64392622  0.21101222  0.28853393  1
  Cu  Cu127  1  0.64392636  0.71146602  0.92247854  1
  Cu  Cu128  1  0.64392583  0.07752144  0.78898714  1
  Cu  Cu129  1  0.35607378  0.78898778  0.71146607  1
  Cu  Cu130  1  0.35607364  0.28853398  0.07752146  1
  Cu  Cu131  1  0.35607417  0.92247856  0.21101286  1
  Cu  Cu132  1  0.39953153  0.31979640  0.40916509  1
  Cu  Cu133  1  0.39953085  0.59083957  0.91063283  1
  Cu  Cu134  1  0.39953127  0.08937072  0.68020349  1
  Cu  Cu135  1  0.60046847  0.68020360  0.59083491  1
  Cu  Cu136  1  0.60046915  0.40916043  0.08936717  1
  Cu  Cu137  1  0.60046873  0.91062928  0.31979651  1
  Cu  Cu138  1  0.67415565  0.36399529  0.58020602  1
  Cu  Cu139  1  0.67415584  0.41979560  0.78378940  1
  Cu  Cu140  1  0.67415419  0.21621352  0.63600727  1
  Cu  Cu141  1  0.32584435  0.63600471  0.41979398  1
  Cu  Cu142  1  0.32584416  0.58020440  0.21621060  1
  Cu  Cu143  1  0.32584581  0.78378648  0.36399273  1
  Cu  Cu144  1  0.86604393  0.43397904  0.66168057  1
  Cu  Cu145  1  0.86604470  0.33832152  0.77229822  1
  Cu  Cu146  1  0.86604531  0.22770343  0.56602254  1
  Cu  Cu147  1  0.13395607  0.56602096  0.33831943  1
  Cu  Cu148  1  0.13395530  0.66167848  0.22770178  1
  Cu  Cu149  1  0.13395469  0.77229657  0.43397746  1
  Cu  Cu150  1  0.89897823  0.00265252  0.24556704  1
  Cu  Cu151  1  0.89897839  0.75443314  0.75708591  1
  Cu  Cu152  1  0.89897865  0.24291445  0.99734731  1
  Cu  Cu153  1  0.10102177  0.99734748  0.75443296  1
  Cu  Cu154  1  0.10102161  0.24556686  0.24291409  1
  Cu  Cu155  1  0.10102135  0.75708555  0.00265269  1
  Cu  Cu156  1  0.86993742  0.15125626  0.23367888  1
  Cu  Cu157  1  0.86993737  0.76632167  0.91757769  1
  Cu  Cu158  1  0.86993742  0.08242292  0.84874416  1
  Cu  Cu159  1  0.13006258  0.84874374  0.76632112  1
  Cu  Cu160  1  0.13006263  0.23367833  0.08242231  1
  Cu  Cu161  1  0.13006258  0.91757708  0.15125584  1
  Cu  Cu162  1  0.62516062  0.43028113  0.47850754  1
  Cu  Cu163  1  0.62516066  0.52149306  0.95177502  1
  Cu  Cu164  1  0.62516095  0.04822821  0.56972138  1
  Cu  Cu165  1  0.37483938  0.56971887  0.52149246  1
  Cu  Cu166  1  0.37483934  0.47850694  0.04822498  1
  Cu  Cu167  1  0.37483905  0.95177179  0.43027862  1
  Cu  Cu168  1  0.57763870  0.51723967  0.65287707  1
  Cu  Cu169  1  0.57763848  0.34712308  0.86436111  1
  Cu  Cu170  1  0.57763816  0.13564004  0.48276153  1
  Cu  Cu171  1  0.42236130  0.48276033  0.34712293  1
  Cu  Cu172  1  0.42236152  0.65287692  0.13563889  1
  Cu  Cu173  1  0.42236184  0.86435996  0.51723847  1
  Cu  Cu174  1  0.93223201  0.54605016  0.61473651  1
  Cu  Cu175  1  0.93223150  0.38526293  0.93131179  1
  Cu  Cu176  1  0.93223231  0.06869014  0.45395056  1
  Cu  Cu177  1  0.06776799  0.45394984  0.38526349  1
  Cu  Cu178  1  0.06776850  0.61473707  0.06868821  1
  Cu  Cu179  1  0.06776769  0.93130986  0.54604944  1
