# generated using pymatgen
data_Cu(NiC2)2
_symmetry_space_group_name_H-M   'P 1'
_cell_length_a   6.61576300
_cell_length_b   13.91222400
_cell_length_c   22.73063400
_cell_angle_alpha   90.00000000
_cell_angle_beta   90.00000000
_cell_angle_gamma   90.00000000
_symmetry_Int_Tables_number   1
_chemical_formula_structural   Cu(NiC2)2
_chemical_formula_sum   'Cu12 Ni24 C48'
_cell_volume   2092.12702571
_cell_formula_units_Z   12
loop_
 _symmetry_equiv_pos_site_id
 _symmetry_equiv_pos_as_xyz
  1  'x, y, z'
loop_
 _atom_site_type_symbol
 _atom_site_label
 _atom_site_symmetry_multiplicity
 _atom_site_fract_x
 _atom_site_fract_y
 _atom_site_fract_z
 _atom_site_occupancy
  Ni  Ni0  1  0.02073300  0.79817100  0.08272300  1
  Ni  Ni1  1  0.47926700  0.29817100  0.41727700  1
  Ni  Ni2  1  0.47926700  0.20182900  0.58272300  1
  Ni  Ni3  1  0.02073300  0.70182900  0.91727700  1
  Ni  Ni4  1  0.97926700  0.20182900  0.91727700  1
  Ni  Ni5  1  0.52073300  0.70182900  0.58272300  1
  Ni  Ni6  1  0.52073300  0.79817100  0.41727700  1
  Ni  Ni7  1  0.97926700  0.29817100  0.08272300  1
  Ni  Ni8  1  0.45515900  0.51724900  0.10943400  1
  Ni  Ni9  1  0.04484100  0.01724900  0.39056600  1
  Ni  Ni10  1  0.04484100  0.48275100  0.60943400  1
  Ni  Ni11  1  0.45515900  0.98275100  0.89056600  1
  Ni  Ni12  1  0.54484100  0.48275100  0.89056600  1
  Ni  Ni13  1  0.95515900  0.98275100  0.60943400  1
  Ni  Ni14  1  0.95515900  0.51724900  0.39056600  1
  Ni  Ni15  1  0.54484100  0.01724900  0.10943400  1
  Ni  Ni16  1  0.91415100  0.90845400  0.96842100  1
  Ni  Ni17  1  0.58584900  0.40845400  0.53157900  1
  Ni  Ni18  1  0.58584900  0.09154600  0.46842100  1
  Ni  Ni19  1  0.91415100  0.59154600  0.03157900  1
  Ni  Ni20  1  0.08584900  0.09154600  0.03157900  1
  Ni  Ni21  1  0.41415100  0.59154600  0.46842100  1
  Ni  Ni22  1  0.41415100  0.90845400  0.53157900  1
  Ni  Ni23  1  0.08584900  0.40845400  0.96842100  1
  Cu  Cu24  1  0.94169100  0.55194800  0.19668000  1
  Cu  Cu25  1  0.55830900  0.05194800  0.30332000  1
  Cu  Cu26  1  0.55830900  0.44805200  0.69668000  1
  Cu  Cu27  1  0.94169100  0.94805200  0.80332000  1
  Cu  Cu28  1  0.05830900  0.44805200  0.80332000  1
  Cu  Cu29  1  0.44169100  0.94805200  0.69668000  1
  Cu  Cu30  1  0.44169100  0.55194800  0.30332000  1
  Cu  Cu31  1  0.05830900  0.05194800  0.19668000  1
  Cu  Cu32  1  0.47303200  0.75000000  0.00000000  1
  Cu  Cu33  1  0.02696800  0.25000000  0.50000000  1
  Cu  Cu34  1  0.52696800  0.25000000  0.00000000  1
  Cu  Cu35  1  0.97303200  0.75000000  0.50000000  1
  C  C36  1  0.68899200  0.86430400  0.05279100  1
  C  C37  1  0.81100800  0.36430400  0.44720900  1
  C  C38  1  0.81100800  0.13569600  0.55279100  1
  C  C39  1  0.68899200  0.63569600  0.94720900  1
  C  C40  1  0.31100800  0.13569600  0.94720900  1
  C  C41  1  0.18899200  0.63569600  0.55279100  1
  C  C42  1  0.18899200  0.86430400  0.44720900  1
  C  C43  1  0.31100800  0.36430400  0.05279100  1
  C  C44  1  0.25329100  0.66059100  0.06805700  1
  C  C45  1  0.24670900  0.16059100  0.43194300  1
  C  C46  1  0.24670900  0.33940900  0.56805700  1
  C  C47  1  0.25329100  0.83940900  0.93194300  1
  C  C48  1  0.74670900  0.33940900  0.93194300  1
  C  C49  1  0.75329100  0.83940900  0.56805700  1
  C  C50  1  0.75329100  0.66059100  0.43194300  1
  C  C51  1  0.74670900  0.16059100  0.06805700  1
  C  C52  1  0.87700800  0.74493100  0.22078000  1
  C  C53  1  0.62299200  0.24493100  0.27922000  1
  C  C54  1  0.62299200  0.25506900  0.72078000  1
  C  C55  1  0.87700800  0.75506900  0.77922000  1
  C  C56  1  0.12299200  0.25506900  0.77922000  1
  C  C57  1  0.37700800  0.75506900  0.72078000  1
  C  C58  1  0.37700800  0.74493100  0.27922000  1
  C  C59  1  0.12299200  0.24493100  0.22078000  1
  C  C60  1  0.78583900  0.48452200  0.28919100  1
  C  C61  1  0.71416100  0.98452200  0.21080900  1
  C  C62  1  0.71416100  0.51547800  0.78919100  1
  C  C63  1  0.78583900  0.01547800  0.71080900  1
  C  C64  1  0.21416100  0.51547800  0.71080900  1
  C  C65  1  0.28583900  0.01547800  0.78919100  1
  C  C66  1  0.28583900  0.48452200  0.21080900  1
  C  C67  1  0.21416100  0.98452200  0.28919100  1
  C  C68  1  0.82062800  0.46804700  0.10900500  1
  C  C69  1  0.67937200  0.96804700  0.39099500  1
  C  C70  1  0.67937200  0.53195300  0.60900500  1
  C  C71  1  0.82062800  0.03195300  0.89099500  1
  C  C72  1  0.17937200  0.53195300  0.89099500  1
  C  C73  1  0.32062800  0.03195300  0.60900500  1
  C  C74  1  0.32062800  0.46804700  0.39099500  1
  C  C75  1  0.17937200  0.96804700  0.10900500  1
  C  C76  1  0.97956100  0.76212600  0.27848900  1
  C  C77  1  0.52043900  0.26212600  0.22151100  1
  C  C78  1  0.52043900  0.23787400  0.77848900  1
  C  C79  1  0.97956100  0.73787400  0.72151100  1
  C  C80  1  0.02043900  0.23787400  0.72151100  1
  C  C81  1  0.47956100  0.73787400  0.77848900  1
  C  C82  1  0.47956100  0.76212600  0.22151100  1
  C  C83  1  0.02043900  0.26212600  0.27848900  1
