# generated using pymatgen
data_CuNi4C3
_symmetry_space_group_name_H-M   'P 1'
_cell_length_a   4.25528800
_cell_length_b   7.36191550
_cell_length_c   7.36191550
_cell_angle_alpha   70.60966883
_cell_angle_beta   90.00000000
_cell_angle_gamma   90.00000000
_symmetry_Int_Tables_number   1
_chemical_formula_structural   CuNi4C3
_chemical_formula_sum   'Cu1 Ni4 C3'
_cell_volume   217.54576909
_cell_formula_units_Z   1
loop_
 _symmetry_equiv_pos_site_id
 _symmetry_equiv_pos_as_xyz
  1  'x, y, z'
loop_
 _atom_site_type_symbol
 _atom_site_label
 _atom_site_symmetry_multiplicity
 _atom_site_fract_x
 _atom_site_fract_y
 _atom_site_fract_z
 _atom_site_occupancy
  Ni  Ni0  1  0.00000000  0.99989100  0.99989100  1
  Ni  Ni1  1  0.50000000  0.99323500  0.50244200  1
  Ni  Ni2  1  0.50000000  0.50244200  0.99323500  1
  Ni  Ni3  1  0.00000000  0.50462500  0.50462500  1
  Cu  Cu4  1  0.50000000  0.37481000  0.37481000  1
  C  C5  1  0.00000000  0.37482200  0.87513400  1
  C  C6  1  0.00000000  0.87513400  0.37482200  1
  C  C7  1  0.50000000  0.87504000  0.87504000  1
