# generated using pymatgen
data_CuNiC11
_symmetry_space_group_name_H-M   'P 1'
_cell_length_a   5.56195551
_cell_length_b   7.00550125
_cell_length_c   9.48439316
_cell_angle_alpha   111.26062436
_cell_angle_beta   101.13369267
_cell_angle_gamma   98.01004514
_symmetry_Int_Tables_number   1
_chemical_formula_structural   CuNiC11
_chemical_formula_sum   'Cu2 Ni2 C22'
_cell_volume   328.94222031
_cell_formula_units_Z   2
loop_
 _symmetry_equiv_pos_site_id
 _symmetry_equiv_pos_as_xyz
  1  'x, y, z'
loop_
 _atom_site_type_symbol
 _atom_site_label
 _atom_site_symmetry_multiplicity
 _atom_site_fract_x
 _atom_site_fract_y
 _atom_site_fract_z
 _atom_site_occupancy
  C  C0  1  0.24841600  0.80099400  0.04793400  1
  C  C1  1  0.75158400  0.19900600  0.95206600  1
  Ni  Ni2  1  0.98962300  0.38267000  0.65285200  1
  Ni  Ni3  1  0.01037700  0.61733000  0.34714800  1
  Cu  Cu4  1  0.64277400  0.85192300  0.56163300  1
  Cu  Cu5  1  0.35722600  0.14807700  0.43836700  1
  C  C6  1  0.39186200  0.42390700  0.23414100  1
  C  C7  1  0.60813800  0.57609300  0.76585900  1
  C  C8  1  0.84087600  0.02404300  0.30233400  1
  C  C9  1  0.15912400  0.97595700  0.69766600  1
  C  C10  1  0.81674700  0.54943300  0.88835700  1
  C  C11  1  0.65976900  0.47409500  0.21181000  1
  C  C12  1  0.66720700  0.80080300  0.77136300  1
  C  C13  1  0.96264100  0.12000800  0.69898700  1
  C  C14  1  0.34023100  0.52590500  0.78819000  1
  C  C15  1  0.00395200  0.75108300  0.57474000  1
  C  C16  1  0.99604800  0.24891700  0.42526000  1
  C  C17  1  0.25912000  0.99263100  0.86375700  1
  C  C18  1  0.33279300  0.19919700  0.22863700  1
  C  C19  1  0.74088000  0.00736900  0.13624300  1
  C  C20  1  0.18325300  0.45056700  0.11164300  1
  C  C21  1  0.36832200  0.58416900  0.39460700  1
  C  C22  1  0.63167800  0.41583100  0.60539300  1
  C  C23  1  0.62186800  0.95270100  0.36594200  1
  C  C24  1  0.03735900  0.87999200  0.30101300  1
  C  C25  1  0.37813200  0.04729900  0.63405800  1
