# generated using pymatgen
data_Cu4Ni12C
_symmetry_space_group_name_H-M   'P 1'
_cell_length_a   6.86564500
_cell_length_b   8.86151400
_cell_length_c   14.21870500
_cell_angle_alpha   90.00000000
_cell_angle_beta   90.00000000
_cell_angle_gamma   90.00000000
_symmetry_Int_Tables_number   1
_chemical_formula_structural   Cu4Ni12C
_chemical_formula_sum   'Cu16 Ni48 C4'
_cell_volume   865.06614424
_cell_formula_units_Z   4
loop_
 _symmetry_equiv_pos_site_id
 _symmetry_equiv_pos_as_xyz
  1  'x, y, z'
loop_
 _atom_site_type_symbol
 _atom_site_label
 _atom_site_symmetry_multiplicity
 _atom_site_fract_x
 _atom_site_fract_y
 _atom_site_fract_z
 _atom_site_occupancy
  C  C0  1  0.35557700  0.75000000  0.34502900  1
  C  C1  1  0.14442300  0.75000000  0.84502900  1
  C  C2  1  0.64442300  0.25000000  0.65497100  1
  C  C3  1  0.85557700  0.25000000  0.15497100  1
  Ni  Ni4  1  0.10076200  0.92763000  0.40562500  1
  Ni  Ni5  1  0.39923800  0.57237000  0.90562500  1
  Ni  Ni6  1  0.89923800  0.42763000  0.59437500  1
  Ni  Ni7  1  0.60076200  0.07237000  0.09437500  1
  Ni  Ni8  1  0.89923800  0.07237000  0.59437500  1
  Ni  Ni9  1  0.60076200  0.42763000  0.09437500  1
  Ni  Ni10  1  0.10076200  0.57237000  0.40562500  1
  Ni  Ni11  1  0.39923800  0.92763000  0.90562500  1
  Ni  Ni12  1  0.31473000  0.02727900  0.37208300  1
  Ni  Ni13  1  0.18527000  0.47272100  0.87208300  1
  Ni  Ni14  1  0.68527000  0.52727900  0.62791700  1
  Ni  Ni15  1  0.81473000  0.97272100  0.12791700  1
  Ni  Ni16  1  0.68527000  0.97272100  0.62791700  1
  Ni  Ni17  1  0.81473000  0.52727900  0.12791700  1
  Ni  Ni18  1  0.31473000  0.47272100  0.37208300  1
  Ni  Ni19  1  0.18527000  0.02727900  0.87208300  1
  Ni  Ni20  1  0.30855500  0.92689100  0.48027000  1
  Ni  Ni21  1  0.19144500  0.57310900  0.98027000  1
  Ni  Ni22  1  0.69144500  0.42689100  0.51973000  1
  Ni  Ni23  1  0.80855500  0.07310900  0.01973000  1
  Ni  Ni24  1  0.69144500  0.07310900  0.51973000  1
  Ni  Ni25  1  0.80855500  0.42689100  0.01973000  1
  Ni  Ni26  1  0.30855500  0.57310900  0.48027000  1
  Ni  Ni27  1  0.19144500  0.92689100  0.98027000  1
  Ni  Ni28  1  0.11190500  0.75000000  0.21364200  1
  Ni  Ni29  1  0.38809500  0.75000000  0.71364200  1
  Ni  Ni30  1  0.88809500  0.25000000  0.78635800  1
  Ni  Ni31  1  0.61190500  0.25000000  0.28635800  1
  Ni  Ni32  1  0.32626700  0.64982700  0.18098600  1
  Ni  Ni33  1  0.17373300  0.85017300  0.68098600  1
  Ni  Ni34  1  0.67373300  0.14982700  0.81901400  1
  Ni  Ni35  1  0.82626700  0.35017300  0.31901400  1
  Ni  Ni36  1  0.67373300  0.35017300  0.81901400  1
  Ni  Ni37  1  0.82626700  0.14982700  0.31901400  1
  Ni  Ni38  1  0.32626700  0.85017300  0.18098600  1
  Ni  Ni39  1  0.17373300  0.64982700  0.68098600  1
  Ni  Ni40  1  0.68461600  0.75000000  0.42119600  1
  Ni  Ni41  1  0.81538400  0.75000000  0.92119600  1
  Ni  Ni42  1  0.31538400  0.25000000  0.57880400  1
  Ni  Ni43  1  0.18461600  0.25000000  0.07880400  1
  Ni  Ni44  1  0.68990300  0.85035800  0.31281400  1
  Ni  Ni45  1  0.81009700  0.64964200  0.81281400  1
  Ni  Ni46  1  0.31009700  0.35035800  0.68718600  1
  Ni  Ni47  1  0.18990300  0.14964200  0.18718600  1
  Ni  Ni48  1  0.31009700  0.14964200  0.68718600  1
  Ni  Ni49  1  0.18990300  0.35035800  0.18718600  1
  Ni  Ni50  1  0.68990300  0.64964200  0.31281400  1
  Ni  Ni51  1  0.81009700  0.85035800  0.81281400  1
  Cu  Cu52  1  0.26103100  0.92406200  0.40644800  1
  Cu  Cu53  1  0.23896900  0.57593800  0.90644800  1
  Cu  Cu54  1  0.73896900  0.42406200  0.59355200  1
  Cu  Cu55  1  0.76103100  0.07593800  0.09355200  1
  Cu  Cu56  1  0.73896900  0.07593800  0.59355200  1
  Cu  Cu57  1  0.76103100  0.42406200  0.09355200  1
  Cu  Cu58  1  0.26103100  0.57593800  0.40644800  1
  Cu  Cu59  1  0.23896900  0.92406200  0.90644800  1
  Cu  Cu60  1  0.27202700  0.75000000  0.21844000  1
  Cu  Cu61  1  0.22797300  0.75000000  0.71844000  1
  Cu  Cu62  1  0.72797300  0.25000000  0.78156000  1
  Cu  Cu63  1  0.77202700  0.25000000  0.28156000  1
  Cu  Cu64  1  0.63072200  0.75000000  0.34833100  1
  Cu  Cu65  1  0.86927800  0.75000000  0.84833100  1
  Cu  Cu66  1  0.36927800  0.25000000  0.65166900  1
  Cu  Cu67  1  0.13072200  0.25000000  0.15166900  1
