# generated using pymatgen
data_Cu10Ni2C11
_symmetry_space_group_name_H-M   'P 1'
_cell_length_a   15.50727200
_cell_length_b   15.50727200
_cell_length_c   3.88755600
_cell_angle_alpha   90.00000000
_cell_angle_beta   90.00000000
_cell_angle_gamma   90.00000000
_symmetry_Int_Tables_number   1
_chemical_formula_structural   Cu10Ni2C11
_chemical_formula_sum   'Cu20 Ni4 C22'
_cell_volume   934.86191411
_cell_formula_units_Z   2
loop_
 _symmetry_equiv_pos_site_id
 _symmetry_equiv_pos_as_xyz
  1  'x, y, z'
loop_
 _atom_site_type_symbol
 _atom_site_label
 _atom_site_symmetry_multiplicity
 _atom_site_fract_x
 _atom_site_fract_y
 _atom_site_fract_z
 _atom_site_occupancy
  C  C0  1  0.50000000  0.50000000  0.50000000  1
  C  C1  1  0.00000000  0.00000000  0.00000000  1
  C  C2  1  0.97977200  0.79485700  0.50000000  1
  C  C3  1  0.02022800  0.20514300  0.50000000  1
  C  C4  1  0.52022800  0.29485700  0.00000000  1
  C  C5  1  0.47977200  0.70514300  0.00000000  1
  C  C6  1  0.79485700  0.97977200  0.50000000  1
  C  C7  1  0.20514300  0.02022800  0.50000000  1
  C  C8  1  0.29485700  0.52022800  0.00000000  1
  C  C9  1  0.70514300  0.47977200  0.00000000  1
  C  C10  1  0.67063400  0.67063400  0.50000000  1
  C  C11  1  0.32936600  0.32936600  0.50000000  1
  C  C12  1  0.82936600  0.17063400  0.00000000  1
  C  C13  1  0.17063400  0.82936600  0.00000000  1
  C  C14  1  0.38186800  0.88940500  0.50000000  1
  C  C15  1  0.61813200  0.11059500  0.50000000  1
  C  C16  1  0.11813300  0.38940500  0.00000000  1
  C  C17  1  0.88186800  0.61059500  0.00000000  1
  C  C18  1  0.88940500  0.38186800  0.50000000  1
  C  C19  1  0.11059500  0.61813200  0.50000000  1
  C  C20  1  0.38940500  0.11813300  0.00000000  1
  C  C21  1  0.61059500  0.88186800  0.00000000  1
  Ni  Ni22  1  0.31820500  0.68179500  0.50000000  1
  Ni  Ni23  1  0.68179500  0.31820500  0.50000000  1
  Ni  Ni24  1  0.18179500  0.18179500  0.00000000  1
  Ni  Ni25  1  0.81820500  0.81820500  0.00000000  1
  Cu  Cu26  1  0.09141200  0.90858800  0.50000000  1
  Cu  Cu27  1  0.90858800  0.09141200  0.50000000  1
  Cu  Cu28  1  0.40858800  0.40858800  0.00000000  1
  Cu  Cu29  1  0.59141200  0.59141200  0.00000000  1
  Cu  Cu30  1  0.46787300  0.18969200  0.50000000  1
  Cu  Cu31  1  0.53212700  0.81030800  0.50000000  1
  Cu  Cu32  1  0.03212700  0.68969200  0.00000000  1
  Cu  Cu33  1  0.96787300  0.31030800  0.00000000  1
  Cu  Cu34  1  0.18969200  0.46787300  0.50000000  1
  Cu  Cu35  1  0.81030800  0.53212700  0.50000000  1
  Cu  Cu36  1  0.68969200  0.03212700  0.00000000  1
  Cu  Cu37  1  0.31030800  0.96787300  0.00000000  1
  Cu  Cu38  1  0.26171100  0.73828900  0.50000000  1
  Cu  Cu39  1  0.73828900  0.26171100  0.50000000  1
  Cu  Cu40  1  0.23828900  0.23828900  0.00000000  1
  Cu  Cu41  1  0.76171100  0.76171100  0.00000000  1
  Cu  Cu42  1  0.37514100  0.62485900  0.50000000  1
  Cu  Cu43  1  0.62485900  0.37514100  0.50000000  1
  Cu  Cu44  1  0.12485900  0.12485900  0.00000000  1
  Cu  Cu45  1  0.87514100  0.87514100  0.00000000  1
