# generated using pymatgen
data_Cu2Ni5C8
_symmetry_space_group_name_H-M   'P 1'
_cell_length_a   10.65233676
_cell_length_b   9.82287301
_cell_length_c   13.60103900
_cell_angle_alpha   90.00000000
_cell_angle_beta   90.00000000
_cell_angle_gamma   90.00000000
_symmetry_Int_Tables_number   1
_chemical_formula_structural   Cu2Ni5C8
_chemical_formula_sum   'Cu16 Ni40 C64'
_cell_volume   1423.16581442
_cell_formula_units_Z   8
loop_
 _symmetry_equiv_pos_site_id
 _symmetry_equiv_pos_as_xyz
  1  'x, y, z'
loop_
 _atom_site_type_symbol
 _atom_site_label
 _atom_site_symmetry_multiplicity
 _atom_site_fract_x
 _atom_site_fract_y
 _atom_site_fract_z
 _atom_site_occupancy
  Ni  Ni0  1  0.39011159  0.24107308  0.83362829  1
  Ni  Ni1  1  0.89011159  0.25892692  0.16637171  1
  Ni  Ni2  1  0.60988841  0.74107308  0.66637171  1
  Ni  Ni3  1  0.10988841  0.75892692  0.33362829  1
  Ni  Ni4  1  0.60988841  0.75892692  0.16637171  1
  Ni  Ni5  1  0.10988841  0.74107308  0.83362829  1
  Ni  Ni6  1  0.39011159  0.25892692  0.33362829  1
  Ni  Ni7  1  0.89011159  0.24107308  0.66637171  1
  Ni  Ni8  1  0.15167390  0.23942498  0.71590593  1
  Ni  Ni9  1  0.65167390  0.26057502  0.28409407  1
  Ni  Ni10  1  0.84832610  0.73942498  0.78409407  1
  Ni  Ni11  1  0.34832610  0.76057502  0.21590593  1
  Ni  Ni12  1  0.84832610  0.76057502  0.28409407  1
  Ni  Ni13  1  0.34832610  0.73942498  0.71590593  1
  Ni  Ni14  1  0.15167390  0.26057502  0.21590593  1
  Ni  Ni15  1  0.65167390  0.23942498  0.78409407  1
  Ni  Ni16  1  0.25452008  0.98679713  0.82612174  1
  Ni  Ni17  1  0.75452008  0.51320287  0.17387826  1
  Ni  Ni18  1  0.74547992  0.48679713  0.67387826  1
  Ni  Ni19  1  0.24547992  0.01320287  0.32612174  1
  Ni  Ni20  1  0.74547992  0.01320287  0.17387826  1
  Ni  Ni21  1  0.24547992  0.48679713  0.82612174  1
  Ni  Ni22  1  0.25452008  0.51320287  0.32612174  1
  Ni  Ni23  1  0.75452008  0.98679713  0.67387826  1
  Ni  Ni24  1  0.97667575  0.01184224  0.79924140  1
  Ni  Ni25  1  0.47667575  0.48815776  0.20075860  1
  Ni  Ni26  1  0.02332425  0.51184224  0.70075860  1
  Ni  Ni27  1  0.52332425  0.98815776  0.29924140  1
  Ni  Ni28  1  0.02332425  0.98815776  0.20075860  1
  Ni  Ni29  1  0.52332425  0.51184224  0.79924140  1
  Ni  Ni30  1  0.97667575  0.48815776  0.29924140  1
  Ni  Ni31  1  0.47667575  0.01184224  0.70075860  1
  Ni  Ni32  1  0.80013918  0.13690753  0.97552147  1
  Ni  Ni33  1  0.30013918  0.36309247  0.02447853  1
  Ni  Ni34  1  0.19986082  0.63690753  0.52447853  1
  Ni  Ni35  1  0.69986082  0.86309247  0.47552147  1
  Ni  Ni36  1  0.19986082  0.86309247  0.02447853  1
  Ni  Ni37  1  0.69986082  0.63690753  0.97552147  1
  Ni  Ni38  1  0.80013918  0.36309247  0.47552147  1
  Ni  Ni39  1  0.30013918  0.13690753  0.52447853  1
  Cu  Cu40  1  0.05127642  0.15326476  0.01749879  1
  Cu  Cu41  1  0.55127642  0.34673524  0.98250121  1
  Cu  Cu42  1  0.94872358  0.65326476  0.48250121  1
  Cu  Cu43  1  0.44872358  0.84673524  0.51749879  1
  Cu  Cu44  1  0.94872358  0.84673524  0.98250121  1
  Cu  Cu45  1  0.44872358  0.65326476  0.01749879  1
  Cu  Cu46  1  0.05127642  0.34673524  0.51749879  1
  Cu  Cu47  1  0.55127642  0.15326476  0.48250121  1
  Cu  Cu48  1  0.27654067  0.11253926  0.02689452  1
  Cu  Cu49  1  0.77654067  0.38746074  0.97310548  1
  Cu  Cu50  1  0.72345933  0.61253926  0.47310548  1
  Cu  Cu51  1  0.22345933  0.88746074  0.52689452  1
  Cu  Cu52  1  0.72345933  0.88746074  0.97310548  1
  Cu  Cu53  1  0.22345933  0.61253926  0.02689452  1
  Cu  Cu54  1  0.27654067  0.38746074  0.52689452  1
  Cu  Cu55  1  0.77654067  0.11253926  0.47310548  1
  C  C56  1  0.89298466  0.25811968  0.03770299  1
  C  C57  1  0.39298466  0.24188032  0.96229701  1
  C  C58  1  0.10701534  0.75811968  0.46229701  1
  C  C59  1  0.60701534  0.74188032  0.53770299  1
  C  C60  1  0.10701534  0.74188032  0.96229701  1
  C  C61  1  0.60701534  0.75811968  0.03770299  1
  C  C62  1  0.89298466  0.24188032  0.53770299  1
  C  C63  1  0.39298466  0.25811968  0.46229701  1
  C  C64  1  0.92555493  0.04772173  0.92021855  1
  C  C65  1  0.42555493  0.45227827  0.07978145  1
  C  C66  1  0.07444507  0.54772173  0.57978145  1
  C  C67  1  0.57444507  0.95227827  0.42021855  1
  C  C68  1  0.07444507  0.95227827  0.07978145  1
  C  C69  1  0.57444507  0.54772173  0.92021855  1
  C  C70  1  0.92555493  0.45227827  0.42021855  1
  C  C71  1  0.42555493  0.04772173  0.57978145  1
  C  C72  1  0.69679811  0.24142765  0.90797855  1
  C  C73  1  0.19679811  0.25857235  0.09202145  1
  C  C74  1  0.30320189  0.74142765  0.59202145  1
  C  C75  1  0.80320189  0.75857235  0.40797855  1
  C  C76  1  0.30320189  0.75857235  0.09202145  1
  C  C77  1  0.80320189  0.74142765  0.90797855  1
  C  C78  1  0.69679811  0.25857235  0.40797855  1
  C  C79  1  0.19679811  0.24142765  0.59202145  1
  C  C80  1  0.28747736  0.96400068  0.94788939  1
  C  C81  1  0.78747736  0.53599932  0.05211061  1
  C  C82  1  0.71252264  0.46400068  0.55211061  1
  C  C83  1  0.21252264  0.03599932  0.44788939  1
  C  C84  1  0.71252264  0.03599932  0.05211061  1
  C  C85  1  0.21252264  0.46400068  0.94788939  1
  C  C86  1  0.28747736  0.53599932  0.44788939  1
  C  C87  1  0.78747736  0.96400068  0.55211061  1
  C  C88  1  0.00928989  0.15425488  0.72538582  1
  C  C89  1  0.50928989  0.34574512  0.27461418  1
  C  C90  1  0.99071011  0.65425488  0.77461418  1
  C  C91  1  0.49071011  0.84574512  0.22538582  1
  C  C92  1  0.99071011  0.84574512  0.27461418  1
  C  C93  1  0.49071011  0.65425488  0.72538582  1
  C  C94  1  0.00928989  0.34574512  0.22538582  1
  C  C95  1  0.50928989  0.15425488  0.77461418  1
  C  C96  1  0.36403600  0.90779331  0.75249836  1
  C  C97  1  0.86403600  0.59220669  0.24750164  1
  C  C98  1  0.63596400  0.40779331  0.74750164  1
  C  C99  1  0.13596400  0.09220669  0.25249836  1
  C  C100  1  0.63596400  0.09220669  0.24750164  1
  C  C101  1  0.13596400  0.40779331  0.75249836  1
  C  C102  1  0.36403600  0.59220669  0.25249836  1
  C  C103  1  0.86403600  0.90779331  0.74750164  1
  C  C104  1  0.25467525  0.15912557  0.79426689  1
  C  C105  1  0.75467525  0.34087443  0.20573311  1
  C  C106  1  0.74532475  0.65912557  0.70573311  1
  C  C107  1  0.24532475  0.84087443  0.29426689  1
  C  C108  1  0.74532475  0.84087443  0.20573311  1
  C  C109  1  0.24532475  0.65912557  0.79426689  1
  C  C110  1  0.25467525  0.34087443  0.29426689  1
  C  C111  1  0.75467525  0.15912557  0.70573311  1
  C  C112  1  0.11135566  0.91264991  0.80022614  1
  C  C113  1  0.61135566  0.58735009  0.19977386  1
  C  C114  1  0.88864434  0.41264991  0.69977386  1
  C  C115  1  0.38864434  0.08735009  0.30022614  1
  C  C116  1  0.88864434  0.08735009  0.19977386  1
  C  C117  1  0.38864434  0.41264991  0.80022614  1
  C  C118  1  0.11135566  0.58735009  0.30022614  1
  C  C119  1  0.61135566  0.91264991  0.69977386  1
