# generated using pymatgen
data_Cu2Ni6C19
_symmetry_space_group_name_H-M   'P 1'
_cell_length_a   11.93698705
_cell_length_b   11.93698705
_cell_length_c   7.13476987
_cell_angle_alpha   89.37038224
_cell_angle_beta   89.37038224
_cell_angle_gamma   119.48679123
_symmetry_Int_Tables_number   1
_chemical_formula_structural   Cu2Ni6C19
_chemical_formula_sum   'Cu4 Ni12 C38'
_cell_volume   884.74785888
_cell_formula_units_Z   2
loop_
 _symmetry_equiv_pos_site_id
 _symmetry_equiv_pos_as_xyz
  1  'x, y, z'
loop_
 _atom_site_type_symbol
 _atom_site_label
 _atom_site_symmetry_multiplicity
 _atom_site_fract_x
 _atom_site_fract_y
 _atom_site_fract_z
 _atom_site_occupancy
  Ni  Ni0  1  0.00033200  0.00127800  0.50329100  1
  Ni  Ni1  1  0.00127800  0.00033200  0.00329100  1
  Ni  Ni2  1  0.33423000  0.66536500  0.02573400  1
  Ni  Ni3  1  0.66536500  0.33423000  0.52573400  1
  Ni  Ni4  1  0.52168300  0.04682100  0.17312300  1
  Ni  Ni5  1  0.04682100  0.52168300  0.67312300  1
  Ni  Ni6  1  0.81969800  0.64647100  0.83750300  1
  Ni  Ni7  1  0.35355200  0.17662300  0.83937400  1
  Ni  Ni8  1  0.81935500  0.17650300  0.83586600  1
  Ni  Ni9  1  0.17662300  0.35355200  0.33937400  1
  Ni  Ni10  1  0.64647100  0.81969800  0.33750300  1
  Ni  Ni11  1  0.17650300  0.81935500  0.33586600  1
  Cu  Cu12  1  0.95170100  0.47545300  0.17906000  1
  Cu  Cu13  1  0.52348600  0.47801400  0.16946700  1
  Cu  Cu14  1  0.47545300  0.95170100  0.67906000  1
  Cu  Cu15  1  0.47801400  0.52348600  0.66946700  1
  C  C16  1  0.66274300  0.33014700  0.98801500  1
  C  C17  1  0.33014700  0.66274300  0.48801500  1
  C  C18  1  0.16922600  0.81622500  0.83810900  1
  C  C19  1  0.17508500  0.35409300  0.84473700  1
  C  C20  1  0.64920500  0.82307600  0.83755100  1
  C  C21  1  0.81622500  0.16922600  0.33810900  1
  C  C22  1  0.82307600  0.64920500  0.33755100  1
  C  C23  1  0.35409300  0.17508500  0.34473700  1
  C  C24  1  0.41564000  0.58644300  0.33845500  1
  C  C25  1  0.41024100  0.81784100  0.34790900  1
  C  C26  1  0.16472700  0.58191300  0.32154900  1
  C  C27  1  0.58644300  0.41564000  0.83845500  1
  C  C28  1  0.58191300  0.16472700  0.82154900  1
  C  C29  1  0.81784100  0.41024100  0.84790900  1
  C  C30  1  0.92836700  0.32527700  0.45749600  1
  C  C31  1  0.66492600  0.60385100  0.47005900  1
  C  C32  1  0.39208400  0.07151900  0.48723500  1
  C  C33  1  0.92836100  0.60547300  0.46149700  1
  C  C34  1  0.67609600  0.06710400  0.48629700  1
  C  C35  1  0.40071900  0.33371400  0.47202900  1
  C  C36  1  0.06710400  0.67609600  0.98629700  1
  C  C37  1  0.33371400  0.40071900  0.97202900  1
  C  C38  1  0.60547300  0.92836100  0.96149700  1
  C  C39  1  0.07151900  0.39208400  0.98723500  1
  C  C40  1  0.32527700  0.92836700  0.95749600  1
  C  C41  1  0.60385100  0.66492600  0.97005900  1
  C  C42  1  0.10305600  0.19813800  0.73873000  1
  C  C43  1  0.81235900  0.89829900  0.74300300  1
  C  C44  1  0.09788100  0.90417800  0.73565400  1
  C  C45  1  0.89829900  0.81235900  0.24300300  1
  C  C46  1  0.19813800  0.10305600  0.23873000  1
  C  C47  1  0.90417800  0.09788100  0.23565400  1
  C  C48  1  0.75828000  0.25910500  0.16101900  1
  C  C49  1  0.75114600  0.50879200  0.16652200  1
  C  C50  1  0.50199500  0.26211000  0.16031600  1
  C  C51  1  0.25910500  0.75828000  0.66101900  1
  C  C52  1  0.26211000  0.50199500  0.66031600  1
  C  C53  1  0.50879200  0.75114600  0.66652200  1
