# generated using pymatgen
data_Cu4Ni2C
_symmetry_space_group_name_H-M   'P 1'
_cell_length_a   6.95085633
_cell_length_b   6.95085633
_cell_length_c   15.65225447
_cell_angle_alpha   66.54240361
_cell_angle_beta   66.54240361
_cell_angle_gamma   33.57553848
_symmetry_Int_Tables_number   1
_chemical_formula_structural   Cu4Ni2C
_chemical_formula_sum   'Cu8 Ni4 C2'
_cell_volume   380.35627901
_cell_formula_units_Z   2
loop_
 _symmetry_equiv_pos_site_id
 _symmetry_equiv_pos_as_xyz
  1  'x, y, z'
loop_
 _atom_site_type_symbol
 _atom_site_label
 _atom_site_symmetry_multiplicity
 _atom_site_fract_x
 _atom_site_fract_y
 _atom_site_fract_z
 _atom_site_occupancy
  C  C0  1  0.00000000  0.00000000  0.00000000  1
  C  C1  1  0.00000000  0.00000000  0.50000000  1
  Ni  Ni2  1  0.64537400  0.64537400  0.62964200  1
  Ni  Ni3  1  0.35462600  0.35462600  0.37035800  1
  Ni  Ni4  1  0.23072300  0.23072300  0.12388700  1
  Ni  Ni5  1  0.76927700  0.76927700  0.87611300  1
  Cu  Cu6  1  0.01050200  0.01050200  0.32916400  1
  Cu  Cu7  1  0.98949800  0.98949800  0.67083600  1
  Cu  Cu8  1  0.65668400  0.65668400  0.45774500  1
  Cu  Cu9  1  0.34331600  0.34331600  0.54225500  1
  Cu  Cu10  1  0.60540600  0.60540600  0.04931000  1
  Cu  Cu11  1  0.39459400  0.39459400  0.95069000  1
  Cu  Cu12  1  0.83705600  0.83705600  0.17387400  1
  Cu  Cu13  1  0.16294400  0.16294400  0.82612600  1
