# generated using pymatgen
data_Cu7Ni5C3
_symmetry_space_group_name_H-M   'P 1'
_cell_length_a   2.87975500
_cell_length_b   11.24760800
_cell_length_c   11.91320700
_cell_angle_alpha   90.00000000
_cell_angle_beta   90.00000000
_cell_angle_gamma   90.00000000
_symmetry_Int_Tables_number   1
_chemical_formula_structural   Cu7Ni5C3
_chemical_formula_sum   'Cu14 Ni10 C6'
_cell_volume   385.87300840
_cell_formula_units_Z   2
loop_
 _symmetry_equiv_pos_site_id
 _symmetry_equiv_pos_as_xyz
  1  'x, y, z'
loop_
 _atom_site_type_symbol
 _atom_site_label
 _atom_site_symmetry_multiplicity
 _atom_site_fract_x
 _atom_site_fract_y
 _atom_site_fract_z
 _atom_site_occupancy
  Ni  Ni0  1  0.50000000  0.75000000  0.19153800  1
  Ni  Ni1  1  0.50000000  0.25000000  0.80846200  1
  Ni  Ni2  1  0.50000000  0.45070500  0.13386100  1
  Ni  Ni3  1  0.50000000  0.54929500  0.86613900  1
  Ni  Ni4  1  0.50000000  0.04929500  0.13386100  1
  Ni  Ni5  1  0.50000000  0.95070500  0.86613900  1
  Ni  Ni6  1  0.50000000  0.36758300  0.34517700  1
  Ni  Ni7  1  0.50000000  0.63241700  0.65482300  1
  Ni  Ni8  1  0.50000000  0.13241700  0.34517700  1
  Ni  Ni9  1  0.50000000  0.86758300  0.65482300  1
  C  C10  1  0.50000000  0.75000000  0.96642200  1
  C  C11  1  0.50000000  0.25000000  0.03357800  1
  C  C12  1  0.50000000  0.88330300  0.40590700  1
  C  C13  1  0.50000000  0.11669700  0.59409300  1
  C  C14  1  0.50000000  0.61669700  0.40590700  1
  C  C15  1  0.50000000  0.38330300  0.59409300  1
  Cu  Cu16  1  0.00000000  0.00000000  0.50000000  1
  Cu  Cu17  1  0.00000000  0.50000000  0.50000000  1
  Cu  Cu18  1  0.00000000  0.75000000  0.82147900  1
  Cu  Cu19  1  0.00000000  0.25000000  0.17852100  1
  Cu  Cu20  1  0.00000000  0.75000000  0.47285600  1
  Cu  Cu21  1  0.00000000  0.25000000  0.52714400  1
  Cu  Cu22  1  0.00000000  0.87481500  0.03936400  1
  Cu  Cu23  1  0.00000000  0.12518500  0.96063600  1
  Cu  Cu24  1  0.00000000  0.62518500  0.03936400  1
  Cu  Cu25  1  0.00000000  0.37481500  0.96063600  1
  Cu  Cu26  1  0.00000000  0.92186100  0.27833900  1
  Cu  Cu27  1  0.00000000  0.07813900  0.72166100  1
  Cu  Cu28  1  0.00000000  0.57813900  0.27833900  1
  Cu  Cu29  1  0.00000000  0.42186100  0.72166100  1
