# generated using pymatgen
data_CuNi13C11
_symmetry_space_group_name_H-M   'P 1'
_cell_length_a   5.83772700
_cell_length_b   7.25317100
_cell_length_c   18.31944174
_cell_angle_alpha   87.86006859
_cell_angle_beta   90.00000000
_cell_angle_gamma   90.00000000
_symmetry_Int_Tables_number   1
_chemical_formula_structural   CuNi13C11
_chemical_formula_sum   'Cu2 Ni26 C22'
_cell_volume   775.14144092
_cell_formula_units_Z   2
loop_
 _symmetry_equiv_pos_site_id
 _symmetry_equiv_pos_as_xyz
  1  'x, y, z'
loop_
 _atom_site_type_symbol
 _atom_site_label
 _atom_site_symmetry_multiplicity
 _atom_site_fract_x
 _atom_site_fract_y
 _atom_site_fract_z
 _atom_site_occupancy
  C  C0  1  0.25000000  0.52406500  0.24953600  1
  C  C1  1  0.75000000  0.47593500  0.75046400  1
  C  C2  1  0.25000000  0.13194400  0.69408400  1
  C  C3  1  0.75000000  0.86805600  0.30591600  1
  C  C4  1  0.25000000  0.79505000  0.81449600  1
  C  C5  1  0.75000000  0.20495000  0.18550400  1
  C  C6  1  0.25000000  0.80332300  0.00363300  1
  C  C7  1  0.75000000  0.19667700  0.99636700  1
  C  C8  1  0.25000000  0.25944200  0.49022600  1
  C  C9  1  0.75000000  0.74055800  0.50977400  1
  C  C10  1  0.25000000  0.33355300  0.89025800  1
  C  C11  1  0.75000000  0.66644700  0.10974200  1
  C  C12  1  0.25000000  0.59715100  0.62888100  1
  C  C13  1  0.75000000  0.40284900  0.37111900  1
  C  C14  1  0.25000000  0.33605900  0.08330700  1
  C  C15  1  0.75000000  0.66394100  0.91669300  1
  C  C16  1  0.25000000  0.95861800  0.17297600  1
  C  C17  1  0.75000000  0.04138200  0.82702400  1
  C  C18  1  0.25000000  0.08297900  0.33173900  1
  C  C19  1  0.75000000  0.91702100  0.66826100  1
  C  C20  1  0.25000000  0.71059800  0.42335600  1
  C  C21  1  0.75000000  0.28940200  0.57664400  1
  Ni  Ni22  1  0.01567000  0.45338500  0.09449000  1
  Ni  Ni23  1  0.51567000  0.54661500  0.90551000  1
  Ni  Ni24  1  0.98433000  0.54661500  0.90551000  1
  Ni  Ni25  1  0.48433000  0.45338500  0.09449000  1
  Ni  Ni26  1  0.25000000  0.22652800  0.00643300  1
  Ni  Ni27  1  0.75000000  0.77347200  0.99356700  1
  Ni  Ni28  1  0.25000000  0.18385400  0.15551300  1
  Ni  Ni29  1  0.75000000  0.81614600  0.84448700  1
  Ni  Ni30  1  0.01462900  0.86872900  0.14461000  1
  Ni  Ni31  1  0.51462900  0.13127100  0.85539000  1
  Ni  Ni32  1  0.98537100  0.13127100  0.85539000  1
  Ni  Ni33  1  0.48537100  0.86872900  0.14461000  1
  Ni  Ni34  1  0.25000000  0.93611200  0.26420300  1
  Ni  Ni35  1  0.75000000  0.06388800  0.73579700  1
  Ni  Ni36  1  0.01686300  0.20563500  0.32983000  1
  Ni  Ni37  1  0.51686300  0.79436500  0.67017000  1
  Ni  Ni38  1  0.98313700  0.79436500  0.67017000  1
  Ni  Ni39  1  0.48313700  0.20563500  0.32983000  1
  Ni  Ni40  1  0.25000000  0.94167000  0.40590600  1
  Ni  Ni41  1  0.75000000  0.05833000  0.59409400  1
  Ni  Ni42  1  0.01711300  0.62357400  0.38858400  1
  Ni  Ni43  1  0.51711300  0.37642600  0.61141600  1
  Ni  Ni44  1  0.98288700  0.37642600  0.61141600  1
  Ni  Ni45  1  0.48288700  0.62357400  0.38858400  1
  Ni  Ni46  1  0.25000000  0.68566600  0.51297300  1
  Ni  Ni47  1  0.75000000  0.31433400  0.48702700  1
  Cu  Cu48  1  0.25000000  0.46180800  0.75675600  1
  Cu  Cu49  1  0.75000000  0.53819200  0.24324400  1
