# generated using pymatgen
data_Cu2NiC8
_symmetry_space_group_name_H-M   'P 1'
_cell_length_a   6.61808200
_cell_length_b   7.27889500
_cell_length_c   12.87699368
_cell_angle_alpha   62.05257438
_cell_angle_beta   90.00000000
_cell_angle_gamma   90.00000000
_symmetry_Int_Tables_number   1
_chemical_formula_structural   Cu2NiC8
_chemical_formula_sum   'Cu8 Ni4 C32'
_cell_volume   547.97237286
_cell_formula_units_Z   4
loop_
 _symmetry_equiv_pos_site_id
 _symmetry_equiv_pos_as_xyz
  1  'x, y, z'
loop_
 _atom_site_type_symbol
 _atom_site_label
 _atom_site_symmetry_multiplicity
 _atom_site_fract_x
 _atom_site_fract_y
 _atom_site_fract_z
 _atom_site_occupancy
  C  C0  1  0.35690600  0.74403100  0.52787100  1
  C  C1  1  0.64309400  0.25596900  0.47212900  1
  C  C2  1  0.85690600  0.25596900  0.97212900  1
  C  C3  1  0.14309400  0.74403100  0.02787100  1
  Ni  Ni4  1  0.40052800  0.71250400  0.27005900  1
  Ni  Ni5  1  0.59947200  0.28749600  0.72994100  1
  Ni  Ni6  1  0.90052800  0.28749600  0.22994100  1
  Ni  Ni7  1  0.09947200  0.71250400  0.77005900  1
  Cu  Cu8  1  0.65755300  0.71600000  0.04369900  1
  Cu  Cu9  1  0.34244700  0.28400000  0.95630100  1
  Cu  Cu10  1  0.15755300  0.28400000  0.45630100  1
  Cu  Cu11  1  0.84244700  0.71600000  0.54369900  1
  Cu  Cu12  1  0.91110500  0.79966000  0.27888600  1
  Cu  Cu13  1  0.08889500  0.20034000  0.72111400  1
  Cu  Cu14  1  0.41110500  0.20034000  0.22111400  1
  Cu  Cu15  1  0.58889500  0.79966000  0.77888600  1
  C  C16  1  0.37428400  0.92846400  0.31117100  1
  C  C17  1  0.62571600  0.07153600  0.68882900  1
  C  C18  1  0.87428400  0.07153600  0.18882900  1
  C  C19  1  0.12571600  0.92846400  0.81117100  1
  C  C20  1  0.82767400  0.91182100  0.02072200  1
  C  C21  1  0.17232600  0.08817900  0.97927800  1
  C  C22  1  0.32767400  0.08817900  0.47927800  1
  C  C23  1  0.67232600  0.91182100  0.52072200  1
  C  C24  1  0.60983800  0.28015700  0.28171000  1
  C  C25  1  0.39016200  0.71984300  0.71829000  1
  C  C26  1  0.10983800  0.71984300  0.21829000  1
  C  C27  1  0.89016200  0.28015700  0.78171000  1
  C  C28  1  0.00234000  0.75392900  0.42266300  1
  C  C29  1  0.99766000  0.24607100  0.57733700  1
  C  C30  1  0.50234000  0.24607100  0.07733700  1
  C  C31  1  0.49766000  0.75392900  0.92266300  1
  C  C32  1  0.44437500  0.70751500  0.12744000  1
  C  C33  1  0.55562500  0.29248500  0.87256000  1
  C  C34  1  0.94437500  0.29248500  0.37256000  1
  C  C35  1  0.05562500  0.70751500  0.62744000  1
  C  C36  1  0.84441300  0.51606800  0.07669900  1
  C  C37  1  0.15558700  0.48393200  0.92330100  1
  C  C38  1  0.34441300  0.48393200  0.42330100  1
  C  C39  1  0.65558700  0.51606800  0.57669900  1
  C  C40  1  0.68876200  0.64928200  0.31571000  1
  C  C41  1  0.31123800  0.35071800  0.68429000  1
  C  C42  1  0.18876200  0.35071800  0.18429000  1
  C  C43  1  0.81123800  0.64928200  0.81571000  1
