# generated using pymatgen
data_Cu(Ni2C)2
_symmetry_space_group_name_H-M   'P 1'
_cell_length_a   5.19764172
_cell_length_b   5.19782253
_cell_length_c   7.42650986
_cell_angle_alpha   109.70684607
_cell_angle_beta   109.69565718
_cell_angle_gamma   89.97989319
_symmetry_Int_Tables_number   1
_chemical_formula_structural   Cu(Ni2C)2
_chemical_formula_sum   'Cu2 Ni8 C4'
_cell_volume   176.37702899
_cell_formula_units_Z   2
loop_
 _symmetry_equiv_pos_site_id
 _symmetry_equiv_pos_as_xyz
  1  'x, y, z'
loop_
 _atom_site_type_symbol
 _atom_site_label
 _atom_site_symmetry_multiplicity
 _atom_site_fract_x
 _atom_site_fract_y
 _atom_site_fract_z
 _atom_site_occupancy
  C  C0  1  0.00000000  0.00000000  0.00000000  1
  C  C1  1  0.50000000  0.50000000  0.50000000  1
  C  C2  1  0.38030100  0.11973100  0.75006800  1
  C  C3  1  0.61969900  0.88026900  0.24993200  1
  Ni  Ni4  1  0.32751000  0.83454500  0.08650700  1
  Ni  Ni5  1  0.84005800  0.85470700  0.15104200  1
  Ni  Ni6  1  0.66551000  0.17254900  0.41331000  1
  Ni  Ni7  1  0.64497000  0.66001400  0.34886100  1
  Ni  Ni8  1  0.15994200  0.14529300  0.84895800  1
  Ni  Ni9  1  0.33449000  0.82745100  0.58669000  1
  Ni  Ni10  1  0.35503000  0.33998600  0.65113900  1
  Ni  Ni11  1  0.67249000  0.16545500  0.91349300  1
  Cu  Cu12  1  0.16975600  0.33013500  0.25006700  1
  Cu  Cu13  1  0.83024400  0.66986500  0.74993300  1
