# generated using pymatgen
data_Cu(Ni5C4)5
_symmetry_space_group_name_H-M   'P 1'
_cell_length_a   12.51800117
_cell_length_b   12.51800117
_cell_length_c   12.51800117
_cell_angle_alpha   98.54249553
_cell_angle_beta   98.54249553
_cell_angle_gamma   134.66127910
_symmetry_Int_Tables_number   1
_chemical_formula_structural   Cu(Ni5C4)5
_chemical_formula_sum   'Cu1 Ni25 C20'
_cell_volume   1287.43019142
_cell_formula_units_Z   1
loop_
 _symmetry_equiv_pos_site_id
 _symmetry_equiv_pos_as_xyz
  1  'x, y, z'
loop_
 _atom_site_type_symbol
 _atom_site_label
 _atom_site_symmetry_multiplicity
 _atom_site_fract_x
 _atom_site_fract_y
 _atom_site_fract_z
 _atom_site_occupancy
  C  C0  1  0.00000000  0.21478200  0.21478200  1
  C  C1  1  0.00000000  0.78521700  0.78521800  1
  C  C2  1  0.50000000  0.71052700  0.21052700  1
  C  C3  1  0.50000000  0.28947300  0.78947300  1
  C  C4  1  0.21478200  0.00000000  0.21478200  1
  C  C5  1  0.78521800  0.00000000  0.78521800  1
  C  C6  1  0.71052700  0.50000000  0.21052700  1
  C  C7  1  0.28947300  0.50000000  0.78947300  1
  C  C8  1  0.50000000  0.00000000  0.50000000  1
  C  C9  1  0.00000000  0.50000000  0.50000000  1
  C  C10  1  0.46306800  0.96306800  0.92613600  1
  C  C11  1  0.03693200  0.53693200  0.07386400  1
  C  C12  1  0.53693200  0.46306800  0.50000000  1
  C  C13  1  0.96306800  0.03693200  0.50000000  1
  C  C14  1  0.22496700  0.22496700  0.00000000  1
  C  C15  1  0.77503300  0.77503300  0.00000000  1
  C  C16  1  0.87492600  0.37492600  0.74985200  1
  C  C17  1  0.62507400  0.12507400  0.25014800  1
  C  C18  1  0.12507400  0.87492600  0.50000000  1
  C  C19  1  0.37492600  0.62507400  0.50000000  1
  Ni  Ni20  1  0.72693600  0.22749100  0.84885800  1
  Ni  Ni21  1  0.37863300  0.87807800  0.15114200  1
  Ni  Ni22  1  0.87807800  0.72693600  0.49944500  1
  Ni  Ni23  1  0.22749100  0.37863300  0.50055500  1
  Ni  Ni24  1  0.77250900  0.27306400  0.15114200  1
  Ni  Ni25  1  0.12192200  0.62136700  0.84885800  1
  Ni  Ni26  1  0.62136700  0.77250900  0.49944500  1
  Ni  Ni27  1  0.27306400  0.12192200  0.50055500  1
  Ni  Ni28  1  0.59967600  0.26475400  0.35694700  1
  Ni  Ni29  1  0.90780800  0.24272900  0.64305300  1
  Ni  Ni30  1  0.40032400  0.75727100  0.66507900  1
  Ni  Ni31  1  0.09219200  0.73524600  0.33492100  1
  Ni  Ni32  1  0.26475400  0.90780800  0.66507900  1
  Ni  Ni33  1  0.24272900  0.59967600  0.33492100  1
  Ni  Ni34  1  0.75727100  0.09219200  0.35694700  1
  Ni  Ni35  1  0.73524600  0.40032400  0.64305300  1
  Ni  Ni36  1  0.36092800  0.35263400  0.22601100  1
  Ni  Ni37  1  0.12662300  0.13491700  0.77398900  1
  Ni  Ni38  1  0.63907200  0.86508300  0.99170600  1
  Ni  Ni39  1  0.87337700  0.64736600  0.00829400  1
  Ni  Ni40  1  0.35263400  0.12662300  0.99170600  1
  Ni  Ni41  1  0.13491700  0.36092800  0.00829400  1
  Ni  Ni42  1  0.86508300  0.87337700  0.22601100  1
  Ni  Ni43  1  0.64736600  0.63907200  0.77398900  1
  Ni  Ni44  1  0.50000000  0.50000000  0.00000000  1
  Cu  Cu45  1  0.00000000  0.00000000  0.00000000  1
