# generated using pymatgen
data_Cu3NiC6
_symmetry_space_group_name_H-M   'P 1'
_cell_length_a   8.05192863
_cell_length_b   8.11834918
_cell_length_c   16.04186487
_cell_angle_alpha   95.82625868
_cell_angle_beta   94.00096444
_cell_angle_gamma   119.65321234
_symmetry_Int_Tables_number   1
_chemical_formula_structural   Cu3NiC6
_chemical_formula_sum   'Cu12 Ni4 C24'
_cell_volume   897.81498812
_cell_formula_units_Z   4
loop_
 _symmetry_equiv_pos_site_id
 _symmetry_equiv_pos_as_xyz
  1  'x, y, z'
loop_
 _atom_site_type_symbol
 _atom_site_label
 _atom_site_symmetry_multiplicity
 _atom_site_fract_x
 _atom_site_fract_y
 _atom_site_fract_z
 _atom_site_occupancy
  C  C0  1  0.02982200  0.85787200  0.58146300  1
  C  C1  1  0.15779800  0.97656500  0.92766400  1
  C  C2  1  0.04629200  0.55802500  0.70051200  1
  C  C3  1  0.12993600  0.62200600  0.46982100  1
  C  C4  1  0.16111700  0.35569100  0.99792000  1
  C  C5  1  0.42723600  0.91604600  0.81106300  1
  C  C6  1  0.15669800  0.29140000  0.80212700  1
  C  C7  1  0.49015300  0.69289900  0.93711600  1
  C  C8  1  0.26323600  0.37350300  0.20462900  1
  C  C9  1  0.55130400  0.79359600  0.31318500  1
  C  C10  1  0.24128200  0.02238300  0.30463500  1
  C  C11  1  0.64366100  0.80325100  0.50100200  1
  C  C12  1  0.34430900  0.18260900  0.49380400  1
  C  C13  1  0.76572200  0.96378800  0.70044200  1
  C  C14  1  0.42822400  0.20681200  0.69341000  1
  C  C15  1  0.73984500  0.62394200  0.79672500  1
  C  C16  1  0.50864900  0.30956100  0.06294200  1
  C  C17  1  0.84065000  0.71297800  0.19932900  1
  C  C18  1  0.57158200  0.08164900  0.18645700  1
  C  C19  1  0.83812600  0.64424200  0.00161100  1
  C  C20  1  0.72387700  0.21396200  0.55870000  1
  C  C21  1  0.95297000  0.44680400  0.29079300  1
  C  C22  1  0.84337700  0.02326100  0.07260300  1
  C  C23  1  0.96986100  0.14940500  0.41860900  1
  Ni  Ni24  1  0.20132100  0.70556000  0.09174900  1
  Ni  Ni25  1  0.36628100  0.52866700  0.59797500  1
  Ni  Ni26  1  0.64563100  0.47317300  0.40566000  1
  Ni  Ni27  1  0.79794000  0.29428900  0.90698600  1
  Cu  Cu28  1  0.18052700  0.99036700  0.12049700  1
  Cu  Cu29  1  0.09602200  0.59753400  0.89243200  1
  Cu  Cu30  1  0.38322000  0.83823600  0.62606800  1
  Cu  Cu31  1  0.08656700  0.23641400  0.61760100  1
  Cu  Cu32  1  0.33334600  0.45916400  0.39609300  1
  Cu  Cu33  1  0.49430300  0.69430000  0.11933700  1
  Cu  Cu34  1  0.50373400  0.30475900  0.88072700  1
  Cu  Cu35  1  0.67280700  0.53555200  0.60417900  1
  Cu  Cu36  1  0.91639300  0.76980400  0.38491500  1
  Cu  Cu37  1  0.63339100  0.17336400  0.37460500  1
  Cu  Cu38  1  0.90217300  0.40178100  0.10436700  1
  Cu  Cu39  1  0.81941700  0.00878800  0.88071800  1
