# generated using pymatgen
data_CuNi7C34
_symmetry_space_group_name_H-M   'P 1'
_cell_length_a   20.82127883
_cell_length_b   20.82127883
_cell_length_c   5.43463700
_cell_angle_alpha   90.00000000
_cell_angle_beta   90.00000000
_cell_angle_gamma   164.99869685
_symmetry_Int_Tables_number   1
_chemical_formula_structural   CuNi7C34
_chemical_formula_sum   'Cu1 Ni7 C34'
_cell_volume   609.84354963
_cell_formula_units_Z   1
loop_
 _symmetry_equiv_pos_site_id
 _symmetry_equiv_pos_as_xyz
  1  'x, y, z'
loop_
 _atom_site_type_symbol
 _atom_site_label
 _atom_site_symmetry_multiplicity
 _atom_site_fract_x
 _atom_site_fract_y
 _atom_site_fract_z
 _atom_site_occupancy
  C  C0  1  0.34567100  0.65432900  0.50000000  1
  C  C1  1  0.84557300  0.15442700  0.00000000  1
  C  C2  1  0.14551800  0.85448200  0.00000000  1
  C  C3  1  0.64469200  0.35530800  0.50000000  1
  C  C4  1  0.89334300  0.10665700  0.50000000  1
  C  C5  1  0.39324600  0.60675400  0.00000000  1
  C  C6  1  0.59797100  0.40202900  0.00000000  1
  C  C7  1  0.09795600  0.90204400  0.50000000  1
  C  C8  1  0.49717800  0.50282200  0.00000000  1
  C  C9  1  0.99719300  0.00280700  0.50000000  1
  Ni  Ni10  1  0.78084200  0.21915800  0.50000000  1
  Ni  Ni11  1  0.21621700  0.78378300  0.50000000  1
  Ni  Ni12  1  0.71617900  0.28382100  0.00000000  1
  Ni  Ni13  1  0.43862700  0.56137300  0.50000000  1
  Ni  Ni14  1  0.93856200  0.06143800  0.00000000  1
  Ni  Ni15  1  0.04150100  0.95849900  0.00000000  1
  Ni  Ni16  1  0.54161700  0.45838300  0.50000000  1
  Cu  Cu17  1  0.27975400  0.72024600  0.00000000  1
  C  C18  1  0.15084800  0.34870500  0.74970500  1
  C  C19  1  0.65129500  0.84915200  0.25029500  1
  C  C20  1  0.65129500  0.84915200  0.74970500  1
  C  C21  1  0.15084800  0.34870500  0.25029500  1
  C  C22  1  0.35648600  0.14339000  0.74997000  1
  C  C23  1  0.85661000  0.64351400  0.25003000  1
  C  C24  1  0.85661000  0.64351400  0.74997000  1
  C  C25  1  0.35648600  0.14339000  0.25003000  1
  C  C26  1  0.72454400  0.27545600  0.50000000  1
  C  C27  1  0.21892300  0.78107700  0.00000000  1
  C  C28  1  0.78647500  0.21352500  0.00000000  1
  C  C29  1  0.28656300  0.71343700  0.50000000  1
  C  C30  1  0.94871600  0.05128400  0.50000000  1
  C  C31  1  0.44875100  0.55124900  0.00000000  1
  C  C32  1  0.55075500  0.44924500  0.00000000  1
  C  C33  1  0.05078400  0.94921600  0.50000000  1
  C  C34  1  0.75444500  0.74510200  0.24977800  1
  C  C35  1  0.25489800  0.24555500  0.75022200  1
  C  C36  1  0.75444500  0.74510200  0.75022200  1
  C  C37  1  0.25489800  0.24555500  0.24977800  1
  C  C38  1  0.84532900  0.15467100  0.50000000  1
  C  C39  1  0.34591200  0.65408800  0.00000000  1
  C  C40  1  0.66621200  0.33378800  0.00000000  1
  C  C41  1  0.16623100  0.83376900  0.50000000  1
