# generated using pymatgen
data_CuNiC5
_symmetry_space_group_name_H-M   'P 1'
_cell_length_a   3.48426200
_cell_length_b   5.95835900
_cell_length_c   12.81882930
_cell_angle_alpha   89.02886225
_cell_angle_beta   90.00000000
_cell_angle_gamma   90.00000000
_symmetry_Int_Tables_number   1
_chemical_formula_structural   CuNiC5
_chemical_formula_sum   'Cu2 Ni2 C10'
_cell_volume   266.08687233
_cell_formula_units_Z   2
loop_
 _symmetry_equiv_pos_site_id
 _symmetry_equiv_pos_as_xyz
  1  'x, y, z'
loop_
 _atom_site_type_symbol
 _atom_site_label
 _atom_site_symmetry_multiplicity
 _atom_site_fract_x
 _atom_site_fract_y
 _atom_site_fract_z
 _atom_site_occupancy
  Ni  Ni0  1  0.50000000  0.52946700  0.25074300  1
  Ni  Ni1  1  0.50000000  0.47053300  0.74925700  1
  Cu  Cu2  1  0.00000000  0.01739100  0.75233900  1
  Cu  Cu3  1  0.00000000  0.98260900  0.24766100  1
  C  C4  1  0.50000000  0.50000000  0.00000000  1
  C  C5  1  0.00000000  0.00000000  0.50000000  1
  C  C6  1  0.50000000  0.15794700  0.86396600  1
  C  C7  1  0.50000000  0.84205300  0.13603400  1
  C  C8  1  0.00000000  0.65943400  0.36458500  1
  C  C9  1  0.00000000  0.34056600  0.63541500  1
  C  C10  1  0.00000000  0.67047400  0.85175800  1
  C  C11  1  0.00000000  0.32952600  0.14824200  1
  C  C12  1  0.50000000  0.15515200  0.34835500  1
  C  C13  1  0.50000000  0.84484800  0.65164500  1
