# generated using pymatgen
data_Cu3Ni2C13
_symmetry_space_group_name_H-M   'P 1'
_cell_length_a   5.64773900
_cell_length_b   6.28989984
_cell_length_c   13.83174600
_cell_angle_alpha   90.00000000
_cell_angle_beta   90.00000000
_cell_angle_gamma   116.67652522
_symmetry_Int_Tables_number   1
_chemical_formula_structural   Cu3Ni2C13
_chemical_formula_sum   'Cu6 Ni4 C26'
_cell_volume   439.05288940
_cell_formula_units_Z   2
loop_
 _symmetry_equiv_pos_site_id
 _symmetry_equiv_pos_as_xyz
  1  'x, y, z'
loop_
 _atom_site_type_symbol
 _atom_site_label
 _atom_site_symmetry_multiplicity
 _atom_site_fract_x
 _atom_site_fract_y
 _atom_site_fract_z
 _atom_site_occupancy
  C  C0  1  0.33890700  0.67781400  0.75000000  1
  C  C1  1  0.66109300  0.32218600  0.25000000  1
  Ni  Ni2  1  0.00000000  0.50000000  0.00000000  1
  Ni  Ni3  1  0.50000000  0.50000000  0.00000000  1
  Ni  Ni4  1  0.00000000  0.50000000  0.50000000  1
  Ni  Ni5  1  0.50000000  0.50000000  0.50000000  1
  Cu  Cu6  1  0.03019100  0.06038200  0.87724000  1
  Cu  Cu7  1  0.96980900  0.93961800  0.12276000  1
  Cu  Cu8  1  0.03019100  0.06038200  0.62276000  1
  Cu  Cu9  1  0.96980900  0.93961800  0.37724000  1
  Cu  Cu10  1  0.50000000  0.00000000  0.00000000  1
  Cu  Cu11  1  0.50000000  0.00000000  0.50000000  1
  C  C12  1  0.30444500  0.60889000  0.19066500  1
  C  C13  1  0.69555500  0.39111000  0.80933500  1
  C  C14  1  0.30444500  0.60889000  0.30933500  1
  C  C15  1  0.69555500  0.39111000  0.69066500  1
  C  C16  1  0.18282100  0.36564100  0.91171600  1
  C  C17  1  0.81717900  0.63435900  0.08828400  1
  C  C18  1  0.18282100  0.36564100  0.58828400  1
  C  C19  1  0.81717900  0.63435900  0.41171600  1
  C  C20  1  0.34644500  0.69289000  0.05487900  1
  C  C21  1  0.65355500  0.30711000  0.94512100  1
  C  C22  1  0.34644500  0.69289000  0.44512100  1
  C  C23  1  0.65355500  0.30711000  0.55487900  1
  C  C24  1  0.20781000  0.89736500  0.90657400  1
  C  C25  1  0.31044500  0.10263500  0.09342600  1
  C  C26  1  0.20781000  0.89736500  0.59342600  1
  C  C27  1  0.31044500  0.10263500  0.40657400  1
  C  C28  1  0.79219000  0.10263500  0.09342600  1
  C  C29  1  0.68955500  0.89736500  0.90657400  1
  C  C30  1  0.79219000  0.10263500  0.40657400  1
  C  C31  1  0.68955500  0.89736500  0.59342600  1
  C  C32  1  0.04106800  0.08213600  0.75000000  1
  C  C33  1  0.95893200  0.91786400  0.25000000  1
  C  C34  1  0.25379700  0.50759500  0.25000000  1
  C  C35  1  0.74620300  0.49240500  0.75000000  1
