# generated using pymatgen
data_CuNiC
_symmetry_space_group_name_H-M   'P 1'
_cell_length_a   4.26746837
_cell_length_b   4.26746837
_cell_length_c   7.49570090
_cell_angle_alpha   90.00000000
_cell_angle_beta   90.00000000
_cell_angle_gamma   120.00000005
_symmetry_Int_Tables_number   1
_chemical_formula_structural   CuNiC
_chemical_formula_sum   'Cu2 Ni2 C2'
_cell_volume   118.21797129
_cell_formula_units_Z   2
loop_
 _symmetry_equiv_pos_site_id
 _symmetry_equiv_pos_as_xyz
  1  'x, y, z'
loop_
 _atom_site_type_symbol
 _atom_site_label
 _atom_site_symmetry_multiplicity
 _atom_site_fract_x
 _atom_site_fract_y
 _atom_site_fract_z
 _atom_site_occupancy
  Ni  Ni0  1  0.33333333  0.66666667  0.22969060  1
  Ni  Ni1  1  0.66666667  0.33333333  0.72969060  1
  Cu  Cu2  1  0.66666667  0.33333333  0.26483063  1
  Cu  Cu3  1  0.33333333  0.66666667  0.76483063  1
  C  C4  1  0.00000000  0.00000000  0.49737877  1
  C  C5  1  0.00000000  0.00000000  0.99737877  1
