# generated using pymatgen
data_Cu3Ni8C47
_symmetry_space_group_name_H-M   'P 1'
_cell_length_a   6.93394100
_cell_length_b   11.57718260
_cell_length_c   11.76625749
_cell_angle_alpha   88.15273114
_cell_angle_beta   88.95958896
_cell_angle_gamma   80.16690358
_symmetry_Int_Tables_number   1
_chemical_formula_structural   Cu3Ni8C47
_chemical_formula_sum   'Cu3 Ni8 C47'
_cell_volume   930.10590170
_cell_formula_units_Z   1
loop_
 _symmetry_equiv_pos_site_id
 _symmetry_equiv_pos_as_xyz
  1  'x, y, z'
loop_
 _atom_site_type_symbol
 _atom_site_label
 _atom_site_symmetry_multiplicity
 _atom_site_fract_x
 _atom_site_fract_y
 _atom_site_fract_z
 _atom_site_occupancy
  Ni  Ni0  1  0.16478400  0.81123000  0.76218300  1
  Ni  Ni1  1  0.83659700  0.18876200  0.23544500  1
  Ni  Ni2  1  0.26069500  0.60224800  0.01433600  1
  Ni  Ni3  1  0.74387200  0.39108600  0.98633900  1
  Ni  Ni4  1  0.01907000  0.33252600  0.50221800  1
  Ni  Ni5  1  0.98066900  0.66733200  0.49765600  1
  Ni  Ni6  1  0.17196800  0.83822800  0.22899900  1
  Ni  Ni7  1  0.82827100  0.16230700  0.77463200  1
  Cu  Cu8  1  0.49155900  0.49021800  0.33494000  1
  Cu  Cu9  1  0.50867100  0.50949700  0.66508100  1
  Cu  Cu10  1  0.99975000  0.00043100  0.50027400  1
  C  C11  1  0.99064600  0.48955000  0.24843100  1
  C  C12  1  0.00951600  0.51091100  0.75148600  1
  C  C13  1  0.68675400  0.69555300  0.15178600  1
  C  C14  1  0.31323600  0.30513600  0.84831800  1
  C  C15  1  0.65747100  0.86821100  0.68727500  1
  C  C16  1  0.34294300  0.13218400  0.31333800  1
  C  C17  1  0.69697200  0.67586100  0.87678100  1
  C  C18  1  0.30293100  0.32446800  0.12338200  1
  C  C19  1  0.66300400  0.90286600  0.30671400  1
  C  C20  1  0.33775600  0.09729700  0.69348600  1
  C  C21  1  0.44694800  0.76486900  0.49171000  1
  C  C22  1  0.55349900  0.23517300  0.50848400  1
  C  C23  1  0.39231200  0.97387500  0.00416500  1
  C  C24  1  0.46529400  0.00135600  0.28567700  1
  C  C25  1  0.53563800  0.99899500  0.71540200  1
  C  C26  1  0.22860800  0.83240000  0.46544100  1
  C  C27  1  0.77162200  0.16745900  0.53495900  1
  C  C28  1  0.90451900  0.61822700  0.18332500  1
  C  C29  1  0.09578700  0.38267500  0.81688800  1
  C  C30  1  0.70182100  0.82945400  0.18824200  1
  C  C31  1  0.29937100  0.17147000  0.81131500  1
  C  C32  1  0.81985100  0.43128500  0.30975600  1
  C  C33  1  0.18013800  0.56962200  0.69029000  1
  C  C34  1  0.61525700  0.80823300  0.40657400  1
  C  C35  1  0.38478500  0.19136100  0.59309500  1
  C  C36  1  0.85494800  0.87610700  0.61758800  1
  C  C37  1  0.14566400  0.12360300  0.38290700  1
  C  C38  1  0.71081500  0.80218500  0.81207000  1
  C  C39  1  0.28989500  0.19861400  0.18874200  1
  C  C40  1  0.50272400  0.64622000  0.20797200  1
  C  C41  1  0.49593200  0.35523700  0.79163400  1
  C  C42  1  0.91711900  0.59283900  0.86214700  1
  C  C43  1  0.08343100  0.40836600  0.13751600  1
  C  C44  1  0.67183400  0.69870200  0.01298100  1
  C  C45  1  0.32932200  0.30134700  0.98727200  1
  C  C46  1  0.52334600  0.61338000  0.83438500  1
  C  C47  1  0.47480900  0.38852000  0.16581600  1
  C  C48  1  0.22551300  0.89329000  0.99535000  1
  C  C49  1  0.83095900  0.14240300  0.00719500  1
  C  C50  1  0.47302500  0.62243300  0.48780900  1
  C  C51  1  0.52747100  0.37754700  0.51238800  1
  C  C52  1  0.85200800  0.95767200  0.33652000  1
  C  C53  1  0.14942200  0.04140300  0.66426700  1
  C  C54  1  0.15994400  0.50869900  0.33485400  1
  C  C55  1  0.84006400  0.49203800  0.66510300  1
  C  C56  1  0.51081400  0.79161900  0.62431600  1
  C  C57  1  0.48935700  0.20892300  0.37594500  1
