# generated using pymatgen
data_CuNiC9
_symmetry_space_group_name_H-M   'P 1'
_cell_length_a   7.56508406
_cell_length_b   7.56508406
_cell_length_c   12.72471900
_cell_angle_alpha   90.00000000
_cell_angle_beta   90.00000000
_cell_angle_gamma   120.00000056
_symmetry_Int_Tables_number   1
_chemical_formula_structural   CuNiC9
_chemical_formula_sum   'Cu6 Ni6 C54'
_cell_volume   630.67606098
_cell_formula_units_Z   6
loop_
 _symmetry_equiv_pos_site_id
 _symmetry_equiv_pos_as_xyz
  1  'x, y, z'
loop_
 _atom_site_type_symbol
 _atom_site_label
 _atom_site_symmetry_multiplicity
 _atom_site_fract_x
 _atom_site_fract_y
 _atom_site_fract_z
 _atom_site_occupancy
  C  C0  1  0.00000000  0.13153000  0.16666700  1
  C  C1  1  0.13153000  0.00000000  0.83333300  1
  C  C2  1  0.86847000  0.86847000  0.50000000  1
  C  C3  1  0.24282000  0.00000000  0.33333300  1
  C  C4  1  0.75718000  0.75718000  0.00000000  1
  C  C5  1  0.00000000  0.24282000  0.66666700  1
  Ni  Ni6  1  0.56355400  0.25400700  0.95755500  1
  Ni  Ni7  1  0.69045300  0.43644600  0.62422200  1
  Ni  Ni8  1  0.74599300  0.30954700  0.29088800  1
  Ni  Ni9  1  0.43644600  0.69045300  0.37577800  1
  Ni  Ni10  1  0.25400700  0.56355400  0.04244500  1
  Ni  Ni11  1  0.30954700  0.74599300  0.70911200  1
  Cu  Cu12  1  0.24860400  0.92761200  0.07126200  1
  Cu  Cu13  1  0.67900800  0.75139600  0.73792800  1
  Cu  Cu14  1  0.07238800  0.32099200  0.40459500  1
  Cu  Cu15  1  0.75139600  0.67900800  0.26207200  1
  Cu  Cu16  1  0.92761200  0.24860400  0.92873800  1
  Cu  Cu17  1  0.32099200  0.07238800  0.59540500  1
  C  C18  1  0.30083600  0.73073700  0.24392700  1
  C  C19  1  0.42990200  0.69916400  0.91059400  1
  C  C20  1  0.26926300  0.57009800  0.57726000  1
  C  C21  1  0.69916400  0.42990200  0.08940600  1
  C  C22  1  0.73073700  0.30083600  0.75607300  1
  C  C23  1  0.57009800  0.26926300  0.42274000  1
  C  C24  1  0.64336300  0.09626900  0.17070000  1
  C  C25  1  0.45290600  0.35663700  0.83736700  1
  C  C26  1  0.90373100  0.54709400  0.50403300  1
  C  C27  1  0.35663700  0.45290600  0.16263300  1
  C  C28  1  0.09626900  0.64336300  0.82930000  1
  C  C29  1  0.54709400  0.90373100  0.49596700  1
  C  C30  1  0.34239400  0.78621000  0.31548800  1
  C  C31  1  0.44381600  0.65760600  0.98215500  1
  C  C32  1  0.21379000  0.55618400  0.64882100  1
  C  C33  1  0.65760600  0.44381600  0.01784500  1
  C  C34  1  0.78621000  0.34239400  0.68451200  1
  C  C35  1  0.55618400  0.21379000  0.35117900  1
  C  C36  1  0.76159100  0.17072800  0.21663200  1
  C  C37  1  0.40913700  0.23840900  0.88329900  1
  C  C38  1  0.82927200  0.59086300  0.54996500  1
  C  C39  1  0.23840900  0.40913700  0.11670100  1
  C  C40  1  0.17072800  0.76159100  0.78336800  1
  C  C41  1  0.59086300  0.82927200  0.45003500  1
  C  C42  1  0.21571400  0.02279600  0.17078800  1
  C  C43  1  0.80708200  0.78428600  0.83745500  1
  C  C44  1  0.97720400  0.19291800  0.50412100  1
  C  C45  1  0.78428600  0.80708200  0.16254500  1
  C  C46  1  0.02279600  0.21571400  0.82921200  1
  C  C47  1  0.19291800  0.97720400  0.49587900  1
  C  C48  1  0.47009600  0.07221100  0.02793700  1
  C  C49  1  0.60211500  0.52990400  0.69460300  1
  C  C50  1  0.92778900  0.39788500  0.36127000  1
  C  C51  1  0.52990400  0.60211500  0.30539700  1
  C  C52  1  0.07221100  0.47009600  0.97206300  1
  C  C53  1  0.39788500  0.92778900  0.63873000  1
  C  C54  1  0.24352100  0.72676400  0.10774000  1
  C  C55  1  0.48324300  0.75647900  0.77440700  1
  C  C56  1  0.27323600  0.51675700  0.44107300  1
  C  C57  1  0.75647900  0.48324300  0.22559300  1
  C  C58  1  0.72676400  0.24352100  0.89226000  1
  C  C59  1  0.51675700  0.27323600  0.55892700  1
  C  C60  1  0.08666400  0.87975800  0.98691500  1
  C  C61  1  0.79309500  0.91333600  0.65358200  1
  C  C62  1  0.12024200  0.20690500  0.32024900  1
  C  C63  1  0.91333600  0.79309500  0.34641800  1
  C  C64  1  0.87975800  0.08666400  0.01308500  1
  C  C65  1  0.20690500  0.12024200  0.67975100  1
