# generated using pymatgen
data_Cu32NiC31
_symmetry_space_group_name_H-M   'P 1'
_cell_length_a   8.51538900
_cell_length_b   8.51538900
_cell_length_c   8.51347700
_cell_angle_alpha   90.00000000
_cell_angle_beta   90.00000000
_cell_angle_gamma   90.00000000
_symmetry_Int_Tables_number   1
_chemical_formula_structural   Cu32NiC31
_chemical_formula_sum   'Cu32 Ni1 C31'
_cell_volume   617.32796568
_cell_formula_units_Z   1
loop_
 _symmetry_equiv_pos_site_id
 _symmetry_equiv_pos_as_xyz
  1  'x, y, z'
loop_
 _atom_site_type_symbol
 _atom_site_label
 _atom_site_symmetry_multiplicity
 _atom_site_fract_x
 _atom_site_fract_y
 _atom_site_fract_z
 _atom_site_occupancy
  C  C0  1  0.50000000  0.00000000  0.00000000  1
  C  C1  1  0.00000000  0.50000000  0.00000000  1
  C  C2  1  0.00000000  0.00000000  0.50000000  1
  C  C3  1  0.50000000  0.00000000  0.50000000  1
  C  C4  1  0.00000000  0.50000000  0.50000000  1
  C  C5  1  0.50000000  0.50000000  0.50000000  1
  C  C6  1  0.25225100  0.25225100  0.00000000  1
  C  C7  1  0.74774900  0.25225100  0.00000000  1
  C  C8  1  0.25225100  0.74774900  0.00000000  1
  C  C9  1  0.74774900  0.74774900  0.00000000  1
  C  C10  1  0.25026300  0.25026300  0.50000000  1
  C  C11  1  0.74973700  0.25026300  0.50000000  1
  C  C12  1  0.25026300  0.74973700  0.50000000  1
  C  C13  1  0.74973700  0.74973700  0.50000000  1
  C  C14  1  0.25069600  0.00000000  0.25008400  1
  C  C15  1  0.74930400  0.00000000  0.25008400  1
  C  C16  1  0.25171100  0.50000000  0.24813000  1
  C  C17  1  0.74828900  0.50000000  0.24813000  1
  C  C18  1  0.25069600  0.00000000  0.74991600  1
  C  C19  1  0.74930400  0.00000000  0.74991600  1
  C  C20  1  0.25171100  0.50000000  0.75187000  1
  C  C21  1  0.74828900  0.50000000  0.75187000  1
  C  C22  1  0.00000000  0.25069600  0.25008400  1
  C  C23  1  0.50000000  0.25171100  0.24813000  1
  C  C24  1  0.00000000  0.74930400  0.25008400  1
  C  C25  1  0.50000000  0.74828900  0.24813000  1
  C  C26  1  0.00000000  0.25069600  0.74991600  1
  C  C27  1  0.50000000  0.25171100  0.75187000  1
  C  C28  1  0.00000000  0.74930400  0.74991600  1
  C  C29  1  0.50000000  0.74828900  0.75187000  1
  C  C30  1  0.00000000  0.00000000  0.00000000  1
  Ni  Ni31  1  0.50000000  0.50000000  0.00000000  1
  Cu  Cu32  1  0.00000000  0.00000000  0.25482400  1
  Cu  Cu33  1  0.50000000  0.00000000  0.24986600  1
  Cu  Cu34  1  0.00000000  0.50000000  0.24986600  1
  Cu  Cu35  1  0.50000000  0.50000000  0.25153200  1
  Cu  Cu36  1  0.00000000  0.00000000  0.74517600  1
  Cu  Cu37  1  0.50000000  0.00000000  0.75013400  1
  Cu  Cu38  1  0.00000000  0.50000000  0.75013400  1
  Cu  Cu39  1  0.50000000  0.50000000  0.74846800  1
  Cu  Cu40  1  0.25035800  0.25035800  0.24922000  1
  Cu  Cu41  1  0.74964200  0.25035800  0.24922000  1
  Cu  Cu42  1  0.25035800  0.74964200  0.24922000  1
  Cu  Cu43  1  0.74964200  0.74964200  0.24922000  1
  Cu  Cu44  1  0.25035800  0.25035800  0.75078000  1
  Cu  Cu45  1  0.74964200  0.25035800  0.75078000  1
  Cu  Cu46  1  0.25035800  0.74964200  0.75078000  1
  Cu  Cu47  1  0.74964200  0.74964200  0.75078000  1
  Cu  Cu48  1  0.25511700  0.00000000  0.00000000  1
  Cu  Cu49  1  0.74488300  0.00000000  0.00000000  1
  Cu  Cu50  1  0.24839000  0.50000000  0.00000000  1
  Cu  Cu51  1  0.75161000  0.50000000  0.00000000  1
  Cu  Cu52  1  0.25049500  0.00000000  0.50000000  1
  Cu  Cu53  1  0.74950500  0.00000000  0.50000000  1
  Cu  Cu54  1  0.25071300  0.50000000  0.50000000  1
  Cu  Cu55  1  0.74928700  0.50000000  0.50000000  1
  Cu  Cu56  1  0.00000000  0.25511700  0.00000000  1
  Cu  Cu57  1  0.50000000  0.24839000  0.00000000  1
  Cu  Cu58  1  0.00000000  0.74488300  0.00000000  1
  Cu  Cu59  1  0.50000000  0.75161000  0.00000000  1
  Cu  Cu60  1  0.00000000  0.25049500  0.50000000  1
  Cu  Cu61  1  0.50000000  0.25071300  0.50000000  1
  Cu  Cu62  1  0.00000000  0.74950500  0.50000000  1
  Cu  Cu63  1  0.50000000  0.74928700  0.50000000  1
