# generated using pymatgen
data_Cu2NiC4
_symmetry_space_group_name_H-M   'P 1'
_cell_length_a   6.04956837
_cell_length_b   6.04956837
_cell_length_c   14.80643700
_cell_angle_alpha   90.00000000
_cell_angle_beta   90.00000000
_cell_angle_gamma   120.00000407
_symmetry_Int_Tables_number   1
_chemical_formula_structural   Cu2NiC4
_chemical_formula_sum   'Cu12 Ni6 C24'
_cell_volume   469.27774200
_cell_formula_units_Z   6
loop_
 _symmetry_equiv_pos_site_id
 _symmetry_equiv_pos_as_xyz
  1  'x, y, z'
loop_
 _atom_site_type_symbol
 _atom_site_label
 _atom_site_symmetry_multiplicity
 _atom_site_fract_x
 _atom_site_fract_y
 _atom_site_fract_z
 _atom_site_occupancy
  Ni  Ni0  1  0.00000000  0.00000000  0.04518300  1
  Ni  Ni1  1  0.33333300  0.66666700  0.37932900  1
  Ni  Ni2  1  0.66666700  0.33333300  0.33558700  1
  Ni  Ni3  1  0.66666700  0.33333300  0.70860800  1
  Ni  Ni4  1  0.33333300  0.66666700  0.00206000  1
  Ni  Ni5  1  0.33333300  0.66666700  0.62260500  1
  Cu  Cu6  1  0.49639400  0.99278800  0.16588400  1
  Cu  Cu7  1  0.49639400  0.50360600  0.16588400  1
  Cu  Cu8  1  0.83078200  0.66156300  0.49867700  1
  Cu  Cu9  1  0.00721200  0.50360600  0.16588400  1
  Cu  Cu10  1  0.83078200  0.16921800  0.49867700  1
  Cu  Cu11  1  0.00000000  0.00000000  0.66347700  1
  Cu  Cu12  1  0.00000000  0.00000000  0.28747000  1
  Cu  Cu13  1  0.16493100  0.32986300  0.83229400  1
  Cu  Cu14  1  0.33843700  0.16921800  0.49867700  1
  Cu  Cu15  1  0.16493100  0.83506900  0.83229400  1
  Cu  Cu16  1  0.67013700  0.83506900  0.83229400  1
  Cu  Cu17  1  0.66666700  0.33333300  0.95648400  1
  C  C18  1  0.17888800  0.35777700  0.08965400  1
  C  C19  1  0.33333300  0.66666700  0.24224100  1
  C  C20  1  0.17888800  0.82111200  0.08965400  1
  C  C21  1  0.64222300  0.82111200  0.08965400  1
  C  C22  1  0.51163100  0.02326300  0.42376200  1
  C  C23  1  0.35175900  0.17587900  0.24545300  1
  C  C24  1  0.66666700  0.33333300  0.57499300  1
  C  C25  1  0.82412100  0.17587900  0.24545300  1
  C  C26  1  0.66666700  0.33333300  0.08898200  1
  C  C27  1  0.51163100  0.48836900  0.42376200  1
  C  C28  1  0.97673700  0.48836900  0.42376200  1
  C  C29  1  0.82412100  0.64824100  0.24545300  1
  C  C30  1  0.84707700  0.69415400  0.75354300  1
  C  C31  1  0.69569400  0.84784700  0.57975000  1
  C  C32  1  0.15215300  0.84784700  0.57975000  1
  C  C33  1  0.00000000  0.00000000  0.90756000  1
  C  C34  1  0.00000000  0.00000000  0.41964100  1
  C  C35  1  0.84707700  0.15292300  0.75354300  1
  C  C36  1  0.30584600  0.15292300  0.75354300  1
  C  C37  1  0.15215300  0.30430600  0.57975000  1
  C  C38  1  0.01510000  0.50755000  0.91249800  1
  C  C39  1  0.49245000  0.50755000  0.91249800  1
  C  C40  1  0.33333300  0.66666700  0.76131700  1
  C  C41  1  0.49245000  0.98490000  0.91249800  1
