# generated using pymatgen
data_Cu2NiC10
_symmetry_space_group_name_H-M   'P 1'
_cell_length_a   6.39109200
_cell_length_b   7.84561609
_cell_length_c   14.04867208
_cell_angle_alpha   89.98518316
_cell_angle_beta   89.99976454
_cell_angle_gamma   90.00176695
_symmetry_Int_Tables_number   1
_chemical_formula_structural   Cu2NiC10
_chemical_formula_sum   'Cu8 Ni4 C40'
_cell_volume   704.42925373
_cell_formula_units_Z   4
loop_
 _symmetry_equiv_pos_site_id
 _symmetry_equiv_pos_as_xyz
  1  'x, y, z'
loop_
 _atom_site_type_symbol
 _atom_site_label
 _atom_site_symmetry_multiplicity
 _atom_site_fract_x
 _atom_site_fract_y
 _atom_site_fract_z
 _atom_site_occupancy
  C  C0  1  0.49964500  0.00031200  0.00004200  1
  C  C1  1  0.50023200  0.49992500  0.49999700  1
  C  C2  1  0.00039000  0.50033300  0.50009000  1
  C  C3  1  0.00041700  0.99987200  0.00016900  1
  Ni  Ni4  1  0.75002300  0.34791300  0.87421800  1
  Ni  Ni5  1  0.24996200  0.65204300  0.12576300  1
  Ni  Ni6  1  0.24998600  0.84807300  0.62588500  1
  Ni  Ni7  1  0.74998700  0.15193100  0.37412100  1
  Cu  Cu8  1  0.25001200  0.34512100  0.94151700  1
  Cu  Cu9  1  0.74995900  0.65494000  0.05843100  1
  Cu  Cu10  1  0.74999000  0.84500700  0.55851400  1
  Cu  Cu11  1  0.24996700  0.15497800  0.44148400  1
  Cu  Cu12  1  0.75005300  0.38802800  0.68378600  1
  Cu  Cu13  1  0.24996000  0.61194200  0.31619700  1
  Cu  Cu14  1  0.25001000  0.88859500  0.81631000  1
  Cu  Cu15  1  0.74996700  0.11137700  0.18369900  1
  C  C16  1  0.04789300  0.59740500  0.36970400  1
  C  C17  1  0.54791500  0.40251600  0.63027700  1
  C  C18  1  0.95212700  0.09715300  0.13021900  1
  C  C19  1  0.45224700  0.90284300  0.86979000  1
  C  C20  1  0.95206700  0.40257100  0.63025000  1
  C  C21  1  0.45204500  0.59744700  0.36974200  1
  C  C22  1  0.04785600  0.90287100  0.86980300  1
  C  C23  1  0.54771400  0.09717000  0.13023700  1
  C  C24  1  0.24998600  0.33298500  0.48207900  1
  C  C25  1  0.75000000  0.66700800  0.51789200  1
  C  C26  1  0.74997500  0.83300800  0.01779000  1
  C  C27  1  0.24995700  0.16707800  0.98221000  1
  C  C28  1  0.75000800  0.15863600  0.95124000  1
  C  C29  1  0.24995000  0.84134800  0.04874400  1
  C  C30  1  0.24999100  0.65901300  0.54886400  1
  C  C31  1  0.74998500  0.34097400  0.45112800  1
  C  C32  1  0.75005400  0.22111100  0.75323000  1
  C  C33  1  0.24988300  0.77887500  0.24671800  1
  C  C34  1  0.24996500  0.72151000  0.74694200  1
  C  C35  1  0.75002500  0.27844400  0.25304700  1
  C  C36  1  0.43947800  0.12536900  0.37335100  1
  C  C37  1  0.93948600  0.87456300  0.62667100  1
  C  C38  1  0.56045300  0.62563300  0.12659400  1
  C  C39  1  0.06050800  0.37435800  0.87338800  1
  C  C40  1  0.56048500  0.87456700  0.62665500  1
  C  C41  1  0.06048000  0.12535800  0.37332600  1
  C  C42  1  0.43950900  0.37429000  0.87337900  1
  C  C43  1  0.93947900  0.62556500  0.12658000  1
  C  C44  1  0.74993500  0.97651100  0.27699700  1
  C  C45  1  0.25005000  0.02345400  0.72299100  1
  C  C46  1  0.24995500  0.47699000  0.22295000  1
  C  C47  1  0.75000000  0.52297900  0.77700900  1
  C  C48  1  0.75005300  0.98465400  0.48072900  1
  C  C49  1  0.24994100  0.01534800  0.51929500  1
  C  C50  1  0.25003600  0.48482400  0.01919500  1
  C  C51  1  0.74995300  0.51518100  0.98076300  1
