# generated using pymatgen
data_Cu3NiC7
_symmetry_space_group_name_H-M   'P 1'
_cell_length_a   6.49427559
_cell_length_b   6.49427732
_cell_length_c   6.49427869
_cell_angle_alpha   91.95634834
_cell_angle_beta   91.95631834
_cell_angle_gamma   91.95629456
_symmetry_Int_Tables_number   1
_chemical_formula_structural   Cu3NiC7
_chemical_formula_sum   'Cu6 Ni2 C14'
_cell_volume   273.41014363
_cell_formula_units_Z   2
loop_
 _symmetry_equiv_pos_site_id
 _symmetry_equiv_pos_as_xyz
  1  'x, y, z'
loop_
 _atom_site_type_symbol
 _atom_site_label
 _atom_site_symmetry_multiplicity
 _atom_site_fract_x
 _atom_site_fract_y
 _atom_site_fract_z
 _atom_site_occupancy
  Ni  Ni0  1  0.25000100  0.25000100  0.25000100  1
  Ni  Ni1  1  0.74999900  0.74999900  0.74999900  1
  Cu  Cu2  1  0.60391100  0.24999900  0.89608900  1
  Cu  Cu3  1  0.39608900  0.75000100  0.10391100  1
  Cu  Cu4  1  0.89608900  0.60391100  0.24999900  1
  Cu  Cu5  1  0.10391100  0.39608900  0.75000100  1
  Cu  Cu6  1  0.24999900  0.89608900  0.60391100  1
  Cu  Cu7  1  0.75000100  0.10391100  0.39608900  1
  C  C8  1  0.00000000  0.00000000  0.00000000  1
  C  C9  1  0.50000000  0.50000100  0.50000000  1
  C  C10  1  0.20860600  0.55016300  0.42174400  1
  C  C11  1  0.79139400  0.44983700  0.57825600  1
  C  C12  1  0.07825100  0.94983500  0.29139000  1
  C  C13  1  0.92174800  0.05016600  0.70861000  1
  C  C14  1  0.42174400  0.20860600  0.55016400  1
  C  C15  1  0.57825600  0.79139300  0.44983700  1
  C  C16  1  0.94983400  0.29139000  0.07825100  1
  C  C17  1  0.05016600  0.70861000  0.92174900  1
  C  C18  1  0.55016400  0.42174400  0.20860600  1
  C  C19  1  0.44983700  0.57825600  0.79139400  1
  C  C20  1  0.29139100  0.07825100  0.94983400  1
  C  C21  1  0.70860900  0.92174900  0.05016600  1
