# generated using pymatgen
data_CuNiC4
_symmetry_space_group_name_H-M   'P 1'
_cell_length_a   6.36769418
_cell_length_b   6.36769418
_cell_length_c   6.36769418
_cell_angle_alpha   132.97568803
_cell_angle_beta   130.83747919
_cell_angle_gamma   70.39075272
_symmetry_Int_Tables_number   1
_chemical_formula_structural   CuNiC4
_chemical_formula_sum   'Cu2 Ni2 C8'
_cell_volume   140.06121693
_cell_formula_units_Z   2
loop_
 _symmetry_equiv_pos_site_id
 _symmetry_equiv_pos_as_xyz
  1  'x, y, z'
loop_
 _atom_site_type_symbol
 _atom_site_label
 _atom_site_symmetry_multiplicity
 _atom_site_fract_x
 _atom_site_fract_y
 _atom_site_fract_z
 _atom_site_occupancy
  Ni  Ni0  1  0.75000000  0.25000000  0.50000000  1
  Ni  Ni1  1  0.25000000  0.75000000  0.50000000  1
  Cu  Cu2  1  0.00000000  0.00000000  0.00000000  1
  Cu  Cu3  1  0.50000000  0.50000000  0.00000000  1
  C  C4  1  0.93823800  0.86042700  0.54609600  1
  C  C5  1  0.68566900  0.60785800  0.54609600  1
  C  C6  1  0.06176200  0.13957300  0.45390400  1
  C  C7  1  0.56176200  0.10785800  0.92218900  1
  C  C8  1  0.31433100  0.39214200  0.45390400  1
  C  C9  1  0.81433100  0.36042700  0.92218900  1
  C  C10  1  0.43823800  0.89214200  0.07781100  1
  C  C11  1  0.18566900  0.63957300  0.07781100  1
