# generated using pymatgen
data_Cu4NiC
_symmetry_space_group_name_H-M   'P 1'
_cell_length_a   4.93097198
_cell_length_b   4.93097198
_cell_length_c   3.93102700
_cell_angle_alpha   90.00000000
_cell_angle_beta   90.00000000
_cell_angle_gamma   119.99999980
_symmetry_Int_Tables_number   1
_chemical_formula_structural   Cu4NiC
_chemical_formula_sum   'Cu4 Ni1 C1'
_cell_volume   82.77548414
_cell_formula_units_Z   1
loop_
 _symmetry_equiv_pos_site_id
 _symmetry_equiv_pos_as_xyz
  1  'x, y, z'
loop_
 _atom_site_type_symbol
 _atom_site_label
 _atom_site_symmetry_multiplicity
 _atom_site_fract_x
 _atom_site_fract_y
 _atom_site_fract_z
 _atom_site_occupancy
  C  C0  1  0.66666700  0.33333300  0.00000000  1
  Ni  Ni1  1  0.00000000  0.00000000  0.00000000  1
  Cu  Cu2  1  0.33333300  0.66666700  0.00000000  1
  Cu  Cu3  1  0.66599500  0.83299800  0.50000000  1
  Cu  Cu4  1  0.16700200  0.83299800  0.50000000  1
  Cu  Cu5  1  0.16700200  0.33400500  0.50000000  1
