# generated using pymatgen
data_Cu4Ni7C17
_symmetry_space_group_name_H-M   'P 1'
_cell_length_a   4.82183000
_cell_length_b   6.06201669
_cell_length_c   10.35377596
_cell_angle_alpha   89.70065064
_cell_angle_beta   89.91666640
_cell_angle_gamma   89.78000393
_symmetry_Int_Tables_number   1
_chemical_formula_structural   Cu4Ni7C17
_chemical_formula_sum   'Cu4 Ni7 C17'
_cell_volume   302.63434273
_cell_formula_units_Z   1
loop_
 _symmetry_equiv_pos_site_id
 _symmetry_equiv_pos_as_xyz
  1  'x, y, z'
loop_
 _atom_site_type_symbol
 _atom_site_label
 _atom_site_symmetry_multiplicity
 _atom_site_fract_x
 _atom_site_fract_y
 _atom_site_fract_z
 _atom_site_occupancy
  Ni  Ni0  1  0.00000000  0.00000000  0.00000000  1
  Ni  Ni1  1  0.98867100  0.24507200  0.72387000  1
  Ni  Ni2  1  0.01132900  0.75492800  0.27613000  1
  Ni  Ni3  1  0.00000000  0.50000000  0.00000000  1
  Ni  Ni4  1  0.50000000  0.00000000  0.50000000  1
  Ni  Ni5  1  0.50957500  0.25110500  0.22177800  1
  Ni  Ni6  1  0.49042500  0.74889500  0.77822200  1
  C  C7  1  0.50000000  0.50000000  0.50000000  1
  Cu  Cu8  1  0.92631100  0.75121500  0.59448500  1
  Cu  Cu9  1  0.42519500  0.24909300  0.90651800  1
  Cu  Cu10  1  0.57480500  0.75090700  0.09348200  1
  Cu  Cu11  1  0.07368900  0.24878500  0.40551500  1
  C  C12  1  0.76460900  0.24875200  0.90822400  1
  C  C13  1  0.21331200  0.24509400  0.55350700  1
  C  C14  1  0.27621700  0.03282200  0.83809800  1
  C  C15  1  0.23539100  0.75124800  0.09177600  1
  C  C16  1  0.78668800  0.75490600  0.44649300  1
  C  C17  1  0.72378300  0.96717800  0.16190200  1
  C  C18  1  0.72289400  0.53377500  0.16271300  1
  C  C19  1  0.27710600  0.46622500  0.83728700  1
  C  C20  1  0.73460300  0.24646900  0.40604200  1
  C  C21  1  0.27744600  0.24917500  0.05308200  1
  C  C22  1  0.22909300  0.03438100  0.33709200  1
  C  C23  1  0.26539700  0.75353100  0.59395800  1
  C  C24  1  0.72255400  0.75082500  0.94691800  1
  C  C25  1  0.77090700  0.96561900  0.66290800  1
  C  C26  1  0.78599300  0.53350400  0.66580800  1
  C  C27  1  0.21400700  0.46649600  0.33419200  1
