# generated using pymatgen
data_Cu2Ni4C
_symmetry_space_group_name_H-M   'P 1'
_cell_length_a   20.31341256
_cell_length_b   14.60617989
_cell_length_c   14.16522800
_cell_angle_alpha   89.81176733
_cell_angle_beta   45.97505421
_cell_angle_gamma   44.21317847
_symmetry_Int_Tables_number   1
_chemical_formula_structural   Cu2Ni4C
_chemical_formula_sum   'Cu8 Ni16 C4'
_cell_volume   340.03710715
_cell_formula_units_Z   4
loop_
 _symmetry_equiv_pos_site_id
 _symmetry_equiv_pos_as_xyz
  1  'x, y, z'
loop_
 _atom_site_type_symbol
 _atom_site_label
 _atom_site_symmetry_multiplicity
 _atom_site_fract_x
 _atom_site_fract_y
 _atom_site_fract_z
 _atom_site_occupancy
  C  C0  1  0.10576900  0.08819200  0.85994600  1
  C  C1  1  0.94609200  0.85994600  0.08819200  1
  C  C2  1  0.39005400  0.30390800  0.14423100  1
  C  C3  1  0.16180800  0.14423100  0.30390800  1
  Ni  Ni4  1  0.16477600  0.12547700  0.82277800  1
  Ni  Ni5  1  0.88696900  0.82277800  0.12547600  1
  Ni  Ni6  1  0.42722200  0.36303100  0.08522400  1
  Ni  Ni7  1  0.12452300  0.08522400  0.36303100  1
  Ni  Ni8  1  0.04618700  0.12767400  0.82029300  1
  Ni  Ni9  1  0.00584600  0.82029300  0.12767400  1
  Ni  Ni10  1  0.42970700  0.24415400  0.20381300  1
  Ni  Ni11  1  0.12232600  0.20381300  0.24415400  1
  Ni  Ni12  1  0.22530400  0.07520200  0.46726700  1
  Ni  Ni13  1  0.23222600  0.46726700  0.07520200  1
  Ni  Ni14  1  0.78273300  0.01777400  0.02469600  1
  Ni  Ni15  1  0.17479800  0.02469600  0.01777400  1
  Ni  Ni16  1  0.28860900  0.07433500  0.46809700  1
  Ni  Ni17  1  0.16895900  0.46809700  0.07433500  1
  Ni  Ni18  1  0.78190300  0.08104100  0.96139100  1
  Ni  Ni19  1  0.17566500  0.96139100  0.08104100  1
  Cu  Cu20  1  0.43710900  0.08566000  0.42203400  1
  Cu  Cu21  1  0.05519700  0.42203400  0.08566000  1
  Cu  Cu22  1  0.82796600  0.19480300  0.81289100  1
  Cu  Cu23  1  0.16434000  0.81289100  0.19480300  1
  Cu  Cu24  1  0.30643700  0.18277100  0.27227200  1
  Cu  Cu25  1  0.23852000  0.27227200  0.18277100  1
  Cu  Cu26  1  0.97772800  0.01148000  0.94356300  1
  Cu  Cu27  1  0.06722900  0.94356300  0.01148000  1
