# generated using pymatgen
data_Cu(NiC2)3
_symmetry_space_group_name_H-M   'P 1'
_cell_length_a   6.00956615
_cell_length_b   6.00956615
_cell_length_c   12.90058600
_cell_angle_alpha   90.00000000
_cell_angle_beta   90.00000000
_cell_angle_gamma   120.00000170
_symmetry_Int_Tables_number   1
_chemical_formula_structural   Cu(NiC2)3
_chemical_formula_sum   'Cu2 Ni6 C12'
_cell_volume   403.48398659
_cell_formula_units_Z   2
loop_
 _symmetry_equiv_pos_site_id
 _symmetry_equiv_pos_as_xyz
  1  'x, y, z'
loop_
 _atom_site_type_symbol
 _atom_site_label
 _atom_site_symmetry_multiplicity
 _atom_site_fract_x
 _atom_site_fract_y
 _atom_site_fract_z
 _atom_site_occupancy
  Ni  Ni0  1  0.00000000  0.00000000  0.00000000  1
  Ni  Ni1  1  0.66666700  0.33333300  0.99967400  1
  Ni  Ni2  1  0.33333300  0.66666700  0.49967400  1
  Ni  Ni3  1  0.00000000  0.00000000  0.50000000  1
  Ni  Ni4  1  0.33333300  0.66666700  0.00032600  1
  Ni  Ni5  1  0.66666700  0.33333300  0.50032600  1
  Cu  Cu6  1  0.66666700  0.33333300  0.75000000  1
  Cu  Cu7  1  0.33333300  0.66666700  0.25000000  1
  C  C8  1  0.67201100  0.66618300  0.13044500  1
  C  C9  1  0.32798900  0.33381700  0.63044500  1
  C  C10  1  0.66618300  0.67201100  0.86955500  1
  C  C11  1  0.32798900  0.99417200  0.86955500  1
  C  C12  1  0.00582800  0.67201100  0.63044500  1
  C  C13  1  0.00582800  0.33381700  0.86955500  1
  C  C14  1  0.99417200  0.66618300  0.36955500  1
  C  C15  1  0.33381700  0.32798900  0.36955500  1
  C  C16  1  0.67201100  0.00582800  0.36955500  1
  C  C17  1  0.99417200  0.32798900  0.13044500  1
  C  C18  1  0.66618300  0.99417200  0.63044500  1
  C  C19  1  0.33381700  0.00582800  0.13044500  1
