# generated using pymatgen
data_Cu3(NiC2)2
_symmetry_space_group_name_H-M   'P 1'
_cell_length_a   7.01074455
_cell_length_b   7.88269797
_cell_length_c   7.37771587
_cell_angle_alpha   97.38579885
_cell_angle_beta   101.84430660
_cell_angle_gamma   86.99644158
_symmetry_Int_Tables_number   1
_chemical_formula_structural   Cu3(NiC2)2
_chemical_formula_sum   'Cu12 Ni8 C16'
_cell_volume   395.58529477
_cell_formula_units_Z   4
loop_
 _symmetry_equiv_pos_site_id
 _symmetry_equiv_pos_as_xyz
  1  'x, y, z'
loop_
 _atom_site_type_symbol
 _atom_site_label
 _atom_site_symmetry_multiplicity
 _atom_site_fract_x
 _atom_site_fract_y
 _atom_site_fract_z
 _atom_site_occupancy
  C  C0  1  0.75398600  0.51663100  0.29168900  1
  C  C1  1  0.73538800  0.05455600  0.14909200  1
  C  C2  1  0.37891300  0.41020400  0.65624800  1
  C  C3  1  0.20739200  0.93682300  0.80657100  1
  C  C4  1  0.51191100  0.20420100  0.89243600  1
  C  C5  1  0.83703600  0.59728300  0.58680000  1
  C  C6  1  0.97642600  0.68813200  0.49195900  1
  C  C7  1  0.61369800  0.82156700  0.46877300  1
  C  C8  1  0.41097600  0.86847400  0.35040700  1
  C  C9  1  0.17279000  0.29177800  0.11770700  1
  C  C10  1  0.96816900  0.37653200  0.08715700  1
  C  C11  1  0.28396900  0.66553000  0.96943000  1
  C  C12  1  0.07104500  0.14160300  0.45589000  1
  C  C13  1  0.63245000  0.24848500  0.60040100  1
  C  C14  1  0.47670100  0.10889700  0.55911300  1
  C  C15  1  0.85472700  0.75209500  0.96295000  1
  Ni  Ni16  1  0.11420300  0.01013000  0.23462000  1
  Ni  Ni17  1  0.28933700  0.56466100  0.30384000  1
  Ni  Ni18  1  0.87460900  0.06145500  0.75689800  1
  Ni  Ni19  1  0.63863400  0.61975300  0.79318400  1
  Ni  Ni20  1  0.57744700  0.38643500  0.09033000  1
  Ni  Ni21  1  0.98350700  0.92581400  0.15405200  1
  Ni  Ni22  1  0.47695300  0.61890000  0.81140000  1
  Ni  Ni23  1  0.00127100  0.08893700  0.68625500  1
  Cu  Cu24  1  0.75163100  0.40072900  0.21573600  1
  Cu  Cu25  1  0.77894500  0.93537000  0.17200000  1
  Cu  Cu26  1  0.31722400  0.51833100  0.71506200  1
  Cu  Cu27  1  0.20712200  0.02087100  0.71797100  1
  Cu  Cu28  1  0.57835700  0.21333500  0.02565900  1
  Cu  Cu29  1  0.84031100  0.65957100  0.48081400  1
  Cu  Cu30  1  0.49136200  0.88647900  0.47548500  1
  Cu  Cu31  1  0.08123000  0.35184500  0.02795900  1
  Cu  Cu32  1  0.38890800  0.73421000  0.94695300  1
  Cu  Cu33  1  0.00223400  0.20535600  0.55171600  1
  Cu  Cu34  1  0.49585200  0.23335000  0.60338000  1
  Cu  Cu35  1  0.99327700  0.77812800  0.02406700  1
