# generated using pymatgen
data_Cu8Ni2C5
_symmetry_space_group_name_H-M   'P 1'
_cell_length_a   6.55284445
_cell_length_b   6.55284445
_cell_length_c   19.66467900
_cell_angle_alpha   90.00000000
_cell_angle_beta   90.00000000
_cell_angle_gamma   96.90136249
_symmetry_Int_Tables_number   1
_chemical_formula_structural   Cu8Ni2C5
_chemical_formula_sum   'Cu16 Ni4 C10'
_cell_volume   838.27871199
_cell_formula_units_Z   2
loop_
 _symmetry_equiv_pos_site_id
 _symmetry_equiv_pos_as_xyz
  1  'x, y, z'
loop_
 _atom_site_type_symbol
 _atom_site_label
 _atom_site_symmetry_multiplicity
 _atom_site_fract_x
 _atom_site_fract_y
 _atom_site_fract_z
 _atom_site_occupancy
  C  C0  1  0.84707800  0.45044300  0.88469300  1
  C  C1  1  0.45044300  0.84707800  0.11530700  1
  C  C2  1  0.34707800  0.95044300  0.61530700  1
  C  C3  1  0.95044300  0.34707800  0.38469300  1
  C  C4  1  0.30314500  0.39451800  0.75376000  1
  C  C5  1  0.39451800  0.30314500  0.24624000  1
  C  C6  1  0.80314500  0.89451800  0.74624000  1
  C  C7  1  0.89451800  0.80314500  0.25376000  1
  C  C8  1  0.02098600  0.02098600  0.00000000  1
  C  C9  1  0.52098600  0.52098600  0.50000000  1
  Ni  Ni10  1  0.36970300  0.95202600  0.86288300  1
  Ni  Ni11  1  0.95202600  0.36970300  0.13711700  1
  Ni  Ni12  1  0.86970300  0.45202600  0.63711700  1
  Ni  Ni13  1  0.45202600  0.86970300  0.36288300  1
  Cu  Cu14  1  0.20655400  0.41023900  0.63255900  1
  Cu  Cu15  1  0.41023900  0.20655400  0.36744100  1
  Cu  Cu16  1  0.70655400  0.91023900  0.86744100  1
  Cu  Cu17  1  0.91023900  0.70655400  0.13255900  1
  Cu  Cu18  1  0.32158200  0.28544900  0.87334200  1
  Cu  Cu19  1  0.28544900  0.32158200  0.12665800  1
  Cu  Cu20  1  0.82158200  0.78544900  0.62665800  1
  Cu  Cu21  1  0.78544900  0.82158200  0.37334200  1
  Cu  Cu22  1  0.24655500  0.78958500  0.95969500  1
  Cu  Cu23  1  0.78958500  0.24655500  0.04030500  1
  Cu  Cu24  1  0.74655500  0.28958500  0.54030500  1
  Cu  Cu25  1  0.28958500  0.74655500  0.45969500  1
  Cu  Cu26  1  0.22501500  0.81042100  0.77099200  1
  Cu  Cu27  1  0.81042100  0.22501500  0.22900800  1
  Cu  Cu28  1  0.31042100  0.72501500  0.27099200  1
  Cu  Cu29  1  0.72501500  0.31042100  0.72900800  1
