# generated using pymatgen
data_Cu4NiC45
_symmetry_space_group_name_H-M   'P 1'
_cell_length_a   21.60982880
_cell_length_b   21.60982880
_cell_length_c   21.60982892
_cell_angle_alpha   165.34270388
_cell_angle_beta   165.34270121
_cell_angle_gamma   20.78586861
_symmetry_Int_Tables_number   1
_chemical_formula_structural   Cu4NiC45
_chemical_formula_sum   'Cu4 Ni1 C45'
_cell_volume   646.04462579
_cell_formula_units_Z   1
loop_
 _symmetry_equiv_pos_site_id
 _symmetry_equiv_pos_as_xyz
  1  'x, y, z'
loop_
 _atom_site_type_symbol
 _atom_site_label
 _atom_site_symmetry_multiplicity
 _atom_site_fract_x
 _atom_site_fract_y
 _atom_site_fract_z
 _atom_site_occupancy
  C  C0  1  0.64998000  0.14998000  0.50000000  1
  C  C1  1  0.25000000  0.75000000  0.50000000  1
  C  C2  1  0.85002000  0.35002000  0.50000000  1
  C  C3  1  0.45025200  0.95025200  0.50000000  1
  C  C4  1  0.04974800  0.54974800  0.50000000  1
  C  C5  1  0.14998000  0.64998000  0.50000000  1
  C  C6  1  0.75000000  0.25000000  0.50000000  1
  C  C7  1  0.35002000  0.85002000  0.50000000  1
  C  C8  1  0.95025200  0.45025200  0.50000000  1
  C  C9  1  0.54974800  0.04974800  0.50000000  1
  C  C10  1  0.09988900  0.09988900  0.00000000  1
  C  C11  1  0.70000000  0.70000000  0.00000000  1
  C  C12  1  0.30000000  0.30000000  0.00000000  1
  C  C13  1  0.90011100  0.90011100  0.00000000  1
  C  C14  1  0.50000000  0.50000000  0.00000000  1
  Ni  Ni15  1  0.00000000  0.00000000  0.00000000  1
  Cu  Cu16  1  0.60000600  0.60000600  0.00000000  1
  Cu  Cu17  1  0.20000300  0.20000300  0.00000000  1
  Cu  Cu18  1  0.79999700  0.79999700  0.00000000  1
  Cu  Cu19  1  0.39999400  0.39999400  0.00000000  1
  C  C20  1  0.64593800  0.64593800  0.00000000  1
  C  C21  1  0.24596000  0.24596000  0.00000000  1
  C  C22  1  0.84599200  0.84599200  0.00000000  1
  C  C23  1  0.44601200  0.44601200  0.00000000  1
  C  C24  1  0.04589900  0.04589900  0.00000000  1
  C  C25  1  0.15400800  0.15400800  0.00000000  1
  C  C26  1  0.75404000  0.75404000  0.00000000  1
  C  C27  1  0.35406200  0.35406200  0.00000000  1
  C  C28  1  0.95410100  0.95410100  0.00000000  1
  C  C29  1  0.55398800  0.55398800  0.00000000  1
  C  C30  1  0.89079100  0.80203400  0.49283700  1
  C  C31  1  0.49081900  0.40212300  0.49294900  1
  C  C32  1  0.09082700  0.00213000  0.49294900  1
  C  C33  1  0.69080300  0.60204500  0.49283700  1
  C  C34  1  0.29031900  0.20215700  0.49247600  1
  C  C35  1  0.30919700  0.39795500  0.50716300  1
  C  C36  1  0.90917300  0.99787000  0.50705100  1
  C  C37  1  0.50918100  0.59787700  0.50705100  1
  C  C38  1  0.10920900  0.19796600  0.50716300  1
  C  C39  1  0.70968100  0.79784300  0.50752400  1
  C  C40  1  0.80203400  0.30919700  0.91124200  1
  C  C41  1  0.40212300  0.90917300  0.91130300  1
  C  C42  1  0.00213000  0.50918100  0.91130300  1
  C  C43  1  0.60204500  0.10920900  0.91124200  1
  C  C44  1  0.20215700  0.70968100  0.91183800  1
  C  C45  1  0.99787000  0.49081900  0.08869700  1
  C  C46  1  0.59787700  0.09082700  0.08869700  1
  C  C47  1  0.19796600  0.69080300  0.08875800  1
  C  C48  1  0.79784300  0.29031900  0.08816200  1
  C  C49  1  0.39795500  0.89079100  0.08875800  1
