# generated using pymatgen
data_Cu3Ni2C21
_symmetry_space_group_name_H-M   'P 1'
_cell_length_a   5.80775300
_cell_length_b   8.51267985
_cell_length_c   10.37636624
_cell_angle_alpha   99.36234503
_cell_angle_beta   90.00000000
_cell_angle_gamma   70.05464818
_symmetry_Int_Tables_number   1
_chemical_formula_structural   Cu3Ni2C21
_chemical_formula_sum   'Cu6 Ni4 C42'
_cell_volume   474.95599079
_cell_formula_units_Z   2
loop_
 _symmetry_equiv_pos_site_id
 _symmetry_equiv_pos_as_xyz
  1  'x, y, z'
loop_
 _atom_site_type_symbol
 _atom_site_label
 _atom_site_symmetry_multiplicity
 _atom_site_fract_x
 _atom_site_fract_y
 _atom_site_fract_z
 _atom_site_occupancy
  C  C0  1  0.50479600  0.64656200  0.26226400  1
  C  C1  1  0.14721600  0.36154200  0.23819000  1
  C  C2  1  0.49124200  0.36154200  0.73819000  1
  C  C3  1  0.84864100  0.64656200  0.76226400  1
  C  C4  1  0.54411600  0.67389700  0.42600000  1
  C  C5  1  0.21414600  0.32616600  0.07489800  1
  C  C6  1  0.45968800  0.32616600  0.57489800  1
  C  C7  1  0.78198700  0.67389700  0.92600000  1
  C  C8  1  0.78243000  0.06596800  0.20657500  1
  C  C9  1  0.84259400  0.90950800  0.29617500  1
  C  C10  1  0.24789800  0.90950800  0.79617500  1
  C  C11  1  0.15160200  0.06596800  0.70657500  1
  C  C12  1  0.56931200  0.07362000  0.31738600  1
  C  C13  1  0.64089900  0.91860700  0.18079700  1
  C  C14  1  0.44049300  0.91860700  0.68079700  1
  C  C15  1  0.35706800  0.07362000  0.81738600  1
  C  C16  1  0.58640600  0.48100500  0.34317000  1
  C  C17  1  0.07216900  0.52336700  0.15260500  1
  C  C18  1  0.40446400  0.52336700  0.65260500  1
  C  C19  1  0.93258900  0.48100500  0.84317000  1
  C  C20  1  0.29412900  0.63096700  0.36668700  1
  C  C21  1  0.92136400  0.37760600  0.13406000  1
  C  C22  1  0.70103000  0.37760600  0.63406000  1
  C  C23  1  0.07490300  0.63096700  0.86668700  1
  C  C24  1  0.02435400  0.00403100  0.49214100  1
  C  C25  1  0.97161500  0.00403100  0.99214100  1
  Ni  Ni26  1  0.31268100  0.77551800  0.04205200  1
  Ni  Ni27  1  0.08840300  0.23177200  0.45799300  1
  Ni  Ni28  1  0.67982500  0.23177200  0.95799300  1
  Ni  Ni29  1  0.91180200  0.77551800  0.54205200  1
  Cu  Cu30  1  0.48215300  0.60761200  0.34905500  1
  Cu  Cu31  1  0.08706200  0.39801600  0.15056900  1
  Cu  Cu32  1  0.51492200  0.39801600  0.65056900  1
  Cu  Cu33  1  0.91023500  0.60761200  0.84905500  1
  Cu  Cu34  1  0.70853300  0.99253300  0.25026400  1
  Cu  Cu35  1  0.29893400  0.99253300  0.75026400  1
  C  C36  1  0.17232700  0.70405300  0.11946800  1
  C  C37  1  0.87397200  0.29449100  0.38168100  1
  C  C38  1  0.83153700  0.29449100  0.88168100  1
  C  C39  1  0.12362100  0.70405300  0.61946800  1
  C  C40  1  0.56703000  0.74202900  0.08803300  1
  C  C41  1  0.30729800  0.26082800  0.40788900  1
  C  C42  1  0.43187300  0.26082800  0.90788900  1
  C  C43  1  0.69094100  0.74202900  0.58803300  1
  C  C44  1  0.18663200  0.96630000  0.05921300  1
  C  C45  1  0.16337700  0.03377200  0.44020900  1
  C  C46  1  0.80285100  0.03377200  0.94020900  1
  C  C47  1  0.84706800  0.96630000  0.55921300  1
  C  C48  1  0.32539600  0.70379600  0.89957700  1
  C  C49  1  0.03382800  0.29763500  0.59964800  1
  C  C50  1  0.66853700  0.29763500  0.09964800  1
  C  C51  1  0.97080800  0.70379600  0.39957700  1
