# generated using pymatgen
data_CuNiC28
_symmetry_space_group_name_H-M   'P 1'
_cell_length_a   9.91763000
_cell_length_b   10.04497900
_cell_length_c   10.04758590
_cell_angle_alpha   60.01534723
_cell_angle_beta   90.00000000
_cell_angle_gamma   90.00000000
_symmetry_Int_Tables_number   1
_chemical_formula_structural   CuNiC28
_chemical_formula_sum   'Cu2 Ni2 C56'
_cell_volume   866.99468910
_cell_formula_units_Z   2
loop_
 _symmetry_equiv_pos_site_id
 _symmetry_equiv_pos_as_xyz
  1  'x, y, z'
loop_
 _atom_site_type_symbol
 _atom_site_label
 _atom_site_symmetry_multiplicity
 _atom_site_fract_x
 _atom_site_fract_y
 _atom_site_fract_z
 _atom_site_occupancy
  C  C0  1  0.75810800  0.79276000  0.99531400  1
  C  C1  1  0.75744100  0.21186200  0.79258400  1
  C  C2  1  0.75730000  0.99596800  0.21168800  1
  C  C3  1  0.25810800  0.20724000  0.00468600  1
  C  C4  1  0.25744100  0.78813800  0.20741600  1
  C  C5  1  0.25730000  0.00403200  0.78831200  1
  Ni  Ni6  1  0.48595200  0.99971900  0.99989200  1
  Ni  Ni7  1  0.98595200  0.00028100  0.00010800  1
  C  C8  1  0.01961400  0.66720800  0.66645800  1
  C  C9  1  0.51961400  0.33279200  0.33354200  1
  Cu  Cu10  1  0.47397600  0.66756600  0.66588700  1
  Cu  Cu11  1  0.97397600  0.33243400  0.33411300  1
  C  C12  1  0.65195200  0.99983000  0.99985700  1
  C  C13  1  0.15195200  0.00017000  0.00014300  1
  C  C14  1  0.42055400  0.86663000  0.96878000  1
  C  C15  1  0.42094300  0.16426300  0.86703800  1
  C  C16  1  0.42092600  0.96859300  0.16428600  1
  C  C17  1  0.92055400  0.13337000  0.03122000  1
  C  C18  1  0.92094300  0.83573700  0.13296200  1
  C  C19  1  0.92092600  0.03140700  0.83571400  1
  C  C20  1  0.52886300  0.61442300  0.82574700  1
  C  C21  1  0.52788600  0.56065400  0.61308200  1
  C  C22  1  0.52742300  0.82692400  0.55943800  1
  C  C23  1  0.02886300  0.38557700  0.17425300  1
  C  C24  1  0.02788600  0.43934600  0.38691800  1
  C  C25  1  0.02742300  0.17307600  0.44056200  1
  C  C26  1  0.01871700  0.54840200  0.80200600  1
  C  C27  1  0.01876000  0.65029400  0.54792200  1
  C  C28  1  0.01941100  0.80258800  0.64973400  1
  C  C29  1  0.51871700  0.45159800  0.19799400  1
  C  C30  1  0.51876000  0.34970600  0.45207800  1
  C  C31  1  0.51941100  0.19741200  0.35026600  1
  C  C32  1  0.32802700  0.66549300  0.66828800  1
  C  C33  1  0.82802700  0.33450700  0.33171200  1
  C  C34  1  0.70725800  0.66045700  0.67304300  1
  C  C35  1  0.20725800  0.33954300  0.32695700  1
  C  C36  1  0.97426700  0.68381700  0.00269400  1
  C  C37  1  0.97360300  0.31097100  0.68550500  1
  C  C38  1  0.97363400  0.00311500  0.31208200  1
  C  C39  1  0.47426700  0.31618300  0.99730600  1
  C  C40  1  0.47360300  0.68902900  0.31449500  1
  C  C41  1  0.47363400  0.99688500  0.68791800  1
  C  C42  1  0.24984300  0.60237100  0.99807300  1
  C  C43  1  0.24908200  0.39915900  0.60364400  1
  C  C44  1  0.24983000  0.99757600  0.39976000  1
  C  C45  1  0.74984300  0.39762900  0.00192700  1
  C  C46  1  0.74908200  0.60084100  0.39635600  1
  C  C47  1  0.74983000  0.00242400  0.60024000  1
  C  C48  1  0.76570400  0.87088700  0.72514600  1
  C  C49  1  0.76665500  0.40436000  0.87015200  1
  C  C50  1  0.76470200  0.72586800  0.40257600  1
  C  C51  1  0.26570400  0.12911300  0.27485400  1
  C  C52  1  0.26665500  0.59564000  0.12984800  1
  C  C53  1  0.26470200  0.27413200  0.59742400  1
  C  C54  1  0.70034400  0.11315100  0.61492800  1
  C  C55  1  0.69902200  0.27236500  0.11152700  1
  C  C56  1  0.70020200  0.61481300  0.27122400  1
  C  C57  1  0.20034400  0.88684900  0.38507200  1
  C  C58  1  0.19902200  0.72763500  0.88847300  1
  C  C59  1  0.20020200  0.38518700  0.72877600  1
