# generated using pymatgen
data_Cu3Ni2C17
_symmetry_space_group_name_H-M   'P 1'
_cell_length_a   10.66818600
_cell_length_b   10.66818600
_cell_length_c   10.66818600
_cell_angle_alpha   90.00000000
_cell_angle_beta   90.00000000
_cell_angle_gamma   90.00000000
_symmetry_Int_Tables_number   1
_chemical_formula_structural   Cu3Ni2C17
_chemical_formula_sum   'Cu12 Ni8 C68'
_cell_volume   1214.14830261
_cell_formula_units_Z   4
loop_
 _symmetry_equiv_pos_site_id
 _symmetry_equiv_pos_as_xyz
  1  'x, y, z'
loop_
 _atom_site_type_symbol
 _atom_site_label
 _atom_site_symmetry_multiplicity
 _atom_site_fract_x
 _atom_site_fract_y
 _atom_site_fract_z
 _atom_site_occupancy
  C  C0  1  0.12500000  0.87437300  0.12437300  1
  C  C1  1  0.37500000  0.12562700  0.62437300  1
  C  C2  1  0.87500000  0.37437300  0.37562700  1
  C  C3  1  0.12437300  0.12500000  0.87437300  1
  C  C4  1  0.62437300  0.37500000  0.12562700  1
  C  C5  1  0.62500000  0.62562700  0.87562700  1
  C  C6  1  0.87562700  0.62500000  0.62562700  1
  C  C7  1  0.37562700  0.87500000  0.37437300  1
  C  C8  1  0.87437300  0.12437300  0.12500000  1
  C  C9  1  0.37437300  0.37562700  0.87500000  1
  C  C10  1  0.62562700  0.87562700  0.62500000  1
  C  C11  1  0.12562700  0.62437300  0.37500000  1
  Ni  Ni12  1  0.87500000  0.87500000  0.87500000  1
  Ni  Ni13  1  0.62500000  0.12500000  0.37500000  1
  Ni  Ni14  1  0.12500000  0.37500000  0.62500000  1
  Ni  Ni15  1  0.37500000  0.62500000  0.12500000  1
  Ni  Ni16  1  0.37500000  0.37500000  0.37500000  1
  Ni  Ni17  1  0.12500000  0.62500000  0.87500000  1
  Ni  Ni18  1  0.62500000  0.87500000  0.12500000  1
  Ni  Ni19  1  0.87500000  0.12500000  0.62500000  1
  Cu  Cu20  1  0.12500000  0.15433300  0.40433300  1
  Cu  Cu21  1  0.37500000  0.84566700  0.90433300  1
  Cu  Cu22  1  0.87500000  0.65433300  0.09566700  1
  Cu  Cu23  1  0.40433300  0.12500000  0.15433300  1
  Cu  Cu24  1  0.90433300  0.37500000  0.84566700  1
  Cu  Cu25  1  0.62500000  0.34566700  0.59566700  1
  Cu  Cu26  1  0.59566700  0.62500000  0.34566700  1
  Cu  Cu27  1  0.09566700  0.87500000  0.65433300  1
  Cu  Cu28  1  0.15433300  0.40433300  0.12500000  1
  Cu  Cu29  1  0.65433300  0.09566700  0.87500000  1
  Cu  Cu30  1  0.34566700  0.59566700  0.62500000  1
  Cu  Cu31  1  0.84566700  0.90433300  0.37500000  1
  C  C32  1  0.00422400  0.29805800  0.48953600  1
  C  C33  1  0.49577600  0.70194200  0.98953600  1
  C  C34  1  0.99577600  0.79805800  0.01046400  1
  C  C35  1  0.48953600  0.00422400  0.29805800  1
  C  C36  1  0.04805800  0.25422400  0.76046400  1
  C  C37  1  0.50422400  0.20194200  0.51046400  1
  C  C38  1  0.98953600  0.49577600  0.70194200  1
  C  C39  1  0.45194200  0.74577600  0.26046400  1
  C  C40  1  0.01046400  0.99577600  0.79805800  1
  C  C41  1  0.54805800  0.24577600  0.23953600  1
  C  C42  1  0.51046400  0.50422400  0.20194200  1
  C  C43  1  0.95194200  0.75422400  0.73953600  1
  C  C44  1  0.29805800  0.48953600  0.00422400  1
  C  C45  1  0.75422400  0.73953600  0.95194200  1
  C  C46  1  0.79805800  0.01046400  0.99577600  1
  C  C47  1  0.74577600  0.26046400  0.45194200  1
  C  C48  1  0.20194200  0.51046400  0.50422400  1
  C  C49  1  0.25422400  0.76046400  0.04805800  1
  C  C50  1  0.70194200  0.98953600  0.49577600  1
  C  C51  1  0.24577600  0.23953600  0.54805800  1
  C  C52  1  0.76046400  0.04805800  0.25422400  1
  C  C53  1  0.26046400  0.45194200  0.74577600  1
  C  C54  1  0.73953600  0.95194200  0.75422400  1
  C  C55  1  0.23953600  0.54805800  0.24577600  1
  C  C56  1  0.27091900  0.27091900  0.27091900  1
  C  C57  1  0.22908100  0.72908100  0.77091900  1
  C  C58  1  0.72908100  0.77091900  0.22908100  1
  C  C59  1  0.02091900  0.52091900  0.97908100  1
  C  C60  1  0.77091900  0.22908100  0.72908100  1
  C  C61  1  0.47908100  0.47908100  0.47908100  1
  C  C62  1  0.52091900  0.97908100  0.02091900  1
  C  C63  1  0.97908100  0.02091900  0.52091900  1
  C  C64  1  0.99926200  0.99961900  0.19002800  1
  C  C65  1  0.50073800  0.00038100  0.69002800  1
  C  C66  1  0.00073800  0.49961900  0.30997200  1
  C  C67  1  0.19002800  0.99926200  0.99961900  1
  C  C68  1  0.74961900  0.24926200  0.05997200  1
  C  C69  1  0.49926200  0.50038100  0.80997200  1
  C  C70  1  0.69002800  0.50073800  0.00038100  1
  C  C71  1  0.75038100  0.75073800  0.55997200  1
  C  C72  1  0.30997200  0.00073800  0.49961900  1
  C  C73  1  0.24961900  0.25073800  0.94002800  1
  C  C74  1  0.80997200  0.49926200  0.50038100  1
  C  C75  1  0.25038100  0.74926200  0.44002800  1
  C  C76  1  0.99961900  0.19002800  0.99926200  1
  C  C77  1  0.74926200  0.44002800  0.25038100  1
  C  C78  1  0.49961900  0.30997200  0.00073800  1
  C  C79  1  0.75073800  0.55997200  0.75038100  1
  C  C80  1  0.50038100  0.80997200  0.49926200  1
  C  C81  1  0.24926200  0.05997200  0.74961900  1
  C  C82  1  0.00038100  0.69002800  0.50073800  1
  C  C83  1  0.25073800  0.94002800  0.24961900  1
  C  C84  1  0.05997200  0.74961900  0.24926200  1
  C  C85  1  0.55997200  0.75038100  0.75073800  1
  C  C86  1  0.44002800  0.25038100  0.74926200  1
  C  C87  1  0.94002800  0.24961900  0.25073800  1
