# generated using pymatgen
data_Cu3NiC10
_symmetry_space_group_name_H-M   'P 1'
_cell_length_a   3.14467000
_cell_length_b   9.38289700
_cell_length_c   9.52633600
_cell_angle_alpha   90.00000000
_cell_angle_beta   90.00000000
_cell_angle_gamma   90.00000000
_symmetry_Int_Tables_number   1
_chemical_formula_structural   Cu3NiC10
_chemical_formula_sum   'Cu6 Ni2 C20'
_cell_volume   281.08516277
_cell_formula_units_Z   2
loop_
 _symmetry_equiv_pos_site_id
 _symmetry_equiv_pos_as_xyz
  1  'x, y, z'
loop_
 _atom_site_type_symbol
 _atom_site_label
 _atom_site_symmetry_multiplicity
 _atom_site_fract_x
 _atom_site_fract_y
 _atom_site_fract_z
 _atom_site_occupancy
  Ni  Ni0  1  0.00000000  0.60890400  0.81499700  1
  Ni  Ni1  1  0.00000000  0.10890400  0.18500300  1
  Cu  Cu2  1  0.50000000  0.39582700  0.06712800  1
  Cu  Cu3  1  0.50000000  0.89582700  0.93287200  1
  Cu  Cu4  1  0.00000000  0.60372400  0.43515600  1
  Cu  Cu5  1  0.00000000  0.10372400  0.56484400  1
  Cu  Cu6  1  0.50000000  0.37593800  0.67950500  1
  Cu  Cu7  1  0.50000000  0.87593800  0.32049500  1
  C  C8  1  0.50000000  0.33112500  0.37959600  1
  C  C9  1  0.50000000  0.83112500  0.62040400  1
  C  C10  1  0.00000000  0.66691500  0.12264700  1
  C  C11  1  0.00000000  0.16691500  0.87735300  1
  C  C12  1  0.50000000  0.50662700  0.87274000  1
  C  C13  1  0.50000000  0.00662700  0.12726000  1
  C  C14  1  0.00000000  0.52353500  0.64295500  1
  C  C15  1  0.00000000  0.02353500  0.35704500  1
  C  C16  1  0.50000000  0.47541000  0.37916000  1
  C  C17  1  0.50000000  0.97541000  0.62084000  1
  C  C18  1  0.00000000  0.52130500  0.11616700  1
  C  C19  1  0.00000000  0.02130500  0.88383300  1
  C  C20  1  0.50000000  0.25667900  0.24745900  1
  C  C21  1  0.50000000  0.75667900  0.75254100  1
  C  C22  1  0.00000000  0.73740600  0.25081700  1
  C  C23  1  0.00000000  0.23740600  0.74918300  1
  C  C24  1  0.50000000  0.25198700  0.50168300  1
  C  C25  1  0.50000000  0.75198700  0.49831700  1
  C  C26  1  0.00000000  0.74461800  0.99480700  1
  C  C27  1  0.00000000  0.24461800  0.00519300  1
