# generated using pymatgen
data_Cu3NiC16
_symmetry_space_group_name_H-M   'P 1'
_cell_length_a   8.92408941
_cell_length_b   8.92408941
_cell_length_c   4.00848100
_cell_angle_alpha   90.00000000
_cell_angle_beta   90.00000000
_cell_angle_gamma   126.82468666
_symmetry_Int_Tables_number   1
_chemical_formula_structural   Cu3NiC16
_chemical_formula_sum   'Cu3 Ni1 C16'
_cell_volume   255.53738760
_cell_formula_units_Z   1
loop_
 _symmetry_equiv_pos_site_id
 _symmetry_equiv_pos_as_xyz
  1  'x, y, z'
loop_
 _atom_site_type_symbol
 _atom_site_label
 _atom_site_symmetry_multiplicity
 _atom_site_fract_x
 _atom_site_fract_y
 _atom_site_fract_z
 _atom_site_occupancy
  C  C0  1  0.61426200  0.87081900  0.50000000  1
  C  C1  1  0.87081900  0.61426200  0.50000000  1
  C  C2  1  0.12918100  0.38573800  0.50000000  1
  C  C3  1  0.38573800  0.12918100  0.50000000  1
  Ni  Ni4  1  0.00000000  0.00000000  0.00000000  1
  Cu  Cu5  1  0.25059800  0.74940200  0.00000000  1
  Cu  Cu6  1  0.50000000  0.50000000  0.00000000  1
  Cu  Cu7  1  0.74940200  0.25059800  0.00000000  1
  C  C8  1  0.37495300  0.62504700  0.00000000  1
  C  C9  1  0.62504700  0.37495300  0.00000000  1
  C  C10  1  0.87000800  0.12999200  0.00000000  1
  C  C11  1  0.12999200  0.87000800  0.00000000  1
  C  C12  1  0.50000000  0.00000000  0.00000000  1
  C  C13  1  0.74191500  0.74191500  0.00000000  1
  C  C14  1  0.00000000  0.50000000  0.00000000  1
  C  C15  1  0.25808500  0.25808500  0.00000000  1
  C  C16  1  0.25274800  0.74725200  0.50000000  1
  C  C17  1  0.50000000  0.50000000  0.50000000  1
  C  C18  1  0.74725200  0.25274800  0.50000000  1
  C  C19  1  0.00000000  0.00000000  0.50000000  1
