# generated using pymatgen
data_Cu6Ni17C3
_symmetry_space_group_name_H-M   'P 1'
_cell_length_a   10.71021228
_cell_length_b   10.71021228
_cell_length_c   10.64610800
_cell_angle_alpha   90.00000000
_cell_angle_beta   90.00000000
_cell_angle_gamma   120.00000176
_symmetry_Int_Tables_number   1
_chemical_formula_structural   Cu6Ni17C3
_chemical_formula_sum   'Cu24 Ni68 C12'
_cell_volume   1057.59076412
_cell_formula_units_Z   4
loop_
 _symmetry_equiv_pos_site_id
 _symmetry_equiv_pos_as_xyz
  1  'x, y, z'
loop_
 _atom_site_type_symbol
 _atom_site_label
 _atom_site_symmetry_multiplicity
 _atom_site_fract_x
 _atom_site_fract_y
 _atom_site_fract_z
 _atom_site_occupancy
  C  C0  1  0.33333300  0.66666700  0.48957500  1
  C  C1  1  0.66666700  0.33333300  0.98957500  1
  C  C2  1  0.33333300  0.66666700  0.24077900  1
  C  C3  1  0.66666700  0.33333300  0.74077900  1
  Ni  Ni4  1  0.12495300  0.93832800  0.52226200  1
  Ni  Ni5  1  0.06167200  0.18662500  0.52226200  1
  Ni  Ni6  1  0.81337500  0.87504700  0.52226200  1
  Ni  Ni7  1  0.87504700  0.06167200  0.02226200  1
  Ni  Ni8  1  0.93832800  0.81337500  0.02226200  1
  Ni  Ni9  1  0.18662500  0.12495300  0.02226200  1
  Ni  Ni10  1  0.18907400  0.87293200  0.39740300  1
  Ni  Ni11  1  0.12706800  0.31614200  0.39740300  1
  Ni  Ni12  1  0.68385800  0.81092600  0.39740300  1
  Ni  Ni13  1  0.81092600  0.12706800  0.89740300  1
  Ni  Ni14  1  0.87293200  0.68385800  0.89740300  1
  Ni  Ni15  1  0.31614200  0.18907400  0.89740300  1
  Ni  Ni16  1  0.31179500  0.99097500  0.51370500  1
  Ni  Ni17  1  0.00902500  0.32082000  0.51370500  1
  Ni  Ni18  1  0.67918000  0.68820500  0.51370500  1
  Ni  Ni19  1  0.68820500  0.00902500  0.01370500  1
  Ni  Ni20  1  0.99097500  0.67918000  0.01370500  1
  Ni  Ni21  1  0.32082000  0.31179500  0.01370500  1
  Ni  Ni22  1  0.95042300  0.69696200  0.58632900  1
  Ni  Ni23  1  0.30303800  0.25346100  0.58632900  1
  Ni  Ni24  1  0.74653900  0.04957700  0.58632900  1
  Ni  Ni25  1  0.04957700  0.30303800  0.08632900  1
  Ni  Ni26  1  0.69696200  0.74653900  0.08632900  1
  Ni  Ni27  1  0.25346100  0.95042300  0.08632900  1
  Ni  Ni28  1  0.00197400  0.56414900  0.60770900  1
  Ni  Ni29  1  0.43585100  0.43782400  0.60770900  1
  Ni  Ni30  1  0.56217600  0.99802600  0.60770900  1
  Ni  Ni31  1  0.99802600  0.43585100  0.10770900  1
  Ni  Ni32  1  0.56414900  0.56217600  0.10770900  1
  Ni  Ni33  1  0.43782400  0.00197400  0.10770900  1
  Ni  Ni34  1  0.00750300  0.63395100  0.45463900  1
  Ni  Ni35  1  0.36604900  0.37355200  0.45463900  1
  Ni  Ni36  1  0.62644800  0.99249700  0.45463900  1
  Ni  Ni37  1  0.99249700  0.36604900  0.95463900  1
  Ni  Ni38  1  0.63395100  0.62644800  0.95463900  1
  Ni  Ni39  1  0.37355200  0.00750300  0.95463900  1
  Ni  Ni40  1  0.12851100  0.83207500  0.75070800  1
  Ni  Ni41  1  0.16792500  0.29643600  0.75070800  1
  Ni  Ni42  1  0.70356400  0.87148900  0.75070800  1
  Ni  Ni43  1  0.87148900  0.16792500  0.25070800  1
  Ni  Ni44  1  0.83207500  0.70356400  0.25070800  1
  Ni  Ni45  1  0.29643600  0.12851100  0.25070800  1
  Ni  Ni46  1  0.31316400  0.91757900  0.70799200  1
  Ni  Ni47  1  0.08242100  0.39558600  0.70799200  1
  Ni  Ni48  1  0.60441400  0.68683600  0.70799200  1
  Ni  Ni49  1  0.68683600  0.08242100  0.20799200  1
  Ni  Ni50  1  0.91757900  0.60441400  0.20799200  1
  Ni  Ni51  1  0.39558600  0.31316400  0.20799200  1
  Ni  Ni52  1  0.24331400  0.73896200  0.88112500  1
  Ni  Ni53  1  0.26103800  0.50435200  0.88112500  1
  Ni  Ni54  1  0.49564800  0.75668600  0.88112500  1
  Ni  Ni55  1  0.75668600  0.26103800  0.38112500  1
  Ni  Ni56  1  0.73896200  0.49564800  0.38112500  1
  Ni  Ni57  1  0.50435200  0.24331400  0.38112500  1
  Ni  Ni58  1  0.11832300  0.60010300  0.78242600  1
  Ni  Ni59  1  0.39989700  0.51822000  0.78242600  1
  Ni  Ni60  1  0.48178000  0.88167700  0.78242600  1
  Ni  Ni61  1  0.88167700  0.39989700  0.28242600  1
  Ni  Ni62  1  0.60010300  0.48178000  0.28242600  1
  Ni  Ni63  1  0.51822000  0.11832300  0.28242600  1
  Ni  Ni64  1  0.33333300  0.66666700  0.12554700  1
  Ni  Ni65  1  0.66666700  0.33333300  0.62554700  1
  Ni  Ni66  1  0.35679700  0.57110700  0.27998400  1
  Ni  Ni67  1  0.42889300  0.78569000  0.27998400  1
  Ni  Ni68  1  0.21431000  0.64320300  0.27998400  1
  Ni  Ni69  1  0.64320300  0.42889300  0.77998400  1
  Ni  Ni70  1  0.57110700  0.21431000  0.77998400  1
  Ni  Ni71  1  0.78569000  0.35679700  0.77998400  1
  Cu  Cu72  1  0.21129200  0.81384500  0.70427600  1
  Cu  Cu73  1  0.18615500  0.39744700  0.70427600  1
  Cu  Cu74  1  0.60255300  0.78870800  0.70427600  1
  Cu  Cu75  1  0.78870800  0.18615500  0.20427600  1
  Cu  Cu76  1  0.81384500  0.60255300  0.20427600  1
  Cu  Cu77  1  0.39744700  0.21129200  0.20427600  1
  Cu  Cu78  1  0.22295300  0.70050900  0.78250600  1
  Cu  Cu79  1  0.29949100  0.52244400  0.78250600  1
  Cu  Cu80  1  0.47755600  0.77704700  0.78250600  1
  Cu  Cu81  1  0.77704700  0.29949100  0.28250600  1
  Cu  Cu82  1  0.70050900  0.47755600  0.28250600  1
  Cu  Cu83  1  0.52244400  0.22295300  0.28250600  1
  Cu  Cu84  1  0.20188000  0.90111600  0.49748400  1
  Cu  Cu85  1  0.09888400  0.30076400  0.49748400  1
  Cu  Cu86  1  0.69923600  0.79812000  0.49748400  1
  Cu  Cu87  1  0.79812000  0.09888400  0.99748400  1
  Cu  Cu88  1  0.90111600  0.69923600  0.99748400  1
  Cu  Cu89  1  0.30076400  0.20188000  0.99748400  1
  Cu  Cu90  1  0.02665700  0.66158600  0.55467800  1
  Cu  Cu91  1  0.33841400  0.36507000  0.55467800  1
  Cu  Cu92  1  0.63493000  0.97334300  0.55467800  1
  Cu  Cu93  1  0.97334300  0.33841400  0.05467800  1
  Cu  Cu94  1  0.66158600  0.63493000  0.05467800  1
  Cu  Cu95  1  0.36507000  0.02665700  0.05467800  1
  C  C96  1  0.17683100  0.77556300  0.57165900  1
  C  C97  1  0.22443700  0.40126800  0.57165900  1
  C  C98  1  0.59873200  0.82316900  0.57165900  1
  C  C99  1  0.82316900  0.22443700  0.07165900  1
  C  C100  1  0.77556300  0.59873200  0.07165900  1
  C  C101  1  0.40126800  0.17683100  0.07165900  1
  C  C102  1  0.33333300  0.66666700  0.73910400  1
  C  C103  1  0.66666700  0.33333300  0.23910400  1
