# generated using pymatgen
data_Cu2NiC4
_symmetry_space_group_name_H-M   'P 1'
_cell_length_a   6.06456495
_cell_length_b   6.06456495
_cell_length_c   6.06456495
_cell_angle_alpha   120.42899875
_cell_angle_beta   120.42568945
_cell_angle_gamma   89.26139842
_symmetry_Int_Tables_number   1
_chemical_formula_structural   Cu2NiC4
_chemical_formula_sum   'Cu4 Ni2 C8'
_cell_volume   156.68610971
_cell_formula_units_Z   2
loop_
 _symmetry_equiv_pos_site_id
 _symmetry_equiv_pos_as_xyz
  1  'x, y, z'
loop_
 _atom_site_type_symbol
 _atom_site_label
 _atom_site_symmetry_multiplicity
 _atom_site_fract_x
 _atom_site_fract_y
 _atom_site_fract_z
 _atom_site_occupancy
  Ni  Ni0  1  0.00000000  0.00000000  0.50000000  1
  Ni  Ni1  1  0.00000000  0.50000000  0.00000000  1
  Cu  Cu2  1  0.61263800  0.86263800  0.75000000  1
  Cu  Cu3  1  0.38736200  0.13736200  0.25000000  1
  Cu  Cu4  1  0.50000000  0.50000000  0.00000000  1
  Cu  Cu5  1  0.00000000  0.50000000  0.50000000  1
  C  C6  1  0.25499200  0.27491100  0.98008100  1
  C  C7  1  0.24744500  0.27800700  0.53056200  1
  C  C8  1  0.79483000  0.27491100  0.51991900  1
  C  C9  1  0.24744500  0.71688300  0.96943800  1
  C  C10  1  0.75255500  0.28311700  0.03056200  1
  C  C11  1  0.75255500  0.72199300  0.46943800  1
  C  C12  1  0.20517000  0.72508900  0.48008100  1
  C  C13  1  0.74500800  0.72508900  0.01991900  1
