# generated using pymatgen
data_Cu3Ni2C19
_symmetry_space_group_name_H-M   'P 1'
_cell_length_a   4.87386574
_cell_length_b   4.89518849
_cell_length_c   19.19584400
_cell_angle_alpha   92.34116897
_cell_angle_beta   85.29274229
_cell_angle_gamma   119.85628833
_symmetry_Int_Tables_number   1
_chemical_formula_structural   Cu3Ni2C19
_chemical_formula_sum   'Cu6 Ni4 C38'
_cell_volume   395.85904155
_cell_formula_units_Z   2
loop_
 _symmetry_equiv_pos_site_id
 _symmetry_equiv_pos_as_xyz
  1  'x, y, z'
loop_
 _atom_site_type_symbol
 _atom_site_label
 _atom_site_symmetry_multiplicity
 _atom_site_fract_x
 _atom_site_fract_y
 _atom_site_fract_z
 _atom_site_occupancy
  C  C0  1  0.20833300  0.66666900  0.37500700  1
  C  C1  1  0.70833600  0.66666900  0.87499300  1
  C  C2  1  0.83895400  0.65746300  0.49838600  1
  C  C3  1  0.34820300  0.67627100  0.99846000  1
  C  C4  1  0.57806400  0.67626800  0.25154100  1
  C  C5  1  0.06851000  0.65746100  0.75161300  1
  C  C6  1  0.92635000  0.33808300  0.25156500  1
  C  C7  1  0.42794100  0.34226100  0.75146100  1
  C  C8  1  0.16432400  0.34226400  0.49853900  1
  C  C9  1  0.66173600  0.33808300  0.99843400  1
  C  C10  1  0.25171700  0.99068600  0.25145800  1
  C  C11  1  0.75445600  0.99503200  0.75161200  1
  C  C12  1  0.49057300  0.99503500  0.49838900  1
  C  C13  1  0.98896800  0.99068700  0.99854200  1
  Ni  Ni14  1  0.54173200  0.33317500  0.37485800  1
  Ni  Ni15  1  0.04144300  0.33317500  0.87514200  1
  Ni  Ni16  1  0.87503700  0.00029400  0.37509200  1
  Ni  Ni17  1  0.37525500  0.00029300  0.87490900  1
  Cu  Cu18  1  0.45740100  0.66480000  0.62500000  1
  Cu  Cu19  1  0.12823500  0.00646800  0.62500100  1
  Cu  Cu20  1  0.28829600  0.32658400  0.12500000  1
  Cu  Cu21  1  0.95914200  0.66828400  0.12500000  1
  Cu  Cu22  1  0.62282300  0.99564900  0.12500000  1
  Cu  Cu23  1  0.79383200  0.33767600  0.62500000  1
  C  C24  1  0.29488900  0.68176400  0.18329500  1
  C  C25  1  0.77895300  0.65135200  0.68326900  1
  C  C26  1  0.63687300  0.68176100  0.06670500  1
  C  C27  1  0.12240600  0.65135700  0.56673100  1
  C  C28  1  0.85291900  0.66616700  0.32253800  1
  C  C29  1  0.35334800  0.66722900  0.82254700  1
  C  C30  1  0.56387900  0.66722800  0.42745300  1
  C  C31  1  0.06324700  0.66616500  0.92746200  1
  C  C32  1  0.97527600  0.30770600  0.07025100  1
  C  C33  1  0.49734900  0.32727000  0.56666100  1
  C  C34  1  0.58242600  0.30770500  0.17974600  1
  C  C35  1  0.07992600  0.32727300  0.68334100  1
  C  C36  1  0.33683100  0.00669600  0.06661700  1
  C  C37  1  0.83270200  0.02536100  0.57012300  1
  C  C38  1  0.91987200  0.00670100  0.18338200  1
  C  C39  1  0.44266400  0.02536100  0.67987800  1
  C  C40  1  0.81983900  0.29450300  0.42696100  1
  C  C41  1  0.31885200  0.29401700  0.92730000  1
  C  C42  1  0.59679900  0.03886200  0.32303700  1
  C  C43  1  0.09788500  0.03940700  0.82267100  1
  C  C44  1  0.19152000  0.03940600  0.42732900  1
  C  C45  1  0.69206200  0.03886000  0.92696300  1
  C  C46  1  0.22516600  0.29401800  0.32270000  1
  C  C47  1  0.72466400  0.29450400  0.82303900  1
