# generated using pymatgen
data_CuNiC7
_symmetry_space_group_name_H-M   'P 1'
_cell_length_a   6.39930100
_cell_length_b   8.73755400
_cell_length_c   8.87708100
_cell_angle_alpha   90.00000000
_cell_angle_beta   90.00000000
_cell_angle_gamma   90.00000000
_symmetry_Int_Tables_number   1
_chemical_formula_structural   CuNiC7
_chemical_formula_sum   'Cu4 Ni4 C28'
_cell_volume   496.35522022
_cell_formula_units_Z   4
loop_
 _symmetry_equiv_pos_site_id
 _symmetry_equiv_pos_as_xyz
  1  'x, y, z'
loop_
 _atom_site_type_symbol
 _atom_site_label
 _atom_site_symmetry_multiplicity
 _atom_site_fract_x
 _atom_site_fract_y
 _atom_site_fract_z
 _atom_site_occupancy
  C  C0  1  0.74628500  0.50000000  0.50000000  1
  C  C1  1  0.75371500  0.00000000  0.00000000  1
  C  C2  1  0.25371500  0.50000000  0.50000000  1
  C  C3  1  0.24628500  0.00000000  0.00000000  1
  C  C4  1  0.00000000  0.85975700  0.36791300  1
  C  C5  1  0.00000000  0.14024300  0.63208700  1
  C  C6  1  0.50000000  0.35975700  0.13208700  1
  C  C7  1  0.50000000  0.64024300  0.86791300  1
  Ni  Ni8  1  0.50000000  0.74373400  0.24315900  1
  Ni  Ni9  1  0.50000000  0.25626600  0.75684100  1
  Ni  Ni10  1  0.00000000  0.24373400  0.25684100  1
  Ni  Ni11  1  0.00000000  0.75626600  0.74315900  1
  Cu  Cu12  1  0.00000000  0.78588200  0.09146200  1
  Cu  Cu13  1  0.00000000  0.21411800  0.90853800  1
  Cu  Cu14  1  0.50000000  0.28588200  0.40853800  1
  Cu  Cu15  1  0.50000000  0.71411800  0.59146200  1
  C  C16  1  0.00000000  0.89005900  0.13019300  1
  C  C17  1  0.00000000  0.10994100  0.86980700  1
  C  C18  1  0.50000000  0.39005900  0.36980700  1
  C  C19  1  0.50000000  0.60994100  0.63019300  1
  C  C20  1  0.50000000  0.91390700  0.14289700  1
  C  C21  1  0.50000000  0.08609300  0.85710300  1
  C  C22  1  0.00000000  0.41390700  0.35710300  1
  C  C23  1  0.00000000  0.58609300  0.64289700  1
  C  C24  1  0.50000000  0.60280600  0.10718600  1
  C  C25  1  0.50000000  0.39719400  0.89281400  1
  C  C26  1  0.00000000  0.10280600  0.39281400  1
  C  C27  1  0.00000000  0.89719400  0.60718600  1
  C  C28  1  0.71746600  0.72347000  0.35738700  1
  C  C29  1  0.71746600  0.27653000  0.64261300  1
  C  C30  1  0.78253400  0.22347000  0.14261300  1
  C  C31  1  0.78253400  0.77653000  0.85738700  1
  C  C32  1  0.28253400  0.27653000  0.64261300  1
  C  C33  1  0.28253400  0.72347000  0.35738700  1
  C  C34  1  0.21746600  0.77653000  0.85738700  1
  C  C35  1  0.21746600  0.22347000  0.14261300  1
