# generated using pymatgen
data_Cu2Ni2C5
_symmetry_space_group_name_H-M   'P 1'
_cell_length_a   3.35205407
_cell_length_b   3.35205407
_cell_length_c   31.02074000
_cell_angle_alpha   90.00000000
_cell_angle_beta   90.00000000
_cell_angle_gamma   120.00000139
_symmetry_Int_Tables_number   1
_chemical_formula_structural   Cu2Ni2C5
_chemical_formula_sum   'Cu2 Ni2 C5'
_cell_volume   301.85947343
_cell_formula_units_Z   1
loop_
 _symmetry_equiv_pos_site_id
 _symmetry_equiv_pos_as_xyz
  1  'x, y, z'
loop_
 _atom_site_type_symbol
 _atom_site_label
 _atom_site_symmetry_multiplicity
 _atom_site_fract_x
 _atom_site_fract_y
 _atom_site_fract_z
 _atom_site_occupancy
  C  C0  1  0.33333300  0.66666700  0.51698500  1
  C  C1  1  0.33333300  0.66666700  0.63974000  1
  C  C2  1  0.00000000  0.00000000  0.11566200  1
  C  C3  1  0.00000000  0.00000000  0.57838900  1
  C  C4  1  0.33333300  0.66666700  0.34691500  1
  Ni  Ni5  1  0.00000000  0.00000000  0.40084600  1
  Ni  Ni6  1  0.00000000  0.00000000  0.29298800  1
  Cu  Cu7  1  0.33333300  0.66666700  0.06679600  1
  Cu  Cu8  1  0.33333300  0.66666700  0.16451900  1
