# generated using pymatgen
data_Cu2Ni3C23
_symmetry_space_group_name_H-M   'P 1'
_cell_length_a   6.11407584
_cell_length_b   6.11407584
_cell_length_c   9.81698546
_cell_angle_alpha   89.44145509
_cell_angle_beta   89.44145509
_cell_angle_gamma   59.92176084
_symmetry_Int_Tables_number   1
_chemical_formula_structural   Cu2Ni3C23
_chemical_formula_sum   'Cu2 Ni3 C23'
_cell_volume   317.54113640
_cell_formula_units_Z   1
loop_
 _symmetry_equiv_pos_site_id
 _symmetry_equiv_pos_as_xyz
  1  'x, y, z'
loop_
 _atom_site_type_symbol
 _atom_site_label
 _atom_site_symmetry_multiplicity
 _atom_site_fract_x
 _atom_site_fract_y
 _atom_site_fract_z
 _atom_site_occupancy
  C  C0  1  0.66227300  0.66227300  0.12703200  1
  C  C1  1  0.98985700  0.98985700  0.00908800  1
  C  C2  1  0.99195700  0.99195700  0.49308800  1
  C  C3  1  0.32828400  0.32828400  0.60072800  1
  Ni  Ni4  1  0.83195000  0.83195000  0.78255500  1
  Ni  Ni5  1  0.17057900  0.66223700  0.28490900  1
  Ni  Ni6  1  0.66223700  0.17057900  0.28490900  1
  Cu  Cu7  1  0.67358600  0.67358600  0.48878800  1
  Cu  Cu8  1  0.34239700  0.34239700  0.02557800  1
  C  C9  1  0.33726900  0.83221100  0.78427900  1
  C  C10  1  0.83221100  0.33726900  0.78427900  1
  C  C11  1  0.17110300  0.17110300  0.28521300  1
  C  C12  1  0.31876100  0.84954400  0.39947500  1
  C  C13  1  0.51440500  0.51440500  0.66769000  1
  C  C14  1  0.66367200  0.66367200  0.89825100  1
  C  C15  1  0.00354800  0.00354800  0.67905900  1
  C  C16  1  0.00484300  0.00484300  0.18820600  1
  C  C17  1  0.84954400  0.31876100  0.39947500  1
  C  C18  1  0.51098600  0.96767500  0.67093000  1
  C  C19  1  0.96767500  0.51098600  0.67093000  1
  C  C20  1  0.15511300  0.15511300  0.89627000  1
  C  C21  1  0.84118100  0.84118100  0.39544600  1
  C  C22  1  0.03482400  0.47760900  0.16234000  1
  C  C23  1  0.47760900  0.03482400  0.16234000  1
  C  C24  1  0.33044100  0.33044100  0.39834600  1
  C  C25  1  0.16274300  0.68913400  0.89320100  1
  C  C26  1  0.48187100  0.48187100  0.16656300  1
  C  C27  1  0.68913400  0.16274300  0.89320100  1
