# generated using pymatgen
data_Cu4NiC7
_symmetry_space_group_name_H-M   'P 1'
_cell_length_a   4.38759800
_cell_length_b   7.59772800
_cell_length_c   10.40202644
_cell_angle_alpha   75.80208470
_cell_angle_beta   90.00000000
_cell_angle_gamma   90.00000000
_symmetry_Int_Tables_number   1
_chemical_formula_structural   Cu4NiC7
_chemical_formula_sum   'Cu4 Ni1 C7'
_cell_volume   336.16760101
_cell_formula_units_Z   1
loop_
 _symmetry_equiv_pos_site_id
 _symmetry_equiv_pos_as_xyz
  1  'x, y, z'
loop_
 _atom_site_type_symbol
 _atom_site_label
 _atom_site_symmetry_multiplicity
 _atom_site_fract_x
 _atom_site_fract_y
 _atom_site_fract_z
 _atom_site_occupancy
  C  C0  1  0.50000000  0.24840100  0.74876000  1
  C  C1  1  0.00000000  0.75374000  0.74382200  1
  C  C2  1  0.50000000  0.75159900  0.25124000  1
  C  C3  1  0.00000000  0.24626000  0.25617800  1
  C  C4  1  0.00000000  0.50000000  0.50000000  1
  C  C5  1  0.50000000  0.00000000  0.50000000  1
  C  C6  1  0.50000000  0.50000000  0.00000000  1
  Ni  Ni7  1  0.00000000  0.00000000  0.00000000  1
  Cu  Cu8  1  0.00000000  0.43958800  0.67944600  1
  Cu  Cu9  1  0.50000000  0.94083500  0.67903800  1
  Cu  Cu10  1  0.00000000  0.56041200  0.32055400  1
  Cu  Cu11  1  0.50000000  0.05916500  0.32096200  1
