# generated using pymatgen
data_Cu3NiC14
_symmetry_space_group_name_H-M   'P 1'
_cell_length_a   8.30281636
_cell_length_b   8.30281636
_cell_length_c   7.89851500
_cell_angle_alpha   90.00000000
_cell_angle_beta   90.00000000
_cell_angle_gamma   120.00000291
_symmetry_Int_Tables_number   1
_chemical_formula_structural   Cu3NiC14
_chemical_formula_sum   'Cu6 Ni2 C28'
_cell_volume   471.54911217
_cell_formula_units_Z   2
loop_
 _symmetry_equiv_pos_site_id
 _symmetry_equiv_pos_as_xyz
  1  'x, y, z'
loop_
 _atom_site_type_symbol
 _atom_site_label
 _atom_site_symmetry_multiplicity
 _atom_site_fract_x
 _atom_site_fract_y
 _atom_site_fract_z
 _atom_site_occupancy
  C  C0  1  0.66666700  0.33333300  0.54398300  1
  C  C1  1  0.33333300  0.66666700  0.04398300  1
  C  C2  1  0.33333300  0.66666700  0.45601700  1
  C  C3  1  0.66666700  0.33333300  0.95601700  1
  Ni  Ni4  1  0.00000000  0.00000000  0.75000000  1
  Ni  Ni5  1  0.00000000  0.00000000  0.25000000  1
  Cu  Cu6  1  0.04191700  0.35062500  0.75000000  1
  Cu  Cu7  1  0.64937500  0.69129300  0.75000000  1
  Cu  Cu8  1  0.30870700  0.95808300  0.75000000  1
  Cu  Cu9  1  0.95808300  0.64937500  0.25000000  1
  Cu  Cu10  1  0.35062500  0.30870700  0.25000000  1
  Cu  Cu11  1  0.69129300  0.04191700  0.25000000  1
  C  C12  1  0.94070000  0.12737600  0.75000000  1
  C  C13  1  0.87262400  0.81332400  0.75000000  1
  C  C14  1  0.18667600  0.05930000  0.75000000  1
  C  C15  1  0.05930000  0.87262400  0.25000000  1
  C  C16  1  0.12737600  0.18667600  0.25000000  1
  C  C17  1  0.81332400  0.94070000  0.25000000  1
  C  C18  1  0.87519900  0.38782500  0.75000000  1
  C  C19  1  0.61217500  0.48737400  0.75000000  1
  C  C20  1  0.51262600  0.12480100  0.75000000  1
  C  C21  1  0.12480100  0.61217500  0.25000000  1
  C  C22  1  0.38782500  0.51262600  0.25000000  1
  C  C23  1  0.48737400  0.87519900  0.25000000  1
  C  C24  1  0.15314200  0.41958400  0.58718800  1
  C  C25  1  0.58041600  0.73355900  0.58718800  1
  C  C26  1  0.26644100  0.84685800  0.58718800  1
  C  C27  1  0.84685800  0.58041600  0.08718800  1
  C  C28  1  0.41958400  0.26644100  0.08718800  1
  C  C29  1  0.73355900  0.15314200  0.08718800  1
  C  C30  1  0.84685800  0.58041600  0.41281200  1
  C  C31  1  0.41958400  0.26644100  0.41281200  1
  C  C32  1  0.73355900  0.15314200  0.41281200  1
  C  C33  1  0.15314200  0.41958400  0.91281200  1
  C  C34  1  0.58041600  0.73355900  0.91281200  1
  C  C35  1  0.26644100  0.84685800  0.91281200  1
