# generated using pymatgen
data_Cu8NiC5
_symmetry_space_group_name_H-M   'P 1'
_cell_length_a   3.89425300
_cell_length_b   3.89425300
_cell_length_c   14.91433600
_cell_angle_alpha   90.00000000
_cell_angle_beta   90.00000000
_cell_angle_gamma   90.00000000
_symmetry_Int_Tables_number   1
_chemical_formula_structural   Cu8NiC5
_chemical_formula_sum   'Cu8 Ni1 C5'
_cell_volume   226.17898418
_cell_formula_units_Z   1
loop_
 _symmetry_equiv_pos_site_id
 _symmetry_equiv_pos_as_xyz
  1  'x, y, z'
loop_
 _atom_site_type_symbol
 _atom_site_label
 _atom_site_symmetry_multiplicity
 _atom_site_fract_x
 _atom_site_fract_y
 _atom_site_fract_z
 _atom_site_occupancy
  C  C0  1  0.50000000  0.50000000  0.19075100  1
  C  C1  1  0.00000000  0.00000000  0.36218200  1
  C  C2  1  0.00000000  0.00000000  0.63478800  1
  C  C3  1  0.50000000  0.50000000  0.80710700  1
  C  C4  1  0.00000000  0.00000000  0.00558600  1
  Ni  Ni5  1  0.50000000  0.50000000  0.48627300  1
  Cu  Cu6  1  0.00000000  0.00000000  0.14089000  1
  Cu  Cu7  1  0.50000000  0.00000000  0.01269200  1
  Cu  Cu8  1  0.00000000  0.50000000  0.01269200  1
  Cu  Cu9  1  0.00000000  0.00000000  0.88145400  1
  Cu  Cu10  1  0.50000000  0.00000000  0.70672100  1
  Cu  Cu11  1  0.00000000  0.50000000  0.70672100  1
  Cu  Cu12  1  0.50000000  0.00000000  0.28456200  1
  Cu  Cu13  1  0.00000000  0.50000000  0.28456200  1
