# generated using pymatgen
data_Cu2NiC18
_symmetry_space_group_name_H-M   'P 1'
_cell_length_a   5.51745508
_cell_length_b   5.51745508
_cell_length_c   20.86068000
_cell_angle_alpha   90.00000000
_cell_angle_beta   90.00000000
_cell_angle_gamma   119.99998899
_symmetry_Int_Tables_number   1
_chemical_formula_structural   Cu2NiC18
_chemical_formula_sum   'Cu4 Ni2 C36'
_cell_volume   549.96715495
_cell_formula_units_Z   2
loop_
 _symmetry_equiv_pos_site_id
 _symmetry_equiv_pos_as_xyz
  1  'x, y, z'
loop_
 _atom_site_type_symbol
 _atom_site_label
 _atom_site_symmetry_multiplicity
 _atom_site_fract_x
 _atom_site_fract_y
 _atom_site_fract_z
 _atom_site_occupancy
  C  C0  1  0.33333300  0.66666700  0.16508500  1
  C  C1  1  0.33333300  0.66666700  0.50035600  1
  C  C2  1  0.33333300  0.66666700  0.83455800  1
  Ni  Ni3  1  0.66666700  0.33333300  0.27903300  1
  Ni  Ni4  1  0.66666700  0.33333300  0.61507000  1
  Cu  Cu5  1  0.66666700  0.33333300  0.94567300  1
  Cu  Cu6  1  0.00000000  0.00000000  0.05428000  1
  Cu  Cu7  1  0.00000000  0.00000000  0.38924700  1
  Cu  Cu8  1  0.00000000  0.00000000  0.72356100  1
  C  C9  1  0.33333300  0.66666700  0.99857400  1
  C  C10  1  0.33333300  0.66666700  0.33314600  1
  C  C11  1  0.33333300  0.66666700  0.66828500  1
  C  C12  1  0.66666700  0.33333300  0.08774000  1
  C  C13  1  0.66666700  0.33333300  0.42406000  1
  C  C14  1  0.66666700  0.33333300  0.76017900  1
  C  C15  1  0.00000000  0.00000000  0.24166700  1
  C  C16  1  0.00000000  0.00000000  0.57644400  1
  C  C17  1  0.00000000  0.00000000  0.90918500  1
  C  C18  1  0.66666700  0.33333300  0.16509400  1
  C  C19  1  0.66666700  0.33333300  0.50139800  1
  C  C20  1  0.66666700  0.33333300  0.83750700  1
  C  C21  1  0.00000000  0.00000000  0.16372300  1
  C  C22  1  0.00000000  0.00000000  0.49847200  1
  C  C23  1  0.00000000  0.00000000  0.83115900  1
  C  C24  1  0.97788500  0.55339900  0.05632800  1
  C  C25  1  0.97913000  0.54848400  0.39246000  1
  C  C26  1  0.97907400  0.54676900  0.72800800  1
  C  C27  1  0.44660100  0.42448700  0.05632800  1
  C  C28  1  0.45151600  0.43064600  0.39246000  1
  C  C29  1  0.45323100  0.43230500  0.72800800  1
  C  C30  1  0.57551300  0.02211500  0.05632800  1
  C  C31  1  0.56935400  0.02087000  0.39246000  1
  C  C32  1  0.56769500  0.02092600  0.72800800  1
  C  C33  1  0.68318000  0.81790900  0.27328800  1
  C  C34  1  0.68334700  0.81901800  0.60832100  1
  C  C35  1  0.68857200  0.78124400  0.94043100  1
  C  C36  1  0.18209100  0.86527200  0.27328800  1
  C  C37  1  0.18098200  0.86432900  0.60832100  1
  C  C38  1  0.21875600  0.90732800  0.94043100  1
  C  C39  1  0.13472800  0.31682000  0.27328800  1
  C  C40  1  0.13567100  0.31665300  0.60832100  1
  C  C41  1  0.09267200  0.31142800  0.94043100  1
