# generated using pymatgen
data_CuNiC6
_symmetry_space_group_name_H-M   'P 1'
_cell_length_a   5.93757455
_cell_length_b   5.93757455
_cell_length_c   9.02268274
_cell_angle_alpha   89.11569742
_cell_angle_beta   89.11569742
_cell_angle_gamma   60.81297391
_symmetry_Int_Tables_number   1
_chemical_formula_structural   CuNiC6
_chemical_formula_sum   'Cu3 Ni3 C18'
_cell_volume   277.66089239
_cell_formula_units_Z   3
loop_
 _symmetry_equiv_pos_site_id
 _symmetry_equiv_pos_as_xyz
  1  'x, y, z'
loop_
 _atom_site_type_symbol
 _atom_site_label
 _atom_site_symmetry_multiplicity
 _atom_site_fract_x
 _atom_site_fract_y
 _atom_site_fract_z
 _atom_site_occupancy
  C  C0  1  0.67374900  0.67374900  0.49715100  1
  C  C1  1  0.34167500  0.34167500  0.98044900  1
  Ni  Ni2  1  0.83227200  0.83227200  0.20336700  1
  Ni  Ni3  1  0.66483800  0.16524900  0.71178800  1
  Ni  Ni4  1  0.16524900  0.66483800  0.71178800  1
  Cu  Cu5  1  0.82912800  0.33446600  0.21118100  1
  Cu  Cu6  1  0.33446600  0.82912800  0.21118100  1
  Cu  Cu7  1  0.16466600  0.16466600  0.71288300  1
  C  C8  1  0.82706700  0.32546900  0.60490300  1
  C  C9  1  0.51345200  0.51345200  0.34404100  1
  C  C10  1  0.67401000  0.67401000  0.09232200  1
  C  C11  1  0.98882700  0.98882700  0.31770000  1
  C  C12  1  0.99026400  0.99026400  0.81966400  1
  C  C13  1  0.32546900  0.82706700  0.60490300  1
  C  C14  1  0.95796100  0.51619300  0.33992500  1
  C  C15  1  0.51619300  0.95796100  0.33992500  1
  C  C16  1  0.16864000  0.16864000  0.09579900  1
  C  C17  1  0.83990000  0.83990000  0.61469200  1
  C  C18  1  0.48691900  0.04944200  0.84017300  1
  C  C19  1  0.04944200  0.48691900  0.84017300  1
  C  C20  1  0.34000700  0.34000700  0.60233700  1
  C  C21  1  0.66557000  0.17303300  0.09573800  1
  C  C22  1  0.47729900  0.47729900  0.82602200  1
  C  C23  1  0.17303300  0.66557000  0.09573800  1
