# generated using pymatgen
data_CuNi15C32
_symmetry_space_group_name_H-M   'P 1'
_cell_length_a   7.64624200
_cell_length_b   7.64624200
_cell_length_c   9.69394600
_cell_angle_alpha   90.00000000
_cell_angle_beta   90.00000000
_cell_angle_gamma   90.00000000
_symmetry_Int_Tables_number   1
_chemical_formula_structural   CuNi15C32
_chemical_formula_sum   'Cu1 Ni15 C32'
_cell_volume   566.75671500
_cell_formula_units_Z   1
loop_
 _symmetry_equiv_pos_site_id
 _symmetry_equiv_pos_as_xyz
  1  'x, y, z'
loop_
 _atom_site_type_symbol
 _atom_site_label
 _atom_site_symmetry_multiplicity
 _atom_site_fract_x
 _atom_site_fract_y
 _atom_site_fract_z
 _atom_site_occupancy
  Ni  Ni0  1  0.75163900  0.75163900  0.00000000  1
  Ni  Ni1  1  0.75163900  0.24836100  0.00000000  1
  Ni  Ni2  1  0.24836100  0.75163900  0.00000000  1
  Ni  Ni3  1  0.24836100  0.24836100  0.00000000  1
  Ni  Ni4  1  0.50000000  0.75482700  0.75635300  1
  Ni  Ni5  1  0.50000000  0.24517300  0.75635300  1
  Ni  Ni6  1  0.00000000  0.75080900  0.74973700  1
  Ni  Ni7  1  0.00000000  0.24919100  0.74973700  1
  Ni  Ni8  1  0.50000000  0.00000000  0.49732100  1
  Ni  Ni9  1  0.00000000  0.50000000  0.50267900  1
  Ni  Ni10  1  0.00000000  0.00000000  0.50000000  1
  Ni  Ni11  1  0.75482700  0.50000000  0.24364700  1
  Ni  Ni12  1  0.75080900  0.00000000  0.25026300  1
  Ni  Ni13  1  0.24517300  0.50000000  0.24364700  1
  Ni  Ni14  1  0.24919100  0.00000000  0.25026300  1
  Cu  Cu15  1  0.50000000  0.50000000  0.50000000  1
  C  C16  1  0.50000000  0.75011800  0.95705400  1
  C  C17  1  0.50000000  0.24988200  0.95705400  1
  C  C18  1  0.00000000  0.74977800  0.95708600  1
  C  C19  1  0.00000000  0.25022200  0.95708600  1
  C  C20  1  0.50000000  0.50000000  0.70977900  1
  C  C21  1  0.50000000  0.00000000  0.70775200  1
  C  C22  1  0.00000000  0.50000000  0.70673900  1
  C  C23  1  0.00000000  0.00000000  0.70711600  1
  C  C24  1  0.75011800  0.50000000  0.04294600  1
  C  C25  1  0.74977800  0.00000000  0.04291400  1
  C  C26  1  0.24988200  0.50000000  0.04294600  1
  C  C27  1  0.25022200  0.00000000  0.04291400  1
  C  C28  1  0.75010000  0.74976200  0.79299700  1
  C  C29  1  0.75010000  0.25023800  0.79299700  1
  C  C30  1  0.24990000  0.74976200  0.79299700  1
  C  C31  1  0.24990000  0.25023800  0.79299700  1
  C  C32  1  0.75257000  0.50000000  0.45608600  1
  C  C33  1  0.74977900  0.00000000  0.45704800  1
  C  C34  1  0.24743000  0.50000000  0.45608600  1
  C  C35  1  0.25022100  0.00000000  0.45704800  1
  C  C36  1  0.74976200  0.75010000  0.20700300  1
  C  C37  1  0.74976200  0.24990000  0.20700300  1
  C  C38  1  0.25023800  0.75010000  0.20700300  1
  C  C39  1  0.25023800  0.24990000  0.20700300  1
  C  C40  1  0.50000000  0.75257000  0.54391400  1
  C  C41  1  0.50000000  0.24743000  0.54391400  1
  C  C42  1  0.00000000  0.74977900  0.54295200  1
  C  C43  1  0.00000000  0.25022100  0.54295200  1
  C  C44  1  0.50000000  0.50000000  0.29022100  1
  C  C45  1  0.50000000  0.00000000  0.29326100  1
  C  C46  1  0.00000000  0.50000000  0.29224800  1
  C  C47  1  0.00000000  0.00000000  0.29288400  1
