# generated using pymatgen
data_Cu3Ni3C14
_symmetry_space_group_name_H-M   'P 1'
_cell_length_a   10.65924656
_cell_length_b   10.65924656
_cell_length_c   10.65924656
_cell_angle_alpha   109.47122063
_cell_angle_beta   109.47122063
_cell_angle_gamma   109.47122063
_symmetry_Int_Tables_number   1
_chemical_formula_structural   Cu3Ni3C14
_chemical_formula_sum   'Cu12 Ni12 C56'
_cell_volume   932.30418383
_cell_formula_units_Z   4
loop_
 _symmetry_equiv_pos_site_id
 _symmetry_equiv_pos_as_xyz
  1  'x, y, z'
loop_
 _atom_site_type_symbol
 _atom_site_label
 _atom_site_symmetry_multiplicity
 _atom_site_fract_x
 _atom_site_fract_y
 _atom_site_fract_z
 _atom_site_occupancy
  Ni  Ni0  1  0.62500000  0.37500000  0.75000000  1
  Ni  Ni1  1  0.37500000  0.62500000  0.25000000  1
  Ni  Ni2  1  0.87500000  0.12500000  0.25000000  1
  Ni  Ni3  1  0.37500000  0.75000000  0.62500000  1
  Ni  Ni4  1  0.62500000  0.25000000  0.37500000  1
  Ni  Ni5  1  0.12500000  0.87500000  0.75000000  1
  Ni  Ni6  1  0.12500000  0.25000000  0.87500000  1
  Ni  Ni7  1  0.87500000  0.75000000  0.12500000  1
  Ni  Ni8  1  0.75000000  0.62500000  0.37500000  1
  Ni  Ni9  1  0.25000000  0.37500000  0.62500000  1
  Ni  Ni10  1  0.25000000  0.87500000  0.12500000  1
  Ni  Ni11  1  0.75000000  0.12500000  0.87500000  1
  Cu  Cu12  1  0.87500000  0.62500000  0.75000000  1
  Cu  Cu13  1  0.12500000  0.37500000  0.25000000  1
  Cu  Cu14  1  0.62500000  0.87500000  0.25000000  1
  Cu  Cu15  1  0.62500000  0.75000000  0.87500000  1
  Cu  Cu16  1  0.87500000  0.25000000  0.62500000  1
  Cu  Cu17  1  0.37500000  0.12500000  0.75000000  1
  Cu  Cu18  1  0.37500000  0.25000000  0.12500000  1
  Cu  Cu19  1  0.12500000  0.75000000  0.37500000  1
  Cu  Cu20  1  0.75000000  0.87500000  0.62500000  1
  Cu  Cu21  1  0.25000000  0.12500000  0.37500000  1
  Cu  Cu22  1  0.25000000  0.62500000  0.87500000  1
  Cu  Cu23  1  0.75000000  0.37500000  0.12500000  1
  C  C24  1  -0.00000000  0.00000000  0.00000000  1
  C  C25  1  0.50000000  0.00000000  0.50000000  1
  C  C26  1  0.50000000  0.50000000  0.00000000  1
  C  C27  1  -0.00000000  0.00000000  0.50000000  1
  C  C28  1  -0.00000000  0.50000000  0.50000000  1
  C  C29  1  0.50000000  0.50000000  0.50000000  1
  C  C30  1  0.50000000  0.00000000  0.00000000  1
  C  C31  1  -0.00000000  0.50000000  0.00000000  1
  C  C32  1  0.70098419  0.62278133  0.52895111  1
  C  C33  1  0.29901581  0.37721867  0.47104889  1
  C  C34  1  0.79901581  0.82796691  0.42179714  1
  C  C35  1  0.40616977  0.87721867  0.07820286  1
  C  C36  1  0.62278133  0.52895111  0.70098419  1
  C  C37  1  0.70098419  0.07820286  0.67203309  1
  C  C38  1  0.20098419  0.17203309  0.57820286  1
  C  C39  1  0.59383023  0.12278133  0.92179714  1
  C  C40  1  0.37721867  0.47104889  0.29901581  1
  C  C41  1  0.29901581  0.92179714  0.32796691  1
  C  C42  1  0.09383023  0.67203309  0.97104889  1
  C  C43  1  0.82796691  0.42179714  0.79901581  1
  C  C44  1  0.79901581  0.97104889  0.87721867  1
  C  C45  1  0.90616977  0.32796691  0.02895111  1
  C  C46  1  0.17203309  0.57820286  0.20098419  1
  C  C47  1  0.20098419  0.02895111  0.12278133  1
  C  C48  1  0.87721867  0.07820286  0.40616977  1
  C  C49  1  0.40616977  0.52895111  0.82796691  1
  C  C50  1  0.12278133  0.92179714  0.59383023  1
  C  C51  1  0.59383023  0.47104889  0.17203309  1
  C  C52  1  0.67203309  0.97104889  0.09383023  1
  C  C53  1  0.09383023  0.42179714  0.62278133  1
  C  C54  1  0.32796691  0.02895111  0.90616977  1
  C  C55  1  0.90616977  0.57820286  0.37721867  1
  C  C56  1  0.52895111  0.70098419  0.62278133  1
  C  C57  1  0.62278133  0.09383023  0.42179714  1
  C  C58  1  0.47104889  0.29901581  0.37721867  1
  C  C59  1  0.37721867  0.90616977  0.57820286  1
  C  C60  1  0.07820286  0.40616977  0.87721867  1
  C  C61  1  0.87721867  0.79901581  0.97104889  1
  C  C62  1  0.92179714  0.59383023  0.12278133  1
  C  C63  1  0.12278133  0.20098419  0.02895111  1
  C  C64  1  0.97104889  0.09383023  0.67203309  1
  C  C65  1  0.67203309  0.70098419  0.07820286  1
  C  C66  1  0.02895111  0.90616977  0.32796691  1
  C  C67  1  0.32796691  0.29901581  0.92179714  1
  C  C68  1  0.42179714  0.79901581  0.82796691  1
  C  C69  1  0.82796691  0.40616977  0.52895111  1
  C  C70  1  0.57820286  0.20098419  0.17203309  1
  C  C71  1  0.17203309  0.59383023  0.47104889  1
  C  C72  1  0.07820286  0.67203309  0.70098419  1
  C  C73  1  0.92179714  0.32796691  0.29901581  1
  C  C74  1  0.97104889  0.87721867  0.79901581  1
  C  C75  1  0.02895111  0.12278133  0.20098419  1
  C  C76  1  0.42179714  0.62278133  0.09383023  1
  C  C77  1  0.57820286  0.37721867  0.90616977  1
  C  C78  1  0.52895111  0.82796691  0.40616977  1
  C  C79  1  0.47104889  0.17203309  0.59383023  1
