# generated using pymatgen
data_Cu2NiC12
_symmetry_space_group_name_H-M   'P 1'
_cell_length_a   5.27448921
_cell_length_b   8.07730659
_cell_length_c   8.44845322
_cell_angle_alpha   89.86242926
_cell_angle_beta   79.55296729
_cell_angle_gamma   87.87480647
_symmetry_Int_Tables_number   1
_chemical_formula_structural   Cu2NiC12
_chemical_formula_sum   'Cu4 Ni2 C24'
_cell_volume   353.72153577
_cell_formula_units_Z   2
loop_
 _symmetry_equiv_pos_site_id
 _symmetry_equiv_pos_as_xyz
  1  'x, y, z'
loop_
 _atom_site_type_symbol
 _atom_site_label
 _atom_site_symmetry_multiplicity
 _atom_site_fract_x
 _atom_site_fract_y
 _atom_site_fract_z
 _atom_site_occupancy
  C  C0  1  0.73743300  0.80536200  0.19228100  1
  C  C1  1  0.26256700  0.19463800  0.80771900  1
  Ni  Ni2  1  0.86929600  0.73832000  0.54436500  1
  Ni  Ni3  1  0.13070400  0.26168000  0.45563500  1
  Cu  Cu4  1  0.80451300  0.42795000  0.70736500  1
  Cu  Cu5  1  0.19548700  0.57205000  0.29263500  1
  Cu  Cu6  1  0.76857700  0.93503700  0.81471000  1
  Cu  Cu7  1  0.23142300  0.06496300  0.18529000  1
  C  C8  1  0.51373500  0.75887700  0.47766700  1
  C  C9  1  0.48626500  0.24112300  0.52233300  1
  C  C10  1  0.26707600  0.69811500  0.92165800  1
  C  C11  1  0.73292400  0.30188500  0.07834200  1
  C  C12  1  0.97915700  0.57282200  0.19223900  1
  C  C13  1  0.02084300  0.42717800  0.80776100  1
  C  C14  1  0.92812000  0.87175800  0.64817400  1
  C  C15  1  0.07188000  0.12824200  0.35182600  1
  C  C16  1  0.90054900  0.09013100  0.85806300  1
  C  C17  1  0.09945100  0.90986900  0.14193700  1
  C  C18  1  0.87690300  0.31702300  0.55130500  1
  C  C19  1  0.12309700  0.68297700  0.44869500  1
  C  C20  1  0.78608000  0.79175200  0.93772900  1
  C  C21  1  0.21392000  0.20824800  0.06227100  1
  C  C22  1  0.73675400  0.60536600  0.64901300  1
  C  C23  1  0.26324600  0.39463400  0.35098700  1
  C  C24  1  0.69126000  0.79022100  0.43745500  1
  C  C25  1  0.30874000  0.20977900  0.56254500  1
  C  C26  1  0.55466200  0.36976400  0.81145800  1
  C  C27  1  0.44533800  0.63023600  0.18854200  1
  C  C28  1  0.48102700  0.96942300  0.80628200  1
  C  C29  1  0.51897300  0.03057700  0.19371800  1
