# generated using pymatgen
data_Cu4NiC
_symmetry_space_group_name_H-M   'P 1'
_cell_length_a   5.07501143
_cell_length_b   8.79120897
_cell_length_c   7.98759205
_cell_angle_alpha   89.99075936
_cell_angle_beta   89.99641324
_cell_angle_gamma   90.00213773
_symmetry_Int_Tables_number   1
_chemical_formula_structural   Cu4NiC
_chemical_formula_sum   'Cu16 Ni4 C4'
_cell_volume   356.37029591
_cell_formula_units_Z   4
loop_
 _symmetry_equiv_pos_site_id
 _symmetry_equiv_pos_as_xyz
  1  'x, y, z'
loop_
 _atom_site_type_symbol
 _atom_site_label
 _atom_site_symmetry_multiplicity
 _atom_site_fract_x
 _atom_site_fract_y
 _atom_site_fract_z
 _atom_site_occupancy
  C  C0  1  0.00002800  0.99993900  0.50004500  1
  C  C1  1  0.49999200  0.49999200  0.49999100  1
  C  C2  1  0.49957700  0.50002300  0.99968000  1
  C  C3  1  0.00011500  0.99975800  0.00024500  1
  Ni  Ni4  1  0.50013200  0.16667200  0.78088600  1
  Ni  Ni5  1  0.99978900  0.66685200  0.78070700  1
  Ni  Ni6  1  0.99978200  0.33336700  0.21912200  1
  Ni  Ni7  1  0.50004300  0.83314300  0.21928600  1
  Cu  Cu8  1  0.49960300  0.16669400  0.59845100  1
  Cu  Cu9  1  0.99905700  0.66731200  0.59830500  1
  Cu  Cu10  1  0.99954000  0.33332400  0.40157600  1
  Cu  Cu11  1  0.49935600  0.83260900  0.40169300  1
  Cu  Cu12  1  0.76004500  0.11020900  0.84214500  1
  Cu  Cu13  1  0.25984800  0.61018300  0.84144300  1
  Cu  Cu14  1  0.28582500  0.06514700  0.84292800  1
  Cu  Cu15  1  0.78572700  0.56510900  0.84260700  1
  Cu  Cu16  1  0.25964500  0.38995800  0.15779400  1
  Cu  Cu17  1  0.76012700  0.88974900  0.15837300  1
  Cu  Cu18  1  0.45523100  0.32481700  0.84234400  1
  Cu  Cu19  1  0.95519200  0.82478700  0.84281800  1
  Cu  Cu20  1  0.78527000  0.43483900  0.15718000  1
  Cu  Cu21  1  0.28595000  0.93501000  0.15759300  1
  Cu  Cu22  1  0.95517700  0.17521200  0.15765400  1
  Cu  Cu23  1  0.45494300  0.67529800  0.15713300  1
