# generated using pymatgen
data_CuNiC7
_symmetry_space_group_name_H-M   'P 1'
_cell_length_a   13.18286700
_cell_length_b   13.18286700
_cell_length_c   13.18286700
_cell_angle_alpha   90.00000000
_cell_angle_beta   90.00000000
_cell_angle_gamma   90.00000000
_symmetry_Int_Tables_number   1
_chemical_formula_structural   CuNiC7
_chemical_formula_sum   'Cu8 Ni8 C56'
_cell_volume   2291.02385738
_cell_formula_units_Z   8
loop_
 _symmetry_equiv_pos_site_id
 _symmetry_equiv_pos_as_xyz
  1  'x, y, z'
loop_
 _atom_site_type_symbol
 _atom_site_label
 _atom_site_symmetry_multiplicity
 _atom_site_fract_x
 _atom_site_fract_y
 _atom_site_fract_z
 _atom_site_occupancy
  C  C0  1  0.21618200  0.21618200  0.21618200  1
  C  C1  1  0.78381800  0.78381800  0.78381800  1
  C  C2  1  0.28381800  0.78381800  0.71618200  1
  C  C3  1  0.78381800  0.71618200  0.28381800  1
  C  C4  1  0.71618200  0.21618200  0.28381800  1
  C  C5  1  0.21618200  0.28381800  0.71618200  1
  C  C6  1  0.71618200  0.28381800  0.78381800  1
  C  C7  1  0.28381800  0.71618200  0.21618200  1
  C  C8  1  0.01289800  0.26742700  0.03510500  1
  C  C9  1  0.98710200  0.73257300  0.96489500  1
  C  C10  1  0.48710200  0.73257300  0.53510500  1
  C  C11  1  0.98710200  0.76742700  0.46489500  1
  C  C12  1  0.03510500  0.01289800  0.26742700  1
  C  C13  1  0.51289800  0.26742700  0.46489500  1
  C  C14  1  0.01289800  0.23257300  0.53510500  1
  C  C15  1  0.96489500  0.98710200  0.73257300  1
  C  C16  1  0.51289800  0.23257300  0.96489500  1
  C  C17  1  0.53510500  0.48710200  0.73257300  1
  C  C18  1  0.48710200  0.76742700  0.03510500  1
  C  C19  1  0.46489500  0.51289800  0.26742700  1
  C  C20  1  0.46489500  0.98710200  0.76742700  1
  C  C21  1  0.53510500  0.01289800  0.23257300  1
  C  C22  1  0.96489500  0.51289800  0.23257300  1
  C  C23  1  0.03510500  0.48710200  0.76742700  1
  C  C24  1  0.26742700  0.03510500  0.01289800  1
  C  C25  1  0.73257300  0.96489500  0.98710200  1
  C  C26  1  0.76742700  0.46489500  0.98710200  1
  C  C27  1  0.23257300  0.53510500  0.01289800  1
  C  C28  1  0.23257300  0.96489500  0.51289800  1
  C  C29  1  0.76742700  0.03510500  0.48710200  1
  C  C30  1  0.73257300  0.53510500  0.48710200  1
  C  C31  1  0.26742700  0.46489500  0.51289800  1
  Ni  Ni32  1  0.10200200  0.10200200  0.10200200  1
  Ni  Ni33  1  0.89799800  0.89799800  0.89799800  1
  Ni  Ni34  1  0.39799800  0.89799800  0.60200200  1
  Ni  Ni35  1  0.89799800  0.60200200  0.39799800  1
  Ni  Ni36  1  0.60200200  0.10200200  0.39799800  1
  Ni  Ni37  1  0.10200200  0.39799800  0.60200200  1
  Ni  Ni38  1  0.60200200  0.39799800  0.89799800  1
  Ni  Ni39  1  0.39799800  0.60200200  0.10200200  1
  Cu  Cu40  1  0.45180000  0.45180000  0.45180000  1
  Cu  Cu41  1  0.54820000  0.54820000  0.54820000  1
  Cu  Cu42  1  0.04820000  0.54820000  0.95180000  1
  Cu  Cu43  1  0.54820000  0.95180000  0.04820000  1
  Cu  Cu44  1  0.95180000  0.45180000  0.04820000  1
  Cu  Cu45  1  0.45180000  0.04820000  0.95180000  1
  Cu  Cu46  1  0.95180000  0.04820000  0.54820000  1
  Cu  Cu47  1  0.04820000  0.95180000  0.45180000  1
  C  C48  1  0.18450600  0.43486000  0.25301600  1
  C  C49  1  0.81549400  0.56514000  0.74698400  1
  C  C50  1  0.31549400  0.56514000  0.75301600  1
  C  C51  1  0.81549400  0.93486000  0.24698400  1
  C  C52  1  0.25301600  0.18450600  0.43486000  1
  C  C53  1  0.68450600  0.43486000  0.24698400  1
  C  C54  1  0.18450600  0.06514000  0.75301600  1
  C  C55  1  0.74698400  0.81549400  0.56514000  1
  C  C56  1  0.68450600  0.06514000  0.74698400  1
  C  C57  1  0.75301600  0.31549400  0.56514000  1
  C  C58  1  0.31549400  0.93486000  0.25301600  1
  C  C59  1  0.24698400  0.68450600  0.43486000  1
  C  C60  1  0.24698400  0.81549400  0.93486000  1
  C  C61  1  0.75301600  0.18450600  0.06514000  1
  C  C62  1  0.74698400  0.68450600  0.06514000  1
  C  C63  1  0.25301600  0.31549400  0.93486000  1
  C  C64  1  0.43486000  0.25301600  0.18450600  1
  C  C65  1  0.56514000  0.74698400  0.81549400  1
  C  C66  1  0.93486000  0.24698400  0.81549400  1
  C  C67  1  0.06514000  0.75301600  0.18450600  1
  C  C68  1  0.06514000  0.74698400  0.68450600  1
  C  C69  1  0.93486000  0.25301600  0.31549400  1
  C  C70  1  0.56514000  0.75301600  0.31549400  1
  C  C71  1  0.43486000  0.24698400  0.68450600  1
