# generated using pymatgen
data_Cu12Ni2C
_symmetry_space_group_name_H-M   'P 1'
_cell_length_a   5.68336400
_cell_length_b   11.92855600
_cell_length_c   14.38660700
_cell_angle_alpha   90.00000000
_cell_angle_beta   90.00000000
_cell_angle_gamma   90.00000000
_symmetry_Int_Tables_number   1
_chemical_formula_structural   Cu12Ni2C
_chemical_formula_sum   'Cu48 Ni8 C4'
_cell_volume   975.33032129
_cell_formula_units_Z   4
loop_
 _symmetry_equiv_pos_site_id
 _symmetry_equiv_pos_as_xyz
  1  'x, y, z'
loop_
 _atom_site_type_symbol
 _atom_site_label
 _atom_site_symmetry_multiplicity
 _atom_site_fract_x
 _atom_site_fract_y
 _atom_site_fract_z
 _atom_site_occupancy
  C  C0  1  0.88185700  0.75000000  0.65972400  1
  C  C1  1  0.61814300  0.75000000  0.15972400  1
  C  C2  1  0.11814300  0.25000000  0.34027600  1
  C  C3  1  0.38185700  0.25000000  0.84027600  1
  Ni  Ni4  1  0.11687000  0.93817000  0.85196100  1
  Ni  Ni5  1  0.38313000  0.56183000  0.35196100  1
  Ni  Ni6  1  0.88313000  0.43817000  0.14803900  1
  Ni  Ni7  1  0.61687000  0.06183000  0.64803900  1
  Ni  Ni8  1  0.88313000  0.06183000  0.14803900  1
  Ni  Ni9  1  0.61687000  0.43817000  0.64803900  1
  Ni  Ni10  1  0.11687000  0.56183000  0.85196100  1
  Ni  Ni11  1  0.38313000  0.93817000  0.35196100  1
  Cu  Cu12  1  0.14140500  0.05823100  0.82958600  1
  Cu  Cu13  1  0.35859500  0.44176900  0.32958600  1
  Cu  Cu14  1  0.85859500  0.55823100  0.17041400  1
  Cu  Cu15  1  0.64140500  0.94176900  0.67041400  1
  Cu  Cu16  1  0.85859500  0.94176900  0.17041400  1
  Cu  Cu17  1  0.64140500  0.55823100  0.67041400  1
  Cu  Cu18  1  0.14140500  0.44176900  0.82958600  1
  Cu  Cu19  1  0.35859500  0.05823100  0.32958600  1
  Cu  Cu20  1  0.09825600  0.87552700  0.76129300  1
  Cu  Cu21  1  0.40174400  0.62447300  0.26129300  1
  Cu  Cu22  1  0.90174400  0.37552700  0.23870700  1
  Cu  Cu23  1  0.59825600  0.12447300  0.73870700  1
  Cu  Cu24  1  0.90174400  0.12447300  0.23870700  1
  Cu  Cu25  1  0.59825600  0.37552700  0.73870700  1
  Cu  Cu26  1  0.09825600  0.62447300  0.76129300  1
  Cu  Cu27  1  0.40174400  0.87552700  0.26129300  1
  Cu  Cu28  1  0.90776100  0.92109000  0.91146000  1
  Cu  Cu29  1  0.59223900  0.57891000  0.41146000  1
  Cu  Cu30  1  0.09223900  0.42108900  0.08854000  1
  Cu  Cu31  1  0.40776100  0.07891000  0.58854000  1
  Cu  Cu32  1  0.09223900  0.07891000  0.08854000  1
  Cu  Cu33  1  0.40776100  0.42108900  0.58854000  1
  Cu  Cu34  1  0.90776100  0.57891000  0.91146000  1
  Cu  Cu35  1  0.59223900  0.92109000  0.41146000  1
  Cu  Cu36  1  0.32140500  0.89368800  0.90335200  1
  Cu  Cu37  1  0.17859500  0.60631200  0.40335200  1
  Cu  Cu38  1  0.67859500  0.39368800  0.09664800  1
  Cu  Cu39  1  0.82140500  0.10631200  0.59664800  1
  Cu  Cu40  1  0.67859500  0.10631200  0.09664800  1
  Cu  Cu41  1  0.82140500  0.39368800  0.59664800  1
  Cu  Cu42  1  0.32140500  0.60631200  0.90335200  1
  Cu  Cu43  1  0.17859500  0.89368800  0.40335200  1
  Cu  Cu44  1  0.06675900  0.84457300  0.58987500  1
  Cu  Cu45  1  0.43324100  0.65542700  0.08987500  1
  Cu  Cu46  1  0.93324100  0.34457300  0.41012500  1
  Cu  Cu47  1  0.56675900  0.15542700  0.91012500  1
  Cu  Cu48  1  0.93324100  0.15542700  0.41012500  1
  Cu  Cu49  1  0.56675900  0.34457300  0.91012500  1
  Cu  Cu50  1  0.06675900  0.65542700  0.58987500  1
  Cu  Cu51  1  0.43324100  0.84457300  0.08987500  1
  Cu  Cu52  1  0.69801500  0.75000000  0.75935200  1
  Cu  Cu53  1  0.80198500  0.75000000  0.25935200  1
  Cu  Cu54  1  0.30198500  0.25000000  0.24064800  1
  Cu  Cu55  1  0.19801500  0.25000000  0.74064800  1
  Cu  Cu56  1  0.68779300  0.75000000  0.55618400  1
  Cu  Cu57  1  0.81220700  0.75000000  0.05618400  1
  Cu  Cu58  1  0.31220700  0.25000000  0.44381600  1
  Cu  Cu59  1  0.18779300  0.25000000  0.94381600  1
