# generated using pymatgen
data_Cu18(Ni2C)5
_symmetry_space_group_name_H-M   'P 1'
_cell_length_a   7.60529500
_cell_length_b   9.64995076
_cell_length_c   11.14880913
_cell_angle_alpha   112.35055413
_cell_angle_beta   90.07130619
_cell_angle_gamma   105.38736641
_symmetry_Int_Tables_number   1
_chemical_formula_structural   Cu18(Ni2C)5
_chemical_formula_sum   'Cu18 Ni10 C5'
_cell_volume   724.82074054
_cell_formula_units_Z   1
loop_
 _symmetry_equiv_pos_site_id
 _symmetry_equiv_pos_as_xyz
  1  'x, y, z'
loop_
 _atom_site_type_symbol
 _atom_site_label
 _atom_site_symmetry_multiplicity
 _atom_site_fract_x
 _atom_site_fract_y
 _atom_site_fract_z
 _atom_site_occupancy
  C  C0  1  0.59530200  0.61265400  0.40010800  1
  C  C1  1  0.40469800  0.38734600  0.59989200  1
  C  C2  1  0.00000000  0.00000000  0.00000000  1
  C  C3  1  0.41469100  0.94222800  0.80965000  1
  C  C4  1  0.58530900  0.05777200  0.19035000  1
  Ni  Ni5  1  0.19699900  0.66325400  0.63473100  1
  Ni  Ni6  1  0.80300100  0.33674600  0.36526900  1
  Ni  Ni7  1  0.67034300  0.77179200  0.75063600  1
  Ni  Ni8  1  0.32965700  0.22820800  0.24936400  1
  Ni  Ni9  1  0.28216500  0.87957100  0.01151300  1
  Ni  Ni10  1  0.71783500  0.12042900  0.98848700  1
  Ni  Ni11  1  0.83042800  0.90835800  0.15573800  1
  Ni  Ni12  1  0.16957200  0.09164200  0.84426200  1
  Ni  Ni13  1  0.40646000  0.90192500  0.33314900  1
  Ni  Ni14  1  0.59354000  0.09807500  0.66685100  1
  Cu  Cu15  1  0.88695300  0.81716800  0.51973900  1
  Cu  Cu16  1  0.11304700  0.18283200  0.48026100  1
  Cu  Cu17  1  0.52446700  0.80142800  0.36675200  1
  Cu  Cu18  1  0.47553300  0.19857200  0.63324800  1
  Cu  Cu19  1  0.44892900  0.57468800  0.10377200  1
  Cu  Cu20  1  0.55107100  0.42531200  0.89622800  1
  Cu  Cu21  1  0.38085600  0.38688200  0.38705800  1
  Cu  Cu22  1  0.61914400  0.61311800  0.61294200  1
  Cu  Cu23  1  0.79257100  0.47257000  0.31330100  1
  Cu  Cu24  1  0.20742900  0.52743000  0.68669900  1
  Cu  Cu25  1  0.47276400  0.52462500  0.90199800  1
  Cu  Cu26  1  0.52723600  0.47537500  0.09800200  1
  Cu  Cu27  1  0.97580100  0.07014900  0.46105600  1
  Cu  Cu28  1  0.02419900  0.92985100  0.53894400  1
  Cu  Cu29  1  0.97767300  0.57830000  0.10434200  1
  Cu  Cu30  1  0.02232700  0.42170000  0.89565800  1
  Cu  Cu31  1  0.90897100  0.58075000  0.00554400  1
  Cu  Cu32  1  0.09102900  0.41925000  0.99445600  1
