# generated using pymatgen
data_Cu14Ni2C9
_symmetry_space_group_name_H-M   'P 1'
_cell_length_a   10.23295100
_cell_length_b   11.80302300
_cell_length_c   15.39930000
_cell_angle_alpha   90.00000000
_cell_angle_beta   90.00000000
_cell_angle_gamma   90.00000000
_symmetry_Int_Tables_number   1
_chemical_formula_structural   Cu14Ni2C9
_chemical_formula_sum   'Cu56 Ni8 C36'
_cell_volume   1859.92369674
_cell_formula_units_Z   4
loop_
 _symmetry_equiv_pos_site_id
 _symmetry_equiv_pos_as_xyz
  1  'x, y, z'
loop_
 _atom_site_type_symbol
 _atom_site_label
 _atom_site_symmetry_multiplicity
 _atom_site_fract_x
 _atom_site_fract_y
 _atom_site_fract_z
 _atom_site_occupancy
  C  C0  1  0.82058700  0.27578200  0.79170800  1
  C  C1  1  0.82058700  0.72421800  0.79170800  1
  C  C2  1  0.82058700  0.27578200  0.20829200  1
  C  C3  1  0.82058700  0.72421800  0.20829200  1
  C  C4  1  0.17941300  0.22421800  0.70829200  1
  C  C5  1  0.17941300  0.77578200  0.70829200  1
  C  C6  1  0.17941300  0.22421800  0.29170800  1
  C  C7  1  0.17941300  0.77578200  0.29170800  1
  C  C8  1  0.63491600  0.00000000  0.29422600  1
  C  C9  1  0.63491600  0.00000000  0.70577400  1
  C  C10  1  0.36508400  0.50000000  0.20577400  1
  C  C11  1  0.36508400  0.50000000  0.79422600  1
  C  C12  1  0.35217200  0.50000000  0.50000000  1
  C  C13  1  0.64782800  0.00000000  0.00000000  1
  C  C14  1  0.83264500  0.26424000  0.50000000  1
  C  C15  1  0.83264500  0.73576000  0.50000000  1
  C  C16  1  0.16735500  0.23576000  0.00000000  1
  C  C17  1  0.16735500  0.76424000  0.00000000  1
  C  C18  1  0.32544500  0.00000000  0.50000000  1
  C  C19  1  0.67455500  0.50000000  0.00000000  1
  C  C20  1  0.01707500  0.50000000  0.38141800  1
  C  C21  1  0.01707500  0.50000000  0.61858200  1
  C  C22  1  0.98292500  0.00000000  0.11858200  1
  C  C23  1  0.98292500  0.00000000  0.88141800  1
  C  C24  1  0.50156600  0.25266600  0.38349500  1
  C  C25  1  0.50156600  0.74733400  0.38349500  1
  C  C26  1  0.50156600  0.25266600  0.61650500  1
  C  C27  1  0.50156600  0.74733400  0.61650500  1
  C  C28  1  0.49843400  0.24733400  0.11650500  1
  C  C29  1  0.49843400  0.75266600  0.11650500  1
  C  C30  1  0.49843400  0.24733400  0.88349500  1
  C  C31  1  0.49843400  0.75266600  0.88349500  1
  C  C32  1  0.01646300  0.50000000  0.88259800  1
  C  C33  1  0.01646300  0.50000000  0.11740200  1
  C  C34  1  0.98353700  0.00000000  0.61740200  1
  C  C35  1  0.98353700  0.00000000  0.38259800  1
  Ni  Ni36  1  0.65575600  0.00000000  0.50000000  1
  Ni  Ni37  1  0.34424400  0.50000000  0.00000000  1
  Ni  Ni38  1  0.67891000  0.50000000  0.50000000  1
  Ni  Ni39  1  0.32109000  0.00000000  0.00000000  1
  Ni  Ni40  1  0.16699900  0.75415700  0.50000000  1
  Ni  Ni41  1  0.16699900  0.24584300  0.50000000  1
  Ni  Ni42  1  0.83300100  0.74584300  0.00000000  1
  Ni  Ni43  1  0.83300100  0.25415700  0.00000000  1
  Cu  Cu44  1  0.01186400  0.50000000  0.50000000  1
  Cu  Cu45  1  0.98813600  0.00000000  0.00000000  1
  Cu  Cu46  1  0.94432200  0.37616500  0.34601100  1
  Cu  Cu47  1  0.94432200  0.62383500  0.34601100  1
  Cu  Cu48  1  0.94432200  0.37616500  0.65398900  1
  Cu  Cu49  1  0.94432200  0.62383500  0.65398900  1
  Cu  Cu50  1  0.05567800  0.12383500  0.15398900  1
  Cu  Cu51  1  0.05567800  0.87616500  0.15398900  1
  Cu  Cu52  1  0.05567800  0.12383500  0.84601100  1
  Cu  Cu53  1  0.05567800  0.87616500  0.84601100  1
  Cu  Cu54  1  0.17686000  0.50000000  0.34847300  1
  Cu  Cu55  1  0.17686000  0.50000000  0.65152700  1
  Cu  Cu56  1  0.82314000  0.00000000  0.15152700  1
  Cu  Cu57  1  0.82314000  0.00000000  0.84847300  1
  Cu  Cu58  1  0.65857400  0.23918300  0.34496900  1
  Cu  Cu59  1  0.65857400  0.76081700  0.34496900  1
  Cu  Cu60  1  0.65857400  0.23918300  0.65503100  1
  Cu  Cu61  1  0.65857400  0.76081700  0.65503100  1
  Cu  Cu62  1  0.34142600  0.26081700  0.15503100  1
  Cu  Cu63  1  0.34142600  0.73918300  0.15503100  1
  Cu  Cu64  1  0.34142600  0.26081700  0.84496900  1
  Cu  Cu65  1  0.34142600  0.73918300  0.84496900  1
  Cu  Cu66  1  0.41842400  0.13016000  0.35927100  1
  Cu  Cu67  1  0.41842400  0.86984000  0.35927100  1
  Cu  Cu68  1  0.41842400  0.13016000  0.64072900  1
  Cu  Cu69  1  0.41842400  0.86984000  0.64072900  1
  Cu  Cu70  1  0.58157600  0.36984000  0.14072900  1
  Cu  Cu71  1  0.58157600  0.63016000  0.14072900  1
  Cu  Cu72  1  0.58157600  0.36984000  0.85927100  1
  Cu  Cu73  1  0.58157600  0.63016000  0.85927100  1
  Cu  Cu74  1  0.41284400  0.36297600  0.34191800  1
  Cu  Cu75  1  0.41284400  0.63702400  0.34191800  1
  Cu  Cu76  1  0.41284400  0.36297600  0.65808200  1
  Cu  Cu77  1  0.41284400  0.63702400  0.65808200  1
  Cu  Cu78  1  0.58715600  0.13702400  0.15808200  1
  Cu  Cu79  1  0.58715600  0.86297600  0.15808200  1
  Cu  Cu80  1  0.58715600  0.13702400  0.84191800  1
  Cu  Cu81  1  0.58715600  0.86297600  0.84191800  1
  Cu  Cu82  1  0.50774800  0.27313600  0.50000000  1
  Cu  Cu83  1  0.50774800  0.72686400  0.50000000  1
  Cu  Cu84  1  0.49225200  0.22686400  0.00000000  1
  Cu  Cu85  1  0.49225200  0.77313600  0.00000000  1
  Cu  Cu86  1  0.08836000  0.37951900  0.84226500  1
  Cu  Cu87  1  0.08836000  0.62048100  0.84226500  1
  Cu  Cu88  1  0.08836000  0.37951900  0.15773500  1
  Cu  Cu89  1  0.08836000  0.62048100  0.15773500  1
  Cu  Cu90  1  0.91164000  0.12048100  0.65773500  1
  Cu  Cu91  1  0.91164000  0.87951900  0.65773500  1
  Cu  Cu92  1  0.91164000  0.12048100  0.34226500  1
  Cu  Cu93  1  0.91164000  0.87951900  0.34226500  1
  Cu  Cu94  1  0.85295300  0.50000000  0.85525000  1
  Cu  Cu95  1  0.85295300  0.50000000  0.14475000  1
  Cu  Cu96  1  0.14704700  0.00000000  0.64475000  1
  Cu  Cu97  1  0.14704700  0.00000000  0.35525000  1
  Cu  Cu98  1  0.03025400  0.50000000  0.00000000  1
  Cu  Cu99  1  0.96974600  0.00000000  0.50000000  1
