# generated using pymatgen
data_Cu2Ni2C11
_symmetry_space_group_name_H-M   'P 1'
_cell_length_a   5.34945721
_cell_length_b   5.34945721
_cell_length_c   13.03258300
_cell_angle_alpha   90.00000000
_cell_angle_beta   90.00000000
_cell_angle_gamma   113.98130780
_symmetry_Int_Tables_number   1
_chemical_formula_structural   Cu2Ni2C11
_chemical_formula_sum   'Cu4 Ni4 C22'
_cell_volume   340.75571767
_cell_formula_units_Z   2
loop_
 _symmetry_equiv_pos_site_id
 _symmetry_equiv_pos_as_xyz
  1  'x, y, z'
loop_
 _atom_site_type_symbol
 _atom_site_label
 _atom_site_symmetry_multiplicity
 _atom_site_fract_x
 _atom_site_fract_y
 _atom_site_fract_z
 _atom_site_occupancy
  C  C0  1  0.67373100  0.32626900  0.75000000  1
  C  C1  1  0.32626900  0.67373100  0.25000000  1
  Ni  Ni2  1  0.00000000  0.50000000  0.50000000  1
  Ni  Ni3  1  0.00000000  0.50000000  0.00000000  1
  Ni  Ni4  1  0.50000000  0.00000000  0.00000000  1
  Ni  Ni5  1  0.50000000  0.00000000  0.50000000  1
  Cu  Cu6  1  0.97918200  0.02081800  0.13098500  1
  Cu  Cu7  1  0.02081800  0.97918200  0.86901500  1
  Cu  Cu8  1  0.02081800  0.97918200  0.63098500  1
  Cu  Cu9  1  0.97918200  0.02081800  0.36901500  1
  C  C10  1  0.33143400  0.66856600  0.75000000  1
  C  C11  1  0.66856600  0.33143400  0.25000000  1
  C  C12  1  0.89063000  0.64634500  0.61632600  1
  C  C13  1  0.10937000  0.35365500  0.38367400  1
  C  C14  1  0.10937000  0.35365500  0.11632600  1
  C  C15  1  0.35365500  0.10937000  0.88367400  1
  C  C16  1  0.89063000  0.64634500  0.88367400  1
  C  C17  1  0.64634500  0.89063000  0.11632600  1
  C  C18  1  0.64634500  0.89063000  0.38367400  1
  C  C19  1  0.35365500  0.10937000  0.61632600  1
  C  C20  1  0.34984000  0.65016000  0.55927200  1
  C  C21  1  0.65016000  0.34984000  0.44072800  1
  C  C22  1  0.65016000  0.34984000  0.05927200  1
  C  C23  1  0.34984000  0.65016000  0.94072800  1
  C  C24  1  0.95213600  0.04786400  0.75000000  1
  C  C25  1  0.04786400  0.95213600  0.25000000  1
  C  C26  1  0.86328300  0.13671700  0.56582600  1
  C  C27  1  0.13671700  0.86328300  0.43417400  1
  C  C28  1  0.13671700  0.86328300  0.06582600  1
  C  C29  1  0.86328300  0.13671700  0.93417400  1
