# generated using pymatgen
data_Cu6NiC
_symmetry_space_group_name_H-M   'P 1'
_cell_length_a   5.34652600
_cell_length_b   7.22320500
_cell_length_c   11.21706100
_cell_angle_alpha   90.00000000
_cell_angle_beta   90.00000000
_cell_angle_gamma   90.00000000
_symmetry_Int_Tables_number   1
_chemical_formula_structural   Cu6NiC
_chemical_formula_sum   'Cu12 Ni2 C2'
_cell_volume   433.19227703
_cell_formula_units_Z   2
loop_
 _symmetry_equiv_pos_site_id
 _symmetry_equiv_pos_as_xyz
  1  'x, y, z'
loop_
 _atom_site_type_symbol
 _atom_site_label
 _atom_site_symmetry_multiplicity
 _atom_site_fract_x
 _atom_site_fract_y
 _atom_site_fract_z
 _atom_site_occupancy
  C  C0  1  0.00000000  0.50000000  0.37062200  1
  C  C1  1  0.00000000  0.00000000  0.87062200  1
  Ni  Ni2  1  0.50000000  0.50000000  0.14859000  1
  Ni  Ni3  1  0.50000000  0.00000000  0.64859000  1
  Cu  Cu4  1  0.00000000  0.29215300  0.09661500  1
  Cu  Cu5  1  0.00000000  0.70784700  0.09661500  1
  Cu  Cu6  1  0.00000000  0.50000000  0.82317700  1
  Cu  Cu7  1  0.50000000  0.28973800  0.90924600  1
  Cu  Cu8  1  0.50000000  0.71026200  0.90924600  1
  Cu  Cu9  1  0.50000000  0.50000000  0.64588900  1
  Cu  Cu10  1  0.00000000  0.79215300  0.59661500  1
  Cu  Cu11  1  0.00000000  0.20784700  0.59661500  1
  Cu  Cu12  1  0.00000000  0.00000000  0.32317700  1
  Cu  Cu13  1  0.50000000  0.78973800  0.40924600  1
  Cu  Cu14  1  0.50000000  0.21026200  0.40924600  1
  Cu  Cu15  1  0.50000000  0.00000000  0.14588900  1
