# generated using pymatgen
data_CuNi3C7
_symmetry_space_group_name_H-M   'P 1'
_cell_length_a   7.13292252
_cell_length_b   7.13292252
_cell_length_c   7.13292304
_cell_angle_alpha   87.87233872
_cell_angle_beta   87.87233872
_cell_angle_gamma   87.87233764
_symmetry_Int_Tables_number   1
_chemical_formula_structural   CuNi3C7
_chemical_formula_sum   'Cu2 Ni6 C14'
_cell_volume   362.18052044
_cell_formula_units_Z   2
loop_
 _symmetry_equiv_pos_site_id
 _symmetry_equiv_pos_as_xyz
  1  'x, y, z'
loop_
 _atom_site_type_symbol
 _atom_site_label
 _atom_site_symmetry_multiplicity
 _atom_site_fract_x
 _atom_site_fract_y
 _atom_site_fract_z
 _atom_site_occupancy
  C  C0  1  0.25000000  0.25000000  0.25000000  1
  C  C1  1  0.75000000  0.75000000  0.75000000  1
  Ni  Ni2  1  0.40269000  0.75000000  0.09731000  1
  Ni  Ni3  1  0.09731000  0.40269000  0.75000000  1
  Ni  Ni4  1  0.59731000  0.25000000  0.90269000  1
  Ni  Ni5  1  0.90269000  0.59731000  0.25000000  1
  Ni  Ni6  1  0.75000000  0.09731000  0.40269000  1
  Ni  Ni7  1  0.25000000  0.90269000  0.59731000  1
  Cu  Cu8  1  0.00000000  0.00000000  0.00000000  1
  Cu  Cu9  1  0.50000000  0.50000000  0.50000000  1
  C  C10  1  0.50088600  0.78513500  0.49634200  1
  C  C11  1  0.49634200  0.50088600  0.78513500  1
  C  C12  1  0.78513500  0.49634200  0.50088600  1
  C  C13  1  0.99911400  0.00365800  0.71486500  1
  C  C14  1  0.71486500  0.99911400  0.00365800  1
  C  C15  1  0.00365800  0.71486500  0.99911400  1
  C  C16  1  0.49911400  0.21486500  0.50365800  1
  C  C17  1  0.50365800  0.49911400  0.21486500  1
  C  C18  1  0.21486500  0.50365800  0.49911400  1
  C  C19  1  0.00088600  0.99634200  0.28513500  1
  C  C20  1  0.99634200  0.28513500  0.00088600  1
  C  C21  1  0.28513500  0.00088600  0.99634200  1
