# generated using pymatgen
data_Cu(NiC6)2
_symmetry_space_group_name_H-M   'P 1'
_cell_length_a   8.56120712
_cell_length_b   8.56120712
_cell_length_c   10.68651185
_cell_angle_alpha   65.97037845
_cell_angle_beta   65.97037845
_cell_angle_gamma   39.53997910
_symmetry_Int_Tables_number   1
_chemical_formula_structural   Cu(NiC6)2
_chemical_formula_sum   'Cu2 Ni4 C24'
_cell_volume   449.53619905
_cell_formula_units_Z   2
loop_
 _symmetry_equiv_pos_site_id
 _symmetry_equiv_pos_as_xyz
  1  'x, y, z'
loop_
 _atom_site_type_symbol
 _atom_site_label
 _atom_site_symmetry_multiplicity
 _atom_site_fract_x
 _atom_site_fract_y
 _atom_site_fract_z
 _atom_site_occupancy
  Ni  Ni0  1  0.37202800  0.99241300  0.45433600  1
  Ni  Ni1  1  0.00758700  0.62797200  0.04566400  1
  Ni  Ni2  1  0.62797200  0.00758700  0.54566400  1
  Ni  Ni3  1  0.99241300  0.37202800  0.95433600  1
  Cu  Cu4  1  0.30413400  0.69586600  0.25000000  1
  Cu  Cu5  1  0.69586600  0.30413400  0.75000000  1
  C  C6  1  0.59597500  0.95154200  0.07418000  1
  C  C7  1  0.04845800  0.40402500  0.42582000  1
  C  C8  1  0.40402500  0.04845800  0.92582000  1
  C  C9  1  0.95154200  0.59597500  0.57418000  1
  C  C10  1  0.58311800  0.29189700  0.16530200  1
  C  C11  1  0.70810300  0.41688200  0.33469800  1
  C  C12  1  0.98017000  0.33219400  0.75812800  1
  C  C13  1  0.66780600  0.01983000  0.74187200  1
  C  C14  1  0.01983000  0.66780600  0.24187200  1
  C  C15  1  0.33219400  0.98017000  0.25812800  1
  C  C16  1  0.01590200  0.91784600  0.92773500  1
  C  C17  1  0.08215400  0.98409800  0.57226500  1
  C  C18  1  0.98409800  0.08215400  0.07226500  1
  C  C19  1  0.91784600  0.01590200  0.42773500  1
  C  C20  1  0.33316100  0.43277600  0.50415700  1
  C  C21  1  0.56722400  0.66683900  0.99584300  1
  C  C22  1  0.66683900  0.56722400  0.49584300  1
  C  C23  1  0.43277600  0.33316100  0.00415700  1
  C  C24  1  0.99477300  0.64911500  0.83558600  1
  C  C25  1  0.35088500  0.00522700  0.66441400  1
  C  C26  1  0.00522700  0.35088500  0.16441400  1
  C  C27  1  0.64911500  0.99477300  0.33558600  1
  C  C28  1  0.29189700  0.58311800  0.66530200  1
  C  C29  1  0.41688200  0.70810300  0.83469800  1
