# generated using pymatgen
data_Cu3Ni9C20
_symmetry_space_group_name_H-M   'P 1'
_cell_length_a   5.91251818
_cell_length_b   5.91251818
_cell_length_c   23.04082500
_cell_angle_alpha   90.00000000
_cell_angle_beta   90.00000000
_cell_angle_gamma   120.00000205
_symmetry_Int_Tables_number   1
_chemical_formula_structural   Cu3Ni9C20
_chemical_formula_sum   'Cu6 Ni18 C40'
_cell_volume   697.54724350
_cell_formula_units_Z   2
loop_
 _symmetry_equiv_pos_site_id
 _symmetry_equiv_pos_as_xyz
  1  'x, y, z'
loop_
 _atom_site_type_symbol
 _atom_site_label
 _atom_site_symmetry_multiplicity
 _atom_site_fract_x
 _atom_site_fract_y
 _atom_site_fract_z
 _atom_site_occupancy
  C  C0  1  0.66666700  0.33333300  0.24940600  1
  C  C1  1  0.33333300  0.66666700  0.74940600  1
  Ni  Ni2  1  0.83166100  0.66332100  0.39228400  1
  Ni  Ni3  1  0.83166100  0.16833900  0.39228400  1
  Ni  Ni4  1  0.33667900  0.16833900  0.39228400  1
  Ni  Ni5  1  0.16769000  0.33537900  0.60805300  1
  Ni  Ni6  1  0.16769000  0.83231000  0.60805300  1
  Ni  Ni7  1  0.66462100  0.83231000  0.60805300  1
  Ni  Ni8  1  0.16833900  0.33667900  0.89228400  1
  Ni  Ni9  1  0.16833900  0.83166100  0.89228400  1
  Ni  Ni10  1  0.66332100  0.83166100  0.89228400  1
  Ni  Ni11  1  0.83231000  0.66462100  0.10805300  1
  Ni  Ni12  1  0.83231000  0.16769000  0.10805300  1
  Ni  Ni13  1  0.33537900  0.16769000  0.10805300  1
  Ni  Ni14  1  0.66666700  0.33333300  0.69123600  1
  Ni  Ni15  1  0.33333300  0.66666700  0.30877100  1
  Ni  Ni16  1  0.33333300  0.66666700  0.19123600  1
  Ni  Ni17  1  0.66666700  0.33333300  0.80877100  1
  Ni  Ni18  1  0.00000000  0.00000000  0.50006300  1
  Ni  Ni19  1  0.00000000  0.00000000  0.00006300  1
  Cu  Cu20  1  0.66666700  0.33333300  0.52785800  1
  Cu  Cu21  1  0.33333300  0.66666700  0.47265800  1
  Cu  Cu22  1  0.33333300  0.66666700  0.02785800  1
  Cu  Cu23  1  0.66666700  0.33333300  0.97265800  1
  Cu  Cu24  1  0.00000000  0.00000000  0.75430500  1
  Cu  Cu25  1  0.00000000  0.00000000  0.25430500  1
  C  C26  1  0.00000000  0.00000000  0.65153700  1
  C  C27  1  0.00000000  0.00000000  0.34792200  1
  C  C28  1  0.00000000  0.00000000  0.15153700  1
  C  C29  1  0.00000000  0.00000000  0.84792200  1
  C  C30  1  0.66666700  0.33333300  0.44478600  1
  C  C31  1  0.33333300  0.66666700  0.55524700  1
  C  C32  1  0.33333300  0.66666700  0.94478600  1
  C  C33  1  0.66666700  0.33333300  0.05524700  1
  C  C34  1  0.84288900  0.68577700  0.55268400  1
  C  C35  1  0.84288900  0.15711100  0.55268400  1
  C  C36  1  0.31422300  0.15711100  0.55268400  1
  C  C37  1  0.15711000  0.31422100  0.44717700  1
  C  C38  1  0.15711000  0.84289000  0.44717700  1
  C  C39  1  0.68577900  0.84289000  0.44717700  1
  C  C40  1  0.15711100  0.31422300  0.05268400  1
  C  C41  1  0.15711100  0.84288900  0.05268400  1
  C  C42  1  0.68577700  0.84288900  0.05268400  1
  C  C43  1  0.84289000  0.68577900  0.94717700  1
  C  C44  1  0.84289000  0.15711000  0.94717700  1
  C  C45  1  0.31422100  0.15711000  0.94717700  1
  C  C46  1  0.81840600  0.63681300  0.75033700  1
  C  C47  1  0.81840600  0.18159400  0.75033700  1
  C  C48  1  0.36318700  0.18159400  0.75033700  1
  C  C49  1  0.18159400  0.36318700  0.25033700  1
  C  C50  1  0.18159400  0.81840600  0.25033700  1
  C  C51  1  0.63681300  0.81840600  0.25033700  1
  C  C52  1  0.49289600  0.98579200  0.65154000  1
  C  C53  1  0.49289600  0.50710400  0.65154000  1
  C  C54  1  0.01420800  0.50710400  0.65154000  1
  C  C55  1  0.50766000  0.01532100  0.34855700  1
  C  C56  1  0.50766000  0.49234000  0.34855700  1
  C  C57  1  0.98467900  0.49234000  0.34855700  1
  C  C58  1  0.50710400  0.01420800  0.15154000  1
  C  C59  1  0.50710400  0.49289600  0.15154000  1
  C  C60  1  0.98579200  0.49289600  0.15154000  1
  C  C61  1  0.49234000  0.98467900  0.84855700  1
  C  C62  1  0.49234000  0.50766000  0.84855700  1
  C  C63  1  0.01532100  0.50766000  0.84855700  1
