# generated using pymatgen
data_CuNi2C3
_symmetry_space_group_name_H-M   'P 1'
_cell_length_a   5.95831538
_cell_length_b   5.92041960
_cell_length_c   5.60066800
_cell_angle_alpha   90.00000000
_cell_angle_beta   90.00000000
_cell_angle_gamma   119.78983682
_symmetry_Int_Tables_number   1
_chemical_formula_structural   CuNi2C3
_chemical_formula_sum   'Cu2 Ni4 C6'
_cell_volume   171.45978323
_cell_formula_units_Z   2
loop_
 _symmetry_equiv_pos_site_id
 _symmetry_equiv_pos_as_xyz
  1  'x, y, z'
loop_
 _atom_site_type_symbol
 _atom_site_label
 _atom_site_symmetry_multiplicity
 _atom_site_fract_x
 _atom_site_fract_y
 _atom_site_fract_z
 _atom_site_occupancy
  Ni  Ni0  1  0.34736800  0.33927800  0.49600600  1
  Ni  Ni1  1  0.65263200  0.99191000  0.49600600  1
  Ni  Ni2  1  0.65263200  0.66072200  0.99600600  1
  Ni  Ni3  1  0.34736800  0.00809000  0.99600600  1
  Cu  Cu4  1  0.00000000  0.68614400  0.48678300  1
  Cu  Cu5  1  0.00000000  0.31385600  0.98678300  1
  C  C6  1  0.34699400  0.33050600  0.86334600  1
  C  C7  1  0.65300600  0.98351200  0.86334600  1
  C  C8  1  0.65300600  0.66949400  0.36334600  1
  C  C9  1  0.34699400  0.01648800  0.36334600  1
  C  C10  1  0.00000000  0.67498700  0.88251500  1
  C  C11  1  0.00000000  0.32501300  0.38251500  1
