# generated using pymatgen
data_Cu5Ni2C
_symmetry_space_group_name_H-M   'P 1'
_cell_length_a   7.57886200
_cell_length_b   9.61485500
_cell_length_c   12.69922706
_cell_angle_alpha   75.32081989
_cell_angle_beta   90.00000000
_cell_angle_gamma   90.00000000
_symmetry_Int_Tables_number   1
_chemical_formula_structural   Cu5Ni2C
_chemical_formula_sum   'Cu40 Ni16 C8'
_cell_volume   895.18357832
_cell_formula_units_Z   8
loop_
 _symmetry_equiv_pos_site_id
 _symmetry_equiv_pos_as_xyz
  1  'x, y, z'
loop_
 _atom_site_type_symbol
 _atom_site_label
 _atom_site_symmetry_multiplicity
 _atom_site_fract_x
 _atom_site_fract_y
 _atom_site_fract_z
 _atom_site_occupancy
  C  C0  1  0.30777100  0.58896500  0.29994300  1
  C  C1  1  0.69222900  0.41103500  0.70005700  1
  C  C2  1  0.30777100  0.91103500  0.70005700  1
  C  C3  1  0.69222900  0.08896500  0.29994300  1
  C  C4  1  0.77681200  0.71324400  0.25491000  1
  C  C5  1  0.22318800  0.28675600  0.74509000  1
  C  C6  1  0.77681200  0.78675600  0.74509000  1
  C  C7  1  0.22318800  0.21324400  0.25491000  1
  Ni  Ni8  1  0.83082500  0.36859000  0.27788100  1
  Ni  Ni9  1  0.16917500  0.63141000  0.72211900  1
  Ni  Ni10  1  0.83082500  0.13141000  0.72211900  1
  Ni  Ni11  1  0.16917500  0.86859000  0.27788100  1
  Ni  Ni12  1  0.87582000  0.75000000  0.00000000  1
  Ni  Ni13  1  0.12418000  0.25000000  0.00000000  1
  Ni  Ni14  1  0.67037400  0.75000000  0.00000000  1
  Ni  Ni15  1  0.32962600  0.25000000  0.00000000  1
  Ni  Ni16  1  0.37227800  0.88105800  0.28587100  1
  Ni  Ni17  1  0.62772200  0.11894200  0.71412900  1
  Ni  Ni18  1  0.37227800  0.61894200  0.71412900  1
  Ni  Ni19  1  0.62772200  0.38105800  0.28587100  1
  Ni  Ni20  1  0.77711300  0.83356900  0.47864500  1
  Ni  Ni21  1  0.22288700  0.16643100  0.52135500  1
  Ni  Ni22  1  0.77711300  0.66643100  0.52135500  1
  Ni  Ni23  1  0.22288700  0.33356900  0.47864500  1
  Cu  Cu24  1  0.56647000  0.50576900  0.27845400  1
  Cu  Cu25  1  0.43353000  0.49423100  0.72154600  1
  Cu  Cu26  1  0.56647000  0.99423100  0.72154600  1
  Cu  Cu27  1  0.43353000  0.00576900  0.27845400  1
  Cu  Cu28  1  0.95053500  0.76219900  0.08631600  1
  Cu  Cu29  1  0.04946500  0.23780100  0.91368400  1
  Cu  Cu30  1  0.95053500  0.73780100  0.91368400  1
  Cu  Cu31  1  0.04946500  0.26219900  0.08631600  1
  Cu  Cu32  1  0.59548100  0.74866800  0.08933900  1
  Cu  Cu33  1  0.40451900  0.25133200  0.91066100  1
  Cu  Cu34  1  0.59548100  0.75133200  0.91066100  1
  Cu  Cu35  1  0.40451900  0.24866800  0.08933900  1
  Cu  Cu36  1  0.77106900  0.88396000  0.37560500  1
  Cu  Cu37  1  0.22893100  0.11604000  0.62439500  1
  Cu  Cu38  1  0.77106900  0.61604000  0.62439500  1
  Cu  Cu39  1  0.22893100  0.38396000  0.37560500  1
  Cu  Cu40  1  0.25429900  0.52433500  0.12174900  1
  Cu  Cu41  1  0.74570100  0.47566500  0.87825100  1
  Cu  Cu42  1  0.25429900  0.97566500  0.87825100  1
  Cu  Cu43  1  0.74570100  0.02433500  0.12174900  1
  Cu  Cu44  1  0.77806200  0.90673300  0.54796100  1
  Cu  Cu45  1  0.22193800  0.09326700  0.45203900  1
  Cu  Cu46  1  0.77806200  0.59326700  0.45203900  1
  Cu  Cu47  1  0.22193800  0.40673300  0.54796100  1
  Cu  Cu48  1  0.45983300  0.76631000  0.29609900  1
  Cu  Cu49  1  0.54016700  0.23369000  0.70390100  1
  Cu  Cu50  1  0.45983300  0.73369000  0.70390100  1
  Cu  Cu51  1  0.54016700  0.26631000  0.29609900  1
  Cu  Cu52  1  0.89510000  0.24301600  0.29351100  1
  Cu  Cu53  1  0.10490000  0.75698400  0.70648900  1
  Cu  Cu54  1  0.89510000  0.25698400  0.70648900  1
  Cu  Cu55  1  0.10490000  0.74301600  0.29351100  1
  Cu  Cu56  1  0.73334000  0.42392600  0.97684100  1
  Cu  Cu57  1  0.26666000  0.57607400  0.02315900  1
  Cu  Cu58  1  0.73334000  0.07607400  0.02315900  1
  Cu  Cu59  1  0.26666000  0.92392600  0.97684100  1
  Cu  Cu60  1  0.91587900  0.48539900  0.25359400  1
  Cu  Cu61  1  0.08412100  0.51460100  0.74640600  1
  Cu  Cu62  1  0.91587900  0.01460100  0.74640600  1
  Cu  Cu63  1  0.08412100  0.98539900  0.25359400  1
