# generated using pymatgen
data_Cu2Ni2C7
_symmetry_space_group_name_H-M   'P 1'
_cell_length_a   6.69145200
_cell_length_b   6.78893799
_cell_length_c   6.85044073
_cell_angle_alpha   83.49368462
_cell_angle_beta   68.46237427
_cell_angle_gamma   84.95411446
_symmetry_Int_Tables_number   1
_chemical_formula_structural   Cu2Ni2C7
_chemical_formula_sum   'Cu4 Ni4 C14'
_cell_volume   287.24535279
_cell_formula_units_Z   2
loop_
 _symmetry_equiv_pos_site_id
 _symmetry_equiv_pos_as_xyz
  1  'x, y, z'
loop_
 _atom_site_type_symbol
 _atom_site_label
 _atom_site_symmetry_multiplicity
 _atom_site_fract_x
 _atom_site_fract_y
 _atom_site_fract_z
 _atom_site_occupancy
  Ni  Ni0  1  0.90379100  0.86448700  0.73400200  1
  Ni  Ni1  1  0.09620900  0.13551300  0.26599800  1
  Ni  Ni2  1  0.73949000  0.60183900  0.28942500  1
  Ni  Ni3  1  0.26051000  0.39816100  0.71057500  1
  Cu  Cu4  1  0.76580700  0.36711700  0.78023800  1
  Cu  Cu5  1  0.23419300  0.63288300  0.21976200  1
  Cu  Cu6  1  0.62791700  0.11204600  0.19096300  1
  Cu  Cu7  1  0.37208300  0.88795400  0.80903700  1
  C  C8  1  0.76026300  0.23467000  0.27270500  1
  C  C9  1  0.23973700  0.76533000  0.72729500  1
  C  C10  1  0.86239100  0.52059300  0.86618000  1
  C  C11  1  0.13760900  0.47940700  0.13382000  1
  C  C12  1  0.75176100  0.91500300  0.11461000  1
  C  C13  1  0.24823900  0.08499700  0.88539000  1
  C  C14  1  0.62136500  0.45902400  0.65989800  1
  C  C15  1  0.37863500  0.54097600  0.34010200  1
  C  C16  1  0.39668400  0.08938000  0.34309300  1
  C  C17  1  0.60331600  0.91062000  0.65690700  1
  C  C18  1  0.95295900  0.22829700  0.65117600  1
  C  C19  1  0.04704100  0.77170300  0.34882400  1
  C  C20  1  0.60639600  0.23750300  0.98042600  1
  C  C21  1  0.39360400  0.76249700  0.01957400  1
