# generated using pymatgen
data_Cu2NiC11
_symmetry_space_group_name_H-M   'P 1'
_cell_length_a   6.31523100
_cell_length_b   7.38181100
_cell_length_c   14.23509200
_cell_angle_alpha   90.00000000
_cell_angle_beta   90.00000000
_cell_angle_gamma   90.00000000
_symmetry_Int_Tables_number   1
_chemical_formula_structural   Cu2NiC11
_chemical_formula_sum   'Cu8 Ni4 C44'
_cell_volume   663.60926492
_cell_formula_units_Z   4
loop_
 _symmetry_equiv_pos_site_id
 _symmetry_equiv_pos_as_xyz
  1  'x, y, z'
loop_
 _atom_site_type_symbol
 _atom_site_label
 _atom_site_symmetry_multiplicity
 _atom_site_fract_x
 _atom_site_fract_y
 _atom_site_fract_z
 _atom_site_occupancy
  Ni  Ni0  1  0.75000000  0.92280100  0.77340200  1
  Ni  Ni1  1  0.75000000  0.57719900  0.27340200  1
  Ni  Ni2  1  0.25000000  0.42280100  0.72659800  1
  Ni  Ni3  1  0.25000000  0.07719900  0.22659800  1
  Cu  Cu4  1  0.75000000  0.35755800  0.88142200  1
  Cu  Cu5  1  0.25000000  0.64244200  0.11857800  1
  Cu  Cu6  1  0.25000000  0.85755800  0.61857800  1
  Cu  Cu7  1  0.75000000  0.14244200  0.38142200  1
  Cu  Cu8  1  0.50000000  0.00000000  0.00000000  1
  Cu  Cu9  1  0.50000000  0.50000000  0.50000000  1
  Cu  Cu10  1  0.00000000  0.50000000  0.50000000  1
  Cu  Cu11  1  0.00000000  0.00000000  0.00000000  1
  C  C12  1  0.25000000  0.36368200  0.92670500  1
  C  C13  1  0.75000000  0.63631800  0.07329500  1
  C  C14  1  0.75000000  0.86368200  0.57329500  1
  C  C15  1  0.25000000  0.13631800  0.42670500  1
  C  C16  1  0.75000000  0.38269300  0.69519200  1
  C  C17  1  0.75000000  0.11730700  0.19519200  1
  C  C18  1  0.25000000  0.88269300  0.80480800  1
  C  C19  1  0.25000000  0.61730700  0.30480800  1
  C  C20  1  0.04004700  0.60701300  0.36327800  1
  C  C21  1  0.54004700  0.39298700  0.63672200  1
  C  C22  1  0.95995300  0.10701300  0.13672200  1
  C  C23  1  0.45995300  0.89298700  0.86327800  1
  C  C24  1  0.95995300  0.39298700  0.63672200  1
  C  C25  1  0.45995300  0.60701300  0.36327800  1
  C  C26  1  0.04004700  0.89298700  0.86327800  1
  C  C27  1  0.54004700  0.10701300  0.13672200  1
  C  C28  1  0.25000000  0.32512000  0.47532600  1
  C  C29  1  0.75000000  0.67488000  0.52467400  1
  C  C30  1  0.75000000  0.82512000  0.02467400  1
  C  C31  1  0.25000000  0.17488000  0.97532600  1
  C  C32  1  0.75000000  0.12964900  0.94981500  1
  C  C33  1  0.25000000  0.87035100  0.05018500  1
  C  C34  1  0.25000000  0.62964900  0.55018500  1
  C  C35  1  0.75000000  0.37035100  0.44981500  1
  C  C36  1  0.75000000  0.20328900  0.75355400  1
  C  C37  1  0.25000000  0.79671100  0.24644600  1
  C  C38  1  0.25000000  0.70328900  0.74644600  1
  C  C39  1  0.75000000  0.29671100  0.25355400  1
  C  C40  1  0.43775000  0.12358400  0.35766200  1
  C  C41  1  0.93775000  0.87641600  0.64233800  1
  C  C42  1  0.56225000  0.62358400  0.14233800  1
  C  C43  1  0.06225000  0.37641600  0.85766200  1
  C  C44  1  0.56225000  0.87641600  0.64233800  1
  C  C45  1  0.06225000  0.12358400  0.35766200  1
  C  C46  1  0.43775000  0.37641600  0.85766200  1
  C  C47  1  0.93775000  0.62358400  0.14233800  1
  C  C48  1  0.75000000  0.49274400  0.99725800  1
  C  C49  1  0.25000000  0.03868600  0.73217300  1
  C  C50  1  0.25000000  0.46131400  0.23217300  1
  C  C51  1  0.75000000  0.53868600  0.76782700  1
  C  C52  1  0.75000000  0.00725600  0.49725800  1
  C  C53  1  0.25000000  0.99274400  0.50274200  1
  C  C54  1  0.25000000  0.50725600  0.00274200  1
  C  C55  1  0.75000000  0.96131400  0.26782700  1
