# generated using pymatgen
data_Cu6NiC6
_symmetry_space_group_name_H-M   'P 1'
_cell_length_a   9.97760000
_cell_length_b   5.97331700
_cell_length_c   11.96299140
_cell_angle_alpha   60.41211914
_cell_angle_beta   90.00000000
_cell_angle_gamma   90.00000000
_symmetry_Int_Tables_number   1
_chemical_formula_structural   Cu6NiC6
_chemical_formula_sum   'Cu24 Ni4 C24'
_cell_volume   620.01281817
_cell_formula_units_Z   4
loop_
 _symmetry_equiv_pos_site_id
 _symmetry_equiv_pos_as_xyz
  1  'x, y, z'
loop_
 _atom_site_type_symbol
 _atom_site_label
 _atom_site_symmetry_multiplicity
 _atom_site_fract_x
 _atom_site_fract_y
 _atom_site_fract_z
 _atom_site_occupancy
  C  C0  1  0.08549900  0.33980100  0.91929200  1
  C  C1  1  0.91450100  0.66019900  0.08070800  1
  C  C2  1  0.58549900  0.66019900  0.58070800  1
  C  C3  1  0.41450100  0.33980100  0.41929200  1
  C  C4  1  0.93558600  0.66820900  0.59541700  1
  C  C5  1  0.06441400  0.33179100  0.40458300  1
  C  C6  1  0.43558600  0.33179100  0.90458300  1
  C  C7  1  0.56441400  0.66820900  0.09541700  1
  C  C8  1  0.28675000  0.83450600  0.92044100  1
  C  C9  1  0.71325000  0.16549400  0.07955900  1
  C  C10  1  0.78675000  0.16549400  0.57955900  1
  C  C11  1  0.21325000  0.83450600  0.42044100  1
  C  C12  1  0.27207300  0.32323500  0.65906200  1
  C  C13  1  0.72792700  0.67676500  0.34093800  1
  C  C14  1  0.77207300  0.67676500  0.84093800  1
  C  C15  1  0.22792700  0.32323500  0.15906200  1
  C  C16  1  0.01963900  0.99461600  0.74929700  1
  C  C17  1  0.98036100  0.00538400  0.25070300  1
  C  C18  1  0.51963900  0.00538400  0.75070300  1
  C  C19  1  0.48036100  0.99461600  0.24929700  1
  C  C20  1  0.29416500  0.79848300  0.67632400  1
  C  C21  1  0.70583500  0.20151700  0.32367600  1
  C  C22  1  0.79416500  0.20151700  0.82367600  1
  C  C23  1  0.20583500  0.79848300  0.17632400  1
  Ni  Ni24  1  0.20803000  0.97687400  0.75219400  1
  Ni  Ni25  1  0.79197000  0.02312600  0.24780600  1
  Ni  Ni26  1  0.70803000  0.02312600  0.74780600  1
  Ni  Ni27  1  0.29197000  0.97687400  0.25219400  1
  Cu  Cu28  1  0.45418300  0.94089900  0.89913000  1
  Cu  Cu29  1  0.54581700  0.05910100  0.10087000  1
  Cu  Cu30  1  0.95418300  0.05910100  0.60087000  1
  Cu  Cu31  1  0.04581700  0.94089900  0.39913000  1
  Cu  Cu32  1  0.44608300  0.29898300  0.63802200  1
  Cu  Cu33  1  0.55391700  0.70101700  0.36197800  1
  Cu  Cu34  1  0.94608300  0.70101700  0.86197800  1
  Cu  Cu35  1  0.05391700  0.29898300  0.13802200  1
  Cu  Cu36  1  0.46374800  0.76024800  0.72288800  1
  Cu  Cu37  1  0.53625200  0.23975200  0.27711200  1
  Cu  Cu38  1  0.96374800  0.23975200  0.77711200  1
  Cu  Cu39  1  0.03625200  0.76024800  0.22288800  1
  Cu  Cu40  1  0.20941200  0.49435600  0.50147300  1
  Cu  Cu41  1  0.79058800  0.50564400  0.49852700  1
  Cu  Cu42  1  0.70941200  0.50564400  0.99852700  1
  Cu  Cu43  1  0.29058800  0.49435600  0.00147300  1
  Cu  Cu44  1  0.23578700  0.48269600  0.74509400  1
  Cu  Cu45  1  0.76421300  0.51730400  0.25490600  1
  Cu  Cu46  1  0.73578700  0.51730400  0.75490600  1
  Cu  Cu47  1  0.26421300  0.48269600  0.24509400  1
  Cu  Cu48  1  0.28902200  0.95583700  0.50969800  1
  Cu  Cu49  1  0.71097800  0.04416300  0.49030200  1
  Cu  Cu50  1  0.78902200  0.04416300  0.99030200  1
  Cu  Cu51  1  0.21097800  0.95583700  0.00969800  1
