# generated using pymatgen
data_Cu9Ni3C
_symmetry_space_group_name_H-M   'P 1'
_cell_length_a   8.58217400
_cell_length_b   7.14422700
_cell_length_c   13.50291216
_cell_angle_alpha   79.31911650
_cell_angle_beta   90.00000000
_cell_angle_gamma   90.00000000
_symmetry_Int_Tables_number   1
_chemical_formula_structural   Cu9Ni3C
_chemical_formula_sum   'Cu36 Ni12 C4'
_cell_volume   813.56034712
_cell_formula_units_Z   4
loop_
 _symmetry_equiv_pos_site_id
 _symmetry_equiv_pos_as_xyz
  1  'x, y, z'
loop_
 _atom_site_type_symbol
 _atom_site_label
 _atom_site_symmetry_multiplicity
 _atom_site_fract_x
 _atom_site_fract_y
 _atom_site_fract_z
 _atom_site_occupancy
  C  C0  1  0.75417500  0.82729000  0.14504100  1
  C  C1  1  0.24582500  0.17271000  0.85495900  1
  C  C2  1  0.25417500  0.17271000  0.35495900  1
  C  C3  1  0.74582500  0.82729000  0.64504100  1
  Ni  Ni4  1  0.29328100  0.83489800  0.11018700  1
  Ni  Ni5  1  0.70671900  0.16510200  0.88981300  1
  Ni  Ni6  1  0.79328100  0.16510200  0.38981300  1
  Ni  Ni7  1  0.20671900  0.83489800  0.61018700  1
  Ni  Ni8  1  0.51957100  0.73173800  0.39030600  1
  Ni  Ni9  1  0.48042900  0.26826200  0.60969400  1
  Ni  Ni10  1  0.01957100  0.26826200  0.10969400  1
  Ni  Ni11  1  0.98042900  0.73173800  0.89030600  1
  Ni  Ni12  1  0.54213900  0.33196500  0.14336800  1
  Ni  Ni13  1  0.45786100  0.66803500  0.85663200  1
  Ni  Ni14  1  0.04213900  0.66803500  0.35663200  1
  Ni  Ni15  1  0.95786100  0.33196500  0.64336800  1
  Cu  Cu16  1  0.47527300  0.83949500  0.18070900  1
  Cu  Cu17  1  0.52472700  0.16050500  0.81929100  1
  Cu  Cu18  1  0.97527300  0.16050500  0.31929100  1
  Cu  Cu19  1  0.02472700  0.83949500  0.68070900  1
  Cu  Cu20  1  0.18859900  0.85743100  0.32321100  1
  Cu  Cu21  1  0.81140100  0.14256900  0.67678900  1
  Cu  Cu22  1  0.68859900  0.14256900  0.17678900  1
  Cu  Cu23  1  0.31140100  0.85743100  0.82321100  1
  Cu  Cu24  1  0.82978200  0.96297300  0.49194100  1
  Cu  Cu25  1  0.17021800  0.03702700  0.50805900  1
  Cu  Cu26  1  0.32978200  0.03702700  0.00805900  1
  Cu  Cu27  1  0.67021800  0.96297300  0.99194100  1
  Cu  Cu28  1  0.67509300  0.53172800  0.13781000  1
  Cu  Cu29  1  0.32490700  0.46827200  0.86219000  1
  Cu  Cu30  1  0.17509300  0.46827200  0.36219000  1
  Cu  Cu31  1  0.82490700  0.53172800  0.63781000  1
  Cu  Cu32  1  0.70741300  0.77056300  0.32227300  1
  Cu  Cu33  1  0.29258700  0.22943700  0.67772700  1
  Cu  Cu34  1  0.20741300  0.22943700  0.17772700  1
  Cu  Cu35  1  0.79258700  0.77056300  0.82227300  1
  Cu  Cu36  1  0.96438500  0.66402800  0.23040200  1
  Cu  Cu37  1  0.03561500  0.33597200  0.76959800  1
  Cu  Cu38  1  0.46438500  0.33597200  0.26959800  1
  Cu  Cu39  1  0.53561500  0.66402800  0.73040200  1
  Cu  Cu40  1  0.33224800  0.63650300  0.04560900  1
  Cu  Cu41  1  0.66775200  0.36349700  0.95439100  1
  Cu  Cu42  1  0.83224800  0.36349700  0.45439100  1
  Cu  Cu43  1  0.16775200  0.63650300  0.54560900  1
  Cu  Cu44  1  0.46693200  0.98148300  0.38612600  1
  Cu  Cu45  1  0.53306800  0.01851700  0.61387400  1
  Cu  Cu46  1  0.96693200  0.01851700  0.11387400  1
  Cu  Cu47  1  0.03306800  0.98148300  0.88612600  1
  Cu  Cu48  1  0.91942300  0.68022100  0.02179700  1
  Cu  Cu49  1  0.08057700  0.31977900  0.97820300  1
  Cu  Cu50  1  0.41942300  0.31977900  0.47820300  1
  Cu  Cu51  1  0.58057700  0.68022100  0.52179700  1
