# generated using pymatgen
data_CuNiC2
_symmetry_space_group_name_H-M   'P 1'
_cell_length_a   5.61166341
_cell_length_b   6.43333600
_cell_length_c   5.45762572
_cell_angle_alpha   90.00000000
_cell_angle_beta   90.04525258
_cell_angle_gamma   90.00000000
_symmetry_Int_Tables_number   1
_chemical_formula_structural   CuNiC2
_chemical_formula_sum   'Cu4 Ni4 C8'
_cell_volume   197.02959330
_cell_formula_units_Z   4
loop_
 _symmetry_equiv_pos_site_id
 _symmetry_equiv_pos_as_xyz
  1  'x, y, z'
loop_
 _atom_site_type_symbol
 _atom_site_label
 _atom_site_symmetry_multiplicity
 _atom_site_fract_x
 _atom_site_fract_y
 _atom_site_fract_z
 _atom_site_occupancy
  Ni  Ni0  1  0.34368100  0.86411000  0.58840000  1
  Ni  Ni1  1  0.65631900  0.36411000  0.91160000  1
  Ni  Ni2  1  0.65631900  0.13589000  0.41160000  1
  Ni  Ni3  1  0.34368100  0.63589000  0.08840000  1
  Cu  Cu4  1  0.16069100  0.36187000  0.58766100  1
  Cu  Cu5  1  0.83930900  0.86187000  0.91233900  1
  Cu  Cu6  1  0.83930900  0.63813000  0.41233900  1
  Cu  Cu7  1  0.16069100  0.13813000  0.08766100  1
  C  C8  1  0.18302400  0.87900500  0.92110500  1
  C  C9  1  0.81697600  0.37900500  0.57889500  1
  C  C10  1  0.81697600  0.12099500  0.07889500  1
  C  C11  1  0.18302400  0.62099500  0.42110500  1
  C  C12  1  0.28784100  0.35720800  0.90334900  1
  C  C13  1  0.71215900  0.85720800  0.59665100  1
  C  C14  1  0.71215900  0.64279200  0.09665100  1
  C  C15  1  0.28784100  0.14279200  0.40334900  1
