# generated using pymatgen
data_Cu10Ni2C5
_symmetry_space_group_name_H-M   'P 1'
_cell_length_a   5.16283945
_cell_length_b   5.56667800
_cell_length_c   7.51557877
_cell_angle_alpha   68.26325199
_cell_angle_beta   69.68117094
_cell_angle_gamma   90.00000000
_symmetry_Int_Tables_number   1
_chemical_formula_structural   Cu10Ni2C5
_chemical_formula_sum   'Cu10 Ni2 C5'
_cell_volume   186.09192993
_cell_formula_units_Z   1
loop_
 _symmetry_equiv_pos_site_id
 _symmetry_equiv_pos_as_xyz
  1  'x, y, z'
loop_
 _atom_site_type_symbol
 _atom_site_label
 _atom_site_symmetry_multiplicity
 _atom_site_fract_x
 _atom_site_fract_y
 _atom_site_fract_z
 _atom_site_occupancy
  C  C0  1  0.50000000  0.00000000  0.50000000  1
  C  C1  1  0.50000000  0.00000000  0.00000000  1
  C  C2  1  0.50000000  0.50000000  0.00000000  1
  C  C3  1  0.81252800  0.89657800  0.70684400  1
  C  C4  1  0.18747200  0.10342200  0.29315600  1
  Ni  Ni5  1  0.86566700  0.62291600  0.25416800  1
  Ni  Ni6  1  0.13433300  0.37708400  0.74583200  1
  Cu  Cu7  1  0.60872500  0.86811000  0.76378000  1
  Cu  Cu8  1  0.39127500  0.13189000  0.23622000  1
  Cu  Cu9  1  0.70476800  0.69349400  0.11301200  1
  Cu  Cu10  1  0.19792700  0.21651800  0.62311600  1
  Cu  Cu11  1  0.19792700  0.66036600  0.62311600  1
  Cu  Cu12  1  0.17035000  0.68994900  0.12010200  1
  Cu  Cu13  1  0.29523200  0.30650600  0.88698800  1
  Cu  Cu14  1  0.80207300  0.78348200  0.37688400  1
  Cu  Cu15  1  0.80207300  0.33963400  0.37688400  1
  Cu  Cu16  1  0.82965000  0.31005100  0.87989800  1
