# generated using pymatgen
data_CuNi2C
_symmetry_space_group_name_H-M   'P 1'
_cell_length_a   4.03478400
_cell_length_b   4.16876000
_cell_length_c   8.55806152
_cell_angle_alpha   75.90339799
_cell_angle_beta   90.00000000
_cell_angle_gamma   90.00000000
_symmetry_Int_Tables_number   1
_chemical_formula_structural   CuNi2C
_chemical_formula_sum   'Cu2 Ni4 C2'
_cell_volume   139.61223640
_cell_formula_units_Z   2
loop_
 _symmetry_equiv_pos_site_id
 _symmetry_equiv_pos_as_xyz
  1  'x, y, z'
loop_
 _atom_site_type_symbol
 _atom_site_label
 _atom_site_symmetry_multiplicity
 _atom_site_fract_x
 _atom_site_fract_y
 _atom_site_fract_z
 _atom_site_occupancy
  C  C0  1  0.25000000  0.60701900  0.78596200  1
  C  C1  1  0.75000000  0.39298100  0.21403800  1
  Ni  Ni2  1  0.25000000  0.95858400  0.08283200  1
  Ni  Ni3  1  0.75000000  0.04141600  0.91716800  1
  Ni  Ni4  1  0.25000000  0.25051200  0.49897600  1
  Ni  Ni5  1  0.75000000  0.74948800  0.50102400  1
  Cu  Cu6  1  0.25000000  0.81943900  0.36112200  1
  Cu  Cu7  1  0.75000000  0.18056100  0.63887800  1
