# generated using pymatgen
data_Cu8Ni2C
_symmetry_space_group_name_H-M   'P 1'
_cell_length_a   7.23037600
_cell_length_b   6.88801900
_cell_length_c   7.66881300
_cell_angle_alpha   90.00000000
_cell_angle_beta   90.00000000
_cell_angle_gamma   90.00000000
_symmetry_Int_Tables_number   1
_chemical_formula_structural   Cu8Ni2C
_chemical_formula_sum   'Cu32 Ni8 C4'
_cell_volume   381.92964280
_cell_formula_units_Z   4
loop_
 _symmetry_equiv_pos_site_id
 _symmetry_equiv_pos_as_xyz
  1  'x, y, z'
loop_
 _atom_site_type_symbol
 _atom_site_label
 _atom_site_symmetry_multiplicity
 _atom_site_fract_x
 _atom_site_fract_y
 _atom_site_fract_z
 _atom_site_occupancy
  C  C0  1  0.00000000  0.25000000  0.11421700  1
  C  C1  1  0.50000000  0.75000000  0.38578300  1
  C  C2  1  0.00000000  0.75000000  0.88578300  1
  C  C3  1  0.50000000  0.25000000  0.61421700  1
  Ni  Ni4  1  0.74591100  0.09451400  0.36772300  1
  Ni  Ni5  1  0.75408900  0.59451400  0.13227700  1
  Ni  Ni6  1  0.24591100  0.90548600  0.13227700  1
  Ni  Ni7  1  0.25408900  0.40548600  0.36772300  1
  Ni  Ni8  1  0.25408900  0.90548600  0.63227700  1
  Ni  Ni9  1  0.24591100  0.40548600  0.86772300  1
  Ni  Ni10  1  0.75408900  0.09451400  0.86772300  1
  Ni  Ni11  1  0.74591100  0.59451400  0.63227700  1
  Cu  Cu12  1  0.61344900  0.15006000  0.28153300  1
  Cu  Cu13  1  0.88655100  0.65006000  0.21846700  1
  Cu  Cu14  1  0.11344900  0.84994000  0.21846700  1
  Cu  Cu15  1  0.38655100  0.34994000  0.28153300  1
  Cu  Cu16  1  0.38655100  0.84994000  0.71846700  1
  Cu  Cu17  1  0.11344900  0.34994000  0.78153300  1
  Cu  Cu18  1  0.88655100  0.15006000  0.78153300  1
  Cu  Cu19  1  0.61344900  0.65006000  0.71846700  1
  Cu  Cu20  1  0.84080400  0.97765000  0.28726500  1
  Cu  Cu21  1  0.65919600  0.47765000  0.21273500  1
  Cu  Cu22  1  0.34080400  0.02235000  0.21273500  1
  Cu  Cu23  1  0.15919600  0.52235000  0.28726500  1
  Cu  Cu24  1  0.15919600  0.02235000  0.71273500  1
  Cu  Cu25  1  0.34080400  0.52235000  0.78726500  1
  Cu  Cu26  1  0.65919600  0.97765000  0.78726500  1
  Cu  Cu27  1  0.84080400  0.47765000  0.71273500  1
  Cu  Cu28  1  0.83752100  0.22930600  0.42350800  1
  Cu  Cu29  1  0.66247900  0.72930600  0.07649200  1
  Cu  Cu30  1  0.33752100  0.77069400  0.07649200  1
  Cu  Cu31  1  0.16247900  0.27069400  0.42350800  1
  Cu  Cu32  1  0.16247900  0.77069400  0.57649200  1
  Cu  Cu33  1  0.33752100  0.27069400  0.92350800  1
  Cu  Cu34  1  0.66247900  0.22930600  0.92350800  1
  Cu  Cu35  1  0.83752100  0.72930600  0.57649200  1
  Cu  Cu36  1  0.68923900  0.00152800  0.49789800  1
  Cu  Cu37  1  0.81076100  0.50152800  0.00210200  1
  Cu  Cu38  1  0.18923900  0.99847200  0.00210200  1
  Cu  Cu39  1  0.31076100  0.49847200  0.49789800  1
  Cu  Cu40  1  0.31076100  0.99847200  0.50210200  1
  Cu  Cu41  1  0.18923900  0.49847200  0.99789800  1
  Cu  Cu42  1  0.81076100  0.00152800  0.99789800  1
  Cu  Cu43  1  0.68923900  0.50152800  0.50210200  1
