# generated using pymatgen
data_CuNi9C32
_symmetry_space_group_name_H-M   'P 1'
_cell_length_a   16.57049986
_cell_length_b   16.57049986
_cell_length_c   16.57049986
_cell_angle_alpha   90.00000000
_cell_angle_beta   90.00000000
_cell_angle_gamma   90.00000000
_symmetry_Int_Tables_number   1
_chemical_formula_structural   CuNi9C32
_chemical_formula_sum   'Cu8 Ni72 C256'
_cell_volume   4549.95213745
_cell_formula_units_Z   8
loop_
 _symmetry_equiv_pos_site_id
 _symmetry_equiv_pos_as_xyz
  1  'x, y, z'
loop_
 _atom_site_type_symbol
 _atom_site_label
 _atom_site_symmetry_multiplicity
 _atom_site_fract_x
 _atom_site_fract_y
 _atom_site_fract_z
 _atom_site_occupancy
  C  C0  1  0.53640862  0.28372904  0.83432104  1
  C  C1  1  0.16567896  0.03640862  0.21627096  1
  C  C2  1  0.78372904  0.66567896  0.46359138  1
  C  C3  1  0.03640862  0.21627096  0.16567896  1
  C  C4  1  0.66567896  0.46359138  0.78372904  1
  C  C5  1  0.28372904  0.83432104  0.53640862  1
  C  C6  1  0.46359138  0.78372904  0.66567896  1
  C  C7  1  0.83432104  0.53640862  0.28372904  1
  C  C8  1  0.21627096  0.16567896  0.03640862  1
  C  C9  1  0.96359138  0.71627096  0.33432104  1
  C  C10  1  0.33432104  0.96359138  0.71627096  1
  C  C11  1  0.71627096  0.33432104  0.96359138  1
  C  C12  1  0.46266480  0.71198868  0.17841859  1
  C  C13  1  0.82158141  0.96266480  0.78801132  1
  C  C14  1  0.21198868  0.32158141  0.53733520  1
  C  C15  1  0.96266480  0.78801132  0.82158141  1
  C  C16  1  0.32158141  0.53733520  0.21198868  1
  C  C17  1  0.71198868  0.17841859  0.46266480  1
  C  C18  1  0.53733520  0.21198868  0.32158141  1
  C  C19  1  0.17841859  0.46266480  0.71198868  1
  C  C20  1  0.78801132  0.82158141  0.96266480  1
  C  C21  1  0.03733520  0.28801132  0.67841859  1
  C  C22  1  0.67841859  0.03733520  0.28801132  1
  C  C23  1  0.28801132  0.67841859  0.03733520  1
  C  C24  1  0.69131402  0.30868598  0.80868598  1
  C  C25  1  0.19131402  0.19131402  0.19131402  1
  C  C26  1  0.80868598  0.69131402  0.30868598  1
  C  C27  1  0.30868598  0.80868598  0.69131402  1
  C  C28  1  0.30548453  0.69451547  0.19451547  1
  C  C29  1  0.80548453  0.80548453  0.80548453  1
  C  C30  1  0.19451547  0.30548453  0.69451547  1
  C  C31  1  0.69451547  0.19451547  0.30548453  1
  C  C32  1  0.54853479  0.17195286  0.71633086  1
  C  C33  1  0.28366914  0.04853479  0.32804714  1
  C  C34  1  0.67195286  0.78366914  0.45146521  1
  C  C35  1  0.04853479  0.32804714  0.28366914  1
  C  C36  1  0.78366914  0.45146521  0.67195286  1
  C  C37  1  0.17195286  0.71633086  0.54853479  1
  C  C38  1  0.45146521  0.67195286  0.78366914  1
  C  C39  1  0.71633086  0.54853479  0.17195286  1
  C  C40  1  0.32804714  0.28366914  0.04853479  1
  C  C41  1  0.95146521  0.82804714  0.21633086  1
  C  C42  1  0.21633086  0.95146521  0.82804714  1
  C  C43  1  0.82804714  0.21633086  0.95146521  1
  C  C44  1  0.58177437  0.26632430  0.67644657  1
  C  C45  1  0.32355343  0.08177437  0.23367570  1
  C  C46  1  0.76632430  0.82355343  0.41822563  1
  C  C47  1  0.08177437  0.23367570  0.32355343  1
  C  C48  1  0.82355343  0.41822563  0.76632430  1
  C  C49  1  0.26632430  0.67644657  0.58177437  1
  C  C50  1  0.41822563  0.76632430  0.82355343  1
  C  C51  1  0.67644657  0.58177437  0.26632430  1
  C  C52  1  0.23367570  0.32355343  0.08177437  1
  C  C53  1  0.91822563  0.73367570  0.17644657  1
  C  C54  1  0.17644657  0.91822563  0.73367570  1
  C  C55  1  0.73367570  0.17644657  0.91822563  1
  C  C56  1  0.47522805  0.24568442  0.68717559  1
  C  C57  1  0.31282441  0.97522805  0.25431558  1
  C  C58  1  0.74568442  0.81282441  0.52477195  1
  C  C59  1  0.97522805  0.25431558  0.31282441  1
  C  C60  1  0.81282441  0.52477195  0.74568442  1
  C  C61  1  0.24568442  0.68717559  0.47522805  1
  C  C62  1  0.52477195  0.74568442  0.81282441  1
  C  C63  1  0.68717559  0.47522805  0.24568442  1
  C  C64  1  0.25431558  0.31282441  0.97522805  1
  C  C65  1  0.02477195  0.75431558  0.18717559  1
  C  C66  1  0.18717559  0.02477195  0.75431558  1
  C  C67  1  0.75431558  0.18717559  0.02477195  1
  C  C68  1  0.48928346  0.43217884  0.88725907  1
  C  C69  1  0.11274093  0.98928346  0.06782116  1
  C  C70  1  0.93217884  0.61274093  0.51071654  1
  C  C71  1  0.98928346  0.06782116  0.11274093  1
  C  C72  1  0.61274093  0.51071654  0.93217884  1
  C  C73  1  0.43217884  0.88725907  0.48928346  1
  C  C74  1  0.51071654  0.93217884  0.61274093  1
  C  C75  1  0.88725907  0.48928346  0.43217884  1
  C  C76  1  0.06782116  0.11274093  0.98928346  1
  C  C77  1  0.01071654  0.56782116  0.38725907  1
  C  C78  1  0.38725907  0.01071654  0.56782116  1
  C  C79  1  0.56782116  0.38725907  0.01071654  1
  C  C80  1  0.41258731  0.35873320  0.90979964  1
  C  C81  1  0.09020036  0.91258731  0.14126680  1
  C  C82  1  0.85873320  0.59020036  0.58741269  1
  C  C83  1  0.91258731  0.14126680  0.09020036  1
  C  C84  1  0.59020036  0.58741269  0.85873320  1
  C  C85  1  0.35873320  0.90979964  0.41258731  1
  C  C86  1  0.58741269  0.85873320  0.59020036  1
  C  C87  1  0.90979964  0.41258731  0.35873320  1
  C  C88  1  0.14126680  0.09020036  0.91258731  1
  C  C89  1  0.08741269  0.64126680  0.40979964  1
  C  C90  1  0.40979964  0.08741269  0.64126680  1
  C  C91  1  0.64126680  0.40979964  0.08741269  1
  C  C92  1  0.42095874  0.39834609  0.81027441  1
  C  C93  1  0.18972559  0.92095874  0.10165391  1
  C  C94  1  0.89834609  0.68972559  0.57904126  1
  C  C95  1  0.92095874  0.10165391  0.18972559  1
  C  C96  1  0.68972559  0.57904126  0.89834609  1
  C  C97  1  0.39834609  0.81027441  0.42095874  1
  C  C98  1  0.57904126  0.89834609  0.68972559  1
  C  C99  1  0.81027441  0.42095874  0.39834609  1
  C  C100  1  0.10165391  0.18972559  0.92095874  1
  C  C101  1  0.07904126  0.60165391  0.31027441  1
  C  C102  1  0.31027441  0.07904126  0.60165391  1
  C  C103  1  0.60165391  0.31027441  0.07904126  1
  C  C104  1  0.47238215  0.17344764  0.93519761  1
  C  C105  1  0.06480239  0.97238215  0.32655236  1
  C  C106  1  0.67344764  0.56480239  0.52761785  1
  C  C107  1  0.97238215  0.32655236  0.06480239  1
  C  C108  1  0.56480239  0.52761785  0.67344764  1
  C  C109  1  0.17344764  0.93519761  0.47238215  1
  C  C110  1  0.52761785  0.67344764  0.56480239  1
  C  C111  1  0.93519761  0.47238215  0.17344764  1
  C  C112  1  0.32655236  0.06480239  0.97238215  1
  C  C113  1  0.02761785  0.82655236  0.43519761  1
  C  C114  1  0.43519761  0.02761785  0.82655236  1
  C  C115  1  0.82655236  0.43519761  0.02761785  1
  C  C116  1  0.56559563  0.20686951  0.97859953  1
  C  C117  1  0.02140047  0.06559563  0.29313049  1
  C  C118  1  0.70686951  0.52140047  0.43440437  1
  C  C119  1  0.06559563  0.29313049  0.02140047  1
  C  C120  1  0.52140047  0.43440437  0.70686951  1
  C  C121  1  0.20686951  0.97859953  0.56559563  1
  C  C122  1  0.43440437  0.70686951  0.52140047  1
  C  C123  1  0.97859953  0.56559563  0.20686951  1
  C  C124  1  0.29313049  0.02140047  0.06559563  1
  C  C125  1  0.93440437  0.79313049  0.47859953  1
  C  C126  1  0.47859953  0.93440437  0.79313049  1
  C  C127  1  0.79313049  0.47859953  0.93440437  1
  C  C128  1  0.56606130  0.13484006  0.89791740  1
  C  C129  1  0.10208260  0.06606130  0.36515994  1
  C  C130  1  0.63484006  0.60208260  0.43393870  1
  C  C131  1  0.06606130  0.36515994  0.10208260  1
  C  C132  1  0.60208260  0.43393870  0.63484006  1
  C  C133  1  0.13484006  0.89791740  0.56606130  1
  C  C134  1  0.43393870  0.63484006  0.60208260  1
  C  C135  1  0.89791740  0.56606130  0.13484006  1
  C  C136  1  0.36515994  0.10208260  0.06606130  1
  C  C137  1  0.93393870  0.86515994  0.39791740  1
  C  C138  1  0.39791740  0.93393870  0.86515994  1
  C  C139  1  0.86515994  0.39791740  0.93393870  1
  C  C140  1  0.44483262  0.86232264  0.23780927  1
  C  C141  1  0.76219073  0.94483262  0.63767736  1
  C  C142  1  0.36232264  0.26219073  0.55516738  1
  C  C143  1  0.94483262  0.63767736  0.76219073  1
  C  C144  1  0.26219073  0.55516738  0.36232264  1
  C  C145  1  0.86232264  0.23780927  0.44483262  1
  C  C146  1  0.55516738  0.36232264  0.26219073  1
  C  C147  1  0.23780927  0.44483262  0.86232264  1
  C  C148  1  0.63767736  0.76219073  0.94483262  1
  C  C149  1  0.05516738  0.13767736  0.73780927  1
  C  C150  1  0.73780927  0.05516738  0.13767736  1
  C  C151  1  0.13767736  0.73780927  0.05516738  1
  C  C152  1  0.38477527  0.85420915  0.14850862  1
  C  C153  1  0.85149138  0.88477527  0.64579085  1
  C  C154  1  0.35420915  0.35149138  0.61522473  1
  C  C155  1  0.88477527  0.64579085  0.85149138  1
  C  C156  1  0.35149138  0.61522473  0.35420915  1
  C  C157  1  0.85420915  0.14850862  0.38477527  1
  C  C158  1  0.61522473  0.35420915  0.35149138  1
  C  C159  1  0.14850862  0.38477527  0.85420915  1
  C  C160  1  0.64579085  0.85149138  0.88477527  1
  C  C161  1  0.11522473  0.14579085  0.64850862  1
  C  C162  1  0.64850862  0.11522473  0.14579085  1
  C  C163  1  0.14579085  0.64850862  0.11522473  1
  C  C164  1  0.49233178  0.86858681  0.14097096  1
  C  C165  1  0.85902904  0.99233178  0.63141319  1
  C  C166  1  0.36858681  0.35902904  0.50766822  1
  C  C167  1  0.99233178  0.63141319  0.85902904  1
  C  C168  1  0.35902904  0.50766822  0.36858681  1
  C  C169  1  0.86858681  0.14097096  0.49233178  1
  C  C170  1  0.50766822  0.36858681  0.35902904  1
  C  C171  1  0.14097096  0.49233178  0.86858681  1
  C  C172  1  0.63141319  0.85902904  0.99233178  1
  C  C173  1  0.00766822  0.13141319  0.64097096  1
  C  C174  1  0.64097096  0.00766822  0.13141319  1
  C  C175  1  0.13141319  0.64097096  0.00766822  1
  C  C176  1  0.53426590  0.70125873  0.03083333  1
  C  C177  1  0.96916667  0.03426590  0.79874127  1
  C  C178  1  0.20125873  0.46916667  0.46573410  1
  C  C179  1  0.03426590  0.79874127  0.96916667  1
  C  C180  1  0.46916667  0.46573410  0.20125873  1
  C  C181  1  0.70125873  0.03083333  0.53426590  1
  C  C182  1  0.46573410  0.20125873  0.46916667  1
  C  C183  1  0.03083333  0.53426590  0.70125873  1
  C  C184  1  0.79874127  0.96916667  0.03426590  1
  C  C185  1  0.96573410  0.29874127  0.53083333  1
  C  C186  1  0.53083333  0.96573410  0.29874127  1
  C  C187  1  0.29874127  0.53083333  0.96573410  1
  C  C188  1  0.50108440  0.60344202  0.06286109  1
  C  C189  1  0.93713891  0.00108440  0.89655798  1
  C  C190  1  0.10344202  0.43713891  0.49891560  1
  C  C191  1  0.00108440  0.89655798  0.93713891  1
  C  C192  1  0.43713891  0.49891560  0.10344202  1
  C  C193  1  0.60344202  0.06286109  0.50108440  1
  C  C194  1  0.49891560  0.10344202  0.43713891  1
  C  C195  1  0.06286109  0.50108440  0.60344202  1
  C  C196  1  0.89655798  0.93713891  0.00108440  1
  C  C197  1  0.99891560  0.39655798  0.56286109  1
  C  C198  1  0.56286109  0.99891560  0.39655798  1
  C  C199  1  0.39655798  0.56286109  0.99891560  1
  C  C200  1  0.59167526  0.64635031  0.10405758  1
  C  C201  1  0.89594242  0.09167526  0.85364969  1
  C  C202  1  0.14635031  0.39594242  0.40832474  1
  C  C203  1  0.09167526  0.85364969  0.89594242  1
  C  C204  1  0.39594242  0.40832474  0.14635031  1
  C  C205  1  0.64635031  0.10405758  0.59167526  1
  C  C206  1  0.40832474  0.14635031  0.39594242  1
  C  C207  1  0.10405758  0.59167526  0.64635031  1
  C  C208  1  0.85364969  0.89594242  0.09167526  1
  C  C209  1  0.90832474  0.35364969  0.60405758  1
  C  C210  1  0.60405758  0.90832474  0.35364969  1
  C  C211  1  0.35364969  0.60405758  0.90832474  1
  C  C212  1  0.46647710  0.70579504  0.34240539  1
  C  C213  1  0.65759461  0.96647710  0.79420496  1
  C  C214  1  0.20579504  0.15759461  0.53352290  1
  C  C215  1  0.96647710  0.79420496  0.65759461  1
  C  C216  1  0.15759461  0.53352290  0.20579504  1
  C  C217  1  0.70579504  0.34240539  0.46647710  1
  C  C218  1  0.53352290  0.20579504  0.15759461  1
  C  C219  1  0.34240539  0.46647710  0.70579504  1
  C  C220  1  0.79420496  0.65759461  0.96647710  1
  C  C221  1  0.03352290  0.29420496  0.84240539  1
  C  C222  1  0.84240539  0.03352290  0.29420496  1
  C  C223  1  0.29420496  0.84240539  0.03352290  1
  C  C224  1  0.56553880  0.69266988  0.30112318  1
  C  C225  1  0.69887682  0.06553880  0.80733012  1
  C  C226  1  0.19266988  0.19887682  0.43446120  1
  C  C227  1  0.06553880  0.80733012  0.69887682  1
  C  C228  1  0.19887682  0.43446120  0.19266988  1
  C  C229  1  0.69266988  0.30112318  0.56553880  1
  C  C230  1  0.43446120  0.19266988  0.19887682  1
  C  C231  1  0.30112318  0.56553880  0.69266988  1
  C  C232  1  0.80733012  0.69887682  0.06553880  1
  C  C233  1  0.93446120  0.30733012  0.80112318  1
  C  C234  1  0.80112318  0.93446120  0.30733012  1
  C  C235  1  0.30733012  0.80112318  0.93446120  1
  C  C236  1  0.49650654  0.60893189  0.30419504  1
  C  C237  1  0.69580496  0.99650654  0.89106811  1
  C  C238  1  0.10893189  0.19580496  0.50349346  1
  C  C239  1  0.99650654  0.89106811  0.69580496  1
  C  C240  1  0.19580496  0.50349346  0.10893189  1
  C  C241  1  0.60893189  0.30419504  0.49650654  1
  C  C242  1  0.50349346  0.10893189  0.19580496  1
  C  C243  1  0.30419504  0.49650654  0.60893189  1
  C  C244  1  0.89106811  0.69580496  0.99650654  1
  C  C245  1  0.00349346  0.39106811  0.80419504  1
  C  C246  1  0.80419504  0.00349346  0.39106811  1
  C  C247  1  0.39106811  0.80419504  0.00349346  1
  Ni  Ni248  1  0.53548601  0.23666748  0.71320789  1
  Ni  Ni249  1  0.28679211  0.03548601  0.26333252  1
  Ni  Ni250  1  0.73666748  0.78679211  0.46451399  1
  Ni  Ni251  1  0.03548601  0.26333252  0.28679211  1
  Ni  Ni252  1  0.78679211  0.46451399  0.73666748  1
  Ni  Ni253  1  0.23666748  0.71320789  0.53548601  1
  Ni  Ni254  1  0.46451399  0.73666748  0.78679211  1
  Ni  Ni255  1  0.71320789  0.53548601  0.23666748  1
  Ni  Ni256  1  0.26333252  0.28679211  0.03548601  1
  Ni  Ni257  1  0.96451399  0.76333252  0.21320789  1
  Ni  Ni258  1  0.21320789  0.96451399  0.76333252  1
  Ni  Ni259  1  0.76333252  0.21320789  0.96451399  1
  Ni  Ni260  1  0.45510793  0.38053938  0.86402035  1
  Ni  Ni261  1  0.13597965  0.95510793  0.11946062  1
  Ni  Ni262  1  0.88053938  0.63597965  0.54489207  1
  Ni  Ni263  1  0.95510793  0.11946062  0.13597965  1
  Ni  Ni264  1  0.63597965  0.54489207  0.88053938  1
  Ni  Ni265  1  0.38053938  0.86402035  0.45510793  1
  Ni  Ni266  1  0.54489207  0.88053938  0.63597965  1
  Ni  Ni267  1  0.86402035  0.45510793  0.38053938  1
  Ni  Ni268  1  0.11946062  0.13597965  0.95510793  1
  Ni  Ni269  1  0.04489207  0.61946062  0.36402035  1
  Ni  Ni270  1  0.36402035  0.04489207  0.61946062  1
  Ni  Ni271  1  0.61946062  0.36402035  0.04489207  1
  Ni  Ni272  1  0.53579734  0.18821425  0.92261767  1
  Ni  Ni273  1  0.07738233  0.03579734  0.31178575  1
  Ni  Ni274  1  0.68821425  0.57738233  0.46420266  1
  Ni  Ni275  1  0.03579734  0.31178575  0.07738233  1
  Ni  Ni276  1  0.57738233  0.46420266  0.68821425  1
  Ni  Ni277  1  0.18821425  0.92261767  0.53579734  1
  Ni  Ni278  1  0.46420266  0.68821425  0.57738233  1
  Ni  Ni279  1  0.92261767  0.53579734  0.18821425  1
  Ni  Ni280  1  0.31178575  0.07738233  0.03579734  1
  Ni  Ni281  1  0.96420266  0.81178575  0.42261767  1
  Ni  Ni282  1  0.42261767  0.96420266  0.81178575  1
  Ni  Ni283  1  0.81178575  0.42261767  0.96420266  1
  Ni  Ni284  1  0.44349265  0.84028466  0.17560505  1
  Ni  Ni285  1  0.82439495  0.94349265  0.65971534  1
  Ni  Ni286  1  0.34028466  0.32439495  0.55650735  1
  Ni  Ni287  1  0.94349265  0.65971534  0.82439495  1
  Ni  Ni288  1  0.32439495  0.55650735  0.34028466  1
  Ni  Ni289  1  0.84028466  0.17560505  0.44349265  1
  Ni  Ni290  1  0.55650735  0.34028466  0.32439495  1
  Ni  Ni291  1  0.17560505  0.44349265  0.84028466  1
  Ni  Ni292  1  0.65971534  0.82439495  0.94349265  1
  Ni  Ni293  1  0.05650735  0.15971534  0.67560505  1
  Ni  Ni294  1  0.67560505  0.05650735  0.15971534  1
  Ni  Ni295  1  0.15971534  0.67560505  0.05650735  1
  Ni  Ni296  1  0.53063710  0.65923919  0.08174726  1
  Ni  Ni297  1  0.91825274  0.03063710  0.84076081  1
  Ni  Ni298  1  0.15923919  0.41825274  0.46936290  1
  Ni  Ni299  1  0.03063710  0.84076081  0.91825274  1
  Ni  Ni300  1  0.41825274  0.46936290  0.15923919  1
  Ni  Ni301  1  0.65923919  0.08174726  0.53063710  1
  Ni  Ni302  1  0.46936290  0.15923919  0.41825274  1
  Ni  Ni303  1  0.08174726  0.53063710  0.65923919  1
  Ni  Ni304  1  0.84076081  0.91825274  0.03063710  1
  Ni  Ni305  1  0.96936290  0.34076081  0.58174726  1
  Ni  Ni306  1  0.58174726  0.96936290  0.34076081  1
  Ni  Ni307  1  0.34076081  0.58174726  0.96936290  1
  Ni  Ni308  1  0.50201504  0.67434913  0.29628266  1
  Ni  Ni309  1  0.70371734  0.00201504  0.82565087  1
  Ni  Ni310  1  0.17434913  0.20371734  0.49798496  1
  Ni  Ni311  1  0.00201504  0.82565087  0.70371734  1
  Ni  Ni312  1  0.20371734  0.49798496  0.17434913  1
  Ni  Ni313  1  0.67434913  0.29628266  0.50201504  1
  Ni  Ni314  1  0.49798496  0.17434913  0.20371734  1
  Ni  Ni315  1  0.29628266  0.50201504  0.67434913  1
  Ni  Ni316  1  0.82565087  0.70371734  0.00201504  1
  Ni  Ni317  1  0.99798496  0.32565087  0.79628266  1
  Ni  Ni318  1  0.79628266  0.99798496  0.32565087  1
  Ni  Ni319  1  0.32565087  0.79628266  0.99798496  1
  Cu  Cu320  1  0.79808589  0.20191411  0.70191411  1
  Cu  Cu321  1  0.29808589  0.29808589  0.29808589  1
  Cu  Cu322  1  0.70191411  0.79808589  0.20191411  1
  Cu  Cu323  1  0.20191411  0.70191411  0.79808589  1
  Cu  Cu324  1  0.19975582  0.80024418  0.30024418  1
  Cu  Cu325  1  0.69975582  0.69975582  0.69975582  1
  Cu  Cu326  1  0.30024418  0.19975582  0.80024418  1
  Cu  Cu327  1  0.80024418  0.30024418  0.19975582  1
  C  C328  1  0.65525697  0.34474303  0.84474303  1
  C  C329  1  0.15525697  0.15525697  0.15525697  1
  C  C330  1  0.84474303  0.65525697  0.34474303  1
  C  C331  1  0.34474303  0.84474303  0.65525697  1
  C  C332  1  0.34154736  0.65845264  0.15845264  1
  C  C333  1  0.84154736  0.84154736  0.84154736  1
  C  C334  1  0.15845264  0.34154736  0.65845264  1
  C  C335  1  0.65845264  0.15845264  0.34154736  1
