# generated using pymatgen
data_Cu3Ni5C28
_symmetry_space_group_name_H-M   'P 1'
_cell_length_a   11.03746008
_cell_length_b   11.48266102
_cell_length_c   17.73626245
_cell_angle_alpha   108.53865052
_cell_angle_beta   108.07246423
_cell_angle_gamma   90.75746909
_symmetry_Int_Tables_number   1
_chemical_formula_structural   Cu3Ni5C28
_chemical_formula_sum   'Cu12 Ni20 C112'
_cell_volume   2010.43318287
_cell_formula_units_Z   4
loop_
 _symmetry_equiv_pos_site_id
 _symmetry_equiv_pos_as_xyz
  1  'x, y, z'
loop_
 _atom_site_type_symbol
 _atom_site_label
 _atom_site_symmetry_multiplicity
 _atom_site_fract_x
 _atom_site_fract_y
 _atom_site_fract_z
 _atom_site_occupancy
  Ni  Ni0  1  0.31095597  0.06021270  0.61553821  1
  Ni  Ni1  1  0.31115483  0.56433244  0.61723138  1
  Ni  Ni2  1  0.81175058  0.06343468  0.61792762  1
  Ni  Ni3  1  0.81142126  0.56420945  0.61898631  1
  Ni  Ni4  1  0.19252726  0.43557531  0.38207826  1
  Ni  Ni5  1  0.18592943  0.43819784  0.88410721  1
  Ni  Ni6  1  0.19448393  0.93633261  0.38284037  1
  Ni  Ni7  1  0.68968728  0.43615166  0.38074668  1
  Ni  Ni8  1  0.69158369  0.93629235  0.38124838  1
  Ni  Ni9  1  0.05766200  0.30697479  0.11976363  1
  Ni  Ni10  1  0.05661544  0.30030346  0.61492858  1
  Ni  Ni11  1  0.05732119  0.80804262  0.61775368  1
  Ni  Ni12  1  0.56271279  0.30329884  0.61765449  1
  Ni  Ni13  1  0.44067816  0.19527899  0.37959458  1
  Ni  Ni14  1  0.44748640  0.19393118  0.88548291  1
  Ni  Ni15  1  0.43984346  0.69264710  0.37860904  1
  Ni  Ni16  1  0.44278869  0.69436576  0.88196554  1
  Ni  Ni17  1  0.94128995  0.19692060  0.38098984  1
  Ni  Ni18  1  0.94224386  0.19381722  0.88245091  1
  Ni  Ni19  1  0.94492988  0.69349218  0.38245000  1
  Cu  Cu20  1  0.30668111  0.06365821  0.11467480  1
  Cu  Cu21  1  0.30655302  0.56265438  0.11569995  1
  Cu  Cu22  1  0.80116874  0.06285601  0.11262514  1
  Cu  Cu23  1  0.79955132  0.56132620  0.11456701  1
  Cu  Cu24  1  0.18931263  0.94118229  0.88674393  1
  Cu  Cu25  1  0.69787333  0.43643974  0.88891738  1
  Cu  Cu26  1  0.69436260  0.93754128  0.88407325  1
  Cu  Cu27  1  0.05533295  0.80004511  0.11210315  1
  Cu  Cu28  1  0.55432064  0.30311505  0.11635552  1
  Cu  Cu29  1  0.55051930  0.80330312  0.11495846  1
  Cu  Cu30  1  0.56139769  0.80029744  0.61340960  1
  Cu  Cu31  1  0.93993416  0.69657560  0.88379483  1
  C  C32  1  0.11929292  0.62066443  0.75252625  1
  C  C33  1  0.36032474  0.38807873  0.75208571  1
  C  C34  1  0.35972693  0.88244327  0.75054153  1
  C  C35  1  0.86149281  0.88782538  0.24556929  1
  C  C36  1  0.00655526  0.99807620  0.00089048  1
  C  C37  1  0.00381357  0.99749764  0.49739649  1
  C  C38  1  0.00533180  0.50456750  0.00281954  1
  C  C39  1  0.00434776  0.50143814  0.50122880  1
  C  C40  1  0.50691899  0.99619683  0.99852139  1
  C  C41  1  0.50570264  0.99898883  0.49990775  1
  C  C42  1  0.50511355  0.50130333  0.00075839  1
  C  C43  1  0.50522836  0.50128846  0.50122139  1
  C  C44  1  0.25690960  0.25033363  0.00120021  1
  C  C45  1  0.25543995  0.25036487  0.50098094  1
  C  C46  1  0.25420134  0.75167976  0.00021021  1
  C  C47  1  0.25888203  0.74977837  0.50201925  1
  C  C48  1  0.75702255  0.25028116  0.00146990  1
  C  C49  1  0.75285631  0.24988624  0.49844124  1
  C  C50  1  0.75712088  0.75057274  0.00169341  1
  C  C51  1  0.75299849  0.74968204  0.49935862  1
  C  C52  1  0.11744850  0.11766072  0.24790724  1
  C  C53  1  0.12740970  0.12708534  0.75130162  1
  C  C54  1  0.11877471  0.62418724  0.24874655  1
  C  C55  1  0.61931019  0.12061383  0.24669219  1
  C  C56  1  0.61820641  0.11729324  0.75059314  1
  C  C57  1  0.62335589  0.62466054  0.24788278  1
  C  C58  1  0.62169288  0.62097056  0.75248237  1
  C  C59  1  0.37247125  0.37863709  0.24872156  1
  C  C60  1  0.36427541  0.87838700  0.24741906  1
  C  C61  1  0.86729393  0.37934848  0.24879760  1
  C  C62  1  0.86774927  0.37840171  0.75195834  1
  C  C63  1  0.87193055  0.87350852  0.75152073  1
  C  C64  1  0.11743866  0.11666784  0.47725863  1
  C  C65  1  0.11765865  0.10849784  0.97464699  1
  C  C66  1  0.12044081  0.61724621  0.48152134  1
  C  C67  1  0.11120665  0.62117911  0.97441106  1
  C  C68  1  0.61515665  0.11383378  0.47531448  1
  C  C69  1  0.62055230  0.10757364  0.97532556  1
  C  C70  1  0.61504493  0.61723463  0.47792850  1
  C  C71  1  0.62062122  0.61256335  0.97497441  1
  C  C72  1  0.13737849  0.39201866  0.02429437  1
  C  C73  1  0.13841234  0.38422530  0.52221136  1
  C  C74  1  0.14283298  0.88403675  0.02830400  1
  C  C75  1  0.14347053  0.87896969  0.52241729  1
  C  C76  1  0.63484720  0.38689283  0.02581293  1
  C  C77  1  0.63866111  0.38900034  0.52315297  1
  C  C78  1  0.64137492  0.88079276  0.02857077  1
  C  C79  1  0.63879722  0.88272452  0.52256498  1
  C  C80  1  0.36890792  0.11246576  0.48105978  1
  C  C81  1  0.36811928  0.09876578  0.97242380  1
  C  C82  1  0.36876364  0.61183499  0.47859525  1
  C  C83  1  0.36414455  0.61330502  0.97539184  1
  C  C84  1  0.86652566  0.11429360  0.47865999  1
  C  C85  1  0.86797930  0.10045280  0.97526468  1
  C  C86  1  0.86681952  0.61350873  0.47890348  1
  C  C87  1  0.86662477  0.61527801  0.97526111  1
  C  C88  1  0.39191280  0.39678578  0.02884009  1
  C  C89  1  0.39042480  0.38969725  0.52409821  1
  C  C90  1  0.38979234  0.89113572  0.02588588  1
  C  C91  1  0.39453560  0.88645086  0.52434949  1
  C  C92  1  0.88625648  0.40212063  0.02808992  1
  C  C93  1  0.88894103  0.38880914  0.52227994  1
  C  C94  1  0.89222055  0.89252819  0.02986698  1
  C  C95  1  0.88787918  0.88488300  0.52042649  1
  C  C96  1  0.08853215  0.10547391  0.12494751  1
  C  C97  1  0.07221169  0.09818015  0.62567289  1
  C  C98  1  0.09035534  0.60915864  0.12604532  1
  C  C99  1  0.06774277  0.60481167  0.62615844  1
  C  C100  1  0.58244306  0.10619123  0.12292212  1
  C  C101  1  0.57746027  0.10117482  0.62545562  1
  C  C102  1  0.58424723  0.61065850  0.12443960  1
  C  C103  1  0.57529336  0.60623309  0.62634720  1
  C  C104  1  0.44975661  0.39926056  0.37582563  1
  C  C105  1  0.45849541  0.39669037  0.87375904  1
  C  C106  1  0.44576925  0.89736952  0.37371107  1
  C  C107  1  0.46527852  0.89471753  0.87334509  1
  C  C108  1  0.94952617  0.40140015  0.37478957  1
  C  C109  1  0.94665655  0.39765854  0.87715695  1
  C  C110  1  0.94764889  0.89528643  0.36937498  1
  C  C111  1  0.95566616  0.89213062  0.87597338  1
  C  C112  1  0.34093732  0.26603718  0.12592951  1
  C  C113  1  0.32536782  0.27495337  0.62805920  1
  C  C114  1  0.33637360  0.76687612  0.12451790  1
  C  C115  1  0.34002606  0.77713130  0.62780343  1
  C  C116  1  0.83111012  0.26744347  0.12648436  1
  C  C117  1  0.82335152  0.27483126  0.62615823  1
  C  C118  1  0.83720052  0.76680668  0.12615231  1
  C  C119  1  0.81933323  0.77520817  0.62541536  1
  C  C120  1  0.19945946  0.22486958  0.37419187  1
  C  C121  1  0.19734081  0.23067303  0.87492687  1
  C  C122  1  0.19737336  0.72540015  0.37522737  1
  C  C123  1  0.19662131  0.73624129  0.87676065  1
  C  C124  1  0.69665279  0.22573617  0.37261205  1
  C  C125  1  0.70088046  0.22991107  0.87484608  1
  C  C126  1  0.69476387  0.72588753  0.37421397  1
  C  C127  1  0.71011708  0.73529033  0.87695669  1
  C  C128  1  0.41642163  0.06496520  0.24487775  1
  C  C129  1  0.41733719  0.06100840  0.75055537  1
  C  C130  1  0.42415711  0.56821811  0.24456651  1
  C  C131  1  0.42412275  0.55882534  0.74986870  1
  C  C132  1  0.90925296  0.06403940  0.24431490  1
  C  C133  1  0.93199745  0.06312562  0.75055332  1
  C  C134  1  0.91598429  0.57094785  0.24524132  1
  C  C135  1  0.93349483  0.56849380  0.75571348  1
  C  C136  1  0.17555929  0.43982589  0.25071726  1
  C  C137  1  0.17848640  0.44393375  0.74949442  1
  C  C138  1  0.14927610  0.92368234  0.24519530  1
  C  C139  1  0.17891500  0.93406653  0.75598600  1
  C  C140  1  0.66704766  0.42979736  0.24562138  1
  C  C141  1  0.66568737  0.42895956  0.75590396  1
  C  C142  1  0.67460961  0.92702792  0.24458095  1
  C  C143  1  0.66264278  0.92311000  0.74938791  1
