# generated using pymatgen
data_Cu3NiC15
_symmetry_space_group_name_H-M   'P 1'
_cell_length_a   11.07118907
_cell_length_b   11.63215278
_cell_length_c   11.79602197
_cell_angle_alpha   90.00000000
_cell_angle_beta   99.15663175
_cell_angle_gamma   90.00000000
_symmetry_Int_Tables_number   1
_chemical_formula_structural   Cu3NiC15
_chemical_formula_sum   'Cu24 Ni8 C120'
_cell_volume   1499.75445032
_cell_formula_units_Z   8
loop_
 _symmetry_equiv_pos_site_id
 _symmetry_equiv_pos_as_xyz
  1  'x, y, z'
loop_
 _atom_site_type_symbol
 _atom_site_label
 _atom_site_symmetry_multiplicity
 _atom_site_fract_x
 _atom_site_fract_y
 _atom_site_fract_z
 _atom_site_occupancy
  Ni  Ni0  1  0.23051353  0.93103110  0.37026356  1
  Ni  Ni1  1  0.73051353  0.56896890  0.87026356  1
  Ni  Ni2  1  0.76948647  0.06896890  0.62973644  1
  Ni  Ni3  1  0.26948647  0.43103110  0.12973644  1
  Ni  Ni4  1  0.74085929  0.66727482  0.41877198  1
  Ni  Ni5  1  0.24085929  0.83272518  0.91877198  1
  Ni  Ni6  1  0.25914071  0.33272518  0.58122802  1
  Ni  Ni7  1  0.75914071  0.16727482  0.08122802  1
  Cu  Cu8  1  0.09572879  0.06267680  0.30741841  1
  Cu  Cu9  1  0.59572879  0.43732320  0.80741841  1
  Cu  Cu10  1  0.90427121  0.93732320  0.69258159  1
  Cu  Cu11  1  0.40427121  0.56267680  0.19258159  1
  Cu  Cu12  1  0.23847879  0.91319153  0.55755329  1
  Cu  Cu13  1  0.73847879  0.58680847  0.05755329  1
  Cu  Cu14  1  0.76152121  0.08680847  0.44244671  1
  Cu  Cu15  1  0.26152121  0.41319153  0.94244671  1
  Cu  Cu16  1  0.37286496  0.93512410  0.25885826  1
  Cu  Cu17  1  0.87286496  0.56487590  0.75885826  1
  Cu  Cu18  1  0.62713504  0.06487590  0.74114174  1
  Cu  Cu19  1  0.12713504  0.43512410  0.24114174  1
  Cu  Cu20  1  0.73192581  0.47953917  0.43339353  1
  Cu  Cu21  1  0.23192581  0.02046083  0.93339353  1
  Cu  Cu22  1  0.26807419  0.52046083  0.56660647  1
  Cu  Cu23  1  0.76807419  0.97953917  0.06660647  1
  Cu  Cu24  1  0.61493378  0.73950065  0.53212031  1
  Cu  Cu25  1  0.11493378  0.76049935  0.03212031  1
  Cu  Cu26  1  0.38506622  0.26049935  0.46787969  1
  Cu  Cu27  1  0.88506622  0.23950065  0.96787969  1
  Cu  Cu28  1  0.93103842  0.71052599  0.39167592  1
  Cu  Cu29  1  0.43103842  0.78947401  0.89167592  1
  Cu  Cu30  1  0.06896158  0.28947401  0.60832408  1
  Cu  Cu31  1  0.56896158  0.21052599  0.10832408  1
  C  C32  1  0.41106868  0.84168830  0.23687824  1
  C  C33  1  0.91106868  0.65831170  0.73687824  1
  C  C34  1  0.58893132  0.15831170  0.76312176  1
  C  C35  1  0.08893132  0.34168830  0.26312176  1
  C  C36  1  0.07720951  0.95591304  0.29536397  1
  C  C37  1  0.57720951  0.54408696  0.79536397  1
  C  C38  1  0.92279049  0.04408696  0.70463603  1
  C  C39  1  0.42279049  0.45591304  0.20463603  1
  C  C40  1  0.29984643  0.58333417  0.13643278  1
  C  C41  1  0.79984643  0.91666583  0.63643278  1
  C  C42  1  0.70015357  0.41666583  0.86356722  1
  C  C43  1  0.20015357  0.08333417  0.36356722  1
  C  C44  1  0.40524758  0.60081211  0.28783303  1
  C  C45  1  0.90524758  0.89918789  0.78783303  1
  C  C46  1  0.59475242  0.39918789  0.71216697  1
  C  C47  1  0.09475242  0.10081211  0.21216697  1
  C  C48  1  0.47707088  0.59696365  0.13485717  1
  C  C49  1  0.97707088  0.90303635  0.63485717  1
  C  C50  1  0.52292912  0.40303635  0.86514283  1
  C  C51  1  0.02292912  0.09696365  0.36514283  1
  C  C52  1  0.08174636  0.51799760  0.27960921  1
  C  C53  1  0.58174636  0.98200240  0.77960921  1
  C  C54  1  0.91825364  0.48200240  0.72039079  1
  C  C55  1  0.41825364  0.01799760  0.22039079  1
  C  C56  1  0.39376548  0.94830993  0.36546492  1
  C  C57  1  0.89376548  0.55169007  0.86546492  1
  C  C58  1  0.60623452  0.05169007  0.63453508  1
  C  C59  1  0.10623452  0.44830993  0.13453508  1
  C  C60  1  0.26175583  0.93819651  0.21998435  1
  C  C61  1  0.76175583  0.56180349  0.71998435  1
  C  C62  1  0.73824417  0.06180349  0.78001565  1
  C  C63  1  0.23824417  0.43819651  0.28001565  1
  C  C64  1  0.02555952  0.66718024  0.43756361  1
  C  C65  1  0.52555952  0.83281976  0.93756361  1
  C  C66  1  0.97444048  0.33281976  0.56243639  1
  C  C67  1  0.47444048  0.16718024  0.06243639  1
  C  C68  1  0.77389717  0.68154420  0.08972940  1
  C  C69  1  0.27389717  0.81845580  0.58972940  1
  C  C70  1  0.22610283  0.31845580  0.91027060  1
  C  C71  1  0.72610283  0.18154420  0.41027060  1
  C  C72  1  0.71660231  0.51867737  0.12896193  1
  C  C73  1  0.21660231  0.98132263  0.62896193  1
  C  C74  1  0.28339769  0.48132263  0.87103807  1
  C  C75  1  0.78339769  0.01867737  0.37103807  1
  C  C76  1  0.58310035  0.65828480  0.46571402  1
  C  C77  1  0.08310035  0.84171520  0.96571402  1
  C  C78  1  0.41689965  0.34171520  0.53428598  1
  C  C79  1  0.91689965  0.15828480  0.03428598  1
  C  C80  1  0.84691772  0.93233946  0.02426934  1
  C  C81  1  0.34691772  0.56766054  0.52426934  1
  C  C82  1  0.15308228  0.06766054  0.97573066  1
  C  C83  1  0.65308228  0.43233946  0.47573066  1
  C  C84  1  0.69079918  0.92326818  0.10201863  1
  C  C85  1  0.19079918  0.57673182  0.60201863  1
  C  C86  1  0.30920082  0.07673182  0.89798137  1
  C  C87  1  0.80920082  0.42326818  0.39798137  1
  C  C88  1  0.93509962  0.79152707  0.32815416  1
  C  C89  1  0.43509962  0.70847293  0.82815416  1
  C  C90  1  0.06490038  0.20847293  0.67184584  1
  C  C91  1  0.56490038  0.29152707  0.17184584  1
  C  C92  1  0.10143125  0.79120740  0.12756190  1
  C  C93  1  0.60143125  0.70879260  0.62756190  1
  C  C94  1  0.89856875  0.20879260  0.87243810  1
  C  C95  1  0.39856875  0.29120740  0.37243810  1
  C  C96  1  0.78806603  0.54504493  0.50933798  1
  C  C97  1  0.28806603  0.95495507  0.00933798  1
  C  C98  1  0.21193397  0.45495507  0.49066202  1
  C  C99  1  0.71193397  0.04504493  0.99066202  1
  C  C100  1  0.67715469  0.53639209  0.34960404  1
  C  C101  1  0.17715469  0.96360791  0.84960404  1
  C  C102  1  0.32284531  0.46360791  0.65039596  1
  C  C103  1  0.82284531  0.03639209  0.15039596  1
  C  C104  1  0.20438522  0.67804298  0.34135938  1
  C  C105  1  0.70438522  0.82195702  0.84135938  1
  C  C106  1  0.79561478  0.32195702  0.65864062  1
  C  C107  1  0.29561478  0.17804298  0.15864062  1
  C  C108  1  0.69433932  0.73358539  0.21014642  1
  C  C109  1  0.19433932  0.76641461  0.71014642  1
  C  C110  1  0.30566068  0.26641461  0.78985358  1
  C  C111  1  0.80566068  0.23358539  0.28985358  1
  C  C112  1  0.69446522  0.84515754  0.29565787  1
  C  C113  1  0.19446522  0.65484246  0.79565787  1
  C  C114  1  0.30553478  0.15484246  0.70434213  1
  C  C115  1  0.80553478  0.34515754  0.20434213  1
  C  C116  1  0.57336070  0.76123724  0.27276100  1
  C  C117  1  0.07336070  0.73876276  0.77276100  1
  C  C118  1  0.42663930  0.23876276  0.72723900  1
  C  C119  1  0.92663930  0.26123724  0.22723900  1
  C  C120  1  0.88212048  0.74530351  0.47420935  1
  C  C121  1  0.38212048  0.75469649  0.97420935  1
  C  C122  1  0.11787952  0.25469649  0.52579065  1
  C  C123  1  0.61787952  0.24530351  0.02579065  1
  C  C124  1  0.22752347  0.74145358  0.04052005  1
  C  C125  1  0.72752347  0.75854642  0.54052005  1
  C  C126  1  0.77247653  0.25854642  0.95947995  1
  C  C127  1  0.27247653  0.24145358  0.45947995  1
  C  C128  1  0.87079087  0.63201530  0.33774451  1
  C  C129  1  0.37079087  0.86798470  0.83774451  1
  C  C130  1  0.12920913  0.36798470  0.66225549  1
  C  C131  1  0.62920913  0.13201530  0.16225549  1
  C  C132  1  0.56287837  0.82647009  0.49587201  1
  C  C133  1  0.06287837  0.67352991  0.99587201  1
  C  C134  1  0.43712163  0.17352991  0.50412799  1
  C  C135  1  0.93712163  0.32647009  0.00412799  1
  C  C136  1  0.14063303  0.90526703  0.48930074  1
  C  C137  1  0.64063303  0.59473297  0.98930074  1
  C  C138  1  0.85936697  0.09473297  0.51069926  1
  C  C139  1  0.35936697  0.40526703  0.01069926  1
  C  C140  1  0.82156834  0.54185222  0.01251213  1
  C  C141  1  0.32156834  0.95814778  0.51251213  1
  C  C142  1  0.17843166  0.45814778  0.98748787  1
  C  C143  1  0.67843166  0.04185222  0.48748787  1
  C  C144  1  0.20789374  0.76671232  0.34517728  1
  C  C145  1  0.70789374  0.73328768  0.84517728  1
  C  C146  1  0.79210626  0.23328768  0.65482272  1
  C  C147  1  0.29210626  0.26671232  0.15482272  1
  C  C148  1  0.66745724  0.76077397  0.28557225  1
  C  C149  1  0.16745724  0.73922603  0.78557225  1
  C  C150  1  0.33254276  0.23922603  0.71442775  1
  C  C151  1  0.83254276  0.26077397  0.21442775  1
