# generated using pymatgen
data_CuNiC19
_symmetry_space_group_name_H-M   'P 1'
_cell_length_a   8.89194425
_cell_length_b   8.89194425
_cell_length_c   8.89194373
_cell_angle_alpha   60.56627661
_cell_angle_beta   60.56627661
_cell_angle_gamma   60.56627736
_symmetry_Int_Tables_number   1
_chemical_formula_structural   CuNiC19
_chemical_formula_sum   'Cu2 Ni2 C38'
_cell_volume   503.49543392
_cell_formula_units_Z   2
loop_
 _symmetry_equiv_pos_site_id
 _symmetry_equiv_pos_as_xyz
  1  'x, y, z'
loop_
 _atom_site_type_symbol
 _atom_site_label
 _atom_site_symmetry_multiplicity
 _atom_site_fract_x
 _atom_site_fract_y
 _atom_site_fract_z
 _atom_site_occupancy
  C  C0  1  0.74419300  0.11566800  0.38642800  1
  C  C1  1  0.38642800  0.74419300  0.11566800  1
  C  C2  1  0.11566800  0.38642800  0.74419300  1
  C  C3  1  0.88642800  0.61566800  0.24419300  1
  C  C4  1  0.24419300  0.88642800  0.61566800  1
  C  C5  1  0.61566800  0.24419300  0.88642800  1
  C  C6  1  0.49808300  0.49808300  0.49808300  1
  C  C7  1  0.99808300  0.99808300  0.99808300  1
  Ni  Ni8  1  0.35111400  0.35111400  0.35111400  1
  Ni  Ni9  1  0.85111400  0.85111400  0.85111400  1
  Cu  Cu10  1  0.64973900  0.64973900  0.64973900  1
  Cu  Cu11  1  0.14973900  0.14973900  0.14973900  1
  C  C12  1  0.75305800  0.45345000  0.04675700  1
  C  C13  1  0.04675700  0.75305800  0.45345000  1
  C  C14  1  0.45345000  0.04675700  0.75305800  1
  C  C15  1  0.54675700  0.95345000  0.25305800  1
  C  C16  1  0.25305800  0.54675700  0.95345000  1
  C  C17  1  0.95345000  0.25305800  0.54675700  1
  C  C18  1  0.11771600  0.29108500  0.51694700  1
  C  C19  1  0.51694700  0.11771600  0.29108500  1
  C  C20  1  0.29108500  0.51694700  0.11771600  1
  C  C21  1  0.01694700  0.79108500  0.61771600  1
  C  C22  1  0.61771600  0.01694700  0.79108500  1
  C  C23  1  0.79108500  0.61771600  0.01694700  1
  C  C24  1  0.87621500  0.71795000  0.48305600  1
  C  C25  1  0.48305600  0.87621500  0.71795000  1
  C  C26  1  0.71795000  0.48305600  0.87621500  1
  C  C27  1  0.98305600  0.21795000  0.37621500  1
  C  C28  1  0.37621500  0.98305600  0.21795000  1
  C  C29  1  0.21795000  0.37621500  0.98305600  1
  C  C30  1  0.22428600  0.58908500  0.42714300  1
  C  C31  1  0.42714300  0.22428600  0.58908500  1
  C  C32  1  0.58908500  0.42714300  0.22428600  1
  C  C33  1  0.92714300  0.08908500  0.72428600  1
  C  C34  1  0.72428600  0.92714300  0.08908500  1
  C  C35  1  0.08908500  0.72428600  0.92714300  1
  C  C36  1  0.77243800  0.42116300  0.56443500  1
  C  C37  1  0.56443500  0.77243800  0.42116300  1
  C  C38  1  0.42116300  0.56443500  0.77243800  1
  C  C39  1  0.06443500  0.92116300  0.27243800  1
  C  C40  1  0.27243800  0.06443500  0.92116300  1
  C  C41  1  0.92116300  0.27243800  0.06443500  1
