# generated using pymatgen
data_Cu2Ni10C23
_symmetry_space_group_name_H-M   'P 1'
_cell_length_a   7.98604500
_cell_length_b   13.14010300
_cell_length_c   7.94692912
_cell_angle_alpha   90.00000000
_cell_angle_beta   115.34512416
_cell_angle_gamma   90.00000000
_symmetry_Int_Tables_number   1
_chemical_formula_structural   Cu2Ni10C23
_chemical_formula_sum   'Cu4 Ni20 C46'
_cell_volume   753.66110845
_cell_formula_units_Z   2
loop_
 _symmetry_equiv_pos_site_id
 _symmetry_equiv_pos_as_xyz
  1  'x, y, z'
loop_
 _atom_site_type_symbol
 _atom_site_label
 _atom_site_symmetry_multiplicity
 _atom_site_fract_x
 _atom_site_fract_y
 _atom_site_fract_z
 _atom_site_occupancy
  C  C0  1  0.00000000  0.50000000  0.50000000  1
  C  C1  1  0.00000000  0.00000000  0.00000000  1
  C  C2  1  0.26377800  0.44573300  0.08637500  1
  C  C3  1  0.73622200  0.94573300  0.41362500  1
  C  C4  1  0.73622200  0.55426700  0.91362500  1
  C  C5  1  0.26377800  0.05426700  0.58637500  1
  C  C6  1  0.25754800  0.62982400  0.64678400  1
  C  C7  1  0.74245200  0.12982400  0.85321600  1
  C  C8  1  0.74245200  0.37017600  0.35321600  1
  C  C9  1  0.25754800  0.87017600  0.14678400  1
  C  C10  1  0.08788000  0.67986300  0.46124600  1
  C  C11  1  0.91212000  0.17986300  0.03875400  1
  C  C12  1  0.91212000  0.32013700  0.53875400  1
  C  C13  1  0.08788000  0.82013700  0.96124600  1
  C  C14  1  0.41457100  0.54882900  0.18937900  1
  C  C15  1  0.58542900  0.04882900  0.31062100  1
  C  C16  1  0.58542900  0.45117100  0.81062100  1
  C  C17  1  0.41457100  0.95117100  0.68937900  1
  C  C18  1  0.34712200  0.65704700  0.39066000  1
  C  C19  1  0.65287800  0.15704700  0.10934000  1
  C  C20  1  0.65287800  0.34295300  0.60934000  1
  C  C21  1  0.34712200  0.84295300  0.89066000  1
  C  C22  1  0.45880300  0.20668100  0.53527600  1
  C  C23  1  0.54119700  0.70668100  0.96472400  1
  C  C24  1  0.54119700  0.79331900  0.46472400  1
  C  C25  1  0.45880300  0.29331900  0.03527600  1
  C  C26  1  0.43901400  0.28306500  0.68026000  1
  C  C27  1  0.56098600  0.78306500  0.81974000  1
  C  C28  1  0.56098600  0.71693500  0.31974000  1
  C  C29  1  0.43901400  0.21693500  0.18026000  1
  C  C30  1  0.21908200  0.51737200  0.28859500  1
  C  C31  1  0.78091800  0.01737200  0.21140500  1
  C  C32  1  0.78091800  0.48262800  0.71140500  1
  C  C33  1  0.21908200  0.98262800  0.78859500  1
  Ni  Ni34  1  0.16708500  0.61542500  0.51123300  1
  Ni  Ni35  1  0.83291500  0.11542500  0.98876700  1
  Ni  Ni36  1  0.83291500  0.38457500  0.48876700  1
  Ni  Ni37  1  0.16708500  0.88457500  0.01123300  1
  Ni  Ni38  1  0.26764400  0.59666100  0.40602500  1
  Ni  Ni39  1  0.73235600  0.09666100  0.09397500  1
  Ni  Ni40  1  0.73235600  0.40333900  0.59397500  1
  Ni  Ni41  1  0.26764400  0.90333900  0.90602500  1
  Ni  Ni42  1  0.30227300  0.50515900  0.17705300  1
  Ni  Ni43  1  0.69772700  0.00515900  0.32294700  1
  Ni  Ni44  1  0.69772700  0.49484100  0.82294700  1
  Ni  Ni45  1  0.30227300  0.99484100  0.67705300  1
  Ni  Ni46  1  0.08660500  0.45548800  0.30202500  1
  Ni  Ni47  1  0.91339500  0.95548800  0.19797500  1
  Ni  Ni48  1  0.91339500  0.54451200  0.69797500  1
  Ni  Ni49  1  0.08660500  0.04451200  0.80202500  1
  Ni  Ni50  1  0.02670500  0.37172500  0.19252600  1
  Ni  Ni51  1  0.97329500  0.87172500  0.30747400  1
  Ni  Ni52  1  0.97329500  0.62827500  0.80747400  1
  Ni  Ni53  1  0.02670500  0.12827500  0.69252600  1
  Cu  Cu54  1  0.68112000  0.60655700  0.21162500  1
  Cu  Cu55  1  0.31888000  0.10655700  0.28837500  1
  Cu  Cu56  1  0.31888000  0.39344300  0.78837500  1
  Cu  Cu57  1  0.68112000  0.89344300  0.71162500  1
  C  C58  1  0.91463400  0.31647700  0.22069100  1
  C  C59  1  0.08536600  0.81647700  0.27930900  1
  C  C60  1  0.08536600  0.68352300  0.77930900  1
  C  C61  1  0.91463400  0.18352300  0.72069100  1
  C  C62  1  0.07899400  0.35146300  0.06874300  1
  C  C63  1  0.92100600  0.85146300  0.43125700  1
  C  C64  1  0.92100600  0.64853700  0.93125700  1
  C  C65  1  0.07899400  0.14853700  0.56874300  1
  C  C66  1  0.53050400  0.24743000  0.64758600  1
  C  C67  1  0.46949600  0.74743000  0.85241400  1
  C  C68  1  0.46949600  0.75257000  0.35241400  1
  C  C69  1  0.53050400  0.25257000  0.14758600  1
