# generated using pymatgen
data_Cu8NiC16
_symmetry_space_group_name_H-M   'P 1'
_cell_length_a   4.83734656
_cell_length_b   4.99214151
_cell_length_c   12.40724954
_cell_angle_alpha   91.98451660
_cell_angle_beta   90.93695621
_cell_angle_gamma   88.84252384
_symmetry_Int_Tables_number   1
_chemical_formula_structural   Cu8NiC16
_chemical_formula_sum   'Cu8 Ni1 C16'
_cell_volume   299.34163600
_cell_formula_units_Z   1
loop_
 _symmetry_equiv_pos_site_id
 _symmetry_equiv_pos_as_xyz
  1  'x, y, z'
loop_
 _atom_site_type_symbol
 _atom_site_label
 _atom_site_symmetry_multiplicity
 _atom_site_fract_x
 _atom_site_fract_y
 _atom_site_fract_z
 _atom_site_occupancy
  Ni  Ni0  1  0.50300100  0.97763200  0.12456700  1
  Cu  Cu1  1  0.98294500  0.96960700  0.98790800  1
  Cu  Cu2  1  0.03900700  0.02296500  0.25967700  1
  Cu  Cu3  1  0.97175400  0.94602000  0.49949800  1
  Cu  Cu4  1  0.04826000  0.03960500  0.74422600  1
  Cu  Cu5  1  0.47407800  0.52617600  0.62119200  1
  Cu  Cu6  1  0.58141400  0.46782300  0.12222100  1
  Cu  Cu7  1  0.46277800  0.49668300  0.37719900  1
  Cu  Cu8  1  0.48823800  0.55250200  0.86630600  1
  C  C9  1  0.16664500  0.78500000  0.37091600  1
  C  C10  1  0.17362600  0.80885000  0.61851700  1
  C  C11  1  0.17753500  0.81454900  0.87027800  1
  C  C12  1  0.35853200  0.25926200  0.24111300  1
  C  C13  1  0.32484200  0.35330200  0.74708400  1
  C  C14  1  0.66743900  0.72427200  0.00193200  1
  C  C15  1  0.64639000  0.67740800  0.49572400  1
  C  C16  1  0.85736400  0.16179700  0.12316900  1
  C  C17  1  0.19919700  0.73811100  0.12549200  1
  C  C18  1  0.33108500  0.21726600  0.01164400  1
  C  C19  1  0.27550600  0.27910800  0.49599100  1
  C  C20  1  0.68583800  0.75277800  0.24272200  1
  C  C21  1  0.69192500  0.75266000  0.74515200  1
  C  C22  1  0.79207600  0.20035300  0.38275000  1
  C  C23  1  0.79328100  0.21130100  0.61846800  1
  C  C24  1  0.80724200  0.25108400  0.87396000  1
