# generated using pymatgen
data_Cu4Ni3C14
_symmetry_space_group_name_H-M   'P 1'
_cell_length_a   6.79833200
_cell_length_b   13.38133800
_cell_length_c   13.61809000
_cell_angle_alpha   90.00000000
_cell_angle_beta   90.00000000
_cell_angle_gamma   90.00000000
_symmetry_Int_Tables_number   1
_chemical_formula_structural   Cu4Ni3C14
_chemical_formula_sum   'Cu16 Ni12 C56'
_cell_volume   1238.84824664
_cell_formula_units_Z   4
loop_
 _symmetry_equiv_pos_site_id
 _symmetry_equiv_pos_as_xyz
  1  'x, y, z'
loop_
 _atom_site_type_symbol
 _atom_site_label
 _atom_site_symmetry_multiplicity
 _atom_site_fract_x
 _atom_site_fract_y
 _atom_site_fract_z
 _atom_site_occupancy
  C  C0  1  0.97274200  0.43648800  0.77490500  1
  C  C1  1  0.02725800  0.93648800  0.22509500  1
  C  C2  1  0.97274200  0.93648800  0.72509500  1
  C  C3  1  0.02725800  0.43648800  0.27490500  1
  C  C4  1  0.38893400  0.23529100  0.55424200  1
  C  C5  1  0.61106600  0.73529100  0.44575800  1
  C  C6  1  0.38893400  0.73529100  0.94575800  1
  C  C7  1  0.61106600  0.23529100  0.05424200  1
  C  C8  1  0.71383300  0.28752100  0.74987200  1
  C  C9  1  0.28616700  0.78752100  0.25012800  1
  C  C10  1  0.71383300  0.78752100  0.75012800  1
  C  C11  1  0.28616700  0.28752100  0.24987200  1
  C  C12  1  0.92078100  0.26730200  0.69016800  1
  C  C13  1  0.07921900  0.76730200  0.30983200  1
  C  C14  1  0.92078100  0.76730200  0.80983200  1
  C  C15  1  0.07921900  0.26730200  0.19016800  1
  C  C16  1  0.91001700  0.25297000  0.81235600  1
  C  C17  1  0.08998300  0.75297000  0.18764400  1
  C  C18  1  0.91001700  0.75297000  0.68764400  1
  C  C19  1  0.08998300  0.25297000  0.31235600  1
  C  C20  1  0.00173300  0.56898200  0.62744100  1
  C  C21  1  0.99826700  0.06898200  0.37255900  1
  C  C22  1  0.00173300  0.06898200  0.87255900  1
  C  C23  1  0.99826700  0.56898200  0.12744100  1
  C  C24  1  0.11362100  0.46274800  0.60258000  1
  C  C25  1  0.88637900  0.96274800  0.39742000  1
  C  C26  1  0.11362100  0.96274800  0.89742000  1
  C  C27  1  0.88637900  0.46274800  0.10258000  1
  C  C28  1  0.86835100  0.47067100  0.59710800  1
  C  C29  1  0.13164900  0.97067100  0.40289200  1
  C  C30  1  0.86835100  0.97067100  0.90289200  1
  C  C31  1  0.13164900  0.47067100  0.09710800  1
  C  C32  1  0.27039700  0.41591000  0.90124700  1
  C  C33  1  0.72960300  0.91591000  0.09875300  1
  C  C34  1  0.27039700  0.91591000  0.59875300  1
  C  C35  1  0.72960300  0.41591000  0.40124700  1
  C  C36  1  0.30884900  0.35048700  0.80015900  1
  C  C37  1  0.69115100  0.85048700  0.19984100  1
  C  C38  1  0.30884900  0.85048700  0.69984100  1
  C  C39  1  0.69115100  0.35048700  0.30015900  1
  C  C40  1  0.33735600  0.47446200  0.79998500  1
  C  C41  1  0.66264400  0.97446200  0.20001500  1
  C  C42  1  0.33735600  0.97446200  0.70001500  1
  C  C43  1  0.66264400  0.47446200  0.29998500  1
  C  C44  1  0.74362300  0.48284100  0.92022900  1
  C  C45  1  0.25637700  0.98284100  0.07977100  1
  C  C46  1  0.74362300  0.98284100  0.57977100  1
  C  C47  1  0.25637700  0.48284100  0.42022900  1
  C  C48  1  0.89246700  0.57843400  0.89740500  1
  C  C49  1  0.10753300  0.07843400  0.10259500  1
  C  C50  1  0.89246700  0.07843400  0.60259500  1
  C  C51  1  0.10753300  0.57843400  0.39740500  1
  C  C52  1  0.69669000  0.55954800  0.82798900  1
  C  C53  1  0.30331000  0.05954800  0.17201100  1
  C  C54  1  0.69669000  0.05954800  0.67201100  1
  C  C55  1  0.30331000  0.55954800  0.32798900  1
  Ni  Ni56  1  0.46706100  0.42002900  0.56413200  1
  Ni  Ni57  1  0.53293900  0.92002900  0.43586800  1
  Ni  Ni58  1  0.46706100  0.92002900  0.93586800  1
  Ni  Ni59  1  0.53293900  0.42002900  0.06413200  1
  Ni  Ni60  1  0.40081200  0.17422800  0.73018500  1
  Ni  Ni61  1  0.59918800  0.67422800  0.26981500  1
  Ni  Ni62  1  0.40081200  0.67422800  0.76981500  1
  Ni  Ni63  1  0.59918800  0.17422800  0.23018500  1
  Ni  Ni64  1  0.02808100  0.22995600  0.50939200  1
  Ni  Ni65  1  0.97191900  0.72995600  0.49060800  1
  Ni  Ni66  1  0.02808100  0.72995600  0.99060800  1
  Ni  Ni67  1  0.97191900  0.22995600  0.00939200  1
  Cu  Cu68  1  0.86410800  0.29646000  0.75458300  1
  Cu  Cu69  1  0.13589200  0.79646000  0.24541700  1
  Cu  Cu70  1  0.86410800  0.79646000  0.74541700  1
  Cu  Cu71  1  0.13589200  0.29646000  0.25458300  1
  Cu  Cu72  1  0.98990900  0.49311800  0.63591200  1
  Cu  Cu73  1  0.01009100  0.99311800  0.36408800  1
  Cu  Cu74  1  0.98990900  0.99311800  0.86408800  1
  Cu  Cu75  1  0.01009100  0.49311800  0.13591200  1
  Cu  Cu76  1  0.25189600  0.41702700  0.82639500  1
  Cu  Cu77  1  0.74810400  0.91702700  0.17360500  1
  Cu  Cu78  1  0.25189600  0.91702700  0.67360500  1
  Cu  Cu79  1  0.74810400  0.41702700  0.32639500  1
  Cu  Cu80  1  0.80927800  0.52308600  0.86414800  1
  Cu  Cu81  1  0.19072200  0.02308600  0.13585200  1
  Cu  Cu82  1  0.80927800  0.02308600  0.63585200  1
  Cu  Cu83  1  0.19072200  0.52308600  0.36414800  1
