# generated using pymatgen
data_Cu2Ni2C17
_symmetry_space_group_name_H-M   'P 1'
_cell_length_a   5.91494780
_cell_length_b   6.23979591
_cell_length_c   7.64885710
_cell_angle_alpha   89.64884913
_cell_angle_beta   87.08335387
_cell_angle_gamma   81.74536107
_symmetry_Int_Tables_number   1
_chemical_formula_structural   Cu2Ni2C17
_chemical_formula_sum   'Cu2 Ni2 C17'
_cell_volume   279.01768843
_cell_formula_units_Z   1
loop_
 _symmetry_equiv_pos_site_id
 _symmetry_equiv_pos_as_xyz
  1  'x, y, z'
loop_
 _atom_site_type_symbol
 _atom_site_label
 _atom_site_symmetry_multiplicity
 _atom_site_fract_x
 _atom_site_fract_y
 _atom_site_fract_z
 _atom_site_occupancy
  C  C0  1  0.38956200  0.29776900  0.15514300  1
  C  C1  1  0.98276200  0.92443400  0.75166000  1
  C  C2  1  0.56091500  0.43555200  0.74097800  1
  C  C3  1  0.96262600  0.07571400  0.25154800  1
  C  C4  1  0.65127200  0.63580800  0.30144800  1
  Ni  Ni5  1  0.46507900  0.02177000  0.51381200  1
  Ni  Ni6  1  0.99075600  0.49709900  0.98637100  1
  Cu  Cu7  1  0.11705000  0.49426700  0.51498800  1
  Cu  Cu8  1  0.45436600  0.89571600  0.96696900  1
  C  C9  1  0.89900700  0.56192500  0.73380700  1
  C  C10  1  0.59507200  0.06192000  0.75145400  1
  C  C11  1  0.03717900  0.44644800  0.26083200  1
  C  C12  1  0.38520400  0.95261800  0.25049300  1
  C  C13  1  0.81101600  0.86163600  0.45893200  1
  C  C14  1  0.71538200  0.37082700  0.03659900  1
  C  C15  1  0.14876100  0.15134000  0.54590500  1
  C  C16  1  0.28672900  0.61799000  0.94255700  1
  C  C17  1  0.15349800  0.14905400  0.96406500  1
  C  C18  1  0.35818600  0.70864300  0.56852300  1
  C  C19  1  0.81672200  0.81457800  0.05049900  1
  C  C20  1  0.59385500  0.29572600  0.42008200  1
