# generated using pymatgen
data_Cu18Ni4C5
_symmetry_space_group_name_H-M   'P 1'
_cell_length_a   10.22997894
_cell_length_b   10.22997894
_cell_length_c   9.09268600
_cell_angle_alpha   90.00000000
_cell_angle_beta   90.00000000
_cell_angle_gamma   131.37519941
_symmetry_Int_Tables_number   1
_chemical_formula_structural   Cu18Ni4C5
_chemical_formula_sum   'Cu36 Ni8 C10'
_cell_volume   714.05704191
_cell_formula_units_Z   2
loop_
 _symmetry_equiv_pos_site_id
 _symmetry_equiv_pos_as_xyz
  1  'x, y, z'
loop_
 _atom_site_type_symbol
 _atom_site_label
 _atom_site_symmetry_multiplicity
 _atom_site_fract_x
 _atom_site_fract_y
 _atom_site_fract_z
 _atom_site_occupancy
  C  C0  1  0.85817600  0.50900100  0.43731800  1
  C  C1  1  0.50900100  0.85817600  0.56268200  1
  C  C2  1  0.00900100  0.35817600  0.93731800  1
  C  C3  1  0.35817600  0.00900100  0.06268200  1
  C  C4  1  0.14182400  0.49099900  0.56268200  1
  C  C5  1  0.49099900  0.14182400  0.43731800  1
  C  C6  1  0.99099900  0.64182400  0.06268200  1
  C  C7  1  0.64182400  0.99099900  0.93731800  1
  C  C8  1  0.50000000  0.50000000  0.50000000  1
  C  C9  1  0.00000000  0.00000000  0.00000000  1
  Ni  Ni10  1  0.79334600  0.70665400  0.25000000  1
  Ni  Ni11  1  0.70665400  0.79334600  0.75000000  1
  Ni  Ni12  1  0.20665400  0.29334600  0.75000000  1
  Ni  Ni13  1  0.29334600  0.20665400  0.25000000  1
  Ni  Ni14  1  0.73672300  0.26327700  0.16893500  1
  Ni  Ni15  1  0.26327700  0.73672300  0.83106500  1
  Ni  Ni16  1  0.76327700  0.23672300  0.66893500  1
  Ni  Ni17  1  0.23672300  0.76327700  0.33106500  1
  Cu  Cu18  1  0.89154200  0.10845800  0.99984300  1
  Cu  Cu19  1  0.10845800  0.89154200  0.00015700  1
  Cu  Cu20  1  0.60845800  0.39154200  0.49984300  1
  Cu  Cu21  1  0.39154200  0.60845800  0.50015700  1
  Cu  Cu22  1  0.05892600  0.29953200  0.39850500  1
  Cu  Cu23  1  0.29953200  0.05892600  0.60149500  1
  Cu  Cu24  1  0.79953200  0.55892600  0.89850500  1
  Cu  Cu25  1  0.55892600  0.79953200  0.10149500  1
  Cu  Cu26  1  0.94107400  0.70046800  0.60149500  1
  Cu  Cu27  1  0.70046800  0.94107400  0.39850500  1
  Cu  Cu28  1  0.20046800  0.44107400  0.10149500  1
  Cu  Cu29  1  0.44107400  0.20046800  0.89850500  1
  Cu  Cu30  1  0.68717100  0.67049100  0.35014600  1
  Cu  Cu31  1  0.67049100  0.68717100  0.64985400  1
  Cu  Cu32  1  0.17049100  0.18717100  0.85014600  1
  Cu  Cu33  1  0.18717100  0.17049100  0.14985400  1
  Cu  Cu34  1  0.31282900  0.32950900  0.64985400  1
  Cu  Cu35  1  0.32950900  0.31282900  0.35014600  1
  Cu  Cu36  1  0.82950900  0.81282900  0.14985400  1
  Cu  Cu37  1  0.81282900  0.82950900  0.85014600  1
  Cu  Cu38  1  0.86305700  0.63694300  0.25000000  1
  Cu  Cu39  1  0.63694300  0.86305700  0.75000000  1
  Cu  Cu40  1  0.13694300  0.36305700  0.75000000  1
  Cu  Cu41  1  0.36305700  0.13694300  0.25000000  1
  Cu  Cu42  1  0.71587800  0.28412200  0.30357200  1
  Cu  Cu43  1  0.28412200  0.71587800  0.69642800  1
  Cu  Cu44  1  0.78412200  0.21587800  0.80357200  1
  Cu  Cu45  1  0.21587800  0.78412200  0.19642800  1
  Cu  Cu46  1  0.11382800  0.61972300  0.39971200  1
  Cu  Cu47  1  0.61972300  0.11382800  0.60028800  1
  Cu  Cu48  1  0.11972300  0.61382800  0.89971200  1
  Cu  Cu49  1  0.61382800  0.11972300  0.10028800  1
  Cu  Cu50  1  0.88617200  0.38027700  0.60028800  1
  Cu  Cu51  1  0.38027700  0.88617200  0.39971200  1
  Cu  Cu52  1  0.88027700  0.38617200  0.10028800  1
  Cu  Cu53  1  0.38617200  0.88027700  0.89971200  1
