# generated using pymatgen
data_Cu30NiC32
_symmetry_space_group_name_H-M   'P 1'
_cell_length_a   8.66402699
_cell_length_b   8.77212617
_cell_length_c   8.77068699
_cell_angle_alpha   89.99963590
_cell_angle_beta   89.99991936
_cell_angle_gamma   90.00112454
_symmetry_Int_Tables_number   1
_chemical_formula_structural   Cu30NiC32
_chemical_formula_sum   'Cu30 Ni1 C32'
_cell_volume   666.58920785
_cell_formula_units_Z   1
loop_
 _symmetry_equiv_pos_site_id
 _symmetry_equiv_pos_as_xyz
  1  'x, y, z'
loop_
 _atom_site_type_symbol
 _atom_site_label
 _atom_site_symmetry_multiplicity
 _atom_site_fract_x
 _atom_site_fract_y
 _atom_site_fract_z
 _atom_site_occupancy
  C  C0  1  0.05225799  0.00003094  0.99998823  1
  Ni  Ni1  1  0.99728351  0.00000908  0.49998767  1
  Cu  Cu2  1  0.99398800  0.50001857  0.00000066  1
  Cu  Cu3  1  0.99822018  0.50001570  0.49999853  1
  Cu  Cu4  1  0.49108853  0.00000230  0.99999838  1
  Cu  Cu5  1  0.51087017  0.99999954  0.50000257  1
  Cu  Cu6  1  0.50565313  0.49999841  0.99999913  1
  Cu  Cu7  1  0.50084252  0.49999881  0.49999853  1
  Cu  Cu8  1  0.99591146  0.26218906  0.24541696  1
  Cu  Cu9  1  0.99591193  0.26219542  0.75457649  1
  Cu  Cu10  1  0.99593270  0.73785486  0.24541828  1
  Cu  Cu11  1  0.99592687  0.73784795  0.75457378  1
  Cu  Cu12  1  0.50236237  0.25296571  0.24887079  1
  Cu  Cu13  1  0.50236387  0.25295916  0.75112848  1
  Cu  Cu14  1  0.50237633  0.74702840  0.24887109  1
  Cu  Cu15  1  0.50237695  0.74702976  0.75112761  1
  Cu  Cu16  1  0.27393331  0.99998484  0.25830501  1
  Cu  Cu17  1  0.27393026  0.99997026  0.74168410  1
  Cu  Cu18  1  0.25084335  0.50000398  0.25159998  1
  Cu  Cu19  1  0.25084220  0.49999938  0.74840128  1
  Cu  Cu20  1  0.74204631  0.00000194  0.23994233  1
  Cu  Cu21  1  0.74205755  0.00000284  0.76009620  1
  Cu  Cu22  1  0.74687375  0.50000904  0.24839905  1
  Cu  Cu23  1  0.74687182  0.50000695  0.75160173  1
  Cu  Cu24  1  0.26261184  0.26682367  0.00000670  1
  Cu  Cu25  1  0.25566069  0.25893814  0.50000205  1
  Cu  Cu26  1  0.26261940  0.73317404  0.99999746  1
  Cu  Cu27  1  0.25568600  0.74105688  0.49999601  1
  Cu  Cu28  1  0.74732697  0.25240278  0.00000326  1
  Cu  Cu29  1  0.74324715  0.25664154  0.50000198  1
  Cu  Cu30  1  0.74733235  0.74762008  0.00000338  1
  Cu  Cu31  1  0.74326973  0.74336296  0.50000011  1
  C  C32  1  0.24523625  0.99993062  0.49999735  1
  C  C33  1  0.25499183  0.49999495  0.99999621  1
  C  C34  1  0.24863881  0.49998877  0.50000487  1
  C  C35  1  0.72373743  0.99999896  0.00000605  1
  C  C36  1  0.75188309  0.00007596  0.49999265  1
  C  C37  1  0.74522716  0.50000930  0.00000013  1
  C  C38  1  0.75023114  0.50000884  0.50000059  1
  C  C39  1  0.24677728  0.24963337  0.25206465  1
  C  C40  1  0.24676529  0.24960334  0.74795436  1
  C  C41  1  0.24680376  0.75036564  0.25203366  1
  C  C42  1  0.24679743  0.75036325  0.74795334  1
  C  C43  1  0.74932961  0.25251687  0.25122722  1
  C  C44  1  0.74933651  0.25251505  0.74877615  1
  C  C45  1  0.74932651  0.74748538  0.25124708  1
  C  C46  1  0.74932684  0.74748347  0.74875384  1
  C  C47  1  0.97795854  0.99992740  0.27500848  1
  C  C48  1  0.97795268  0.99991178  0.72498128  1
  C  C49  1  0.99940534  0.50001298  0.25897169  1
  C  C50  1  0.99940741  0.50001057  0.74102765  1
  C  C51  1  0.50704064  0.99999489  0.26519531  1
  C  C52  1  0.50704288  0.00000278  0.73481011  1
  C  C53  1  0.49863259  0.49999721  0.25375768  1
  C  C54  1  0.49863004  0.49999304  0.74624152  1
  C  C55  1  0.99246109  0.28154456  0.00000346  1
  C  C56  1  0.99926677  0.24520502  0.50000459  1
  C  C57  1  0.99246924  0.71849492  -0.00000027  1
  C  C58  1  0.99934098  0.75479898  0.49999242  1
  C  C59  1  0.50422273  0.26217364  0.99999677  1
  C  C60  1  0.49948476  0.25144762  0.50000243  1
  C  C61  1  0.50423287  0.73781992  0.00000225  1
  C  C62  1  0.49952330  0.74854786  0.49999867  1
