# generated using pymatgen
data_Cu2NiC19
_symmetry_space_group_name_H-M   'P 1'
_cell_length_a   12.15535700
_cell_length_b   6.60356900
_cell_length_c   12.72304900
_cell_angle_alpha   90.00000000
_cell_angle_beta   92.99220342
_cell_angle_gamma   90.00000000
_symmetry_Int_Tables_number   1
_chemical_formula_structural   Cu2NiC19
_chemical_formula_sum   'Cu8 Ni4 C76'
_cell_volume   1019.87075371
_cell_formula_units_Z   4
loop_
 _symmetry_equiv_pos_site_id
 _symmetry_equiv_pos_as_xyz
  1  'x, y, z'
loop_
 _atom_site_type_symbol
 _atom_site_label
 _atom_site_symmetry_multiplicity
 _atom_site_fract_x
 _atom_site_fract_y
 _atom_site_fract_z
 _atom_site_occupancy
  C  C0  1  0.50000000  0.71830300  0.25000000  1
  C  C1  1  0.50000000  0.28169700  0.75000000  1
  C  C2  1  0.00000000  0.25637100  0.25000000  1
  C  C3  1  0.00000000  0.74362900  0.75000000  1
  C  C4  1  0.54613100  0.09945300  0.10278300  1
  C  C5  1  0.45386900  0.09945300  0.39721700  1
  C  C6  1  0.45386900  0.90054700  0.89721700  1
  C  C7  1  0.54613100  0.90054700  0.60278300  1
  C  C8  1  0.58792800  0.15434400  0.21774700  1
  C  C9  1  0.41207200  0.15434400  0.28225300  1
  C  C10  1  0.41207200  0.84565600  0.78225300  1
  C  C11  1  0.58792800  0.84565600  0.71774700  1
  C  C12  1  0.71458700  0.58408800  0.12650100  1
  C  C13  1  0.28541300  0.58408800  0.37349900  1
  C  C14  1  0.28541300  0.41591200  0.87349900  1
  C  C15  1  0.71458700  0.41591200  0.62650100  1
  C  C16  1  0.62014800  0.59947500  0.03741200  1
  C  C17  1  0.37985200  0.59947500  0.46258800  1
  C  C18  1  0.37985200  0.40052500  0.96258800  1
  C  C19  1  0.62014800  0.40052500  0.53741200  1
  C  C20  1  0.21802600  0.36444200  0.13798500  1
  C  C21  1  0.78197400  0.36444200  0.36201500  1
  C  C22  1  0.78197400  0.63555800  0.86201500  1
  C  C23  1  0.21802600  0.63555800  0.63798500  1
  C  C24  1  0.12195100  0.40500400  0.05069600  1
  C  C25  1  0.87804900  0.40500400  0.44930400  1
  C  C26  1  0.87804900  0.59499600  0.94930400  1
  C  C27  1  0.12195100  0.59499600  0.55069600  1
  C  C28  1  0.98838700  0.84869500  0.12790300  1
  C  C29  1  0.01161300  0.84869500  0.37209700  1
  C  C30  1  0.01161300  0.15130500  0.87209700  1
  C  C31  1  0.98838700  0.15130500  0.62790300  1
  C  C32  1  0.10189800  0.94419000  0.09298500  1
  C  C33  1  0.89810200  0.94419000  0.40701500  1
  C  C34  1  0.89810200  0.05581000  0.90701500  1
  C  C35  1  0.10189800  0.05581000  0.59298500  1
  C  C36  1  0.78079800  0.99978900  0.23089700  1
  C  C37  1  0.21920200  0.99978900  0.26910300  1
  C  C38  1  0.21920200  0.00021100  0.76910300  1
  C  C39  1  0.78079800  0.00021100  0.73089700  1
  C  C40  1  0.78046300  0.10843200  0.12050700  1
  C  C41  1  0.21953700  0.10843200  0.37949300  1
  C  C42  1  0.21953700  0.89156800  0.87949300  1
  C  C43  1  0.78046300  0.89156800  0.62050700  1
  Ni  Ni44  1  0.31358200  0.85044200  0.08742700  1
  Ni  Ni45  1  0.68641800  0.85044200  0.41257300  1
  Ni  Ni46  1  0.68641800  0.14955800  0.91257300  1
  Ni  Ni47  1  0.31358200  0.14955800  0.58742700  1
  Cu  Cu48  1  0.39088700  0.37484600  0.14779000  1
  Cu  Cu49  1  0.60911300  0.37484600  0.35221000  1
  Cu  Cu50  1  0.60911300  0.62515400  0.85221000  1
  Cu  Cu51  1  0.39088700  0.62515400  0.64779000  1
  Cu  Cu52  1  0.89321300  0.56181800  0.11765600  1
  Cu  Cu53  1  0.10678700  0.56181800  0.38234400  1
  Cu  Cu54  1  0.10678700  0.43818200  0.88234400  1
  Cu  Cu55  1  0.89321300  0.43818200  0.61765600  1
  C  C56  1  0.40950300  0.81898200  0.05580500  1
  C  C57  1  0.59049700  0.81898200  0.44419500  1
  C  C58  1  0.59049700  0.18101800  0.94419500  1
  C  C59  1  0.40950300  0.18101800  0.55580500  1
  C  C60  1  0.23383000  0.89794700  0.02586900  1
  C  C61  1  0.76617000  0.89794700  0.47413100  1
  C  C62  1  0.76617000  0.10205300  0.97413100  1
  C  C63  1  0.23383000  0.10205300  0.52586900  1
  C  C64  1  0.30022700  0.82990300  0.18584600  1
  C  C65  1  0.69977300  0.82990300  0.31415400  1
  C  C66  1  0.69977300  0.17009700  0.81415400  1
  C  C67  1  0.30022700  0.17009700  0.68584600  1
  C  C68  1  0.57646300  0.03938500  0.16852000  1
  C  C69  1  0.42353700  0.03938500  0.33148000  1
  C  C70  1  0.42353700  0.96061500  0.83148000  1
  C  C71  1  0.57646300  0.96061500  0.66852000  1
  C  C72  1  0.63376500  0.59583300  0.11454300  1
  C  C73  1  0.36623500  0.59583300  0.38545700  1
  C  C74  1  0.36623500  0.40416700  0.88545700  1
  C  C75  1  0.63376500  0.40416700  0.61454300  1
  C  C76  1  0.13682500  0.36964000  0.12555400  1
  C  C77  1  0.86317500  0.36964000  0.37444600  1
  C  C78  1  0.86317500  0.63036000  0.87444600  1
  C  C79  1  0.13682500  0.63036000  0.62555400  1
  C  C80  1  0.03366000  0.97255200  0.12943500  1
  C  C81  1  0.96634000  0.97255200  0.37056500  1
  C  C82  1  0.96634000  0.02744800  0.87056500  1
  C  C83  1  0.03366000  0.02744800  0.62943500  1
  C  C84  1  0.81992600  0.10067700  0.19015000  1
  C  C85  1  0.18007400  0.10067700  0.30985000  1
  C  C86  1  0.18007400  0.89932300  0.80985000  1
  C  C87  1  0.81992600  0.89932300  0.69015000  1
