# generated using pymatgen
data_Cu2Ni4C29
_symmetry_space_group_name_H-M   'P 1'
_cell_length_a   7.27986227
_cell_length_b   8.20086176
_cell_length_c   8.04156586
_cell_angle_alpha   87.07939477
_cell_angle_beta   86.67535794
_cell_angle_gamma   59.26984909
_symmetry_Int_Tables_number   1
_chemical_formula_structural   Cu2Ni4C29
_chemical_formula_sum   'Cu2 Ni4 C29'
_cell_volume   411.85633128
_cell_formula_units_Z   1
loop_
 _symmetry_equiv_pos_site_id
 _symmetry_equiv_pos_as_xyz
  1  'x, y, z'
loop_
 _atom_site_type_symbol
 _atom_site_label
 _atom_site_symmetry_multiplicity
 _atom_site_fract_x
 _atom_site_fract_y
 _atom_site_fract_z
 _atom_site_occupancy
  C  C0  1  0.50000000  0.50000000  0.00000000  1
  C  C1  1  0.87449000  0.36099200  0.22732800  1
  C  C2  1  0.12551000  0.63900800  0.77267200  1
  C  C3  1  0.22441500  0.57390300  0.35899900  1
  C  C4  1  0.77558500  0.42609700  0.64100100  1
  C  C5  1  0.65940300  0.03811900  0.62518900  1
  C  C6  1  0.34059700  0.96188100  0.37481100  1
  C  C7  1  0.21987800  0.02783000  0.94835100  1
  C  C8  1  0.78012200  0.97217000  0.05164900  1
  C  C9  1  0.30777900  0.50374700  0.56531400  1
  C  C10  1  0.69222100  0.49625300  0.43468600  1
  C  C11  1  0.41985700  0.85214600  0.17467100  1
  C  C12  1  0.58014300  0.14785400  0.82532900  1
  C  C13  1  0.98489100  0.24762400  0.97449900  1
  C  C14  1  0.01510900  0.75237600  0.02550100  1
  Ni  Ni15  1  0.15808000  0.11746300  0.18511200  1
  Ni  Ni16  1  0.84192000  0.88253700  0.81488800  1
  Ni  Ni17  1  0.00580400  0.73553800  0.54064600  1
  Ni  Ni18  1  0.99419600  0.26446200  0.45935400  1
  Cu  Cu19  1  0.18291400  0.11268900  0.58927800  1
  Cu  Cu20  1  0.81708600  0.88731100  0.41072200  1
  C  C21  1  0.67085100  0.03270300  0.75324900  1
  C  C22  1  0.32914900  0.96729700  0.24675100  1
  C  C23  1  0.19283100  0.59022600  0.48439600  1
  C  C24  1  0.80716900  0.40977400  0.51560400  1
  C  C25  1  0.01034600  0.25909700  0.28634100  1
  C  C26  1  0.98965400  0.74090300  0.71365900  1
  C  C27  1  0.12358700  0.13910200  0.02278900  1
  C  C28  1  0.87641300  0.86089800  0.97721100  1
  C  C29  1  0.26522700  0.56266600  0.11264000  1
  C  C30  1  0.73477300  0.43733400  0.88736000  1
  C  C31  1  0.59369600  0.26676700  0.05029500  1
  C  C32  1  0.40630400  0.73323300  0.94970500  1
  C  C33  1  0.61048900  0.52385700  0.17725400  1
  C  C34  1  0.38951100  0.47614300  0.82274600  1
