# generated using pymatgen
data_CuNi3C32
_symmetry_space_group_name_H-M   'P 1'
_cell_length_a   5.69627600
_cell_length_b   7.23582000
_cell_length_c   12.22070755
_cell_angle_alpha   89.88516182
_cell_angle_beta   90.00000000
_cell_angle_gamma   90.00000000
_symmetry_Int_Tables_number   1
_chemical_formula_structural   CuNi3C32
_chemical_formula_sum   'Cu1 Ni3 C32'
_cell_volume   503.70267516
_cell_formula_units_Z   1
loop_
 _symmetry_equiv_pos_site_id
 _symmetry_equiv_pos_as_xyz
  1  'x, y, z'
loop_
 _atom_site_type_symbol
 _atom_site_label
 _atom_site_symmetry_multiplicity
 _atom_site_fract_x
 _atom_site_fract_y
 _atom_site_fract_z
 _atom_site_occupancy
  Ni  Ni0  1  0.00000000  0.06983800  0.09498800  1
  Ni  Ni1  1  0.50000000  0.56860300  0.40610900  1
  Ni  Ni2  1  0.50000000  0.93089400  0.90493300  1
  Cu  Cu3  1  0.00000000  0.42573100  0.59178000  1
  C  C4  1  0.00000000  0.89455900  0.42741100  1
  C  C5  1  0.00000000  0.60324600  0.92541500  1
  C  C6  1  0.50000000  0.10583600  0.57416400  1
  C  C7  1  0.50000000  0.39613200  0.07390700  1
  C  C8  1  0.00000000  0.61264900  0.21409700  1
  C  C9  1  0.00000000  0.88612900  0.71184200  1
  C  C10  1  0.50000000  0.38779800  0.78574200  1
  C  C11  1  0.50000000  0.11316500  0.28792500  1
  C  C12  1  0.00000000  0.22099000  0.83705200  1
  C  C13  1  0.00000000  0.28194800  0.34017700  1
  C  C14  1  0.50000000  0.78146600  0.16158000  1
  C  C15  1  0.50000000  0.71812100  0.66032000  1
  C  C16  1  0.00000000  0.57811100  0.40714100  1
  C  C17  1  0.00000000  0.91604800  0.89944200  1
  C  C18  1  0.50000000  0.41882900  0.59843400  1
  C  C19  1  0.50000000  0.08293200  0.10020200  1
  C  C20  1  0.74658400  0.85363500  0.27320900  1
  C  C21  1  0.25221900  0.64343700  0.77037900  1
  C  C22  1  0.24283200  0.15013500  0.72519900  1
  C  C23  1  0.75427600  0.35476400  0.22830200  1
  C  C24  1  0.75716800  0.15013500  0.72519900  1
  C  C25  1  0.24572400  0.35476400  0.22830200  1
  C  C26  1  0.25341600  0.85363500  0.27320900  1
  C  C27  1  0.74778100  0.64343700  0.77037900  1
  C  C28  1  0.25606900  0.66270400  0.06813300  1
  C  C29  1  0.74272400  0.83841300  0.56794400  1
  C  C30  1  0.75637000  0.33677100  0.93211900  1
  C  C31  1  0.24256100  0.16362800  0.43338300  1
  C  C32  1  0.24363000  0.33677100  0.93211900  1
  C  C33  1  0.75743900  0.16362800  0.43338300  1
  C  C34  1  0.74393100  0.66270400  0.06813300  1
  C  C35  1  0.25727600  0.83841300  0.56794400  1
