# generated using pymatgen
data_Cu4Ni2C3
_symmetry_space_group_name_H-M   'P 1'
_cell_length_a   8.44842860
_cell_length_b   8.44842860
_cell_length_c   6.76969469
_cell_angle_alpha   89.63839424
_cell_angle_beta   89.63839424
_cell_angle_gamma   75.85526218
_symmetry_Int_Tables_number   1
_chemical_formula_structural   Cu4Ni2C3
_chemical_formula_sum   'Cu8 Ni4 C6'
_cell_volume   468.52866531
_cell_formula_units_Z   2
loop_
 _symmetry_equiv_pos_site_id
 _symmetry_equiv_pos_as_xyz
  1  'x, y, z'
loop_
 _atom_site_type_symbol
 _atom_site_label
 _atom_site_symmetry_multiplicity
 _atom_site_fract_x
 _atom_site_fract_y
 _atom_site_fract_z
 _atom_site_occupancy
  C  C0  1  0.75071200  0.00603700  0.96551600  1
  C  C1  1  0.99396300  0.24928800  0.53448400  1
  C  C2  1  0.24928800  0.99396300  0.03448400  1
  C  C3  1  0.00603700  0.75071200  0.46551600  1
  C  C4  1  0.59839400  0.40160600  0.25000000  1
  C  C5  1  0.40160600  0.59839400  0.75000000  1
  Ni  Ni6  1  0.58084400  0.82917200  0.41700100  1
  Ni  Ni7  1  0.17082800  0.41915600  0.08299900  1
  Ni  Ni8  1  0.41915600  0.17082800  0.58299900  1
  Ni  Ni9  1  0.82917200  0.58084400  0.91700100  1
  Cu  Cu10  1  0.71327400  0.06049500  0.47398400  1
  Cu  Cu11  1  0.93950500  0.28672600  0.02601600  1
  Cu  Cu12  1  0.28672600  0.93950500  0.52601600  1
  Cu  Cu13  1  0.06049500  0.71327400  0.97398400  1
  Cu  Cu14  1  0.57131100  0.74248900  0.06838700  1
  Cu  Cu15  1  0.25751100  0.42868900  0.43161300  1
  Cu  Cu16  1  0.42868900  0.25751100  0.93161300  1
  Cu  Cu17  1  0.74248900  0.57131100  0.56838700  1
