# generated using pymatgen
data_Cu4Ni12C
_symmetry_space_group_name_H-M   'P 1'
_cell_length_a   22.62294329
_cell_length_b   22.62294329
_cell_length_c   22.62294329
_cell_angle_alpha   60.00000000
_cell_angle_beta   60.00000000
_cell_angle_gamma   60.00000000
_symmetry_Int_Tables_number   1
_chemical_formula_structural   Cu4Ni12C
_chemical_formula_sum   'Cu8 Ni24 C2'
_cell_volume   8187.14199357
_cell_formula_units_Z   2
loop_
 _symmetry_equiv_pos_site_id
 _symmetry_equiv_pos_as_xyz
  1  'x, y, z'
loop_
 _atom_site_type_symbol
 _atom_site_label
 _atom_site_symmetry_multiplicity
 _atom_site_fract_x
 _atom_site_fract_y
 _atom_site_fract_z
 _atom_site_occupancy
  Ni  Ni0  1  0.56028554  0.56028554  0.18998883  1
  Ni  Ni1  1  0.68944008  0.18998883  0.56028554  1
  Ni  Ni2  1  0.18998883  0.68944008  0.56028554  1
  Ni  Ni3  1  0.56028554  0.18998883  0.56028554  1
  Ni  Ni4  1  0.06055992  0.18971446  0.56001117  1
  Ni  Ni5  1  0.18971446  0.18971446  0.56001117  1
  Ni  Ni6  1  0.56028554  0.56028554  0.68944008  1
  Ni  Ni7  1  0.18998883  0.56028554  0.68944008  1
  Ni  Ni8  1  0.18971446  0.56001117  0.18971446  1
  Ni  Ni9  1  0.06055992  0.56001117  0.18971446  1
  Ni  Ni10  1  0.68944008  0.56028554  0.18998883  1
  Ni  Ni11  1  0.18971446  0.06055992  0.18971446  1
  Ni  Ni12  1  0.56001117  0.06055992  0.18971446  1
  Ni  Ni13  1  0.56028554  0.68944008  0.56028554  1
  Ni  Ni14  1  0.56001117  0.18971446  0.06055992  1
  Ni  Ni15  1  0.18971446  0.18971446  0.06055992  1
  Ni  Ni16  1  0.18998883  0.56028554  0.56028554  1
  Ni  Ni17  1  0.56028554  0.18998883  0.68944008  1
  Ni  Ni18  1  0.68944008  0.56028554  0.56028554  1
  Ni  Ni19  1  0.56028554  0.68944008  0.18998883  1
  Ni  Ni20  1  0.18971446  0.56001117  0.06055992  1
  Ni  Ni21  1  0.56001117  0.18971446  0.18971446  1
  Ni  Ni22  1  0.18971446  0.06055992  0.56001117  1
  Ni  Ni23  1  0.06055992  0.18971446  0.18971446  1
  C  C24  1  -0.00000000  -0.00000000  0.00000000  1
  C  C25  1  0.75000000  0.75000000  0.75000000  1
  Cu  Cu26  1  0.78786529  0.78786529  0.78786529  1
  Cu  Cu27  1  0.63640414  0.78786529  0.78786529  1
  Cu  Cu28  1  0.78786529  0.63640414  0.78786529  1
  Cu  Cu29  1  0.11359586  0.96213471  0.96213471  1
  Cu  Cu30  1  0.96213471  0.96213471  0.96213471  1
  Cu  Cu31  1  0.78786529  0.78786529  0.63640414  1
  Cu  Cu32  1  0.96213471  0.11359586  0.96213471  1
  Cu  Cu33  1  0.96213471  0.96213471  0.11359586  1
