# generated using pymatgen
data_Cu2(NiC3)3
_symmetry_space_group_name_H-M   'P 1'
_cell_length_a   6.98480100
_cell_length_b   7.14507900
_cell_length_c   9.95666200
_cell_angle_alpha   90.00000000
_cell_angle_beta   90.00000000
_cell_angle_gamma   90.00000000
_symmetry_Int_Tables_number   1
_chemical_formula_structural   Cu2(NiC3)3
_chemical_formula_sum   'Cu4 Ni6 C18'
_cell_volume   496.90668183
_cell_formula_units_Z   2
loop_
 _symmetry_equiv_pos_site_id
 _symmetry_equiv_pos_as_xyz
  1  'x, y, z'
loop_
 _atom_site_type_symbol
 _atom_site_label
 _atom_site_symmetry_multiplicity
 _atom_site_fract_x
 _atom_site_fract_y
 _atom_site_fract_z
 _atom_site_occupancy
  C  C0  1  0.50000000  0.76574400  0.25000000  1
  C  C1  1  0.50000000  0.23425600  0.75000000  1
  Ni  Ni2  1  0.74499500  0.00000000  0.50000000  1
  Ni  Ni3  1  0.74549800  0.50000000  0.50000000  1
  Ni  Ni4  1  0.25450200  0.50000000  0.00000000  1
  Ni  Ni5  1  0.00000000  0.75179300  0.25000000  1
  Ni  Ni6  1  0.25500500  0.00000000  0.00000000  1
  Ni  Ni7  1  0.00000000  0.24820700  0.75000000  1
  Cu  Cu8  1  0.76572000  0.74036200  0.87624500  1
  Cu  Cu9  1  0.23428000  0.25963800  0.37624500  1
  Cu  Cu10  1  0.23428000  0.74036200  0.62375500  1
  Cu  Cu11  1  0.76572000  0.25963800  0.12375500  1
  C  C12  1  0.75785300  0.99693800  0.25671300  1
  C  C13  1  0.50709300  0.75003900  0.49647700  1
  C  C14  1  0.75056900  0.51739000  0.25728600  1
  C  C15  1  0.49290700  0.24996100  0.99647700  1
  C  C16  1  0.24943100  0.51739000  0.24271400  1
  C  C17  1  0.02662100  0.75083700  0.00971900  1
  C  C18  1  0.24214700  0.99693800  0.24328700  1
  C  C19  1  0.49290700  0.75003900  0.00352300  1
  C  C20  1  0.24943100  0.48261000  0.75728600  1
  C  C21  1  0.02662100  0.24916300  0.99028100  1
  C  C22  1  0.24214700  0.00306200  0.75671300  1
  C  C23  1  0.97337900  0.75083700  0.49028100  1
  C  C24  1  0.75785300  0.00306200  0.74328700  1
  C  C25  1  0.50709300  0.24996100  0.50352300  1
  C  C26  1  0.75056900  0.48261000  0.74271400  1
  C  C27  1  0.97337900  0.24916300  0.50971900  1
