# generated using pymatgen
data_CuNiC4
_symmetry_space_group_name_H-M   'P 1'
_cell_length_a   5.68509400
_cell_length_b   11.84920800
_cell_length_c   13.43349100
_cell_angle_alpha   90.00000000
_cell_angle_beta   90.00000000
_cell_angle_gamma   90.00000000
_symmetry_Int_Tables_number   1
_chemical_formula_structural   CuNiC4
_chemical_formula_sum   'Cu8 Ni8 C32'
_cell_volume   904.93182457
_cell_formula_units_Z   8
loop_
 _symmetry_equiv_pos_site_id
 _symmetry_equiv_pos_as_xyz
  1  'x, y, z'
loop_
 _atom_site_type_symbol
 _atom_site_label
 _atom_site_symmetry_multiplicity
 _atom_site_fract_x
 _atom_site_fract_y
 _atom_site_fract_z
 _atom_site_occupancy
  Ni  Ni0  1  0.25000000  0.86673700  0.17622900  1
  Ni  Ni1  1  0.75000000  0.13326300  0.82377100  1
  Ni  Ni2  1  0.75000000  0.36673700  0.32377100  1
  Ni  Ni3  1  0.25000000  0.63326300  0.67622900  1
  Ni  Ni4  1  0.25000000  0.09743400  0.00165600  1
  Ni  Ni5  1  0.75000000  0.90256600  0.99834400  1
  Ni  Ni6  1  0.75000000  0.59743400  0.49834400  1
  Ni  Ni7  1  0.25000000  0.40256600  0.50165600  1
  Cu  Cu8  1  0.25000000  0.08442200  0.43795900  1
  Cu  Cu9  1  0.75000000  0.91557800  0.56204100  1
  Cu  Cu10  1  0.75000000  0.58442200  0.06204100  1
  Cu  Cu11  1  0.25000000  0.41557800  0.93795900  1
  Cu  Cu12  1  0.25000000  0.55492300  0.24597100  1
  Cu  Cu13  1  0.75000000  0.44507700  0.75402900  1
  Cu  Cu14  1  0.75000000  0.05492300  0.25402900  1
  Cu  Cu15  1  0.25000000  0.94507700  0.74597100  1
  C  C16  1  0.25000000  0.25251100  0.20580600  1
  C  C17  1  0.75000000  0.74748900  0.79419400  1
  C  C18  1  0.75000000  0.75251100  0.29419400  1
  C  C19  1  0.25000000  0.24748900  0.70580600  1
  C  C20  1  0.25000000  0.76781200  0.44311100  1
  C  C21  1  0.75000000  0.23218800  0.55688900  1
  C  C22  1  0.75000000  0.26781200  0.05688900  1
  C  C23  1  0.25000000  0.73218800  0.94311100  1
  C  C24  1  0.25000000  0.10536100  0.20998200  1
  C  C25  1  0.75000000  0.89463900  0.79001800  1
  C  C26  1  0.75000000  0.60536100  0.29001800  1
  C  C27  1  0.25000000  0.39463900  0.70998200  1
  C  C28  1  0.25000000  0.32490500  0.31853500  1
  C  C29  1  0.75000000  0.67509500  0.68146500  1
  C  C30  1  0.75000000  0.82490500  0.18146500  1
  C  C31  1  0.25000000  0.17509500  0.81853500  1
  C  C32  1  0.25000000  0.62282500  0.46651600  1
  C  C33  1  0.75000000  0.37717500  0.53348400  1
  C  C34  1  0.75000000  0.12282500  0.03348400  1
  C  C35  1  0.25000000  0.87717500  0.96651600  1
  C  C36  1  0.00038400  0.31109700  0.13514700  1
  C  C37  1  0.99961600  0.68890300  0.86485300  1
  C  C38  1  0.99961600  0.81109700  0.36485300  1
  C  C39  1  0.50038400  0.68890300  0.86485300  1
  C  C40  1  0.00038400  0.18890300  0.63514700  1
  C  C41  1  0.49961600  0.31109700  0.13514700  1
  C  C42  1  0.49961600  0.18890300  0.63514700  1
  C  C43  1  0.50038400  0.81109700  0.36485300  1
  C  C44  1  0.25000000  0.64254000  0.04563000  1
  C  C45  1  0.75000000  0.35746000  0.95437000  1
  C  C46  1  0.75000000  0.14254000  0.45437000  1
  C  C47  1  0.25000000  0.85746000  0.54563000  1
