# generated using pymatgen
data_Cu2NiC11
_symmetry_space_group_name_H-M   'P 1'
_cell_length_a   7.86331812
_cell_length_b   7.86331812
_cell_length_c   7.86331887
_cell_angle_alpha   43.83380257
_cell_angle_beta   43.83380257
_cell_angle_gamma   43.83380851
_symmetry_Int_Tables_number   1
_chemical_formula_structural   Cu2NiC11
_chemical_formula_sum   'Cu2 Ni1 C11'
_cell_volume   211.74311332
_cell_formula_units_Z   1
loop_
 _symmetry_equiv_pos_site_id
 _symmetry_equiv_pos_as_xyz
  1  'x, y, z'
loop_
 _atom_site_type_symbol
 _atom_site_label
 _atom_site_symmetry_multiplicity
 _atom_site_fract_x
 _atom_site_fract_y
 _atom_site_fract_z
 _atom_site_occupancy
  Ni  Ni0  1  0.21301200  0.21301200  0.21301200  1
  Cu  Cu1  1  0.99880000  0.99880000  0.99880000  1
  Cu  Cu2  1  0.79369000  0.79369000  0.79369000  1
  C  C3  1  0.38964700  0.38964700  0.38964700  1
  C  C4  1  0.60671400  0.60671400  0.60671400  1
  C  C5  1  0.26814000  0.77244400  0.26814000  1
  C  C6  1  0.77244400  0.26814000  0.26814000  1
  C  C7  1  0.26814000  0.26814000  0.77244400  1
  C  C8  1  0.73195200  0.22076900  0.73195200  1
  C  C9  1  0.22076900  0.73195200  0.73195200  1
  C  C10  1  0.73195200  0.73195200  0.22076900  1
  C  C11  1  0.99263900  0.50605100  0.50605100  1
  C  C12  1  0.50605100  0.50605100  0.99263900  1
  C  C13  1  0.50605100  0.99263900  0.50605100  1
