# generated using pymatgen
data_CuNiC28
_symmetry_space_group_name_H-M   'P 1'
_cell_length_a   6.51898800
_cell_length_b   6.52367968
_cell_length_c   13.06453237
_cell_angle_alpha   88.79840053
_cell_angle_beta   88.83063083
_cell_angle_gamma   88.87179298
_symmetry_Int_Tables_number   1
_chemical_formula_structural   CuNiC28
_chemical_formula_sum   'Cu1 Ni1 C28'
_cell_volume   555.26469557
_cell_formula_units_Z   1
loop_
 _symmetry_equiv_pos_site_id
 _symmetry_equiv_pos_as_xyz
  1  'x, y, z'
loop_
 _atom_site_type_symbol
 _atom_site_label
 _atom_site_symmetry_multiplicity
 _atom_site_fract_x
 _atom_site_fract_y
 _atom_site_fract_z
 _atom_site_occupancy
  Ni  Ni0  1  0.00000000  0.00000000  0.50000000  1
  Cu  Cu1  1  0.00000000  0.00000000  0.00000000  1
  C  C2  1  0.22585700  0.42021100  0.78211300  1
  C  C3  1  0.22557000  0.41885300  0.28077200  1
  C  C4  1  0.56343500  0.22637900  0.71034100  1
  C  C5  1  0.56296000  0.22502500  0.20927700  1
  C  C6  1  0.41953800  0.56400000  0.61317900  1
  C  C7  1  0.41902400  0.56306600  0.11150100  1
  C  C8  1  0.77443000  0.58114700  0.71922800  1
  C  C9  1  0.77414300  0.57978900  0.21788700  1
  C  C10  1  0.43704000  0.77497500  0.79072300  1
  C  C11  1  0.43656500  0.77362100  0.28965900  1
  C  C12  1  0.58097600  0.43693400  0.88849900  1
  C  C13  1  0.58046200  0.43600000  0.38682100  1
  C  C14  1  0.74972700  0.37645400  0.56341100  1
  C  C15  1  0.75181400  0.37285900  0.06272200  1
  C  C16  1  0.12650100  0.74937200  0.68810100  1
  C  C17  1  0.12610900  0.75231800  0.18620400  1
  C  C18  1  0.37329400  0.12653100  0.87686400  1
  C  C19  1  0.37631100  0.12583700  0.37454800  1
  C  C20  1  0.24818600  0.62714100  0.93727800  1
  C  C21  1  0.25027300  0.62354600  0.43658900  1
  C  C22  1  0.87389100  0.24768200  0.81379600  1
  C  C23  1  0.87349900  0.25062800  0.31189900  1
  C  C24  1  0.62368900  0.87416300  0.62545200  1
  C  C25  1  0.62670600  0.87346900  0.12313600  1
  C  C26  1  0.24395500  0.24457300  0.62224800  1
  C  C27  1  0.24137700  0.24230500  0.12038000  1
  C  C28  1  0.75862300  0.75769500  0.87962000  1
  C  C29  1  0.75604500  0.75542700  0.37775200  1
