# generated using pymatgen
data_Cu2NiC16
_symmetry_space_group_name_H-M   'P 1'
_cell_length_a   7.40846921
_cell_length_b   7.26149450
_cell_length_c   7.53483702
_cell_angle_alpha   90.00000000
_cell_angle_beta   60.98565416
_cell_angle_gamma   119.34588120
_symmetry_Int_Tables_number   1
_chemical_formula_structural   Cu2NiC16
_chemical_formula_sum   'Cu2 Ni1 C16'
_cell_volume   293.58195110
_cell_formula_units_Z   1
loop_
 _symmetry_equiv_pos_site_id
 _symmetry_equiv_pos_as_xyz
  1  'x, y, z'
loop_
 _atom_site_type_symbol
 _atom_site_label
 _atom_site_symmetry_multiplicity
 _atom_site_fract_x
 _atom_site_fract_y
 _atom_site_fract_z
 _atom_site_occupancy
  C  C0  1  0.67068800  0.33534400  0.49116500  1
  C  C1  1  0.32931200  0.66465600  0.50883500  1
  Ni  Ni2  1  0.00000000  0.50000000  0.00000000  1
  Cu  Cu3  1  0.50000000  0.50000000  0.00000000  1
  Cu  Cu4  1  0.50000000  0.00000000  0.00000000  1
  C  C5  1  0.00000000  0.00000000  0.50000000  1
  C  C6  1  0.00000000  0.00000000  0.00000000  1
  C  C7  1  0.85161000  0.92580500  0.33138400  1
  C  C8  1  0.54220900  0.27110500  0.89992200  1
  C  C9  1  0.22762800  0.84012400  0.94352100  1
  C  C10  1  0.23792800  0.30691900  0.31410400  1
  C  C11  1  0.22762800  0.38750400  0.94352100  1
  C  C12  1  0.23792800  0.93100900  0.31410400  1
  C  C13  1  0.14839000  0.07419500  0.66861600  1
  C  C14  1  0.45779100  0.72889500  0.10007800  1
  C  C15  1  0.77237200  0.15987600  0.05647900  1
  C  C16  1  0.76207200  0.69308100  0.68589600  1
  C  C17  1  0.77237200  0.61249600  0.05647900  1
  C  C18  1  0.76207200  0.06899100  0.68589600  1
