# generated using pymatgen
data_Cu(NiC6)2
_symmetry_space_group_name_H-M   'P 1'
_cell_length_a   13.95306247
_cell_length_b   13.95306247
_cell_length_c   3.92856600
_cell_angle_alpha   90.00000000
_cell_angle_beta   90.00000000
_cell_angle_gamma   163.90848573
_symmetry_Int_Tables_number   1
_chemical_formula_structural   Cu(NiC6)2
_chemical_formula_sum   'Cu1 Ni2 C12'
_cell_volume   211.99374302
_cell_formula_units_Z   1
loop_
 _symmetry_equiv_pos_site_id
 _symmetry_equiv_pos_as_xyz
  1  'x, y, z'
loop_
 _atom_site_type_symbol
 _atom_site_label
 _atom_site_symmetry_multiplicity
 _atom_site_fract_x
 _atom_site_fract_y
 _atom_site_fract_z
 _atom_site_occupancy
  Ni  Ni0  1  0.63564800  0.36435200  0.50000000  1
  Ni  Ni1  1  0.36435200  0.63564800  0.50000000  1
  Cu  Cu2  1  0.50000000  0.50000000  0.50000000  1
  C  C3  1  0.93792700  0.06207300  0.00000000  1
  C  C4  1  0.06207300  0.93792700  0.00000000  1
  C  C5  1  0.78746800  0.21253200  0.00000000  1
  C  C6  1  0.21253200  0.78746800  0.00000000  1
  C  C7  1  0.85425500  0.14574500  0.00000000  1
  C  C8  1  0.14574500  0.85425500  0.00000000  1
  C  C9  1  0.55382000  0.44618000  0.00000000  1
  C  C10  1  0.44618000  0.55382000  0.00000000  1
  C  C11  1  0.71909300  0.28090700  0.00000000  1
  C  C12  1  0.28090700  0.71909300  0.00000000  1
  C  C13  1  0.94600500  0.05399500  0.50000000  1
  C  C14  1  0.05399500  0.94600500  0.50000000  1
