# generated using pymatgen
data_CuNiC6
_symmetry_space_group_name_H-M   'P 1'
_cell_length_a   5.43662900
_cell_length_b   8.18237000
_cell_length_c   12.49640500
_cell_angle_alpha   90.00000000
_cell_angle_beta   90.00000000
_cell_angle_gamma   90.00000000
_symmetry_Int_Tables_number   1
_chemical_formula_structural   CuNiC6
_chemical_formula_sum   'Cu2 Ni2 C12'
_cell_volume   555.89645357
_cell_formula_units_Z   2
loop_
 _symmetry_equiv_pos_site_id
 _symmetry_equiv_pos_as_xyz
  1  'x, y, z'
loop_
 _atom_site_type_symbol
 _atom_site_label
 _atom_site_symmetry_multiplicity
 _atom_site_fract_x
 _atom_site_fract_y
 _atom_site_fract_z
 _atom_site_occupancy
  Ni  Ni0  1  0.00000000  0.00000000  0.66149800  1
  Ni  Ni1  1  0.00000000  0.50000000  0.16149800  1
  Cu  Cu2  1  0.50000000  0.00000000  0.84206900  1
  Cu  Cu3  1  0.50000000  0.50000000  0.34206900  1
  C  C4  1  0.50000000  0.30993500  0.59068100  1
  C  C5  1  0.50000000  0.69006500  0.59068100  1
  C  C6  1  0.50000000  0.00000000  0.33401900  1
  C  C7  1  0.00000000  0.19193300  0.40780900  1
  C  C8  1  0.00000000  0.80806700  0.40780900  1
  C  C9  1  0.00000000  0.00000000  0.16543400  1
  C  C10  1  0.50000000  0.80993500  0.09068100  1
  C  C11  1  0.50000000  0.19006500  0.09068100  1
  C  C12  1  0.50000000  0.50000000  0.83401900  1
  C  C13  1  0.00000000  0.69193300  0.90780900  1
  C  C14  1  0.00000000  0.30806700  0.90780900  1
  C  C15  1  0.00000000  0.50000000  0.66543400  1
