# generated using pymatgen
data_CuNiC6
_symmetry_space_group_name_H-M   'P 1'
_cell_length_a   15.32283900
_cell_length_b   7.84564000
_cell_length_c   8.68003459
_cell_angle_alpha   69.44251393
_cell_angle_beta   90.00000000
_cell_angle_gamma   90.00000000
_symmetry_Int_Tables_number   1
_chemical_formula_structural   CuNiC6
_chemical_formula_sum   'Cu8 Ni8 C48'
_cell_volume   977.04267208
_cell_formula_units_Z   8
loop_
 _symmetry_equiv_pos_site_id
 _symmetry_equiv_pos_as_xyz
  1  'x, y, z'
loop_
 _atom_site_type_symbol
 _atom_site_label
 _atom_site_symmetry_multiplicity
 _atom_site_fract_x
 _atom_site_fract_y
 _atom_site_fract_z
 _atom_site_occupancy
  C  C0  1  0.52760700  0.99326400  0.24362800  1
  C  C1  1  0.02760700  0.50673600  0.75637200  1
  C  C2  1  0.47239300  0.00673600  0.75637200  1
  C  C3  1  0.97239300  0.49326400  0.24362800  1
  C  C4  1  0.75939800  0.00544400  0.70109600  1
  C  C5  1  0.25939800  0.49455600  0.29890400  1
  C  C6  1  0.24060200  0.99455600  0.29890400  1
  C  C7  1  0.74060200  0.50544400  0.70109600  1
  Ni  Ni8  1  0.62299900  0.15543900  0.90824000  1
  Ni  Ni9  1  0.12299900  0.34456100  0.09176000  1
  Ni  Ni10  1  0.37700100  0.84456100  0.09176000  1
  Ni  Ni11  1  0.87700100  0.65543900  0.90824000  1
  Ni  Ni12  1  0.61618100  0.87968400  0.58208100  1
  Ni  Ni13  1  0.11618100  0.62031600  0.41791900  1
  Ni  Ni14  1  0.38381900  0.12031600  0.41791900  1
  Ni  Ni15  1  0.88381900  0.37968400  0.58208100  1
  Cu  Cu16  1  0.83851700  0.01835400  0.33630200  1
  Cu  Cu17  1  0.33851700  0.48164600  0.66369800  1
  Cu  Cu18  1  0.16148300  0.98164600  0.66369800  1
  Cu  Cu19  1  0.66148300  0.51835400  0.33630200  1
  Cu  Cu20  1  0.85047500  0.05844400  0.17139300  1
  Cu  Cu21  1  0.35047500  0.44155600  0.82860700  1
  Cu  Cu22  1  0.14952500  0.94155600  0.82860700  1
  Cu  Cu23  1  0.64952500  0.55844400  0.17139300  1
  C  C24  1  0.82643800  0.99345100  0.47495400  1
  C  C25  1  0.32643800  0.50654900  0.52504600  1
  C  C26  1  0.17356200  0.00654900  0.52504600  1
  C  C27  1  0.67356200  0.49345100  0.47495400  1
  C  C28  1  0.85916000  0.10215100  0.02881000  1
  C  C29  1  0.35916000  0.39784900  0.97119000  1
  C  C30  1  0.14084000  0.89784900  0.97119000  1
  C  C31  1  0.64084000  0.60215100  0.02881000  1
  C  C32  1  0.60596800  0.10817300  0.09504700  1
  C  C33  1  0.10596800  0.39182700  0.90495300  1
  C  C34  1  0.39403200  0.89182700  0.90495300  1
  C  C35  1  0.89403200  0.60817300  0.09504700  1
  C  C36  1  0.65982800  0.35223100  0.83813900  1
  C  C37  1  0.15982800  0.14776900  0.16186100  1
  C  C38  1  0.34017200  0.64776900  0.16186100  1
  C  C39  1  0.84017200  0.85223100  0.83813900  1
  C  C40  1  0.68517800  0.01500400  0.88352700  1
  C  C41  1  0.18517800  0.48499600  0.11647300  1
  C  C42  1  0.31482200  0.98499600  0.11647300  1
  C  C43  1  0.81482200  0.51500400  0.88352700  1
  C  C44  1  0.53352900  0.15683800  0.82311500  1
  C  C45  1  0.03352900  0.34316200  0.17688500  1
  C  C46  1  0.46647100  0.84316200  0.17688500  1
  C  C47  1  0.96647100  0.65683800  0.82311500  1
  C  C48  1  0.65938600  0.06943600  0.54994500  1
  C  C49  1  0.15938600  0.43056400  0.45005500  1
  C  C50  1  0.34061400  0.93056400  0.45005500  1
  C  C51  1  0.84061400  0.56943600  0.54994500  1
  C  C52  1  0.53777300  0.85149900  0.70096100  1
  C  C53  1  0.03777300  0.64850100  0.29903900  1
  C  C54  1  0.46222700  0.14850100  0.29903900  1
  C  C55  1  0.96222700  0.35149900  0.70096100  1
  C  C56  1  0.69137000  0.74635800  0.66205600  1
  C  C57  1  0.19137000  0.75364200  0.33794400  1
  C  C58  1  0.30863000  0.25364200  0.33794400  1
  C  C59  1  0.80863000  0.24635800  0.66205600  1
  C  C60  1  0.58426700  0.85709100  0.42195000  1
  C  C61  1  0.08426700  0.64290900  0.57805000  1
  C  C62  1  0.41573300  0.14290900  0.57805000  1
  C  C63  1  0.91573300  0.35709100  0.42195000  1
