# generated using pymatgen
data_Cu4NiC2
_symmetry_space_group_name_H-M   'P 1'
_cell_length_a   6.54147500
_cell_length_b   13.43554900
_cell_length_c   21.03530708
_cell_angle_alpha   75.70757262
_cell_angle_beta   90.00000000
_cell_angle_gamma   90.00000000
_symmetry_Int_Tables_number   1
_chemical_formula_structural   Cu4NiC2
_chemical_formula_sum   'Cu32 Ni8 C16'
_cell_volume   1791.53548244
_cell_formula_units_Z   8
loop_
 _symmetry_equiv_pos_site_id
 _symmetry_equiv_pos_as_xyz
  1  'x, y, z'
loop_
 _atom_site_type_symbol
 _atom_site_label
 _atom_site_symmetry_multiplicity
 _atom_site_fract_x
 _atom_site_fract_y
 _atom_site_fract_z
 _atom_site_occupancy
  C  C0  1  0.23496100  0.89315600  0.21622000  1
  C  C1  1  0.73496100  0.10684400  0.28378000  1
  C  C2  1  0.76503900  0.10684400  0.78378000  1
  C  C3  1  0.26503900  0.89315600  0.71622000  1
  C  C4  1  0.74322300  0.85420600  0.04849600  1
  C  C5  1  0.24322300  0.14579400  0.45150400  1
  C  C6  1  0.25677700  0.14579400  0.95150400  1
  C  C7  1  0.75677700  0.85420600  0.54849600  1
  C  C8  1  0.23719400  0.61842800  0.03798900  1
  C  C9  1  0.73719400  0.38157200  0.46201100  1
  C  C10  1  0.76280600  0.38157200  0.96201100  1
  C  C11  1  0.26280600  0.61842800  0.53798900  1
  C  C12  1  0.23154700  0.52752400  0.31235700  1
  C  C13  1  0.73154700  0.47247600  0.18764300  1
  C  C14  1  0.76845300  0.47247600  0.68764300  1
  C  C15  1  0.26845300  0.52752400  0.81235700  1
  Ni  Ni16  1  0.32310500  0.88489900  0.40182200  1
  Ni  Ni17  1  0.82310500  0.11510100  0.09817800  1
  Ni  Ni18  1  0.67689500  0.11510100  0.59817800  1
  Ni  Ni19  1  0.17689500  0.88489900  0.90182200  1
  Ni  Ni20  1  0.31687200  0.30354200  0.09983200  1
  Ni  Ni21  1  0.81687200  0.69645800  0.40016800  1
  Ni  Ni22  1  0.68312800  0.69645800  0.90016800  1
  Ni  Ni23  1  0.18312800  0.30354200  0.59983200  1
  Cu  Cu24  1  0.73619800  0.95791500  0.17824000  1
  Cu  Cu25  1  0.23619800  0.04208500  0.32176000  1
  Cu  Cu26  1  0.26380200  0.04208500  0.82176000  1
  Cu  Cu27  1  0.76380200  0.95791500  0.67824000  1
  Cu  Cu28  1  0.24530600  0.88370900  0.01427200  1
  Cu  Cu29  1  0.74530600  0.11629100  0.48572800  1
  Cu  Cu30  1  0.75469400  0.11629100  0.98572800  1
  Cu  Cu31  1  0.25469400  0.88370900  0.51427200  1
  Cu  Cu32  1  0.69296300  0.87256900  0.38435000  1
  Cu  Cu33  1  0.19296300  0.12743100  0.11565000  1
  Cu  Cu34  1  0.30703700  0.12743100  0.61565000  1
  Cu  Cu35  1  0.80703700  0.87256900  0.88435000  1
  Cu  Cu36  1  0.18680000  0.72857500  0.37420500  1
  Cu  Cu37  1  0.68680000  0.27142500  0.12579500  1
  Cu  Cu38  1  0.81320000  0.27142500  0.62579500  1
  Cu  Cu39  1  0.31320000  0.72857500  0.87420500  1
  Cu  Cu40  1  0.41983800  0.68788900  0.17493100  1
  Cu  Cu41  1  0.91983800  0.31211100  0.32506900  1
  Cu  Cu42  1  0.58016200  0.31211100  0.82506900  1
  Cu  Cu43  1  0.08016200  0.68788900  0.67493100  1
  Cu  Cu44  1  0.05027600  0.68672600  0.17421800  1
  Cu  Cu45  1  0.55027600  0.31327400  0.32578200  1
  Cu  Cu46  1  0.94972400  0.31327400  0.82578200  1
  Cu  Cu47  1  0.44972400  0.68672600  0.67421800  1
  Cu  Cu48  1  0.22716900  0.42065500  0.16441400  1
  Cu  Cu49  1  0.72716900  0.57934500  0.33558600  1
  Cu  Cu50  1  0.77283100  0.57934500  0.83558600  1
  Cu  Cu51  1  0.27283100  0.42065500  0.66441400  1
  Cu  Cu52  1  0.23500000  0.38921200  0.48273700  1
  Cu  Cu53  1  0.73500000  0.61078800  0.01726300  1
  Cu  Cu54  1  0.76500000  0.61078800  0.51726300  1
  Cu  Cu55  1  0.26500000  0.38921200  0.98273700  1
