# generated using pymatgen
data_Cu2Ni2C15
_symmetry_space_group_name_H-M   'P 1'
_cell_length_a   6.33365200
_cell_length_b   6.37412201
_cell_length_c   6.47592031
_cell_angle_alpha   92.56163041
_cell_angle_beta   93.16506376
_cell_angle_gamma   93.42062034
_symmetry_Int_Tables_number   1
_chemical_formula_structural   Cu2Ni2C15
_chemical_formula_sum   'Cu2 Ni2 C15'
_cell_volume   260.27634815
_cell_formula_units_Z   1
loop_
 _symmetry_equiv_pos_site_id
 _symmetry_equiv_pos_as_xyz
  1  'x, y, z'
loop_
 _atom_site_type_symbol
 _atom_site_label
 _atom_site_symmetry_multiplicity
 _atom_site_fract_x
 _atom_site_fract_y
 _atom_site_fract_z
 _atom_site_occupancy
  C  C0  1  0.12216300  0.74800800  0.38062500  1
  C  C1  1  0.36922500  0.12301400  0.74583600  1
  C  C2  1  0.74601500  0.36879500  0.11796400  1
  Ni  Ni3  1  0.74594400  0.77643000  0.76446700  1
  Ni  Ni4  1  0.25122800  0.25038900  0.25126900  1
  Cu  Cu5  1  0.99636200  0.99079100  0.99960900  1
  Cu  Cu6  1  0.51422100  0.50695900  0.50550000  1
  C  C7  1  0.10072700  0.29116100  0.99258300  1
  C  C8  1  0.46950400  0.79495900  0.59125700  1
  C  C9  1  0.69563300  0.03669800  0.90773500  1
  C  C10  1  0.99587900  0.10264500  0.29551300  1
  C  C11  1  0.59668300  0.46814900  0.79174100  1
  C  C12  1  0.20939500  0.39996100  0.50855200  1
  C  C13  1  0.02556700  0.89988400  0.70049900  1
  C  C14  1  0.50977800  0.20556600  0.40128300  1
  C  C15  1  0.90700700  0.70322200  0.04149300  1
  C  C16  1  0.29893000  0.99651700  0.10519800  1
  C  C17  1  0.79568000  0.57858600  0.44093200  1
  C  C18  1  0.40064500  0.50819400  0.20745300  1
