# generated using pymatgen
data_Cu12Ni3C14
_symmetry_space_group_name_H-M   'P 1'
_cell_length_a   9.59301477
_cell_length_b   9.59301477
_cell_length_c   9.59301507
_cell_angle_alpha   87.04530674
_cell_angle_beta   87.04530674
_cell_angle_gamma   87.04530132
_symmetry_Int_Tables_number   1
_chemical_formula_structural   Cu12Ni3C14
_chemical_formula_sum   'Cu12 Ni3 C14'
_cell_volume   879.40204906
_cell_formula_units_Z   1
loop_
 _symmetry_equiv_pos_site_id
 _symmetry_equiv_pos_as_xyz
  1  'x, y, z'
loop_
 _atom_site_type_symbol
 _atom_site_label
 _atom_site_symmetry_multiplicity
 _atom_site_fract_x
 _atom_site_fract_y
 _atom_site_fract_z
 _atom_site_occupancy
  C  C0  1  0.41336200  0.27096800  0.77403900  1
  C  C1  1  0.77403900  0.41336200  0.27096800  1
  C  C2  1  0.27096800  0.77403900  0.41336200  1
  C  C3  1  0.98867000  0.53745400  0.65284400  1
  C  C4  1  0.65284400  0.98867000  0.53745400  1
  C  C5  1  0.53745400  0.65284400  0.98867000  1
  C  C6  1  0.17439600  0.53583400  0.02090000  1
  C  C7  1  0.02090000  0.17439600  0.53583400  1
  C  C8  1  0.53583400  0.02090000  0.17439600  1
  C  C9  1  0.76394300  0.26587700  0.90912600  1
  C  C10  1  0.90912600  0.76394300  0.26587700  1
  C  C11  1  0.26587700  0.90912600  0.76394300  1
  C  C12  1  0.18744900  0.18744900  0.18744900  1
  C  C13  1  0.40071300  0.40071300  0.40071300  1
  Ni  Ni14  1  0.00032700  0.00032700  0.00032700  1
  Ni  Ni15  1  0.83607500  0.83607500  0.83607500  1
  Ni  Ni16  1  0.61011300  0.61011300  0.61011300  1
  Cu  Cu17  1  0.70339800  0.32920800  0.58788000  1
  Cu  Cu18  1  0.58788000  0.70339800  0.32920800  1
  Cu  Cu19  1  0.32920800  0.58788000  0.70339800  1
  Cu  Cu20  1  0.58602500  0.96847100  0.85930600  1
  Cu  Cu21  1  0.85930600  0.58602500  0.96847100  1
  Cu  Cu22  1  0.96847100  0.85930600  0.58602500  1
  Cu  Cu23  1  0.47312300  0.34242600  0.08444000  1
  Cu  Cu24  1  0.08444000  0.47312300  0.34242600  1
  Cu  Cu25  1  0.34242600  0.08444000  0.47312300  1
  Cu  Cu26  1  0.09726300  0.22610000  0.85499900  1
  Cu  Cu27  1  0.85499900  0.09726300  0.22610000  1
  Cu  Cu28  1  0.22610000  0.85499900  0.09726300  1
