# generated using pymatgen
data_CuNiC5
_symmetry_space_group_name_H-M   'P 1'
_cell_length_a   5.19321900
_cell_length_b   8.85049100
_cell_length_c   8.94763500
_cell_angle_alpha   90.00000000
_cell_angle_beta   90.00000000
_cell_angle_gamma   90.00000000
_symmetry_Int_Tables_number   1
_chemical_formula_structural   CuNiC5
_chemical_formula_sum   'Cu4 Ni4 C20'
_cell_volume   411.25601388
_cell_formula_units_Z   4
loop_
 _symmetry_equiv_pos_site_id
 _symmetry_equiv_pos_as_xyz
  1  'x, y, z'
loop_
 _atom_site_type_symbol
 _atom_site_label
 _atom_site_symmetry_multiplicity
 _atom_site_fract_x
 _atom_site_fract_y
 _atom_site_fract_z
 _atom_site_occupancy
  C  C0  1  0.25000000  0.50804600  0.69402400  1
  C  C1  1  0.75000000  0.49195400  0.30597600  1
  C  C2  1  0.25000000  0.00804600  0.80597600  1
  C  C3  1  0.75000000  0.99195400  0.19402400  1
  Ni  Ni4  1  0.75000000  0.17275200  0.59044000  1
  Ni  Ni5  1  0.25000000  0.82724800  0.40956000  1
  Ni  Ni6  1  0.75000000  0.67275200  0.90956000  1
  Ni  Ni7  1  0.25000000  0.32724800  0.09044000  1
  Cu  Cu8  1  0.75000000  0.31777900  0.91605000  1
  Cu  Cu9  1  0.25000000  0.68222100  0.08395000  1
  Cu  Cu10  1  0.75000000  0.81777900  0.58395000  1
  Cu  Cu11  1  0.25000000  0.18222100  0.41605000  1
  C  C12  1  0.75000000  0.49018000  0.89652500  1
  C  C13  1  0.25000000  0.50982000  0.10347500  1
  C  C14  1  0.75000000  0.99018000  0.60347500  1
  C  C15  1  0.25000000  0.00982000  0.39652500  1
  C  C16  1  0.99226500  0.76494300  0.49666100  1
  C  C17  1  0.49226500  0.23505700  0.50333900  1
  C  C18  1  0.50773500  0.26494300  0.00333900  1
  C  C19  1  0.00773500  0.73505700  0.99666100  1
  C  C20  1  0.00773500  0.23505700  0.50333900  1
  C  C21  1  0.50773500  0.76494300  0.49666100  1
  C  C22  1  0.49226500  0.73505700  0.99666100  1
  C  C23  1  0.99226500  0.26494300  0.00333900  1
  C  C24  1  0.25000000  0.25882300  0.26156100  1
  C  C25  1  0.75000000  0.74117700  0.73843900  1
  C  C26  1  0.25000000  0.75882300  0.23843900  1
  C  C27  1  0.75000000  0.24117700  0.76156100  1
