# generated using pymatgen
data_Cu(NiC5)3
_symmetry_space_group_name_H-M   'P 1'
_cell_length_a   3.77048200
_cell_length_b   11.62924600
_cell_length_c   12.13166600
_cell_angle_alpha   90.00000000
_cell_angle_beta   90.00000000
_cell_angle_gamma   90.00000000
_symmetry_Int_Tables_number   1
_chemical_formula_structural   Cu(NiC5)3
_chemical_formula_sum   'Cu2 Ni6 C30'
_cell_volume   531.94762529
_cell_formula_units_Z   2
loop_
 _symmetry_equiv_pos_site_id
 _symmetry_equiv_pos_as_xyz
  1  'x, y, z'
loop_
 _atom_site_type_symbol
 _atom_site_label
 _atom_site_symmetry_multiplicity
 _atom_site_fract_x
 _atom_site_fract_y
 _atom_site_fract_z
 _atom_site_occupancy
  C  C0  1  0.50000000  0.00000000  0.77467200  1
  C  C1  1  0.50000000  0.33755600  0.79530500  1
  C  C2  1  0.50000000  0.66244400  0.79530500  1
  C  C3  1  0.50000000  0.00000000  0.22532800  1
  C  C4  1  0.50000000  0.33755600  0.20469500  1
  C  C5  1  0.50000000  0.66244400  0.20469500  1
  C  C6  1  0.50000000  0.00000000  0.50000000  1
  C  C7  1  0.50000000  0.33207200  0.50000000  1
  C  C8  1  0.50000000  0.66792800  0.50000000  1
  C  C9  1  0.00000000  0.50000000  0.00000000  1
  Ni  Ni10  1  0.00000000  0.83347700  0.63352600  1
  Ni  Ni11  1  0.00000000  0.16652300  0.63352600  1
  Ni  Ni12  1  0.00000000  0.50000000  0.63566000  1
  Ni  Ni13  1  0.00000000  0.83347700  0.36647400  1
  Ni  Ni14  1  0.00000000  0.16652300  0.36647400  1
  Ni  Ni15  1  0.00000000  0.50000000  0.36434000  1
  Cu  Cu16  1  0.00000000  0.83097600  0.00000000  1
  Cu  Cu17  1  0.00000000  0.16902400  0.00000000  1
  C  C18  1  0.00000000  0.00000000  0.63120400  1
  C  C19  1  0.00000000  0.33373800  0.62294000  1
  C  C20  1  0.00000000  0.66626200  0.62294000  1
  C  C21  1  0.50000000  0.82787400  0.62415400  1
  C  C22  1  0.50000000  0.17212600  0.62415400  1
  C  C23  1  0.50000000  0.50000000  0.62092300  1
  C  C24  1  0.00000000  0.00000000  0.36879600  1
  C  C25  1  0.00000000  0.33373800  0.37706000  1
  C  C26  1  0.00000000  0.66626200  0.37706000  1
  C  C27  1  0.50000000  0.82787400  0.37584600  1
  C  C28  1  0.50000000  0.17212600  0.37584600  1
  C  C29  1  0.50000000  0.50000000  0.37907700  1
  C  C30  1  0.00000000  0.83546500  0.83280300  1
  C  C31  1  0.00000000  0.16453500  0.83280300  1
  C  C32  1  0.00000000  0.50000000  0.84477100  1
  C  C33  1  0.00000000  0.83546500  0.16719700  1
  C  C34  1  0.00000000  0.16453500  0.16719700  1
  C  C35  1  0.00000000  0.50000000  0.15522900  1
  C  C36  1  0.50000000  0.38650300  0.00000000  1
  C  C37  1  0.50000000  0.61349700  0.00000000  1
