# generated using pymatgen
data_Cu2NiC2
_symmetry_space_group_name_H-M   'P 1'
_cell_length_a   5.95500500
_cell_length_b   5.76623400
_cell_length_c   9.98562589
_cell_angle_alpha   55.43193496
_cell_angle_beta   90.00000000
_cell_angle_gamma   90.00000000
_symmetry_Int_Tables_number   1
_chemical_formula_structural   Cu2NiC2
_chemical_formula_sum   'Cu8 Ni4 C8'
_cell_volume   282.35037135
_cell_formula_units_Z   4
loop_
 _symmetry_equiv_pos_site_id
 _symmetry_equiv_pos_as_xyz
  1  'x, y, z'
loop_
 _atom_site_type_symbol
 _atom_site_label
 _atom_site_symmetry_multiplicity
 _atom_site_fract_x
 _atom_site_fract_y
 _atom_site_fract_z
 _atom_site_occupancy
  C  C0  1  0.44892900  0.77927600  0.74194600  1
  C  C1  1  0.94892900  0.22072400  0.75805400  1
  C  C2  1  0.55107100  0.22072400  0.25805400  1
  C  C3  1  0.05107100  0.77927600  0.24194600  1
  C  C4  1  0.00000000  0.50000000  0.00000000  1
  C  C5  1  0.50000000  0.50000000  0.50000000  1
  C  C6  1  0.00000000  0.00000000  0.50000000  1
  C  C7  1  0.50000000  0.00000000  0.00000000  1
  Ni  Ni8  1  0.20442500  0.85468500  0.94151600  1
  Ni  Ni9  1  0.70442500  0.14531500  0.55848400  1
  Ni  Ni10  1  0.79557500  0.14531500  0.05848400  1
  Ni  Ni11  1  0.29557500  0.85468500  0.44151600  1
  Cu  Cu12  1  0.04116100  0.63373200  0.75006000  1
  Cu  Cu13  1  0.54116100  0.36626800  0.74994000  1
  Cu  Cu14  1  0.95883900  0.36626800  0.24994000  1
  Cu  Cu15  1  0.45883900  0.63373200  0.25006000  1
  Cu  Cu16  1  0.79292200  0.77303900  0.43353700  1
  Cu  Cu17  1  0.29292200  0.22696100  0.06646300  1
  Cu  Cu18  1  0.20707800  0.22696100  0.56646300  1
  Cu  Cu19  1  0.70707800  0.77303900  0.93353700  1
