# generated using pymatgen
data_Cu2Ni2C
_symmetry_space_group_name_H-M   'P 1'
_cell_length_a   4.66432660
_cell_length_b   4.66432660
_cell_length_c   7.76270700
_cell_angle_alpha   90.00000000
_cell_angle_beta   90.00000000
_cell_angle_gamma   139.78747005
_symmetry_Int_Tables_number   1
_chemical_formula_structural   Cu2Ni2C
_chemical_formula_sum   'Cu4 Ni4 C2'
_cell_volume   109.03633369
_cell_formula_units_Z   2
loop_
 _symmetry_equiv_pos_site_id
 _symmetry_equiv_pos_as_xyz
  1  'x, y, z'
loop_
 _atom_site_type_symbol
 _atom_site_label
 _atom_site_symmetry_multiplicity
 _atom_site_fract_x
 _atom_site_fract_y
 _atom_site_fract_z
 _atom_site_occupancy
  C  C0  1  0.15156100  0.84843900  0.55575000  1
  C  C1  1  0.84843900  0.15156100  0.05575000  1
  Ni  Ni2  1  0.40689900  0.59310100  0.76922900  1
  Ni  Ni3  1  0.59310100  0.40689900  0.26922900  1
  Ni  Ni4  1  0.87146200  0.12853800  0.70166700  1
  Ni  Ni5  1  0.12853800  0.87146200  0.20166700  1
  Cu  Cu6  1  0.47368400  0.52631600  0.91123000  1
  Cu  Cu7  1  0.52631600  0.47368400  0.41123000  1
  Cu  Cu8  1  0.17451700  0.82548300  0.04732500  1
  Cu  Cu9  1  0.82548300  0.17451700  0.54732500  1
