# generated using pymatgen
data_Cu30Ni2C19
_symmetry_space_group_name_H-M   'P 1'
_cell_length_a   14.86304564
_cell_length_b   14.86304564
_cell_length_c   3.26434100
_cell_angle_alpha   90.00000000
_cell_angle_beta   90.00000000
_cell_angle_gamma   119.99999841
_symmetry_Int_Tables_number   1
_chemical_formula_structural   Cu30Ni2C19
_chemical_formula_sum   'Cu30 Ni2 C19'
_cell_volume   624.51342874
_cell_formula_units_Z   1
loop_
 _symmetry_equiv_pos_site_id
 _symmetry_equiv_pos_as_xyz
  1  'x, y, z'
loop_
 _atom_site_type_symbol
 _atom_site_label
 _atom_site_symmetry_multiplicity
 _atom_site_fract_x
 _atom_site_fract_y
 _atom_site_fract_z
 _atom_site_occupancy
  Ni  Ni0  1  0.00000000  0.00000000  0.50000000  1
  Ni  Ni1  1  0.33333300  0.66666700  0.00000000  1
  Cu  Cu2  1  0.15621600  0.98211800  0.00000000  1
  Cu  Cu3  1  0.05840300  0.52424800  0.00000000  1
  Cu  Cu4  1  0.46584500  0.94159700  0.00000000  1
  Cu  Cu5  1  0.47575200  0.53415500  0.00000000  1
  Cu  Cu6  1  0.27015600  0.14434600  0.50000000  1
  Cu  Cu7  1  0.82590200  0.84378400  0.00000000  1
  Cu  Cu8  1  0.85565400  0.12581000  0.50000000  1
  Cu  Cu9  1  0.84537800  0.44364300  0.00000000  1
  Cu  Cu10  1  0.59826500  0.15462200  0.00000000  1
  Cu  Cu11  1  0.55635700  0.40173500  0.00000000  1
  Cu  Cu12  1  0.52277000  0.24686400  0.50000000  1
  Cu  Cu13  1  0.72409400  0.47723000  0.50000000  1
  Cu  Cu14  1  0.75313600  0.27590600  0.50000000  1
  Cu  Cu15  1  0.50826800  0.82139200  0.50000000  1
  Cu  Cu16  1  0.17860800  0.68687600  0.50000000  1
  Cu  Cu17  1  0.31312400  0.49173200  0.50000000  1
  Cu  Cu18  1  0.73071500  0.91540800  0.50000000  1
  Cu  Cu19  1  0.08459200  0.81530700  0.50000000  1
  Cu  Cu20  1  0.18469300  0.26928500  0.50000000  1
  Cu  Cu21  1  0.60342500  0.74543500  0.00000000  1
  Cu  Cu22  1  0.25456500  0.85799000  0.00000000  1
  Cu  Cu23  1  0.14201000  0.39657500  0.00000000  1
  Cu  Cu24  1  0.69244400  0.61858900  0.00000000  1
  Cu  Cu25  1  0.38141100  0.07385600  0.00000000  1
  Cu  Cu26  1  0.92614400  0.30755600  0.00000000  1
  Cu  Cu27  1  0.64326600  0.04428700  0.50000000  1
  Cu  Cu28  1  0.95571300  0.59897900  0.50000000  1
  Cu  Cu29  1  0.40102100  0.35673400  0.50000000  1
  Cu  Cu30  1  0.87419000  0.72984400  0.50000000  1
  Cu  Cu31  1  0.01788200  0.17409800  0.00000000  1
  C  C32  1  0.66666700  0.33333300  0.00000000  1
  C  C33  1  0.93940200  0.42287300  0.50000000  1
  C  C34  1  0.39751300  0.23938600  0.00000000  1
  C  C35  1  0.76061400  0.15812600  0.00000000  1
  C  C36  1  0.84187400  0.60248700  0.00000000  1
  C  C37  1  0.17577400  0.52636600  0.50000000  1
  C  C38  1  0.47363400  0.64940800  0.50000000  1
  C  C39  1  0.35059200  0.82422600  0.50000000  1
  C  C40  1  0.15554100  0.14049700  0.00000000  1
  C  C41  1  0.85950300  0.01504400  0.00000000  1
  C  C42  1  0.98495600  0.84445900  0.00000000  1
  C  C43  1  0.02712700  0.28522600  0.50000000  1
  C  C44  1  0.71477400  0.74190100  0.50000000  1
  C  C45  1  0.25809900  0.97287300  0.50000000  1
  C  C46  1  0.29966600  0.37985400  0.00000000  1
  C  C47  1  0.62014600  0.91981200  0.00000000  1
  C  C48  1  0.08018800  0.70033400  0.00000000  1
  C  C49  1  0.57712700  0.51653000  0.50000000  1
  C  C50  1  0.48347000  0.06059800  0.50000000  1
