# generated using pymatgen
data_Cu7Ni4C53
_symmetry_space_group_name_H-M   'P 1'
_cell_length_a   7.06763300
_cell_length_b   8.04745564
_cell_length_c   14.15240036
_cell_angle_alpha   95.03102860
_cell_angle_beta   90.72080722
_cell_angle_gamma   102.48771814
_symmetry_Int_Tables_number   1
_chemical_formula_structural   Cu7Ni4C53
_chemical_formula_sum   'Cu7 Ni4 C53'
_cell_volume   782.45594424
_cell_formula_units_Z   1
loop_
 _symmetry_equiv_pos_site_id
 _symmetry_equiv_pos_as_xyz
  1  'x, y, z'
loop_
 _atom_site_type_symbol
 _atom_site_label
 _atom_site_symmetry_multiplicity
 _atom_site_fract_x
 _atom_site_fract_y
 _atom_site_fract_z
 _atom_site_occupancy
  Ni  Ni0  1  0.25100900  0.55198800  0.17040200  1
  Ni  Ni1  1  0.25272700  0.55103000  0.67109300  1
  Ni  Ni2  1  0.74721200  0.44897000  0.32893500  1
  Ni  Ni3  1  0.74720600  0.44888400  0.82908500  1
  Cu  Cu4  1  0.59502300  0.85303000  0.07179700  1
  Cu  Cu5  1  0.59384200  0.85279500  0.57181500  1
  Cu  Cu6  1  0.40618700  0.14730700  0.42808900  1
  Cu  Cu7  1  0.40509900  0.14625000  0.92890200  1
  Cu  Cu8  1  0.08438100  0.84835600  0.57010400  1
  Cu  Cu9  1  0.91570500  0.15147200  0.42976600  1
  Cu  Cu10  1  0.91636000  0.15061000  0.93057500  1
  C  C11  1  0.08447100  0.84620400  0.07112700  1
  C  C12  1  0.95572000  0.21070000  0.17332500  1
  C  C13  1  0.95403600  0.21316400  0.67366600  1
  C  C14  1  0.04580200  0.78737800  0.32430200  1
  C  C15  1  0.04561000  0.78647500  0.82773600  1
  C  C16  1  0.40290100  0.21945200  0.16775100  1
  C  C17  1  0.40360200  0.21987700  0.66836300  1
  C  C18  1  0.59618200  0.78007600  0.33173000  1
  C  C19  1  0.59628700  0.78034000  0.83204300  1
  C  C20  1  0.74055300  0.45236400  0.07247000  1
  C  C21  1  0.73726700  0.45058300  0.57240700  1
  C  C22  1  0.26253500  0.54975500  0.42731800  1
  C  C23  1  0.26023400  0.55132400  0.92834400  1
  C  C24  1  0.64757800  0.16970800  0.26619800  1
  C  C25  1  0.64754500  0.16961700  0.76650100  1
  C  C26  1  0.35243500  0.83065200  0.23246500  1
  C  C27  1  0.35221700  0.83044200  0.73382500  1
  C  C28  1  0.79965100  0.65674200  0.06367100  1
  C  C29  1  0.78990500  0.65349400  0.56297500  1
  C  C30  1  0.20986300  0.34685800  0.43695100  1
  C  C31  1  0.21063000  0.34830300  0.93795100  1
  C  C32  1  0.28477400  0.67597500  0.02746500  1
  C  C33  1  0.29264400  0.67055200  0.52710500  1
  C  C34  1  0.70713700  0.32943800  0.47277700  1
  C  C35  1  0.70767000  0.33060100  0.97300900  1
  C  C36  1  0.19335800  0.26505900  0.19443200  1
  C  C37  1  0.19242300  0.26349700  0.69401300  1
  C  C38  1  0.80698900  0.73631000  0.30577300  1
  C  C39  1  0.80737500  0.73671200  0.80617300  1
  C  C40  1  0.53460700  0.40167000  0.13368200  1
  C  C41  1  0.53354800  0.40152200  0.63448600  1
  C  C42  1  0.46664300  0.59848800  0.36558200  1
  C  C43  1  0.46592400  0.59974600  0.86710500  1
  C  C44  1  0.90934400  0.39290400  0.13918900  1
  C  C45  1  0.90925300  0.39571700  0.63954300  1
  C  C46  1  0.09182100  0.60551300  0.35942000  1
  C  C47  1  0.08996800  0.60264600  0.85925300  1
  C  C48  1  0.84581600  0.17481200  0.27157400  1
  C  C49  1  0.84613400  0.17549700  0.77207100  1
  C  C50  1  0.15053200  0.82442800  0.22438700  1
  C  C51  1  0.15387200  0.82580800  0.72920800  1
  C  C52  1  0.38373800  0.06128100  0.08658800  1
  C  C53  1  0.38852000  0.06374000  0.58644200  1
  C  C54  1  0.61138700  0.93631400  0.41352400  1
  C  C55  1  0.61147200  0.93677400  0.91364700  1
  C  C56  1  0.90291400  0.05447800  0.08907600  1
  C  C57  1  0.89651800  0.05953400  0.58871200  1
  C  C58  1  0.10434400  0.94015400  0.40979600  1
  C  C59  1  0.10280400  0.93708800  0.91448200  1
  C  C60  1  0.50172000  0.19127800  0.26998700  1
  C  C61  1  0.50155000  0.19121300  0.77048400  1
  C  C62  1  0.49735600  0.80869400  0.22963100  1
  C  C63  1  0.49807100  0.80835500  0.72970100  1
