# generated using pymatgen
data_Cu11Ni5C49
_symmetry_space_group_name_H-M   'P 1'
_cell_length_a   10.78657458
_cell_length_b   10.78657458
_cell_length_c   15.92210200
_cell_angle_alpha   90.00000000
_cell_angle_beta   90.00000000
_cell_angle_gamma   115.42169752
_symmetry_Int_Tables_number   1
_chemical_formula_structural   Cu11Ni5C49
_chemical_formula_sum   'Cu22 Ni10 C98'
_cell_volume   1673.16337475
_cell_formula_units_Z   2
loop_
 _symmetry_equiv_pos_site_id
 _symmetry_equiv_pos_as_xyz
  1  'x, y, z'
loop_
 _atom_site_type_symbol
 _atom_site_label
 _atom_site_symmetry_multiplicity
 _atom_site_fract_x
 _atom_site_fract_y
 _atom_site_fract_z
 _atom_site_occupancy
  C  C0  1  0.02627900  0.02627900  0.24979400  1
  C  C1  1  0.97372100  0.97372100  0.74979400  1
  C  C2  1  0.20125200  0.40110200  0.24881000  1
  C  C3  1  0.59889800  0.79874800  0.74881000  1
  C  C4  1  0.79874800  0.59889800  0.74881000  1
  C  C5  1  0.40110200  0.20125200  0.24881000  1
  C  C6  1  0.08248400  0.70535400  0.57778200  1
  C  C7  1  0.29455200  0.91745400  0.42222100  1
  C  C8  1  0.08254600  0.70544800  0.92222100  1
  C  C9  1  0.29464600  0.91751600  0.07778200  1
  C  C10  1  0.91745400  0.29455200  0.42222100  1
  C  C11  1  0.70535400  0.08248400  0.57778200  1
  C  C12  1  0.91751600  0.29464600  0.07778200  1
  C  C13  1  0.70544800  0.08254600  0.92222100  1
  C  C14  1  0.70843500  0.40767000  0.24977400  1
  C  C15  1  0.59233000  0.29156500  0.74977400  1
  C  C16  1  0.29156500  0.59233000  0.74977400  1
  C  C17  1  0.40767000  0.70843500  0.24977400  1
  C  C18  1  0.49245400  0.39571900  0.42087300  1
  C  C19  1  0.58872500  0.49043800  0.55745400  1
  C  C20  1  0.50956200  0.41127500  0.05745400  1
  C  C21  1  0.60428100  0.50754600  0.92087300  1
  C  C22  1  0.49043800  0.58872500  0.55745400  1
  C  C23  1  0.39571900  0.49245400  0.42087300  1
  C  C24  1  0.50754600  0.60428100  0.92087300  1
  C  C25  1  0.41127500  0.50956200  0.05745400  1
  C  C26  1  0.07162000  0.89810400  0.44934100  1
  C  C27  1  0.10193400  0.92848400  0.55064300  1
  C  C28  1  0.07151600  0.89806600  0.05064300  1
  C  C29  1  0.10189600  0.92838000  0.94934100  1
  C  C30  1  0.92848400  0.10193400  0.55064300  1
  C  C31  1  0.89810400  0.07162000  0.44934100  1
  C  C32  1  0.92838000  0.10189600  0.94934100  1
  C  C33  1  0.89806600  0.07151600  0.05064300  1
  C  C34  1  0.81838800  0.47245700  0.38222900  1
  C  C35  1  0.52754000  0.18177100  0.61780100  1
  C  C36  1  0.81822900  0.47246000  0.11780100  1
  C  C37  1  0.52754300  0.18161200  0.88222900  1
  C  C38  1  0.18177100  0.52754000  0.61780100  1
  C  C39  1  0.47245700  0.81838800  0.38222900  1
  C  C40  1  0.18161200  0.52754300  0.88222900  1
  C  C41  1  0.47246000  0.81822900  0.11780100  1
  C  C42  1  0.97852300  0.57425500  0.33003200  1
  C  C43  1  0.42579300  0.02138300  0.66988400  1
  C  C44  1  0.97861700  0.57420700  0.16988400  1
  C  C45  1  0.42574500  0.02147700  0.83003200  1
  C  C46  1  0.02138300  0.42579300  0.66988400  1
  C  C47  1  0.57425500  0.97852300  0.33003200  1
  C  C48  1  0.02147700  0.42574500  0.83003200  1
  C  C49  1  0.57420700  0.97861700  0.16988400  1
  C  C50  1  0.08750900  0.67428200  0.46695800  1
  C  C51  1  0.32564400  0.91227500  0.53311200  1
  C  C52  1  0.08772500  0.67435600  0.03311200  1
  C  C53  1  0.32571800  0.91249100  0.96695800  1
  C  C54  1  0.91227500  0.32564400  0.53311200  1
  C  C55  1  0.67428200  0.08750900  0.46695800  1
  C  C56  1  0.91249100  0.32571800  0.96695800  1
  C  C57  1  0.67435600  0.08772500  0.03311200  1
  C  C58  1  0.94378600  0.69353100  0.51277200  1
  C  C59  1  0.30633600  0.05594100  0.48730500  1
  C  C60  1  0.94405900  0.69366400  0.98730500  1
  C  C61  1  0.30646900  0.05621400  0.01277200  1
  C  C62  1  0.05594100  0.30633600  0.48730500  1
  C  C63  1  0.69353100  0.94378600  0.51277200  1
  C  C64  1  0.05621400  0.30646900  0.01277200  1
  C  C65  1  0.69366400  0.94405900  0.98730500  1
  C  C66  1  0.84373300  0.37318100  0.24995000  1
  C  C67  1  0.62681900  0.15626700  0.74995000  1
  C  C68  1  0.15626700  0.62681900  0.74995000  1
  C  C69  1  0.37318100  0.84373300  0.24995000  1
  C  C70  1  0.83948900  0.62421700  0.32536000  1
  C  C71  1  0.37589000  0.16072200  0.67454500  1
  C  C72  1  0.83927800  0.62411000  0.17454500  1
  C  C73  1  0.37578300  0.16051100  0.82536000  1
  C  C74  1  0.16072200  0.37589000  0.67454500  1
  C  C75  1  0.62421700  0.83948900  0.32536000  1
  C  C76  1  0.16051100  0.37578300  0.82536000  1
  C  C77  1  0.62411000  0.83927800  0.17454500  1
  C  C78  1  0.45728900  0.45728900  0.54502600  1
  C  C79  1  0.57494200  0.57494200  0.50144600  1
  C  C80  1  0.42505800  0.42505800  0.00144600  1
  C  C81  1  0.54271100  0.54271100  0.04502600  1
  C  C82  1  0.86646200  0.53734100  0.32773800  1
  C  C83  1  0.46254500  0.13343600  0.67219200  1
  C  C84  1  0.86656400  0.53745500  0.17219200  1
  C  C85  1  0.46265900  0.13353800  0.82773800  1
  C  C86  1  0.13343600  0.46254500  0.67219200  1
  C  C87  1  0.53734100  0.86646200  0.32773800  1
  C  C88  1  0.13353800  0.46265900  0.82773800  1
  C  C89  1  0.53745500  0.86656400  0.17219200  1
  C  C90  1  0.05488600  0.72684200  0.51506600  1
  C  C91  1  0.27307900  0.94488600  0.48498800  1
  C  C92  1  0.05511400  0.72692100  0.98498800  1
  C  C93  1  0.27315800  0.94511400  0.01506600  1
  C  C94  1  0.94488600  0.27307900  0.48498800  1
  C  C95  1  0.72684200  0.05488600  0.51506600  1
  C  C96  1  0.94511400  0.27315800  0.01506600  1
  C  C97  1  0.72692100  0.05511400  0.98498800  1
  Ni  Ni98  1  0.81496600  0.45429100  0.24994800  1
  Ni  Ni99  1  0.54570900  0.18503400  0.74994800  1
  Ni  Ni100  1  0.18503400  0.54570900  0.74994800  1
  Ni  Ni101  1  0.45429100  0.81496600  0.24994800  1
  Ni  Ni102  1  0.12176300  0.87814700  0.50000500  1
  Ni  Ni103  1  0.12185300  0.87823700  0.00000500  1
  Ni  Ni104  1  0.87814700  0.12176300  0.50000500  1
  Ni  Ni105  1  0.87823700  0.12185300  0.00000500  1
  Ni  Ni106  1  0.46620500  0.46620500  0.45225000  1
  Ni  Ni107  1  0.53379500  0.53379500  0.95225000  1
  Cu  Cu108  1  0.48135300  0.48135300  0.25154300  1
  Cu  Cu109  1  0.51864700  0.51864700  0.75154300  1
  Cu  Cu110  1  0.92997100  0.22814300  0.25037200  1
  Cu  Cu111  1  0.77185700  0.07002900  0.75037200  1
  Cu  Cu112  1  0.07002900  0.77185700  0.75037200  1
  Cu  Cu113  1  0.22814300  0.92997100  0.25037200  1
  Cu  Cu114  1  0.20497800  0.20497800  0.14079800  1
  Cu  Cu115  1  0.79270800  0.79270800  0.86195600  1
  Cu  Cu116  1  0.20729200  0.20729200  0.36195600  1
  Cu  Cu117  1  0.79502200  0.79502200  0.64079800  1
  Cu  Cu118  1  0.88895400  0.88895400  0.37449700  1
  Cu  Cu119  1  0.11175900  0.11175900  0.62467800  1
  Cu  Cu120  1  0.88824100  0.88824100  0.12467800  1
  Cu  Cu121  1  0.11104600  0.11104600  0.87449700  1
  Cu  Cu122  1  0.22892300  0.56085700  0.37452300  1
  Cu  Cu123  1  0.43741500  0.77366900  0.62622800  1
  Cu  Cu124  1  0.22633100  0.56258500  0.12622800  1
  Cu  Cu125  1  0.43914300  0.77107700  0.87452300  1
  Cu  Cu126  1  0.77366900  0.43741500  0.62622800  1
  Cu  Cu127  1  0.56085700  0.22892300  0.37452300  1
  Cu  Cu128  1  0.77107700  0.43914300  0.87452300  1
  Cu  Cu129  1  0.56258500  0.22633100  0.12622800  1
