# generated using pymatgen
data_Cu2Ni3C4
_symmetry_space_group_name_H-M   'P 1'
_cell_length_a   6.74174337
_cell_length_b   6.74174337
_cell_length_c   7.34403099
_cell_angle_alpha   62.20685214
_cell_angle_beta   62.20685214
_cell_angle_gamma   89.09044694
_symmetry_Int_Tables_number   1
_chemical_formula_structural   Cu2Ni3C4
_chemical_formula_sum   'Cu4 Ni6 C8'
_cell_volume   252.41007597
_cell_formula_units_Z   2
loop_
 _symmetry_equiv_pos_site_id
 _symmetry_equiv_pos_as_xyz
  1  'x, y, z'
loop_
 _atom_site_type_symbol
 _atom_site_label
 _atom_site_symmetry_multiplicity
 _atom_site_fract_x
 _atom_site_fract_y
 _atom_site_fract_z
 _atom_site_occupancy
  C  C0  1  0.24311500  0.25688500  0.50000000  1
  C  C1  1  0.74311500  0.75688500  0.50000000  1
  C  C2  1  0.32414000  0.17586000  0.00000000  1
  C  C3  1  0.66661200  0.83338800  0.00000000  1
  C  C4  1  0.17899000  0.67558100  0.00000000  1
  C  C5  1  0.82441900  0.32101000  0.00000000  1
  C  C6  1  0.75122300  0.24413000  0.50464700  1
  C  C7  1  0.25587000  0.74877700  0.49535300  1
  Ni  Ni8  1  0.99204100  0.20744800  0.30051100  1
  Ni  Ni9  1  0.49147700  0.99041600  0.30162500  1
  Ni  Ni10  1  0.20795800  0.70689700  0.30162500  1
  Ni  Ni11  1  0.29255200  0.50795900  0.69948900  1
  Ni  Ni12  1  0.50958400  0.00852300  0.69837500  1
  Ni  Ni13  1  0.79310300  0.29204200  0.69837500  1
  Cu  Cu14  1  0.50866300  0.50648800  0.00000000  1
  Cu  Cu15  1  0.99351200  0.99133700  0.00000000  1
  Cu  Cu16  1  0.71026800  0.48664200  0.30309000  1
  Cu  Cu17  1  0.01335800  0.78973200  0.69691000  1
