# generated using pymatgen
data_Cu2NiC9
_symmetry_space_group_name_H-M   'P 1'
_cell_length_a   7.55169242
_cell_length_b   7.55169242
_cell_length_c   7.46753430
_cell_angle_alpha   65.51367922
_cell_angle_beta   65.51367922
_cell_angle_gamma   94.10381862
_symmetry_Int_Tables_number   1
_chemical_formula_structural   Cu2NiC9
_chemical_formula_sum   'Cu4 Ni2 C18'
_cell_volume   337.13132447
_cell_formula_units_Z   2
loop_
 _symmetry_equiv_pos_site_id
 _symmetry_equiv_pos_as_xyz
  1  'x, y, z'
loop_
 _atom_site_type_symbol
 _atom_site_label
 _atom_site_symmetry_multiplicity
 _atom_site_fract_x
 _atom_site_fract_y
 _atom_site_fract_z
 _atom_site_occupancy
  C  C0  1  0.69917200  0.30082800  0.00000000  1
  C  C1  1  0.30082800  0.69917200  0.00000000  1
  Ni  Ni2  1  0.69156800  0.69156800  0.48572700  1
  Ni  Ni3  1  0.30843200  0.30843200  0.51427300  1
  Cu  Cu4  1  0.21204100  0.21204100  0.03304200  1
  Cu  Cu5  1  0.78795900  0.78795900  0.96695800  1
  Cu  Cu6  1  0.83624300  0.16375700  0.50000000  1
  Cu  Cu7  1  0.16375700  0.83624300  0.50000000  1
  C  C8  1  0.34599400  0.09990500  0.24552700  1
  C  C9  1  0.65400600  0.90009500  0.75447300  1
  C  C10  1  0.90009500  0.65400600  0.75447300  1
  C  C11  1  0.09990500  0.34599400  0.24552700  1
  C  C12  1  0.68421200  0.21454300  0.36011600  1
  C  C13  1  0.31578800  0.78545700  0.63988400  1
  C  C14  1  0.78545700  0.31578800  0.63988400  1
  C  C15  1  0.21454300  0.68421200  0.36011600  1
  C  C16  1  0.69979600  0.95253100  0.08546300  1
  C  C17  1  0.30020400  0.04746900  0.91453700  1
  C  C18  1  0.04746900  0.30020400  0.91453700  1
  C  C19  1  0.95253100  0.69979600  0.08546300  1
  C  C20  1  0.97805500  0.97805500  0.34299600  1
  C  C21  1  0.02194500  0.02194500  0.65700400  1
  C  C22  1  0.55858000  0.55858000  0.13745200  1
  C  C23  1  0.44142000  0.44142000  0.86254800  1
