# generated using pymatgen
data_Cu11NiC
_symmetry_space_group_name_H-M   'P 1'
_cell_length_a   6.62496600
_cell_length_b   10.87994700
_cell_length_c   13.48265433
_cell_angle_alpha   72.00036781
_cell_angle_beta   90.00000000
_cell_angle_gamma   90.00000000
_symmetry_Int_Tables_number   1
_chemical_formula_structural   Cu11NiC
_chemical_formula_sum   'Cu44 Ni4 C4'
_cell_volume   924.25767365
_cell_formula_units_Z   4
loop_
 _symmetry_equiv_pos_site_id
 _symmetry_equiv_pos_as_xyz
  1  'x, y, z'
loop_
 _atom_site_type_symbol
 _atom_site_label
 _atom_site_symmetry_multiplicity
 _atom_site_fract_x
 _atom_site_fract_y
 _atom_site_fract_z
 _atom_site_occupancy
  C  C0  1  0.50000000  0.50000000  0.00000000  1
  C  C1  1  0.00000000  0.00000000  0.00000000  1
  C  C2  1  0.50000000  0.00000000  0.50000000  1
  C  C3  1  0.00000000  0.50000000  0.50000000  1
  Ni  Ni4  1  0.47012000  0.17611800  0.77175900  1
  Ni  Ni5  1  0.97012000  0.32388200  0.22824100  1
  Ni  Ni6  1  0.52988000  0.82388200  0.22824100  1
  Ni  Ni7  1  0.02988000  0.67611800  0.77175900  1
  Cu  Cu8  1  0.47400400  0.03312300  0.79512000  1
  Cu  Cu9  1  0.97400400  0.46687700  0.20488000  1
  Cu  Cu10  1  0.52599600  0.96687700  0.20488000  1
  Cu  Cu11  1  0.02599600  0.53312300  0.79512000  1
  Cu  Cu12  1  0.53097100  0.21300200  0.86447600  1
  Cu  Cu13  1  0.03097100  0.28699800  0.13552400  1
  Cu  Cu14  1  0.46902900  0.78699800  0.13552400  1
  Cu  Cu15  1  0.96902900  0.71300200  0.86447600  1
  Cu  Cu16  1  0.61939800  0.22179200  0.68567000  1
  Cu  Cu17  1  0.11939800  0.27820800  0.31433000  1
  Cu  Cu18  1  0.38060200  0.77820800  0.31433000  1
  Cu  Cu19  1  0.88060200  0.72179200  0.68567000  1
  Cu  Cu20  1  0.26768000  0.23132700  0.73992300  1
  Cu  Cu21  1  0.76768000  0.26867300  0.26007700  1
  Cu  Cu22  1  0.73232000  0.76867300  0.26007700  1
  Cu  Cu23  1  0.23232000  0.73132700  0.73992300  1
  Cu  Cu24  1  0.39012500  0.42778500  0.90897500  1
  Cu  Cu25  1  0.89012500  0.07221500  0.09102500  1
  Cu  Cu26  1  0.60987500  0.57221500  0.09102500  1
  Cu  Cu27  1  0.10987500  0.92778500  0.90897500  1
  Cu  Cu28  1  0.47172600  0.33151900  0.07451300  1
  Cu  Cu29  1  0.97172600  0.16848100  0.92548700  1
  Cu  Cu30  1  0.52827400  0.66848100  0.92548700  1
  Cu  Cu31  1  0.02827400  0.83151900  0.07451300  1
  Cu  Cu32  1  0.73773900  0.43057500  0.98103500  1
  Cu  Cu33  1  0.23773900  0.06942500  0.01896500  1
  Cu  Cu34  1  0.26226100  0.56942500  0.01896500  1
  Cu  Cu35  1  0.76226100  0.93057500  0.98103500  1
  Cu  Cu36  1  0.44425500  0.15974500  0.50837900  1
  Cu  Cu37  1  0.94425500  0.34025500  0.49162100  1
  Cu  Cu38  1  0.55574500  0.84025500  0.49162100  1
  Cu  Cu39  1  0.05574500  0.65974500  0.50837900  1
  Cu  Cu40  1  0.75957600  0.01734400  0.45336800  1
  Cu  Cu41  1  0.25957600  0.48265600  0.54663200  1
  Cu  Cu42  1  0.24042400  0.98265600  0.54663200  1
  Cu  Cu43  1  0.74042400  0.51734400  0.45336800  1
  Cu  Cu44  1  0.34634100  0.05030400  0.38365000  1
  Cu  Cu45  1  0.84634100  0.44969600  0.61635000  1
  Cu  Cu46  1  0.65365900  0.94969600  0.61635000  1
  Cu  Cu47  1  0.15365900  0.55030400  0.38365000  1
  Cu  Cu48  1  0.52469300  0.37526000  0.38187700  1
  Cu  Cu49  1  0.02469300  0.12474000  0.61812300  1
  Cu  Cu50  1  0.47530700  0.62474000  0.61812300  1
  Cu  Cu51  1  0.97530700  0.87526000  0.38187700  1
