# generated using pymatgen
data_CuNi16C7
_symmetry_space_group_name_H-M   'P 1'
_cell_length_a   7.33763200
_cell_length_b   7.52797519
_cell_length_c   14.86876856
_cell_angle_alpha   102.49656286
_cell_angle_beta   101.18791849
_cell_angle_gamma   100.25312014
_symmetry_Int_Tables_number   1
_chemical_formula_structural   CuNi16C7
_chemical_formula_sum   'Cu2 Ni32 C14'
_cell_volume   765.58761552
_cell_formula_units_Z   2
loop_
 _symmetry_equiv_pos_site_id
 _symmetry_equiv_pos_as_xyz
  1  'x, y, z'
loop_
 _atom_site_type_symbol
 _atom_site_label
 _atom_site_symmetry_multiplicity
 _atom_site_fract_x
 _atom_site_fract_y
 _atom_site_fract_z
 _atom_site_occupancy
  C  C0  1  0.37125400  0.42253500  0.73901200  1
  C  C1  1  0.62874600  0.57746500  0.26098800  1
  C  C2  1  0.34123300  0.84487100  0.87806300  1
  C  C3  1  0.65876700  0.15512900  0.12193700  1
  C  C4  1  0.67499100  0.04854200  0.60544100  1
  C  C5  1  0.32500900  0.95145800  0.39455900  1
  C  C6  1  0.23867500  0.27346100  0.98895100  1
  C  C7  1  0.76132500  0.72653900  0.01104900  1
  C  C8  1  0.16919500  0.90383500  0.66944600  1
  C  C9  1  0.83080500  0.09616500  0.33055400  1
  C  C10  1  0.77362700  0.24791300  0.82792900  1
  C  C11  1  0.22637300  0.75208700  0.17207100  1
  C  C12  1  0.20555300  0.42611600  0.48585100  1
  C  C13  1  0.79444700  0.57388400  0.51414900  1
  Ni  Ni14  1  0.40162500  0.27735800  0.06131800  1
  Ni  Ni15  1  0.59837500  0.72264200  0.93868200  1
  Ni  Ni16  1  0.00422000  0.16636400  0.06205400  1
  Ni  Ni17  1  0.99578000  0.83363600  0.93794600  1
  Ni  Ni18  1  0.24617800  0.50268300  0.91912500  1
  Ni  Ni19  1  0.75382200  0.49731700  0.08087500  1
  Ni  Ni20  1  0.31692300  0.16678300  0.89160500  1
  Ni  Ni21  1  0.68307700  0.83321700  0.10839500  1
  Ni  Ni22  1  0.11553600  0.69470600  0.75910900  1
  Ni  Ni23  1  0.88446400  0.30529400  0.24089100  1
  Ni  Ni24  1  0.03756500  0.02958800  0.36055900  1
  Ni  Ni25  1  0.96243500  0.97041200  0.63944100  1
  Ni  Ni26  1  0.34171800  0.88777100  0.56694000  1
  Ni  Ni27  1  0.65828200  0.11222900  0.43306000  1
  Ni  Ni28  1  0.31418500  0.07047300  0.71545000  1
  Ni  Ni29  1  0.68581500  0.92952700  0.28455000  1
  Ni  Ni30  1  0.67945600  0.44756900  0.79866800  1
  Ni  Ni31  1  0.32054400  0.55243100  0.20133200  1
  Ni  Ni32  1  0.02816700  0.29652900  0.78473600  1
  Ni  Ni33  1  0.97183300  0.70347100  0.21526400  1
  Ni  Ni34  1  0.71035100  0.15528200  0.95410400  1
  Ni  Ni35  1  0.28964900  0.84471800  0.04589600  1
  Ni  Ni36  1  0.65644100  0.07450700  0.77558600  1
  Ni  Ni37  1  0.34355900  0.92549300  0.22441400  1
  Ni  Ni38  1  0.30148600  0.23882600  0.45645900  1
  Ni  Ni39  1  0.69851400  0.76117400  0.54354100  1
  Ni  Ni40  1  0.26393400  0.44674300  0.59396900  1
  Ni  Ni41  1  0.73606600  0.55325700  0.40603100  1
  Ni  Ni42  1  0.94680600  0.32587800  0.50258700  1
  Ni  Ni43  1  0.05319400  0.67412200  0.49741300  1
  Ni  Ni44  1  0.64298800  0.37834600  0.61408500  1
  Ni  Ni45  1  0.35701200  0.62165400  0.38591500  1
  Cu  Cu46  1  0.50015300  0.24721000  0.26805100  1
  Cu  Cu47  1  0.49984700  0.75279000  0.73194900  1
