# generated using pymatgen
data_Cu4Ni5C12
_symmetry_space_group_name_H-M   'P 1'
_cell_length_a   6.12742237
_cell_length_b   6.12742237
_cell_length_c   13.87752322
_cell_angle_alpha   77.06484649
_cell_angle_beta   77.06484649
_cell_angle_gamma   88.18258861
_symmetry_Int_Tables_number   1
_chemical_formula_structural   Cu4Ni5C12
_chemical_formula_sum   'Cu8 Ni10 C24'
_cell_volume   494.83498708
_cell_formula_units_Z   2
loop_
 _symmetry_equiv_pos_site_id
 _symmetry_equiv_pos_as_xyz
  1  'x, y, z'
loop_
 _atom_site_type_symbol
 _atom_site_label
 _atom_site_symmetry_multiplicity
 _atom_site_fract_x
 _atom_site_fract_y
 _atom_site_fract_z
 _atom_site_occupancy
  Ni  Ni0  1  0.29641900  0.04025300  0.41694700  1
  Ni  Ni1  1  0.62610300  0.37389700  0.75000000  1
  Ni  Ni2  1  0.95974700  0.70358100  0.08305300  1
  Ni  Ni3  1  0.04025300  0.29641900  0.91694700  1
  Ni  Ni4  1  0.37389700  0.62610300  0.25000000  1
  Ni  Ni5  1  0.70358100  0.95974700  0.58305300  1
  Ni  Ni6  1  0.83365100  0.83217100  0.83332800  1
  Ni  Ni7  1  0.16634900  0.16782900  0.16667200  1
  Ni  Ni8  1  0.83217100  0.83365100  0.33332800  1
  Ni  Ni9  1  0.16782900  0.16634900  0.66667200  1
  Cu  Cu10  1  0.50000000  0.50000000  0.50000000  1
  Cu  Cu11  1  0.33200500  0.83283900  0.83482600  1
  Cu  Cu12  1  0.66799500  0.16716100  0.16517400  1
  Cu  Cu13  1  0.00000000  0.50000000  0.50000000  1
  Cu  Cu14  1  0.50000000  0.50000000  0.00000000  1
  Cu  Cu15  1  0.50000000  0.00000000  0.00000000  1
  Cu  Cu16  1  0.83283900  0.33200500  0.33482600  1
  Cu  Cu17  1  0.16716100  0.66799500  0.66517400  1
  C  C18  1  0.95154500  0.41509900  0.65560600  1
  C  C19  1  0.27903700  0.75987500  0.99071000  1
  C  C20  1  0.61997000  0.08363800  0.32378000  1
  C  C21  1  0.40189200  0.43096600  0.65695600  1
  C  C22  1  0.72196400  0.73746500  0.99545100  1
  C  C23  1  0.06703000  0.09577800  0.32747700  1
  C  C24  1  0.24012500  0.72096300  0.50929000  1
  C  C25  1  0.58490100  0.04845500  0.84439300  1
  C  C26  1  0.91636200  0.38003000  0.17622000  1
  C  C27  1  0.26253500  0.27803600  0.50454900  1
  C  C28  1  0.56903400  0.59810800  0.84304400  1
  C  C29  1  0.90422200  0.93297000  0.17252300  1
  C  C30  1  0.38003000  0.91636200  0.67622000  1
  C  C31  1  0.72096300  0.24012500  0.00929000  1
  C  C32  1  0.04845500  0.58490100  0.34439300  1
  C  C33  1  0.93297000  0.90422200  0.67252300  1
  C  C34  1  0.27803600  0.26253500  0.00454900  1
  C  C35  1  0.59810800  0.56903400  0.34304400  1
  C  C36  1  0.08363800  0.61997000  0.82378000  1
  C  C37  1  0.41509900  0.95154500  0.15560700  1
  C  C38  1  0.75987500  0.27903700  0.49071000  1
  C  C39  1  0.09577800  0.06703000  0.82747700  1
  C  C40  1  0.43096600  0.40189200  0.15695600  1
  C  C41  1  0.73746500  0.72196400  0.49545100  1
