# generated using pymatgen
data_Cu14Ni3C2
_symmetry_space_group_name_H-M   'P 1'
_cell_length_a   8.21028300
_cell_length_b   8.54911252
_cell_length_c   8.54911252
_cell_angle_alpha   119.99464875
_cell_angle_beta   90.00000000
_cell_angle_gamma   90.00000000
_symmetry_Int_Tables_number   1
_chemical_formula_structural   Cu14Ni3C2
_chemical_formula_sum   'Cu28 Ni6 C4'
_cell_volume   519.70182392
_cell_formula_units_Z   2
loop_
 _symmetry_equiv_pos_site_id
 _symmetry_equiv_pos_as_xyz
  1  'x, y, z'
loop_
 _atom_site_type_symbol
 _atom_site_label
 _atom_site_symmetry_multiplicity
 _atom_site_fract_x
 _atom_site_fract_y
 _atom_site_fract_z
 _atom_site_occupancy
  C  C0  1  0.75000000  0.99996500  0.00003500  1
  C  C1  1  0.25000000  0.00003500  0.99996500  1
  C  C2  1  0.25000000  0.66653100  0.33346900  1
  C  C3  1  0.75000000  0.33346900  0.66653100  1
  Ni  Ni4  1  0.50000000  0.50000000  0.00000000  1
  Ni  Ni5  1  0.50000000  0.50000000  0.50000000  1
  Ni  Ni6  1  0.50000000  0.00000000  0.50000000  1
  Ni  Ni7  1  0.00000000  0.50000000  0.00000000  1
  Ni  Ni8  1  0.00000000  0.50000000  0.50000000  1
  Ni  Ni9  1  0.00000000  0.00000000  0.50000000  1
  Cu  Cu10  1  0.61157400  0.66665700  0.33334300  1
  Cu  Cu11  1  0.38842600  0.33334300  0.66665700  1
  Cu  Cu12  1  0.11157400  0.33334300  0.66665700  1
  Cu  Cu13  1  0.88842600  0.66665700  0.33334300  1
  Cu  Cu14  1  0.75000000  0.67698000  0.02954400  1
  Cu  Cu15  1  0.75000000  0.35267600  0.32301800  1
  Cu  Cu16  1  0.75000000  0.97020500  0.64718800  1
  Cu  Cu17  1  0.75000000  0.35281200  0.02979500  1
  Cu  Cu18  1  0.75000000  0.97045600  0.32302000  1
  Cu  Cu19  1  0.75000000  0.67698200  0.64732400  1
  Cu  Cu20  1  0.25000000  0.32302000  0.97045600  1
  Cu  Cu21  1  0.25000000  0.64732400  0.67698200  1
  Cu  Cu22  1  0.25000000  0.02979500  0.35281200  1
  Cu  Cu23  1  0.25000000  0.64718800  0.97020500  1
  Cu  Cu24  1  0.25000000  0.02954400  0.67698000  1
  Cu  Cu25  1  0.25000000  0.32301800  0.35267600  1
  Cu  Cu26  1  0.48809400  0.83391300  0.66799500  1
  Cu  Cu27  1  0.48838500  0.83399600  0.16600400  1
  Cu  Cu28  1  0.48809400  0.33200500  0.16608700  1
  Cu  Cu29  1  0.51190600  0.16608700  0.33200500  1
  Cu  Cu30  1  0.51161500  0.16600400  0.83399600  1
  Cu  Cu31  1  0.51190600  0.66799500  0.83391300  1
  Cu  Cu32  1  0.98809400  0.16608700  0.33200500  1
  Cu  Cu33  1  0.98838500  0.16600400  0.83399600  1
  Cu  Cu34  1  0.98809400  0.66799500  0.83391300  1
  Cu  Cu35  1  0.01190600  0.83391300  0.66799500  1
  Cu  Cu36  1  0.01161500  0.83399600  0.16600400  1
  Cu  Cu37  1  0.01190600  0.33200500  0.16608700  1
