# generated using pymatgen
data_CuNi2C7
_symmetry_space_group_name_H-M   'P 1'
_cell_length_a   5.66302420
_cell_length_b   5.95003400
_cell_length_c   8.22281823
_cell_angle_alpha   90.00000000
_cell_angle_beta   90.17348460
_cell_angle_gamma   90.00000000
_symmetry_Int_Tables_number   1
_chemical_formula_structural   CuNi2C7
_chemical_formula_sum   'Cu2 Ni4 C14'
_cell_volume   277.06812401
_cell_formula_units_Z   2
loop_
 _symmetry_equiv_pos_site_id
 _symmetry_equiv_pos_as_xyz
  1  'x, y, z'
loop_
 _atom_site_type_symbol
 _atom_site_label
 _atom_site_symmetry_multiplicity
 _atom_site_fract_x
 _atom_site_fract_y
 _atom_site_fract_z
 _atom_site_occupancy
  Ni  Ni0  1  0.99918900  0.99650700  0.49960900  1
  Ni  Ni1  1  0.49918900  0.50349300  0.99960900  1
  Ni  Ni2  1  0.51438600  0.94411500  0.24489600  1
  Ni  Ni3  1  0.01438600  0.55588500  0.74489600  1
  Cu  Cu4  1  0.48427100  0.05814200  0.75556000  1
  Cu  Cu5  1  0.98427100  0.44185800  0.25556000  1
  C  C6  1  0.49977700  0.50122700  0.50155600  1
  C  C7  1  0.99977700  0.99877300  0.00155600  1
  C  C8  1  0.83143300  0.71215200  0.07296500  1
  C  C9  1  0.33143300  0.78784800  0.57296500  1
  C  C10  1  0.17331500  0.28230800  0.92771600  1
  C  C11  1  0.67331500  0.21769200  0.42771600  1
  C  C12  1  0.37726400  0.55702000  0.26957400  1
  C  C13  1  0.87726400  0.94298000  0.76957400  1
  C  C14  1  0.61780200  0.44252400  0.73032500  1
  C  C15  1  0.11780200  0.05747500  0.23032500  1
  C  C16  1  0.79355400  0.67532900  0.44460600  1
  C  C17  1  0.29355400  0.82467100  0.94460600  1
  C  C18  1  0.20901000  0.32144400  0.55319300  1
  C  C19  1  0.70901000  0.17855600  0.05319300  1
