# generated using pymatgen
data_Cu4NiC2
_symmetry_space_group_name_H-M   'P 1'
_cell_length_a   6.89574300
_cell_length_b   9.89442800
_cell_length_c   11.82387840
_cell_angle_alpha   89.32545826
_cell_angle_beta   90.00000000
_cell_angle_gamma   90.00000000
_symmetry_Int_Tables_number   1
_chemical_formula_structural   Cu4NiC2
_chemical_formula_sum   'Cu16 Ni4 C8'
_cell_volume   806.68060740
_cell_formula_units_Z   4
loop_
 _symmetry_equiv_pos_site_id
 _symmetry_equiv_pos_as_xyz
  1  'x, y, z'
loop_
 _atom_site_type_symbol
 _atom_site_label
 _atom_site_symmetry_multiplicity
 _atom_site_fract_x
 _atom_site_fract_y
 _atom_site_fract_z
 _atom_site_occupancy
  C  C0  1  0.80267900  0.35555200  0.09674100  1
  C  C1  1  0.30267900  0.64444800  0.90325900  1
  C  C2  1  0.30734600  0.82565300  0.41447200  1
  C  C3  1  0.80734600  0.17434700  0.58552800  1
  C  C4  1  0.80856000  0.60794200  0.64950800  1
  C  C5  1  0.30856000  0.39205800  0.35049200  1
  C  C6  1  0.78690400  0.88411600  0.14709800  1
  C  C7  1  0.28690400  0.11588400  0.85290200  1
  Ni  Ni8  1  0.80856800  0.62731500  0.30828900  1
  Ni  Ni9  1  0.83040000  0.91501100  0.84558700  1
  Ni  Ni10  1  0.33040000  0.08498900  0.15441300  1
  Ni  Ni11  1  0.30856800  0.37268500  0.69171100  1
  Cu  Cu12  1  0.06480700  0.90959500  0.73855500  1
  Cu  Cu13  1  0.56480700  0.09040500  0.26144500  1
  Cu  Cu14  1  0.80593500  0.73845600  0.93751600  1
  Cu  Cu15  1  0.30593500  0.26154400  0.06248400  1
  Cu  Cu16  1  0.08535700  0.05347000  0.24908500  1
  Cu  Cu17  1  0.89487800  0.06475300  0.96027800  1
  Cu  Cu18  1  0.58535700  0.94653000  0.75091500  1
  Cu  Cu19  1  0.39487800  0.93524700  0.03972200  1
  Cu  Cu20  1  0.30510600  0.20157900  0.59458800  1
  Cu  Cu21  1  0.80510600  0.79842100  0.40541200  1
  Cu  Cu22  1  0.54296500  0.34725000  0.79806700  1
  Cu  Cu23  1  0.04296500  0.65275000  0.20193300  1
  Cu  Cu24  1  0.31487300  0.55278400  0.60916100  1
  Cu  Cu25  1  0.81487300  0.44721600  0.39083900  1
  Cu  Cu26  1  0.06390100  0.35482600  0.79269500  1
  Cu  Cu27  1  0.56390100  0.64517400  0.20730500  1
