# generated using pymatgen
data_CuNi3C
_symmetry_space_group_name_H-M   'P 1'
_cell_length_a   6.39771600
_cell_length_b   6.39771600
_cell_length_c   6.39771600
_cell_angle_alpha   90.00000000
_cell_angle_beta   90.00000000
_cell_angle_gamma   90.00000000
_symmetry_Int_Tables_number   1
_chemical_formula_structural   CuNi3C
_chemical_formula_sum   'Cu3 Ni9 C3'
_cell_volume   261.86344223
_cell_formula_units_Z   3
loop_
 _symmetry_equiv_pos_site_id
 _symmetry_equiv_pos_as_xyz
  1  'x, y, z'
loop_
 _atom_site_type_symbol
 _atom_site_label
 _atom_site_symmetry_multiplicity
 _atom_site_fract_x
 _atom_site_fract_y
 _atom_site_fract_z
 _atom_site_occupancy
  C  C0  1  0.50000000  0.00000000  0.00000000  1
  C  C1  1  0.00000000  0.50000000  0.00000000  1
  C  C2  1  0.00000000  0.00000000  0.50000000  1
  Ni  Ni3  1  0.28642900  0.28642900  0.28642900  1
  Ni  Ni4  1  0.71357100  0.71357100  0.71357100  1
  Ni  Ni5  1  0.71357100  0.71357100  0.28642900  1
  Ni  Ni6  1  0.71357100  0.28642900  0.71357100  1
  Ni  Ni7  1  0.28642900  0.28642900  0.71357100  1
  Ni  Ni8  1  0.28642900  0.71357100  0.28642900  1
  Ni  Ni9  1  0.28642900  0.71357100  0.71357100  1
  Ni  Ni10  1  0.71357100  0.28642900  0.28642900  1
  Ni  Ni11  1  0.00000000  0.00000000  0.00000000  1
  Cu  Cu12  1  0.00000000  0.50000000  0.50000000  1
  Cu  Cu13  1  0.50000000  0.00000000  0.50000000  1
  Cu  Cu14  1  0.50000000  0.50000000  0.00000000  1
