# generated using pymatgen
data_CuNiC8
_symmetry_space_group_name_H-M   'P 1'
_cell_length_a   8.44032992
_cell_length_b   8.43700111
_cell_length_c   8.42867098
_cell_angle_alpha   90.00000000
_cell_angle_beta   90.00000000
_cell_angle_gamma   90.00000000
_symmetry_Int_Tables_number   1
_chemical_formula_structural   CuNiC8
_chemical_formula_sum   'Cu4 Ni4 C32'
_cell_volume   600.21470364
_cell_formula_units_Z   4
loop_
 _symmetry_equiv_pos_site_id
 _symmetry_equiv_pos_as_xyz
  1  'x, y, z'
loop_
 _atom_site_type_symbol
 _atom_site_label
 _atom_site_symmetry_multiplicity
 _atom_site_fract_x
 _atom_site_fract_y
 _atom_site_fract_z
 _atom_site_occupancy
  Ni  Ni0  1  0.00000000  0.50000000  0.50000000  1
  Ni  Ni1  1  0.50000000  -0.00000000  0.50000000  1
  Ni  Ni2  1  0.50000000  0.50000000  0.00000000  1
  Ni  Ni3  1  0.00000000  0.50000000  0.00000000  1
  Cu  Cu4  1  0.50000000  -0.00000000  0.00000000  1
  Cu  Cu5  1  0.00000000  -0.00000000  0.50000000  1
  Cu  Cu6  1  0.00000000  0.00000000  0.00000000  1
  Cu  Cu7  1  0.50000000  0.50000000  0.50000000  1
  C  C8  1  0.75038596  0.75223954  0.75039725  1
  C  C9  1  0.24961404  0.24776046  0.75039725  1
  C  C10  1  0.24961404  0.75223954  0.24960275  1
  C  C11  1  0.75038596  0.24776046  0.24960275  1
  C  C12  1  0.25071251  0.24753810  0.24963648  1
  C  C13  1  0.74928749  0.75246190  0.24963648  1
  C  C14  1  0.74928749  0.24753810  0.75036352  1
  C  C15  1  0.25071251  0.75246190  0.75036352  1
  C  C16  1  0.02060679  0.19413663  0.29165949  1
  C  C17  1  0.97939321  0.80586337  0.29165949  1
  C  C18  1  0.97939321  0.19413663  0.70834051  1
  C  C19  1  0.02060679  0.80586337  0.70834051  1
  C  C20  1  0.29467607  0.01885507  0.19662798  1
  C  C21  1  0.29467607  0.98114493  0.80337202  1
  C  C22  1  0.70532393  0.98114493  0.19662798  1
  C  C23  1  0.70532393  0.01885507  0.80337202  1
  C  C24  1  0.20178780  0.28351493  0.01947122  1
  C  C25  1  0.79821220  0.28351493  0.98052878  1
  C  C26  1  0.20178780  0.71648507  0.98052878  1
  C  C27  1  0.79821220  0.71648507  0.01947122  1
  C  C28  1  0.48174982  0.29519810  0.21689556  1
  C  C29  1  0.51825018  0.70480190  0.21689556  1
  C  C30  1  0.51825018  0.29519810  0.78310444  1
  C  C31  1  0.48174982  0.70480190  0.78310444  1
  C  C32  1  0.21417861  0.48016136  0.29223620  1
  C  C33  1  0.21417861  0.51983864  0.70776380  1
  C  C34  1  0.78582139  0.51983864  0.29223620  1
  C  C35  1  0.78582139  0.48016136  0.70776380  1
  C  C36  1  0.29454763  0.21396638  0.48127533  1
  C  C37  1  0.70545237  0.21396638  0.51872467  1
  C  C38  1  0.29454763  0.78603362  0.51872467  1
  C  C39  1  0.70545237  0.78603362  0.48127533  1
