# generated using pymatgen
data_Cu4Ni4C29
_symmetry_space_group_name_H-M   'P 1'
_cell_length_a   5.18117298
_cell_length_b   5.95955324
_cell_length_c   14.75260233
_cell_angle_alpha   90.00000000
_cell_angle_beta   90.20440858
_cell_angle_gamma   90.00000000
_symmetry_Int_Tables_number   1
_chemical_formula_structural   Cu4Ni4C29
_chemical_formula_sum   'Cu4 Ni4 C29'
_cell_volume   455.52022871
_cell_formula_units_Z   1
loop_
 _symmetry_equiv_pos_site_id
 _symmetry_equiv_pos_as_xyz
  1  'x, y, z'
loop_
 _atom_site_type_symbol
 _atom_site_label
 _atom_site_symmetry_multiplicity
 _atom_site_fract_x
 _atom_site_fract_y
 _atom_site_fract_z
 _atom_site_occupancy
  C  C0  1  0.25000000  0.58111021  0.00000000  1
  Ni  Ni1  1  0.26052090  0.66849457  0.18396917  1
  Ni  Ni2  1  0.76052926  0.84772749  0.34386725  1
  Ni  Ni3  1  0.73947074  0.84772749  0.65613275  1
  Ni  Ni4  1  0.23947910  0.66849457  0.81603083  1
  C  C5  1  0.25000000  0.11315547  0.00000000  1
  C  C6  1  0.75000000  0.34200619  0.50000000  1
  C  C7  1  0.75000000  0.82506961  0.00000000  1
  C  C8  1  0.25000000  0.67682435  0.50000000  1
  Cu  Cu9  1  0.73279668  0.31804236  0.84120956  1
  Cu  Cu10  1  0.22400632  0.18524458  0.66011465  1
  Cu  Cu11  1  0.27599368  0.18524458  0.33988535  1
  Cu  Cu12  1  0.76720332  0.31804236  0.15879044  1
  C  C13  1  0.91179824  0.13805307  0.74871110  1
  C  C14  1  0.40192623  0.38900496  0.76002156  1
  C  C15  1  0.09807377  0.38900496  0.23997844  1
  C  C16  1  0.58820176  0.13805307  0.25128890  1
  C  C17  1  0.08372733  0.88182425  0.25644331  1
  C  C18  1  0.59072051  0.64046004  0.24615677  1
  C  C19  1  0.90927949  0.64046004  0.75384323  1
  C  C20  1  0.41627267  0.88182425  0.74355669  1
  C  C21  1  0.59412841  0.11069825  0.92024989  1
  C  C22  1  0.09656317  0.38913740  0.57919747  1
  C  C23  1  0.40343683  0.38913740  0.42080253  1
  C  C24  1  0.90587159  0.11069825  0.07975011  1
  C  C25  1  0.39444012  0.83551756  0.08131170  1
  C  C26  1  0.90069205  0.63117705  0.41778839  1
  C  C27  1  0.59930795  0.63117705  0.58221161  1
  C  C28  1  0.10555988  0.83551756  0.91868830  1
  C  C29  1  0.05848574  0.38998470  0.90647443  1
  C  C30  1  0.57544268  0.10898221  0.60017724  1
  C  C31  1  0.92455732  0.10898221  0.39982276  1
  C  C32  1  0.44151426  0.38998470  0.09352557  1
  C  C33  1  0.95776876  0.59549894  0.09564159  1
  C  C34  1  0.43428740  0.89794465  0.40248315  1
  C  C35  1  0.06571260  0.89794465  0.59751685  1
  C  C36  1  0.54223124  0.59549894  0.90435841  1
