# generated using pymatgen
data_CuNiC30
_symmetry_space_group_name_H-M   'P 1'
_cell_length_a   4.34572400
_cell_length_b   8.63386900
_cell_length_c   8.72422600
_cell_angle_alpha   90.00000000
_cell_angle_beta   90.00000000
_cell_angle_gamma   90.00000000
_symmetry_Int_Tables_number   1
_chemical_formula_structural   CuNiC30
_chemical_formula_sum   'Cu1 Ni1 C30'
_cell_volume   327.33655151
_cell_formula_units_Z   1
loop_
 _symmetry_equiv_pos_site_id
 _symmetry_equiv_pos_as_xyz
  1  'x, y, z'
loop_
 _atom_site_type_symbol
 _atom_site_label
 _atom_site_symmetry_multiplicity
 _atom_site_fract_x
 _atom_site_fract_y
 _atom_site_fract_z
 _atom_site_occupancy
  Ni  Ni0  1  0.00000000  0.00000000  0.50000000  1
  Cu  Cu1  1  0.00000000  0.00000000  0.00000000  1
  C  C2  1  0.00000000  0.50000000  0.00000000  1
  C  C3  1  0.00000000  0.50000000  0.50000000  1
  C  C4  1  0.50000000  0.00000000  0.26771100  1
  C  C5  1  0.50000000  0.00000000  0.73228900  1
  C  C6  1  0.50000000  0.50000000  0.25337400  1
  C  C7  1  0.50000000  0.50000000  0.74662600  1
  C  C8  1  0.50000000  0.26152800  0.00000000  1
  C  C9  1  0.50000000  0.24783100  0.50000000  1
  C  C10  1  0.50000000  0.73847200  0.00000000  1
  C  C11  1  0.50000000  0.75216900  0.50000000  1
  C  C12  1  0.00000000  0.25419600  0.26048000  1
  C  C13  1  0.00000000  0.25419600  0.73952000  1
  C  C14  1  0.00000000  0.74580400  0.26048000  1
  C  C15  1  0.00000000  0.74580400  0.73952000  1
  C  C16  1  0.00000000  0.26088900  0.00000000  1
  C  C17  1  0.00000000  0.26606500  0.50000000  1
  C  C18  1  0.00000000  0.73911100  0.00000000  1
  C  C19  1  0.00000000  0.73393500  0.50000000  1
  C  C20  1  0.50000000  0.24919700  0.24742900  1
  C  C21  1  0.50000000  0.24919700  0.75257100  1
  C  C22  1  0.50000000  0.75080300  0.24742900  1
  C  C23  1  0.50000000  0.75080300  0.75257100  1
  C  C24  1  0.50000000  0.00000000  0.00000000  1
  C  C25  1  0.50000000  0.00000000  0.50000000  1
  C  C26  1  0.50000000  0.50000000  0.00000000  1
  C  C27  1  0.50000000  0.50000000  0.50000000  1
  C  C28  1  0.00000000  0.00000000  0.24905700  1
  C  C29  1  0.00000000  0.00000000  0.75094300  1
  C  C30  1  0.00000000  0.50000000  0.24714000  1
  C  C31  1  0.00000000  0.50000000  0.75286000  1
