# generated using pymatgen
data_Cu2Ni2C3
_symmetry_space_group_name_H-M   'P 1'
_cell_length_a   9.45242337
_cell_length_b   9.45242337
_cell_length_c   9.45242337
_cell_angle_alpha   156.27921426
_cell_angle_beta   156.27921426
_cell_angle_gamma   33.79495702
_symmetry_Int_Tables_number   1
_chemical_formula_structural   Cu2Ni2C3
_chemical_formula_sum   'Cu2 Ni2 C3'
_cell_volume   136.54110846
_cell_formula_units_Z   1
loop_
 _symmetry_equiv_pos_site_id
 _symmetry_equiv_pos_as_xyz
  1  'x, y, z'
loop_
 _atom_site_type_symbol
 _atom_site_label
 _atom_site_symmetry_multiplicity
 _atom_site_fract_x
 _atom_site_fract_y
 _atom_site_fract_z
 _atom_site_occupancy
  C  C0  1  0.00000000  0.00000000  0.00000000  1
  C  C1  1  0.82171300  0.82171300  0.00000000  1
  C  C2  1  0.17828700  0.17828700  0.00000000  1
  Ni  Ni3  1  0.53638500  0.53638500  0.00000000  1
  Ni  Ni4  1  0.46361500  0.46361500  0.00000000  1
  Cu  Cu5  1  0.75000000  0.25000000  0.50000000  1
  Cu  Cu6  1  0.25000000  0.75000000  0.50000000  1
