# generated using pymatgen
data_CuNiC8
_symmetry_space_group_name_H-M   'P 1'
_cell_length_a   5.89497774
_cell_length_b   5.88636315
_cell_length_c   8.34608428
_cell_angle_alpha   90.80898976
_cell_angle_beta   90.61881237
_cell_angle_gamma   90.85973601
_symmetry_Int_Tables_number   1
_chemical_formula_structural   CuNiC8
_chemical_formula_sum   'Cu2 Ni2 C16'
_cell_volume   289.52992404
_cell_formula_units_Z   2
loop_
 _symmetry_equiv_pos_site_id
 _symmetry_equiv_pos_as_xyz
  1  'x, y, z'
loop_
 _atom_site_type_symbol
 _atom_site_label
 _atom_site_symmetry_multiplicity
 _atom_site_fract_x
 _atom_site_fract_y
 _atom_site_fract_z
 _atom_site_occupancy
  Ni  Ni0  1  0.50586453  0.52146154  0.24819754  1
  Ni  Ni1  1  0.49413547  0.47853846  0.75180246  1
  C  C2  1  -0.00000000  0.50000000  -0.00000000  1
  C  C3  1  0.50000000  0.00000000  0.50000000  1
  Cu  Cu4  1  0.99835568  0.03185584  0.25038267  1
  Cu  Cu5  1  0.00164432  0.96814416  0.74961733  1
  C  C6  1  0.50000000  0.00000000  -0.00000000  1
  C  C7  1  -0.00000000  0.50000000  0.50000000  1
  C  C8  1  0.23255696  0.19128583  0.95431169  1
  C  C9  1  0.25043120  0.69642229  0.53035797  1
  C  C10  1  0.76744304  0.80871417  0.04568831  1
  C  C11  1  0.74956880  0.30357771  0.46964203  1
  C  C12  1  0.30363761  0.74733658  0.96279655  1
  C  C13  1  0.18295656  0.23247152  0.53964268  1
  C  C14  1  0.69636239  0.25266342  0.03720345  1
  C  C15  1  0.81704344  0.76752848  0.46035732  1
  C  C16  1  0.40853327  0.99949896  0.22912003  1
  C  C17  1  0.05689224  0.46934732  0.27648946  1
  C  C18  1  0.59146673  0.00050104  0.77087997  1
  C  C19  1  0.94310776  0.53065268  0.72351054  1
