# generated using pymatgen
data_Cu6Ni6C
_symmetry_space_group_name_H-M   'P 1'
_cell_length_a   6.86506032
_cell_length_b   6.86506032
_cell_length_c   23.91285350
_cell_angle_alpha   89.78181863
_cell_angle_beta   89.78181863
_cell_angle_gamma   121.77680191
_symmetry_Int_Tables_number   1
_chemical_formula_structural   Cu6Ni6C
_chemical_formula_sum   'Cu12 Ni12 C2'
_cell_volume   958.03171316
_cell_formula_units_Z   2
loop_
 _symmetry_equiv_pos_site_id
 _symmetry_equiv_pos_as_xyz
  1  'x, y, z'
loop_
 _atom_site_type_symbol
 _atom_site_label
 _atom_site_symmetry_multiplicity
 _atom_site_fract_x
 _atom_site_fract_y
 _atom_site_fract_z
 _atom_site_occupancy
  C  C0  1  0.00000000  0.50000000  0.00000000  1
  C  C1  1  0.50000000  0.00000000  0.50000000  1
  Ni  Ni2  1  0.99881700  0.50422100  0.25015400  1
  Ni  Ni3  1  0.00118300  0.49577900  0.74984600  1
  Ni  Ni4  1  0.82729600  0.72442900  0.99984200  1
  Ni  Ni5  1  0.49577900  0.00118300  0.24984600  1
  Ni  Ni6  1  0.17270400  0.27557100  0.00015800  1
  Ni  Ni7  1  0.50422100  0.99881700  0.75015400  1
  Ni  Ni8  1  0.30858900  0.47259500  0.00005100  1
  Ni  Ni9  1  0.27557100  0.17270400  0.50015800  1
  Ni  Ni10  1  0.69141100  0.52740500  0.99994900  1
  Ni  Ni11  1  0.72442900  0.82729600  0.49984200  1
  Ni  Ni12  1  0.52740500  0.69141100  0.49994900  1
  Ni  Ni13  1  0.47259500  0.30858900  0.50005100  1
  Cu  Cu14  1  0.01786700  0.66578300  0.22402200  1
  Cu  Cu15  1  0.98213300  0.33421700  0.77597800  1
  Cu  Cu16  1  0.34839800  0.67406100  0.99995600  1
  Cu  Cu17  1  0.33421700  0.98213300  0.27597800  1
  Cu  Cu18  1  0.65160200  0.32593900  0.00004400  1
  Cu  Cu19  1  0.66578300  0.01786700  0.72402200  1
  Cu  Cu20  1  0.13589000  0.49977700  0.28121400  1
  Cu  Cu21  1  0.32593900  0.65160200  0.50004400  1
  Cu  Cu22  1  0.86411000  0.50022300  0.71878600  1
  Cu  Cu23  1  0.67406100  0.34839800  0.49995600  1
  Cu  Cu24  1  0.50022300  0.86411000  0.21878600  1
  Cu  Cu25  1  0.49977700  0.13589000  0.78121400  1
