# generated using pymatgen
data_Cu8(NiC11)3
_symmetry_space_group_name_H-M   'P 1'
_cell_length_a   7.28964900
_cell_length_b   7.87009888
_cell_length_c   9.45072137
_cell_angle_alpha   90.03409725
_cell_angle_beta   111.76084811
_cell_angle_gamma   90.12548866
_symmetry_Int_Tables_number   1
_chemical_formula_structural   Cu8(NiC11)3
_chemical_formula_sum   'Cu8 Ni3 C33'
_cell_volume   503.55172070
_cell_formula_units_Z   1
loop_
 _symmetry_equiv_pos_site_id
 _symmetry_equiv_pos_as_xyz
  1  'x, y, z'
loop_
 _atom_site_type_symbol
 _atom_site_label
 _atom_site_symmetry_multiplicity
 _atom_site_fract_x
 _atom_site_fract_y
 _atom_site_fract_z
 _atom_site_occupancy
  C  C0  1  0.29287600  0.52229700  0.29818800  1
  C  C1  1  0.70716800  0.02241000  0.20163300  1
  C  C2  1  0.70762100  0.47747800  0.70174700  1
  C  C3  1  0.29277500  0.97805800  0.79789900  1
  Ni  Ni4  1  0.26070400  0.50923800  0.74880900  1
  Ni  Ni5  1  0.26080900  0.99073000  0.24916300  1
  Ni  Ni6  1  0.73935100  0.49100000  0.25125900  1
  C  C7  1  0.73993100  0.00613400  0.75286900  1
  Cu  Cu8  1  0.92711600  0.24652700  0.05064200  1
  Cu  Cu9  1  0.07532600  0.74362700  0.45198000  1
  Cu  Cu10  1  0.07837000  0.75406100  0.95387100  1
  Cu  Cu11  1  0.92494500  0.25964400  0.54558500  1
  Cu  Cu12  1  0.32894600  0.29253900  0.04700500  1
  Cu  Cu13  1  0.67129200  0.78988900  0.45061900  1
  Cu  Cu14  1  0.67136900  0.70481800  0.95572800  1
  Cu  Cu15  1  0.32503400  0.20958900  0.54444100  1
  C  C16  1  0.31261400  0.30750000  0.88156600  1
  C  C17  1  0.68475200  0.79601900  0.61580200  1
  C  C18  1  0.68760300  0.68834200  0.12065100  1
  C  C19  1  0.31243600  0.19343500  0.37982100  1
  C  C20  1  0.80590700  0.21426800  0.88246500  1
  C  C21  1  0.19355200  0.70451700  0.61927800  1
  C  C22  1  0.19508700  0.79351500  0.12152300  1
  C  C23  1  0.80752600  0.29900800  0.37869800  1
  C  C24  1  0.47548100  0.41448100  0.15660900  1
  C  C25  1  0.52563000  0.91435000  0.34326100  1
  C  C26  1  0.52594800  0.58371900  0.84377200  1
  C  C27  1  0.46408800  0.08505800  0.65505700  1
  C  C28  1  0.99858300  0.08434500  0.14605900  1
  C  C29  1  0.00204900  0.58401200  0.35349100  1
  C  C30  1  0.01396300  0.91524100  0.85643200  1
  C  C31  1  0.99961500  0.41777600  0.64619100  1
  C  C32  1  0.12243900  0.35361300  0.06110700  1
  C  C33  1  0.87985300  0.85177300  0.44101300  1
  C  C34  1  0.87948200  0.64970500  0.94105800  1
  C  C35  1  0.11675900  0.15021600  0.55498700  1
  C  C36  1  0.35692800  0.10650800  0.10212800  1
  C  C37  1  0.64195600  0.60498100  0.39382800  1
  C  C38  1  0.63873000  0.89240100  0.90647200  1
  C  C39  1  0.35592200  0.39541200  0.59998400  1
  C  C40  1  0.81467100  0.36506300  0.11455500  1
  C  C41  1  0.18824400  0.86399000  0.38873900  1
  C  C42  1  0.18978300  0.63306600  0.89074500  1
  C  C43  1  0.80676900  0.13964500  0.60326900  1
