# generated using pymatgen
data_CuNi3C2
_symmetry_space_group_name_H-M   'P 1'
_cell_length_a   8.20804793
_cell_length_b   8.20804793
_cell_length_c   7.82591700
_cell_angle_alpha   90.00000000
_cell_angle_beta   90.00000000
_cell_angle_gamma   119.99999942
_symmetry_Int_Tables_number   1
_chemical_formula_structural   CuNi3C2
_chemical_formula_sum   'Cu4 Ni12 C8'
_cell_volume   456.61023194
_cell_formula_units_Z   4
loop_
 _symmetry_equiv_pos_site_id
 _symmetry_equiv_pos_as_xyz
  1  'x, y, z'
loop_
 _atom_site_type_symbol
 _atom_site_label
 _atom_site_symmetry_multiplicity
 _atom_site_fract_x
 _atom_site_fract_y
 _atom_site_fract_z
 _atom_site_occupancy
  C  C0  1  0.51232500  0.02464900  0.25000000  1
  C  C1  1  0.48767500  0.97535100  0.75000000  1
  C  C2  1  0.97535100  0.48767500  0.25000000  1
  C  C3  1  0.02464900  0.51232500  0.75000000  1
  C  C4  1  0.51232500  0.48767500  0.25000000  1
  C  C5  1  0.48767500  0.51232500  0.75000000  1
  C  C6  1  0.00000000  0.00000000  0.25000000  1
  C  C7  1  0.00000000  0.00000000  0.75000000  1
  Ni  Ni8  1  0.16554800  0.33109500  0.00349500  1
  Ni  Ni9  1  0.83445200  0.66890500  0.99650500  1
  Ni  Ni10  1  0.66890500  0.83445200  0.00349500  1
  Ni  Ni11  1  0.83445200  0.66890500  0.50349500  1
  Ni  Ni12  1  0.33109500  0.16554800  0.99650500  1
  Ni  Ni13  1  0.16554800  0.33109500  0.49650500  1
  Ni  Ni14  1  0.16554800  0.83445200  0.00349500  1
  Ni  Ni15  1  0.33109500  0.16554800  0.50349500  1
  Ni  Ni16  1  0.83445200  0.16554800  0.99650500  1
  Ni  Ni17  1  0.66890500  0.83445200  0.49650500  1
  Ni  Ni18  1  0.83445200  0.16554800  0.50349500  1
  Ni  Ni19  1  0.16554800  0.83445200  0.49650500  1
  Cu  Cu20  1  0.33333300  0.66666700  0.04418200  1
  Cu  Cu21  1  0.66666700  0.33333300  0.95581800  1
  Cu  Cu22  1  0.66666700  0.33333300  0.54418200  1
  Cu  Cu23  1  0.33333300  0.66666700  0.45581800  1
