# generated using pymatgen
data_Cu(NiC2)2
_symmetry_space_group_name_H-M   'P 1'
_cell_length_a   3.01639100
_cell_length_b   9.72080500
_cell_length_c   9.90275800
_cell_angle_alpha   90.00000000
_cell_angle_beta   90.00000000
_cell_angle_gamma   90.00000000
_symmetry_Int_Tables_number   1
_chemical_formula_structural   Cu(NiC2)2
_chemical_formula_sum   'Cu4 Ni8 C16'
_cell_volume   290.36618166
_cell_formula_units_Z   4
loop_
 _symmetry_equiv_pos_site_id
 _symmetry_equiv_pos_as_xyz
  1  'x, y, z'
loop_
 _atom_site_type_symbol
 _atom_site_label
 _atom_site_symmetry_multiplicity
 _atom_site_fract_x
 _atom_site_fract_y
 _atom_site_fract_z
 _atom_site_occupancy
  Ni  Ni0  1  0.29473700  0.57044700  0.11578700  1
  Ni  Ni1  1  0.29473700  0.07044700  0.38421300  1
  Ni  Ni2  1  0.70526300  0.07044700  0.88421300  1
  Ni  Ni3  1  0.29473700  0.42955300  0.38421300  1
  Ni  Ni4  1  0.70526300  0.42955300  0.88421300  1
  Ni  Ni5  1  0.29473700  0.92955300  0.11578700  1
  Ni  Ni6  1  0.70526300  0.92955300  0.61578700  1
  Ni  Ni7  1  0.70526300  0.57044700  0.61578700  1
  Cu  Cu8  1  0.82502100  0.75000000  0.35391600  1
  Cu  Cu9  1  0.82502100  0.25000000  0.14608400  1
  Cu  Cu10  1  0.17497900  0.75000000  0.85391600  1
  Cu  Cu11  1  0.17497900  0.25000000  0.64608400  1
  C  C12  1  0.71083500  0.88702600  0.96956800  1
  C  C13  1  0.28916500  0.11297400  0.03043200  1
  C  C14  1  0.87488800  0.00000000  0.25000000  1
  C  C15  1  0.28916500  0.88702600  0.46956800  1
  C  C16  1  0.28916500  0.61297400  0.46956800  1
  C  C17  1  0.32295400  0.25000000  0.29268900  1
  C  C18  1  0.71083500  0.11297400  0.53043200  1
  C  C19  1  0.67704600  0.25000000  0.79268900  1
  C  C20  1  0.87488800  0.50000000  0.25000000  1
  C  C21  1  0.12511200  0.00000000  0.75000000  1
  C  C22  1  0.71083500  0.61297400  0.96956800  1
  C  C23  1  0.67704600  0.75000000  0.70731100  1
  C  C24  1  0.32295400  0.75000000  0.20731100  1
  C  C25  1  0.12511200  0.50000000  0.75000000  1
  C  C26  1  0.71083500  0.38702600  0.53043200  1
  C  C27  1  0.28916500  0.38702600  0.03043200  1
