# generated using pymatgen
data_Cu2Ni3C7
_symmetry_space_group_name_H-M   'P 1'
_cell_length_a   9.38369957
_cell_length_b   9.38369957
_cell_length_c   5.06108100
_cell_angle_alpha   90.00000000
_cell_angle_beta   90.00000000
_cell_angle_gamma   148.79181961
_symmetry_Int_Tables_number   1
_chemical_formula_structural   Cu2Ni3C7
_chemical_formula_sum   'Cu4 Ni6 C14'
_cell_volume   230.91186556
_cell_formula_units_Z   2
loop_
 _symmetry_equiv_pos_site_id
 _symmetry_equiv_pos_as_xyz
  1  'x, y, z'
loop_
 _atom_site_type_symbol
 _atom_site_label
 _atom_site_symmetry_multiplicity
 _atom_site_fract_x
 _atom_site_fract_y
 _atom_site_fract_z
 _atom_site_occupancy
  Ni  Ni0  1  0.24717500  0.24717500  0.29433200  1
  Ni  Ni1  1  0.75282500  0.75282500  0.79433200  1
  Ni  Ni2  1  0.03477400  0.42941100  0.19808000  1
  Ni  Ni3  1  0.96522600  0.57058900  0.69808000  1
  Ni  Ni4  1  0.42941100  0.03477400  0.19808000  1
  Ni  Ni5  1  0.57058900  0.96522600  0.69808000  1
  Cu  Cu6  1  0.84957000  0.64754200  0.24806400  1
  Cu  Cu7  1  0.15043000  0.35245800  0.74806400  1
  Cu  Cu8  1  0.35245800  0.15043000  0.74806400  1
  Cu  Cu9  1  0.64754200  0.84957000  0.24806400  1
  C  C10  1  0.65089800  0.05355100  0.30823000  1
  C  C11  1  0.34910200  0.94644900  0.80823000  1
  C  C12  1  0.94644900  0.34910200  0.80823000  1
  C  C13  1  0.05355100  0.65089800  0.30823000  1
  C  C14  1  0.44088100  0.69911100  0.93880300  1
  C  C15  1  0.55911900  0.30088900  0.43880300  1
  C  C16  1  0.30088900  0.55911900  0.43880300  1
  C  C17  1  0.69911100  0.44088100  0.93880300  1
  C  C18  1  0.99457600  0.14598000  0.05977100  1
  C  C19  1  0.00542400  0.85402000  0.55977100  1
  C  C20  1  0.63022600  0.63022600  0.17977000  1
  C  C21  1  0.36977400  0.36977400  0.67977000  1
  C  C22  1  0.14598000  0.99457600  0.05977100  1
  C  C23  1  0.85402000  0.00542400  0.55977100  1
