# generated using pymatgen
data_Cu12Ni6C25
_symmetry_space_group_name_H-M   'P 1'
_cell_length_a   6.47604353
_cell_length_b   6.46971521
_cell_length_c   10.18112150
_cell_angle_alpha   90.42536526
_cell_angle_beta   94.73013953
_cell_angle_gamma   108.45469493
_symmetry_Int_Tables_number   1
_chemical_formula_structural   Cu12Ni6C25
_chemical_formula_sum   'Cu12 Ni6 C25'
_cell_volume   403.00171749
_cell_formula_units_Z   1
loop_
 _symmetry_equiv_pos_site_id
 _symmetry_equiv_pos_as_xyz
  1  'x, y, z'
loop_
 _atom_site_type_symbol
 _atom_site_label
 _atom_site_symmetry_multiplicity
 _atom_site_fract_x
 _atom_site_fract_y
 _atom_site_fract_z
 _atom_site_occupancy
  C  C0  1  0.50000000  0.50000000  0.50000000  1
  C  C1  1  0.68381900  0.94697600  0.61359300  1
  C  C2  1  0.31618100  0.05302400  0.38640700  1
  C  C3  1  0.42409400  0.89089500  0.62051700  1
  C  C4  1  0.57590600  0.10910500  0.37948300  1
  C  C5  1  0.89511200  0.41793200  0.63514500  1
  C  C6  1  0.10488800  0.58206800  0.36485500  1
  C  C7  1  0.95360600  0.67904000  0.62885600  1
  C  C8  1  0.04639400  0.32096000  0.37114400  1
  C  C9  1  0.81228500  0.18053300  0.83927200  1
  C  C10  1  0.18771500  0.81946700  0.16072800  1
  C  C11  1  0.75511800  0.03861700  0.98431000  1
  C  C12  1  0.24488200  0.96138300  0.01569000  1
  C  C13  1  0.67274500  0.44703000  0.17456500  1
  C  C14  1  0.32725500  0.55297000  0.82543500  1
  C  C15  1  0.71733600  0.19468500  0.17175600  1
  C  C16  1  0.28266400  0.80531500  0.82824400  1
  C  C17  1  0.74915800  0.53331500  0.83258800  1
  C  C18  1  0.25084200  0.46668500  0.16741200  1
  C  C19  1  0.75034400  0.65729000  0.98944000  1
  C  C20  1  0.24965600  0.34271000  0.01056000  1
  C  C21  1  0.73053500  0.33905200  0.99330200  1
  C  C22  1  0.26946500  0.66094800  0.00669800  1
  C  C23  1  0.83361300  0.85556500  0.27784800  1
  C  C24  1  0.16638700  0.14443500  0.72215200  1
  Ni  Ni25  1  0.74430400  0.16473200  0.92749600  1
  Ni  Ni26  1  0.25569600  0.83526800  0.07250400  1
  Ni  Ni27  1  0.70178100  0.32561300  0.12186600  1
  Ni  Ni28  1  0.29821900  0.67438700  0.87813400  1
  Ni  Ni29  1  0.73999600  0.52348500  0.93186200  1
  Ni  Ni30  1  0.26000400  0.47651500  0.06813800  1
  Cu  Cu31  1  0.54300200  0.82819800  0.60778800  1
  Cu  Cu32  1  0.45699800  0.17180200  0.39221200  1
  Cu  Cu33  1  0.83255900  0.53942400  0.62802400  1
  Cu  Cu34  1  0.16744100  0.46057600  0.37197600  1
  Cu  Cu35  1  0.80246500  0.86781900  0.13256400  1
  Cu  Cu36  1  0.19753500  0.13218100  0.86743600  1
  Cu  Cu37  1  0.81349600  0.05589200  0.34265800  1
  Cu  Cu38  1  0.18650400  0.94410800  0.65734200  1
  Cu  Cu39  1  0.66303800  0.65529500  0.31839000  1
  Cu  Cu40  1  0.33696200  0.34470500  0.68161000  1
  Cu  Cu41  1  0.05556600  0.83713300  0.31813100  1
  Cu  Cu42  1  0.94443400  0.16286700  0.68186900  1
