# generated using pymatgen
data_Cu6NiC19
_symmetry_space_group_name_H-M   'P 1'
_cell_length_a   7.98008442
_cell_length_b   7.98008442
_cell_length_c   9.75626900
_cell_angle_alpha   90.00000000
_cell_angle_beta   90.00000000
_cell_angle_gamma   96.18780975
_symmetry_Int_Tables_number   1
_chemical_formula_structural   Cu6NiC19
_chemical_formula_sum   'Cu12 Ni2 C38'
_cell_volume   617.67653485
_cell_formula_units_Z   2
loop_
 _symmetry_equiv_pos_site_id
 _symmetry_equiv_pos_as_xyz
  1  'x, y, z'
loop_
 _atom_site_type_symbol
 _atom_site_label
 _atom_site_symmetry_multiplicity
 _atom_site_fract_x
 _atom_site_fract_y
 _atom_site_fract_z
 _atom_site_occupancy
  Ni  Ni0  1  0.50000000  0.50000000  0.00000000  1
  Ni  Ni1  1  0.00000000  0.00000000  0.50000000  1
  Cu  Cu2  1  0.18716500  0.18716500  0.13942600  1
  Cu  Cu3  1  0.81283500  0.81283500  0.86057400  1
  Cu  Cu4  1  0.31283500  0.31283500  0.63942600  1
  Cu  Cu5  1  0.68716500  0.68716500  0.36057400  1
  Cu  Cu6  1  0.28079700  0.54770800  0.35495600  1
  Cu  Cu7  1  0.71920300  0.45229200  0.64504400  1
  Cu  Cu8  1  0.21920300  0.95229200  0.85495600  1
  Cu  Cu9  1  0.04770800  0.78079700  0.14504400  1
  Cu  Cu10  1  0.78079700  0.04770800  0.14504400  1
  Cu  Cu11  1  0.95229200  0.21920300  0.85495600  1
  Cu  Cu12  1  0.45229200  0.71920300  0.64504400  1
  Cu  Cu13  1  0.54770800  0.28079700  0.35495600  1
  C  C14  1  0.90525000  0.42057400  0.11657700  1
  C  C15  1  0.09475000  0.57942600  0.88342300  1
  C  C16  1  0.59475000  0.07942600  0.61657700  1
  C  C17  1  0.92057400  0.40525000  0.38342300  1
  C  C18  1  0.40525000  0.92057400  0.38342300  1
  C  C19  1  0.07942600  0.59475000  0.61657700  1
  C  C20  1  0.57942600  0.09475000  0.88342300  1
  C  C21  1  0.42057400  0.90525000  0.11657700  1
  C  C22  1  0.06009800  0.56009800  0.25000000  1
  C  C23  1  0.93990200  0.43990200  0.75000000  1
  C  C24  1  0.43990200  0.93990200  0.75000000  1
  C  C25  1  0.56009800  0.06009800  0.25000000  1
  C  C26  1  0.95872000  0.21829900  0.24464900  1
  C  C27  1  0.04128000  0.78170100  0.75535100  1
  C  C28  1  0.54128000  0.28170100  0.74464900  1
  C  C29  1  0.71829900  0.45872000  0.25535100  1
  C  C30  1  0.45872000  0.71829900  0.25535100  1
  C  C31  1  0.28170100  0.54128000  0.74464900  1
  C  C32  1  0.78170100  0.04128000  0.75535100  1
  C  C33  1  0.21829900  0.95872000  0.24464900  1
  C  C34  1  0.35293200  0.35293200  0.23817000  1
  C  C35  1  0.64706800  0.64706800  0.76183000  1
  C  C36  1  0.14706800  0.14706800  0.73817000  1
  C  C37  1  0.85293200  0.85293200  0.26183000  1
  C  C38  1  0.10347000  0.36346700  0.99803600  1
  C  C39  1  0.89653000  0.63653300  0.00196400  1
  C  C40  1  0.39653000  0.13653300  0.49803600  1
  C  C41  1  0.86346700  0.60347000  0.50196400  1
  C  C42  1  0.60347000  0.86346700  0.50196400  1
  C  C43  1  0.13653300  0.39653000  0.49803600  1
  C  C44  1  0.63653300  0.89653000  0.00196400  1
  C  C45  1  0.36346700  0.10347000  0.99803600  1
  C  C46  1  0.74873100  0.25126900  0.00000000  1
  C  C47  1  0.25126900  0.74873100  0.00000000  1
  C  C48  1  0.75126900  0.24873100  0.50000000  1
  C  C49  1  0.24873100  0.75126900  0.50000000  1
  C  C50  1  0.00000000  0.00000000  0.00000000  1
  C  C51  1  0.50000000  0.50000000  0.50000000  1
