# generated using pymatgen
data_Cu2(NiC5)3
_symmetry_space_group_name_H-M   'P 1'
_cell_length_a   5.19369070
_cell_length_b   10.50243604
_cell_length_c   8.04573530
_cell_angle_alpha   70.77006137
_cell_angle_beta   77.72974928
_cell_angle_gamma   99.71897629
_symmetry_Int_Tables_number   1
_chemical_formula_structural   Cu2(NiC5)3
_chemical_formula_sum   'Cu4 Ni6 C30'
_cell_volume   391.11401942
_cell_formula_units_Z   2
loop_
 _symmetry_equiv_pos_site_id
 _symmetry_equiv_pos_as_xyz
  1  'x, y, z'
loop_
 _atom_site_type_symbol
 _atom_site_label
 _atom_site_symmetry_multiplicity
 _atom_site_fract_x
 _atom_site_fract_y
 _atom_site_fract_z
 _atom_site_occupancy
  C  C0  1  0.99546300  0.99973100  0.49922800  1
  C  C1  1  0.49537000  0.49974200  0.99927800  1
  C  C2  1  0.58804100  0.08557400  0.32184500  1
  C  C3  1  0.08786000  0.58552200  0.82192300  1
  C  C4  1  0.39628500  0.90654300  0.68326500  1
  C  C5  1  0.89608300  0.40642400  0.18327500  1
  C  C6  1  0.69747000  0.19297600  0.60954500  1
  C  C7  1  0.19761400  0.69292400  0.10942800  1
  C  C8  1  0.31920000  0.81625800  0.38554000  1
  C  C9  1  0.81904200  0.31625500  0.88546500  1
  Ni  Ni10  1  0.99630700  0.49841600  0.50019000  1
  Ni  Ni11  1  0.59988400  0.59958700  0.29965300  1
  Ni  Ni12  1  0.40110800  0.40010000  0.70133900  1
  Ni  Ni13  1  0.49575500  0.99834400  0.00057000  1
  Ni  Ni14  1  0.09958800  0.09950700  0.79967800  1
  Ni  Ni15  1  0.90090000  0.89998100  0.20109300  1
  Cu  Cu16  1  0.30637200  0.29841500  0.40456800  1
  Cu  Cu17  1  0.80632700  0.79844100  0.90441400  1
  Cu  Cu18  1  0.69473200  0.70270300  0.59866700  1
  Cu  Cu19  1  0.19448600  0.20260200  0.09874100  1
  C  C20  1  0.64600000  0.40179400  0.45251500  1
  C  C21  1  0.14592000  0.90180600  0.95242100  1
  C  C22  1  0.37048800  0.59746600  0.52927000  1
  C  C23  1  0.87023900  0.09742400  0.02932800  1
  C  C24  1  0.05951300  0.30310000  0.64267900  1
  C  C25  1  0.55948800  0.80305800  0.14268900  1
  C  C26  1  0.92018600  0.69295900  0.35164100  1
  C  C27  1  0.41983900  0.19289300  0.85179100  1
  C  C28  1  0.96432600  0.20384700  0.34339000  1
  C  C29  1  0.46439600  0.70382300  0.84329900  1
  C  C30  1  0.03557600  0.79391000  0.65989200  1
  C  C31  1  0.53546500  0.29384200  0.15994400  1
  C  C32  1  0.25193200  0.00599500  0.23393600  1
  C  C33  1  0.75226100  0.50603700  0.73365800  1
  C  C34  1  0.77060400  0.00196000  0.76630500  1
  C  C35  1  0.27113500  0.50201600  0.26608100  1
  C  C36  1  0.33034200  0.10358500  0.57009600  1
  C  C37  1  0.83051000  0.60365100  0.07008000  1
  C  C38  1  0.65703400  0.89538700  0.44657600  1
  C  C39  1  0.15685700  0.39540300  0.94670200  1
