# generated using pymatgen
data_Cu2Ni2C7
_symmetry_space_group_name_H-M   'P 1'
_cell_length_a   5.09547375
_cell_length_b   5.51410564
_cell_length_c   5.51410624
_cell_angle_alpha   101.14455161
_cell_angle_beta   101.47366580
_cell_angle_gamma   101.47366089
_symmetry_Int_Tables_number   1
_chemical_formula_structural   Cu2Ni2C7
_chemical_formula_sum   'Cu2 Ni2 C7'
_cell_volume   144.35999520
_cell_formula_units_Z   1
loop_
 _symmetry_equiv_pos_site_id
 _symmetry_equiv_pos_as_xyz
  1  'x, y, z'
loop_
 _atom_site_type_symbol
 _atom_site_label
 _atom_site_symmetry_multiplicity
 _atom_site_fract_x
 _atom_site_fract_y
 _atom_site_fract_z
 _atom_site_occupancy
  Ni  Ni0  1  0.09664800  0.77665600  0.77665700  1
  Ni  Ni1  1  0.90335200  0.22334400  0.22334400  1
  Cu  Cu2  1  0.50000000  0.31608100  0.68392000  1
  Cu  Cu3  1  0.50000000  0.68392000  0.31607900  1
  C  C4  1  0.77502900  0.58093400  0.58093400  1
  C  C5  1  0.22497300  0.41906700  0.41906600  1
  C  C6  1  0.70953500  0.38084900  0.04744500  1
  C  C7  1  0.29046500  0.95255400  0.61915100  1
  C  C8  1  0.00000000  0.00000000  0.00000000  1
  C  C9  1  0.29046500  0.61915100  0.95255300  1
  C  C10  1  0.70953500  0.04744600  0.38085000  1
