# generated using pymatgen
data_Cu2NiC11
_symmetry_space_group_name_H-M   'P 1'
_cell_length_a   18.51218654
_cell_length_b   18.51218654
_cell_length_c   11.57181104
_cell_angle_alpha   89.47012127
_cell_angle_beta   89.47012127
_cell_angle_gamma   21.11565853
_symmetry_Int_Tables_number   1
_chemical_formula_structural   Cu2NiC11
_chemical_formula_sum   'Cu12 Ni6 C66'
_cell_volume   1428.57704565
_cell_formula_units_Z   6
loop_
 _symmetry_equiv_pos_site_id
 _symmetry_equiv_pos_as_xyz
  1  'x, y, z'
loop_
 _atom_site_type_symbol
 _atom_site_label
 _atom_site_symmetry_multiplicity
 _atom_site_fract_x
 _atom_site_fract_y
 _atom_site_fract_z
 _atom_site_occupancy
  Ni  Ni0  1  0.52744600  0.14063300  0.41849700  1
  Ni  Ni1  1  0.47255400  0.85936700  0.58150300  1
  Ni  Ni2  1  0.85936700  0.47255400  0.08150300  1
  Ni  Ni3  1  0.14063300  0.52744600  0.91849700  1
  Ni  Ni4  1  0.80379400  0.19620600  0.25000000  1
  Ni  Ni5  1  0.19620600  0.80379400  0.75000000  1
  Cu  Cu6  1  0.65635700  0.98593400  0.07443900  1
  Cu  Cu7  1  0.34364300  0.01406600  0.92556100  1
  Cu  Cu8  1  0.01406600  0.34364300  0.42556100  1
  Cu  Cu9  1  0.98593400  0.65635700  0.57443900  1
  Cu  Cu10  1  0.31840900  0.98879500  0.23923800  1
  Cu  Cu11  1  0.68159100  0.01120500  0.76076200  1
  Cu  Cu12  1  0.01120500  0.68159100  0.26076200  1
  Cu  Cu13  1  0.98879500  0.31840900  0.73923800  1
  Cu  Cu14  1  0.34613300  0.67908300  0.09249800  1
  Cu  Cu15  1  0.65386700  0.32091700  0.90750200  1
  Cu  Cu16  1  0.32091700  0.65386700  0.40750200  1
  Cu  Cu17  1  0.67908300  0.34613300  0.59249800  1
  C  C18  1  0.39153700  0.05679700  0.23375900  1
  C  C19  1  0.60846300  0.94320300  0.76624100  1
  C  C20  1  0.94320300  0.60846300  0.26624100  1
  C  C21  1  0.05679700  0.39153700  0.73375900  1
  C  C22  1  0.76262300  0.02154300  0.06641700  1
  C  C23  1  0.23737700  0.97845700  0.93358300  1
  C  C24  1  0.97845700  0.23737700  0.43358300  1
  C  C25  1  0.02154300  0.76262300  0.56641700  1
  C  C26  1  0.31155200  0.57002100  0.10274100  1
  C  C27  1  0.68844800  0.42997900  0.89725900  1
  C  C28  1  0.42997900  0.68844800  0.39725900  1
  C  C29  1  0.57002100  0.31155200  0.60274100  1
  C  C30  1  0.48082100  0.08883200  0.41212900  1
  C  C31  1  0.51917900  0.91116800  0.58787100  1
  C  C32  1  0.91116800  0.51917900  0.08787100  1
  C  C33  1  0.08883200  0.48082100  0.91212900  1
  C  C34  1  0.31615300  0.02261300  0.39686600  1
  C  C35  1  0.68384700  0.97738700  0.60313400  1
  C  C36  1  0.97738700  0.68384700  0.10313400  1
  C  C37  1  0.02261300  0.31615300  0.89686600  1
  C  C38  1  0.60495900  0.94361800  0.07905000  1
  C  C39  1  0.39504100  0.05638200  0.92095000  1
  C  C40  1  0.05638200  0.39504100  0.42095000  1
  C  C41  1  0.94361800  0.60495900  0.57905000  1
  C  C42  1  0.08534900  0.91538200  0.12639100  1
  C  C43  1  0.91465100  0.08461800  0.87360900  1
  C  C44  1  0.08461800  0.91465100  0.37360900  1
  C  C45  1  0.91538200  0.08534900  0.62639100  1
  C  C46  1  0.22951600  0.10232700  0.08216000  1
  C  C47  1  0.77048400  0.89767300  0.91784000  1
  C  C48  1  0.89767300  0.77048400  0.41784000  1
  C  C49  1  0.10232700  0.22951600  0.58216000  1
  C  C50  1  0.43456900  0.56543100  0.25000000  1
  C  C51  1  0.56543100  0.43456900  0.75000000  1
  C  C52  1  0.42190200  0.24704200  0.04230300  1
  C  C53  1  0.57809800  0.75295800  0.95769700  1
  C  C54  1  0.75295800  0.57809800  0.45769700  1
  C  C55  1  0.24704200  0.42190200  0.54230300  1
  C  C56  1  0.58684300  0.17964000  0.42574000  1
  C  C57  1  0.41315700  0.82036000  0.57426000  1
  C  C58  1  0.82036000  0.41315700  0.07426000  1
  C  C59  1  0.17964000  0.58684300  0.92574000  1
  C  C60  1  0.57973700  0.75133900  0.20566900  1
  C  C61  1  0.42026300  0.24866100  0.79433100  1
  C  C62  1  0.24866100  0.42026300  0.29433100  1
  C  C63  1  0.75133900  0.57973700  0.70566900  1
  C  C64  1  0.39050900  0.72832200  0.08301700  1
  C  C65  1  0.60949100  0.27167800  0.91698300  1
  C  C66  1  0.27167800  0.60949100  0.41698300  1
  C  C67  1  0.72832200  0.39050900  0.58301700  1
  C  C68  1  0.64327400  0.34920000  0.43565000  1
  C  C69  1  0.35672600  0.65080000  0.56435000  1
  C  C70  1  0.65080000  0.35672600  0.06435000  1
  C  C71  1  0.34920000  0.64327400  0.93565000  1
  C  C72  1  0.74712900  0.15455400  0.23875400  1
  C  C73  1  0.25287100  0.84544600  0.76124600  1
  C  C74  1  0.84544600  0.25287100  0.26124600  1
  C  C75  1  0.15455400  0.74712900  0.73875400  1
  C  C76  1  0.69054300  0.98085100  0.23321700  1
  C  C77  1  0.30945700  0.01914900  0.76678300  1
  C  C78  1  0.01914900  0.30945700  0.26678300  1
  C  C79  1  0.98085100  0.69054300  0.73321700  1
  C  C80  1  0.27148300  0.94205900  0.24822800  1
  C  C81  1  0.72851700  0.05794100  0.75177200  1
  C  C82  1  0.05794100  0.72851700  0.25177200  1
  C  C83  1  0.94205900  0.27148300  0.74822800  1
