# generated using pymatgen
data_Cu3Ni9C
_symmetry_space_group_name_H-M   'P 1'
_cell_length_a   7.50460425
_cell_length_b   7.50460425
_cell_length_c   7.83403400
_cell_angle_alpha   90.00000000
_cell_angle_beta   90.00000000
_cell_angle_gamma   120.00000222
_symmetry_Int_Tables_number   1
_chemical_formula_structural   Cu3Ni9C
_chemical_formula_sum   'Cu6 Ni18 C2'
_cell_volume   382.09527233
_cell_formula_units_Z   2
loop_
 _symmetry_equiv_pos_site_id
 _symmetry_equiv_pos_as_xyz
  1  'x, y, z'
loop_
 _atom_site_type_symbol
 _atom_site_label
 _atom_site_symmetry_multiplicity
 _atom_site_fract_x
 _atom_site_fract_y
 _atom_site_fract_z
 _atom_site_occupancy
  Ni  Ni0  1  0.45660000  0.91320000  0.25000000  1
  Ni  Ni1  1  0.54340000  0.08680000  0.75000000  1
  Ni  Ni2  1  0.08680000  0.54340000  0.25000000  1
  Ni  Ni3  1  0.91320000  0.45660000  0.75000000  1
  Ni  Ni4  1  0.45660000  0.54340000  0.25000000  1
  Ni  Ni5  1  0.54340000  0.45660000  0.75000000  1
  Ni  Ni6  1  0.20147500  0.40295000  0.56266800  1
  Ni  Ni7  1  0.79852500  0.59705000  0.43733200  1
  Ni  Ni8  1  0.59705000  0.79852500  0.56266800  1
  Ni  Ni9  1  0.79852500  0.59705000  0.06266800  1
  Ni  Ni10  1  0.40295000  0.20147500  0.43733200  1
  Ni  Ni11  1  0.20147500  0.40295000  0.93733200  1
  Ni  Ni12  1  0.20147500  0.79852500  0.56266800  1
  Ni  Ni13  1  0.40295000  0.20147500  0.06266800  1
  Ni  Ni14  1  0.79852500  0.20147500  0.43733200  1
  Ni  Ni15  1  0.59705000  0.79852500  0.93733200  1
  Ni  Ni16  1  0.79852500  0.20147500  0.06266800  1
  Ni  Ni17  1  0.20147500  0.79852500  0.93733200  1
  Cu  Cu18  1  0.11572600  0.23145300  0.25000000  1
  Cu  Cu19  1  0.88427400  0.76854700  0.75000000  1
  Cu  Cu20  1  0.76854700  0.88427400  0.25000000  1
  Cu  Cu21  1  0.23145300  0.11572600  0.75000000  1
  Cu  Cu22  1  0.11572600  0.88427400  0.25000000  1
  Cu  Cu23  1  0.88427400  0.11572600  0.75000000  1
  C  C24  1  0.00000000  0.00000000  0.00000000  1
  C  C25  1  0.00000000  0.00000000  0.50000000  1
