# generated using pymatgen
data_Cu16Ni4C7
_symmetry_space_group_name_H-M   'P 1'
_cell_length_a   8.38731806
_cell_length_b   9.38544500
_cell_length_c   9.93537861
_cell_angle_alpha   90.00000000
_cell_angle_beta   113.63025886
_cell_angle_gamma   90.00000000
_symmetry_Int_Tables_number   1
_chemical_formula_structural   Cu16Ni4C7
_chemical_formula_sum   'Cu32 Ni8 C14'
_cell_volume   716.52202392
_cell_formula_units_Z   2
loop_
 _symmetry_equiv_pos_site_id
 _symmetry_equiv_pos_as_xyz
  1  'x, y, z'
loop_
 _atom_site_type_symbol
 _atom_site_label
 _atom_site_symmetry_multiplicity
 _atom_site_fract_x
 _atom_site_fract_y
 _atom_site_fract_z
 _atom_site_occupancy
  C  C0  1  0.91071900  0.84869700  0.55342800  1
  C  C1  1  0.08928100  0.15130300  0.44657200  1
  C  C2  1  0.58928100  0.34869700  0.44657200  1
  C  C3  1  0.41071900  0.65130300  0.55342800  1
  C  C4  1  0.53237000  0.98456900  0.68892600  1
  C  C5  1  0.46763000  0.01543100  0.31107400  1
  C  C6  1  0.96763000  0.48456900  0.31107400  1
  C  C7  1  0.03237000  0.51543100  0.68892600  1
  C  C8  1  0.81593700  0.36302200  0.88951200  1
  C  C9  1  0.18406300  0.63697800  0.11048800  1
  C  C10  1  0.68406300  0.86302200  0.11048800  1
  C  C11  1  0.31593700  0.13697800  0.88951200  1
  C  C12  1  0.00000000  0.00000000  0.00000000  1
  C  C13  1  0.50000000  0.50000000  0.00000000  1
  Ni  Ni14  1  0.77514200  0.69427500  0.85933900  1
  Ni  Ni15  1  0.22485800  0.30572500  0.14066100  1
  Ni  Ni16  1  0.72485800  0.19427500  0.14066100  1
  Ni  Ni17  1  0.27514200  0.80572500  0.85933900  1
  Ni  Ni18  1  0.65379700  0.64738000  0.33811400  1
  Ni  Ni19  1  0.34620300  0.35262000  0.66188600  1
  Ni  Ni20  1  0.84620300  0.14738000  0.66188600  1
  Ni  Ni21  1  0.15379700  0.85262000  0.33811400  1
  Cu  Cu22  1  0.84372800  0.81401500  0.96953600  1
  Cu  Cu23  1  0.15627200  0.18598500  0.03046400  1
  Cu  Cu24  1  0.65627200  0.31401500  0.03046400  1
  Cu  Cu25  1  0.34372800  0.68598500  0.96953600  1
  Cu  Cu26  1  0.92345000  0.60412700  0.86388200  1
  Cu  Cu27  1  0.07655000  0.39587300  0.13611800  1
  Cu  Cu28  1  0.57655000  0.10412700  0.13611800  1
  Cu  Cu29  1  0.42345000  0.89587300  0.86388200  1
  Cu  Cu30  1  0.00018000  0.91548100  0.35417400  1
  Cu  Cu31  1  0.99982000  0.08451900  0.64582600  1
  Cu  Cu32  1  0.49982000  0.41548100  0.64582600  1
  Cu  Cu33  1  0.50018000  0.58451900  0.35417400  1
  Cu  Cu34  1  0.67922100  0.75507400  0.71058800  1
  Cu  Cu35  1  0.32077900  0.24492600  0.28941200  1
  Cu  Cu36  1  0.82077900  0.25507400  0.28941200  1
  Cu  Cu37  1  0.17922100  0.74492600  0.71058800  1
  Cu  Cu38  1  0.65867300  0.60613100  0.90532600  1
  Cu  Cu39  1  0.34132700  0.39386900  0.09467400  1
  Cu  Cu40  1  0.84132700  0.10613100  0.09467400  1
  Cu  Cu41  1  0.15867300  0.89386900  0.90532600  1
  Cu  Cu42  1  0.81781100  0.60349800  0.46291900  1
  Cu  Cu43  1  0.18218900  0.39650200  0.53708100  1
  Cu  Cu44  1  0.68218900  0.10349800  0.53708100  1
  Cu  Cu45  1  0.31781100  0.89650200  0.46291900  1
  Cu  Cu46  1  0.33100600  0.40553900  0.79996500  1
  Cu  Cu47  1  0.66899400  0.59446100  0.20003500  1
  Cu  Cu48  1  0.16899400  0.90553900  0.20003500  1
  Cu  Cu49  1  0.83100600  0.09446100  0.79996500  1
  Cu  Cu50  1  0.85924500  0.30576100  0.66958500  1
  Cu  Cu51  1  0.14075500  0.69423900  0.33041500  1
  Cu  Cu52  1  0.64075500  0.80576100  0.33041500  1
  Cu  Cu53  1  0.35924500  0.19423900  0.66958500  1
