# generated using pymatgen
data_Cu4(Ni2C)3
_symmetry_space_group_name_H-M   'P 1'
_cell_length_a   4.65451181
_cell_length_b   16.85050217
_cell_length_c   15.69109701
_cell_angle_alpha   90.00000000
_cell_angle_beta   90.00000000
_cell_angle_gamma   90.00000000
_symmetry_Int_Tables_number   1
_chemical_formula_structural   Cu4(Ni2C)3
_chemical_formula_sum   'Cu16 Ni24 C12'
_cell_volume   1230.66625409
_cell_formula_units_Z   4
loop_
 _symmetry_equiv_pos_site_id
 _symmetry_equiv_pos_as_xyz
  1  'x, y, z'
loop_
 _atom_site_type_symbol
 _atom_site_label
 _atom_site_symmetry_multiplicity
 _atom_site_fract_x
 _atom_site_fract_y
 _atom_site_fract_z
 _atom_site_occupancy
  C  C0  1  0.75000000  0.35717268  0.38236135  1
  C  C1  1  0.25000000  0.64282732  0.61763865  1
  C  C2  1  0.25000000  0.14282732  0.88236135  1
  C  C3  1  0.75000000  0.85717268  0.11763865  1
  C  C4  1  0.75000000  0.61563035  0.24780116  1
  C  C5  1  0.25000000  0.38436965  0.75219884  1
  C  C6  1  0.25000000  0.88436965  0.74780116  1
  C  C7  1  0.75000000  0.11563035  0.25219884  1
  C  C8  1  0.75000000  0.64923936  0.98256286  1
  C  C9  1  0.25000000  0.35076064  0.01743714  1
  C  C10  1  0.25000000  0.85076064  0.48256286  1
  C  C11  1  0.75000000  0.14923936  0.51743714  1
  Ni  Ni12  1  0.75000000  0.97430396  0.41978110  1
  Ni  Ni13  1  0.25000000  0.02569604  0.58021890  1
  Ni  Ni14  1  0.25000000  0.52569604  0.91978110  1
  Ni  Ni15  1  0.75000000  0.47430396  0.08021890  1
  Ni  Ni16  1  0.75000000  0.55081735  0.45883447  1
  Ni  Ni17  1  0.25000000  0.44918265  0.54116553  1
  Ni  Ni18  1  0.25000000  0.94918265  0.95883447  1
  Ni  Ni19  1  0.75000000  0.05081735  0.04116553  1
  Ni  Ni20  1  0.75000000  0.55549934  0.76854911  1
  Ni  Ni21  1  0.25000000  0.44450066  0.23145089  1
  Ni  Ni22  1  0.25000000  0.94450066  0.26854911  1
  Ni  Ni23  1  0.75000000  0.05549934  0.73145089  1
  Ni  Ni24  1  0.75000000  0.79367897  0.62029397  1
  Ni  Ni25  1  0.25000000  0.20632103  0.37970603  1
  Ni  Ni26  1  0.25000000  0.70632103  0.12029397  1
  Ni  Ni27  1  0.75000000  0.29367897  0.87970603  1
  Ni  Ni28  1  0.75000000  0.82840750  0.89358173  1
  Ni  Ni29  1  0.25000000  0.17159250  0.10641827  1
  Ni  Ni30  1  0.25000000  0.67159250  0.39358173  1
  Ni  Ni31  1  0.75000000  0.32840750  0.60641827  1
  Ni  Ni32  1  0.75000000  0.81098335  0.33642334  1
  Ni  Ni33  1  0.25000000  0.18901665  0.66357666  1
  Ni  Ni34  1  0.25000000  0.68901665  0.83642334  1
  Ni  Ni35  1  0.75000000  0.31098335  0.16357666  1
  Cu  Cu36  1  0.75000000  0.70942422  0.47470147  1
  Cu  Cu37  1  0.25000000  0.29057578  0.52529853  1
  Cu  Cu38  1  0.25000000  0.79057578  0.97470147  1
  Cu  Cu39  1  0.75000000  0.20942422  0.02529853  1
  Cu  Cu40  1  0.75000000  0.98977001  0.88039348  1
  Cu  Cu41  1  0.25000000  0.01022999  0.11960652  1
  Cu  Cu42  1  0.25000000  0.51022999  0.38039348  1
  Cu  Cu43  1  0.75000000  0.48977001  0.61960652  1
  Cu  Cu44  1  0.75000000  0.71667518  0.76624121  1
  Cu  Cu45  1  0.25000000  0.28332482  0.23375879  1
  Cu  Cu46  1  0.25000000  0.78332482  0.26624121  1
  Cu  Cu47  1  0.75000000  0.21667518  0.73375879  1
  Cu  Cu48  1  0.75000000  0.95227616  0.59926952  1
  Cu  Cu49  1  0.25000000  0.04772384  0.40073048  1
  Cu  Cu50  1  0.25000000  0.54772384  0.09926952  1
  Cu  Cu51  1  0.75000000  0.45227616  0.90073048  1
