# generated using pymatgen
data_CuNi4C19
_symmetry_space_group_name_H-M   'P 1'
_cell_length_a   5.18885399
_cell_length_b   10.04017971
_cell_length_c   9.73820343
_cell_angle_alpha   63.11995217
_cell_angle_beta   97.21112582
_cell_angle_gamma   78.59804681
_symmetry_Int_Tables_number   1
_chemical_formula_structural   CuNi4C19
_chemical_formula_sum   'Cu2 Ni8 C38'
_cell_volume   429.97834471
_cell_formula_units_Z   2
loop_
 _symmetry_equiv_pos_site_id
 _symmetry_equiv_pos_as_xyz
  1  'x, y, z'
loop_
 _atom_site_type_symbol
 _atom_site_label
 _atom_site_symmetry_multiplicity
 _atom_site_fract_x
 _atom_site_fract_y
 _atom_site_fract_z
 _atom_site_occupancy
  C  C0  1  0.41695900  0.16616200  0.91692100  1
  C  C1  1  0.91645100  0.16715200  0.41643500  1
  C  C2  1  0.42478400  0.66671800  0.91819700  1
  C  C3  1  0.90853100  0.66662300  0.41514600  1
  C  C4  1  0.16667700  0.16666000  0.16667100  1
  C  C5  1  0.66667800  0.16666400  0.66666600  1
  C  C6  1  0.58565800  0.32593800  0.08621900  1
  C  C7  1  0.08836600  0.32598500  0.58783000  1
  C  C8  1  0.74766200  0.00739100  0.24713000  1
  C  C9  1  0.24496100  0.00734500  0.74550700  1
  C  C10  1  0.25028000  0.49942600  0.75027400  1
  C  C11  1  0.74990800  0.50052700  0.24978800  1
  C  C12  1  0.08302500  0.83391200  0.58304600  1
  C  C13  1  0.58338300  0.83281200  0.08352900  1
  Ni  Ni14  1  0.50022000  0.99971700  0.50015900  1
  Ni  Ni15  1  0.99996900  0.00015300  0.99988400  1
  Ni  Ni16  1  0.83315000  0.33361200  0.83318600  1
  Ni  Ni17  1  0.33338200  0.33321200  0.33343500  1
  Ni  Ni18  1  0.99549300  0.49678900  0.00010700  1
  Ni  Ni19  1  0.50756400  0.49682100  0.50303700  1
  Ni  Ni20  1  0.82576800  0.83651000  0.83029200  1
  Ni  Ni21  1  0.33781300  0.83653400  0.33322400  1
  Cu  Cu22  1  0.16663800  0.66666800  0.16666400  1
  Cu  Cu23  1  0.66662000  0.66668900  0.66665500  1
  C  C24  1  0.54159400  0.16712200  0.30632500  1
  C  C25  1  0.04203900  0.16615400  0.80682500  1
  C  C26  1  0.79184500  0.16620500  0.02701600  1
  C  C27  1  0.29138800  0.16718100  0.52650800  1
  C  C28  1  0.99812700  0.66666100  0.78974900  1
  C  C29  1  0.53173500  0.66663200  0.30292000  1
  C  C30  1  0.80154200  0.66668200  0.03041500  1
  C  C31  1  0.33512500  0.66666900  0.54357200  1
  C  C32  1  0.16229800  0.33987000  0.95024900  1
  C  C33  1  0.66283900  0.34010900  0.44859200  1
  C  C34  1  0.83541300  0.99348000  0.62336800  1
  C  C35  1  0.33624800  0.99320100  0.12207200  1
  C  C36  1  0.99714700  0.34010500  0.21125800  1
  C  C37  1  0.49796300  0.33983300  0.70996900  1
  C  C38  1  0.67053200  0.99321700  0.88474800  1
  C  C39  1  0.17105100  0.99346200  0.38309200  1
  C  C40  1  0.36969400  0.50132100  0.13774700  1
  C  C41  1  0.87760300  0.49841100  0.63983000  1
  C  C42  1  0.20442500  0.83235900  0.97198900  1
  C  C43  1  0.70929500  0.83488400  0.47154000  1
  C  C44  1  0.62396200  0.49847300  0.86178300  1
  C  C45  1  0.12887100  0.50096800  0.36133600  1
  C  C46  1  0.45568700  0.83496600  0.69349700  1
  C  C47  1  0.96363300  0.83201400  0.19559100  1
