# generated using pymatgen
data_Cu4Ni8C9
_symmetry_space_group_name_H-M   'P 1'
_cell_length_a   5.61696544
_cell_length_b   5.61662542
_cell_length_c   11.34914128
_cell_angle_alpha   77.25815052
_cell_angle_beta   64.87219444
_cell_angle_gamma   58.09254716
_symmetry_Int_Tables_number   1
_chemical_formula_structural   Cu4Ni8C9
_chemical_formula_sum   'Cu4 Ni8 C9'
_cell_volume   275.17905174
_cell_formula_units_Z   1
loop_
 _symmetry_equiv_pos_site_id
 _symmetry_equiv_pos_as_xyz
  1  'x, y, z'
loop_
 _atom_site_type_symbol
 _atom_site_label
 _atom_site_symmetry_multiplicity
 _atom_site_fract_x
 _atom_site_fract_y
 _atom_site_fract_z
 _atom_site_occupancy
  C  C0  1  0.73592400  0.38573000  0.63698800  1
  C  C1  1  0.05740500  0.40441800  0.27197300  1
  C  C2  1  0.18986300  0.06149400  0.79835400  1
  C  C3  1  0.34650100  0.46229700  0.95936400  1
  C  C4  1  0.52046300  0.07016600  0.50421400  1
  C  C5  1  0.25578200  0.74227800  0.46243200  1
  C  C6  1  0.76947000  0.07901900  0.21075100  1
  C  C7  1  0.59198900  0.72507600  0.05998700  1
  C  C8  1  0.94305800  0.73057400  0.76564200  1
  Ni  Ni9  1  0.36518100  0.06054000  0.35946900  1
  Ni  Ni10  1  0.49924700  0.40007000  0.12328300  1
  Ni  Ni11  1  0.18125500  0.38532400  0.63798300  1
  Ni  Ni12  1  0.66279400  0.36820000  0.37435100  1
  Ni  Ni13  1  0.49247300  0.77103900  0.89091700  1
  Ni  Ni14  1  0.90746500  0.71117700  0.12476600  1
  Ni  Ni15  1  0.32371000  0.82656100  0.61942300  1
  Ni  Ni16  1  0.75824900  0.13181200  0.84933500  1
  Cu  Cu17  1  0.18598100  0.08438200  0.14262400  1
  Cu  Cu18  1  0.97363000  0.73272900  0.37336300  1
  Cu  Cu19  1  0.04001800  0.41893500  0.91305300  1
  Cu  Cu20  1  0.80426200  0.95522500  0.60324900  1
