# generated using pymatgen
data_Cu2Ni5C6
_symmetry_space_group_name_H-M   'P 1'
_cell_length_a   6.12823730
_cell_length_b   6.11145509
_cell_length_c   13.17059928
_cell_angle_alpha   90.00000035
_cell_angle_beta   93.89977763
_cell_angle_gamma   119.90945511
_symmetry_Int_Tables_number   1
_chemical_formula_structural   Cu2Ni5C6
_chemical_formula_sum   'Cu4 Ni10 C12'
_cell_volume   426.25644734
_cell_formula_units_Z   2
loop_
 _symmetry_equiv_pos_site_id
 _symmetry_equiv_pos_as_xyz
  1  'x, y, z'
loop_
 _atom_site_type_symbol
 _atom_site_label
 _atom_site_symmetry_multiplicity
 _atom_site_fract_x
 _atom_site_fract_y
 _atom_site_fract_z
 _atom_site_occupancy
  Ni  Ni0  1  -0.00000000  0.45834693  0.75000000  1
  Ni  Ni1  1  0.00000000  0.54165307  0.25000000  1
  Ni  Ni2  1  0.14148809  0.72720174  0.95084469  1
  Ni  Ni3  1  0.85851191  0.58571365  0.54915531  1
  Ni  Ni4  1  0.85851191  0.27279826  0.04915531  1
  Ni  Ni5  1  0.14148809  0.41428635  0.45084469  1
  Ni  Ni6  1  0.29201837  0.12082293  0.69491107  1
  Ni  Ni7  1  0.70798163  0.82880456  0.80508893  1
  Ni  Ni8  1  0.70798163  0.87917707  0.30508893  1
  Ni  Ni9  1  0.29201837  0.17119544  0.19491107  1
  Cu  Cu10  1  0.60922327  0.94771496  0.58754336  1
  Cu  Cu11  1  0.39077673  0.33849169  0.91245664  1
  Cu  Cu12  1  0.39077673  0.05228504  0.41245664  1
  Cu  Cu13  1  0.60922327  0.66150831  0.08754336  1
  C  C14  1  0.42579309  0.84912226  0.70241371  1
  C  C15  1  0.57420691  0.42332917  0.79758629  1
  C  C16  1  0.57420691  0.15087774  0.29758629  1
  C  C17  1  0.42579309  0.57667083  0.20241371  1
  C  C18  1  0.51490151  0.20868376  0.54520466  1
  C  C19  1  0.48509849  0.69378226  0.95479534  1
  C  C20  1  0.48509849  0.79131624  0.45479534  1
  C  C21  1  0.51490151  0.30621774  0.04520466  1
  C  C22  1  0.89243936  0.91452163  0.63010555  1
  C  C23  1  0.10756064  0.02208227  0.86989445  1
  C  C24  1  0.10756064  0.08547837  0.36989445  1
  C  C25  1  0.89243936  0.97791773  0.13010555  1
