# generated using pymatgen
data_Cu2Ni3C10
_symmetry_space_group_name_H-M   'P 1'
_cell_length_a   6.60305900
_cell_length_b   8.39685200
_cell_length_c   17.87265900
_cell_angle_alpha   90.00000000
_cell_angle_beta   90.00000000
_cell_angle_gamma   90.00000000
_symmetry_Int_Tables_number   1
_chemical_formula_structural   Cu2Ni3C10
_chemical_formula_sum   'Cu8 Ni12 C40'
_cell_volume   990.94795489
_cell_formula_units_Z   4
loop_
 _symmetry_equiv_pos_site_id
 _symmetry_equiv_pos_as_xyz
  1  'x, y, z'
loop_
 _atom_site_type_symbol
 _atom_site_label
 _atom_site_symmetry_multiplicity
 _atom_site_fract_x
 _atom_site_fract_y
 _atom_site_fract_z
 _atom_site_occupancy
  C  C0  1  0.25000000  0.51259600  0.94351500  1
  C  C1  1  0.25000000  0.98740400  0.44351500  1
  C  C2  1  0.75000000  0.48740400  0.05648500  1
  C  C3  1  0.75000000  0.01259600  0.55648500  1
  Ni  Ni4  1  0.94943000  0.36297000  0.62435600  1
  Ni  Ni5  1  0.55057000  0.13703000  0.12435600  1
  Ni  Ni6  1  0.44943000  0.63703000  0.37564400  1
  Ni  Ni7  1  0.05057000  0.86297000  0.87564400  1
  Ni  Ni8  1  0.05057000  0.63703000  0.37564400  1
  Ni  Ni9  1  0.44943000  0.86297000  0.87564400  1
  Ni  Ni10  1  0.55057000  0.36297000  0.62435600  1
  Ni  Ni11  1  0.94943000  0.13703000  0.12435600  1
  Ni  Ni12  1  0.25000000  0.92578600  0.22960800  1
  Ni  Ni13  1  0.25000000  0.57421400  0.72960800  1
  Ni  Ni14  1  0.75000000  0.07421400  0.77039200  1
  Ni  Ni15  1  0.75000000  0.42578600  0.27039200  1
  Cu  Cu16  1  0.25000000  0.17688900  0.58445200  1
  Cu  Cu17  1  0.25000000  0.32311100  0.08445200  1
  Cu  Cu18  1  0.75000000  0.82311100  0.41554800  1
  Cu  Cu19  1  0.75000000  0.67688900  0.91554800  1
  Cu  Cu20  1  0.25000000  0.56240600  0.22336300  1
  Cu  Cu21  1  0.25000000  0.93759400  0.72336300  1
  Cu  Cu22  1  0.75000000  0.43759400  0.77663700  1
  Cu  Cu23  1  0.75000000  0.06240600  0.27663700  1
  C  C24  1  0.25000000  0.37043200  0.61011700  1
  C  C25  1  0.25000000  0.12956800  0.11011700  1
  C  C26  1  0.75000000  0.62956800  0.38988300  1
  C  C27  1  0.75000000  0.87043200  0.88988300  1
  C  C28  1  0.25000000  0.08980900  0.66586700  1
  C  C29  1  0.25000000  0.41019100  0.16586700  1
  C  C30  1  0.75000000  0.91019100  0.33413300  1
  C  C31  1  0.75000000  0.58980900  0.83413300  1
  C  C32  1  0.25000000  0.53052300  0.42853300  1
  C  C33  1  0.25000000  0.96947700  0.92853300  1
  C  C34  1  0.75000000  0.46947700  0.57146700  1
  C  C35  1  0.75000000  0.03052300  0.07146700  1
  C  C36  1  0.25000000  0.80446900  0.34380200  1
  C  C37  1  0.25000000  0.69553100  0.84380200  1
  C  C38  1  0.75000000  0.19553100  0.65619800  1
  C  C39  1  0.75000000  0.30446900  0.15619800  1
  C  C40  1  0.04543600  0.14634000  0.53730000  1
  C  C41  1  0.45456400  0.35366000  0.03730000  1
  C  C42  1  0.54543600  0.85366000  0.46270000  1
  C  C43  1  0.95456400  0.64634000  0.96270000  1
  C  C44  1  0.95456400  0.85366000  0.46270000  1
  C  C45  1  0.54543600  0.64634000  0.96270000  1
  C  C46  1  0.45456400  0.14634000  0.53730000  1
  C  C47  1  0.04543600  0.35366000  0.03730000  1
  C  C48  1  0.53981300  0.46024800  0.72476400  1
  C  C49  1  0.96018700  0.03975200  0.22476400  1
  C  C50  1  0.03981300  0.53975200  0.27523600  1
  C  C51  1  0.46018700  0.96024800  0.77523600  1
  C  C52  1  0.46018700  0.53975200  0.27523600  1
  C  C53  1  0.03981300  0.96024800  0.77523600  1
  C  C54  1  0.96018700  0.46024800  0.72476400  1
  C  C55  1  0.53981300  0.03975200  0.22476400  1
  C  C56  1  0.25000000  0.72592800  0.17634500  1
  C  C57  1  0.25000000  0.77407200  0.67634500  1
  C  C58  1  0.75000000  0.27407200  0.82365500  1
  C  C59  1  0.75000000  0.22592800  0.32365500  1
