# generated using pymatgen
data_Cu10NiC13
_symmetry_space_group_name_H-M   'P 1'
_cell_length_a   13.34882081
_cell_length_b   13.34882081
_cell_length_c   13.34882081
_cell_angle_alpha   90.00000000
_cell_angle_beta   90.00000000
_cell_angle_gamma   90.00000000
_symmetry_Int_Tables_number   1
_chemical_formula_structural   Cu10NiC13
_chemical_formula_sum   'Cu80 Ni8 C104'
_cell_volume   2378.63995612
_cell_formula_units_Z   8
loop_
 _symmetry_equiv_pos_site_id
 _symmetry_equiv_pos_as_xyz
  1  'x, y, z'
loop_
 _atom_site_type_symbol
 _atom_site_label
 _atom_site_symmetry_multiplicity
 _atom_site_fract_x
 _atom_site_fract_y
 _atom_site_fract_z
 _atom_site_occupancy
  C  C0  1  0.00000000  0.00000000  0.50000000  1
  C  C1  1  0.00000000  0.50000000  0.00000000  1
  C  C2  1  0.50000000  0.00000000  0.00000000  1
  C  C3  1  0.50000000  0.50000000  0.50000000  1
  C  C4  1  0.50000000  0.50000000  0.00000000  1
  C  C5  1  0.50000000  0.00000000  0.50000000  1
  C  C6  1  0.00000000  0.50000000  0.50000000  1
  C  C7  1  0.00000000  0.00000000  0.00000000  1
  C  C8  1  0.32071354  0.08908947  0.21452656  1
  C  C9  1  0.67928646  0.58908947  0.28547344  1
  C  C10  1  0.17928646  0.91091053  0.71452656  1
  C  C11  1  0.82071354  0.41091053  0.78547344  1
  C  C12  1  0.21452656  0.32071354  0.08908947  1
  C  C13  1  0.28547344  0.67928646  0.58908947  1
  C  C14  1  0.71452656  0.17928646  0.91091053  1
  C  C15  1  0.78547344  0.82071354  0.41091053  1
  C  C16  1  0.08908947  0.21452656  0.32071354  1
  C  C17  1  0.58908947  0.28547344  0.67928646  1
  C  C18  1  0.91091053  0.71452656  0.17928646  1
  C  C19  1  0.41091053  0.78547344  0.82071354  1
  C  C20  1  0.67928646  0.91091053  0.78547344  1
  C  C21  1  0.32071354  0.41091053  0.71452656  1
  C  C22  1  0.82071354  0.08908947  0.28547344  1
  C  C23  1  0.17928646  0.58908947  0.21452656  1
  C  C24  1  0.78547344  0.67928646  0.91091053  1
  C  C25  1  0.71452656  0.32071354  0.41091053  1
  C  C26  1  0.28547344  0.82071354  0.08908947  1
  C  C27  1  0.21452656  0.17928646  0.58908947  1
  C  C28  1  0.91091053  0.78547344  0.67928646  1
  C  C29  1  0.41091053  0.71452656  0.32071354  1
  C  C30  1  0.08908947  0.28547344  0.82071354  1
  C  C31  1  0.58908947  0.21452656  0.17928646  1
  C  C32  1  0.53455439  0.22660130  0.18777928  1
  C  C33  1  0.46544561  0.72660130  0.31222072  1
  C  C34  1  0.96544561  0.77339870  0.68777928  1
  C  C35  1  0.03455439  0.27339870  0.81222072  1
  C  C36  1  0.18777928  0.53455439  0.22660130  1
  C  C37  1  0.31222072  0.46544561  0.72660130  1
  C  C38  1  0.68777928  0.96544561  0.77339870  1
  C  C39  1  0.81222072  0.03455439  0.27339870  1
  C  C40  1  0.22660130  0.18777928  0.53455439  1
  C  C41  1  0.72660130  0.31222072  0.46544561  1
  C  C42  1  0.77339870  0.68777928  0.96544561  1
  C  C43  1  0.27339870  0.81222072  0.03455439  1
  C  C44  1  0.46544561  0.77339870  0.81222072  1
  C  C45  1  0.53455439  0.27339870  0.68777928  1
  C  C46  1  0.03455439  0.22660130  0.31222072  1
  C  C47  1  0.96544561  0.72660130  0.18777928  1
  C  C48  1  0.81222072  0.46544561  0.77339870  1
  C  C49  1  0.68777928  0.53455439  0.27339870  1
  C  C50  1  0.31222072  0.03455439  0.22660130  1
  C  C51  1  0.18777928  0.96544561  0.72660130  1
  C  C52  1  0.77339870  0.81222072  0.46544561  1
  C  C53  1  0.27339870  0.68777928  0.53455439  1
  C  C54  1  0.22660130  0.31222072  0.03455439  1
  C  C55  1  0.72660130  0.18777928  0.96544561  1
  C  C56  1  0.98503754  0.20194805  0.05050724  1
  C  C57  1  0.01496246  0.70194805  0.44949276  1
  C  C58  1  0.51496246  0.79805195  0.55050724  1
  C  C59  1  0.48503754  0.29805195  0.94949276  1
  C  C60  1  0.05050724  0.98503754  0.20194805  1
  C  C61  1  0.44949276  0.01496246  0.70194805  1
  C  C62  1  0.55050724  0.51496246  0.79805195  1
  C  C63  1  0.94949276  0.48503754  0.29805195  1
  C  C64  1  0.20194805  0.05050724  0.98503754  1
  C  C65  1  0.70194805  0.44949276  0.01496246  1
  C  C66  1  0.79805195  0.55050724  0.51496246  1
  C  C67  1  0.29805195  0.94949276  0.48503754  1
  C  C68  1  0.01496246  0.79805195  0.94949276  1
  C  C69  1  0.98503754  0.29805195  0.55050724  1
  C  C70  1  0.48503754  0.20194805  0.44949276  1
  C  C71  1  0.51496246  0.70194805  0.05050724  1
  C  C72  1  0.94949276  0.01496246  0.79805195  1
  C  C73  1  0.55050724  0.98503754  0.29805195  1
  C  C74  1  0.44949276  0.48503754  0.20194805  1
  C  C75  1  0.05050724  0.51496246  0.70194805  1
  C  C76  1  0.79805195  0.94949276  0.01496246  1
  C  C77  1  0.29805195  0.55050724  0.98503754  1
  C  C78  1  0.20194805  0.44949276  0.48503754  1
  C  C79  1  0.70194805  0.05050724  0.51496246  1
  C  C80  1  0.93617983  0.02012909  0.19681807  1
  C  C81  1  0.06382017  0.52012909  0.30318193  1
  C  C82  1  0.56382017  0.97987091  0.69681807  1
  C  C83  1  0.43617983  0.47987091  0.80318193  1
  C  C84  1  0.19681807  0.93617983  0.02012909  1
  C  C85  1  0.30318193  0.06382017  0.52012909  1
  C  C86  1  0.69681807  0.56382017  0.97987091  1
  C  C87  1  0.80318193  0.43617983  0.47987091  1
  C  C88  1  0.02012909  0.19681807  0.93617983  1
  C  C89  1  0.52012909  0.30318193  0.06382017  1
  C  C90  1  0.97987091  0.69681807  0.56382017  1
  C  C91  1  0.47987091  0.80318193  0.43617983  1
  C  C92  1  0.06382017  0.97987091  0.80318193  1
  C  C93  1  0.93617983  0.47987091  0.69681807  1
  C  C94  1  0.43617983  0.02012909  0.30318193  1
  C  C95  1  0.56382017  0.52012909  0.19681807  1
  C  C96  1  0.80318193  0.06382017  0.97987091  1
  C  C97  1  0.69681807  0.93617983  0.47987091  1
  C  C98  1  0.30318193  0.43617983  0.02012909  1
  C  C99  1  0.19681807  0.56382017  0.52012909  1
  C  C100  1  0.97987091  0.80318193  0.06382017  1
  C  C101  1  0.47987091  0.69681807  0.93617983  1
  C  C102  1  0.02012909  0.30318193  0.43617983  1
  C  C103  1  0.52012909  0.19681807  0.56382017  1
  Ni  Ni104  1  0.17396660  0.82603340  0.32603340  1
  Ni  Ni105  1  0.82603340  0.32603340  0.17396660  1
  Ni  Ni106  1  0.32603340  0.17396660  0.82603340  1
  Ni  Ni107  1  0.67396660  0.67396660  0.67396660  1
  Ni  Ni108  1  0.82603340  0.17396660  0.67396660  1
  Ni  Ni109  1  0.17396660  0.67396660  0.82603340  1
  Ni  Ni110  1  0.67396660  0.82603340  0.17396660  1
  Ni  Ni111  1  0.32603340  0.32603340  0.32603340  1
  Cu  Cu112  1  0.23628510  0.76371490  0.26371490  1
  Cu  Cu113  1  0.76371490  0.26371490  0.23628510  1
  Cu  Cu114  1  0.26371490  0.23628510  0.76371490  1
  Cu  Cu115  1  0.73628510  0.73628510  0.73628510  1
  Cu  Cu116  1  0.76371490  0.23628510  0.73628510  1
  Cu  Cu117  1  0.23628510  0.73628510  0.76371490  1
  Cu  Cu118  1  0.73628510  0.76371490  0.23628510  1
  Cu  Cu119  1  0.26371490  0.26371490  0.26371490  1
  Cu  Cu120  1  0.05014981  0.76315909  0.33881678  1
  Cu  Cu121  1  0.94985019  0.26315909  0.16118322  1
  Cu  Cu122  1  0.44985019  0.23684091  0.83881678  1
  Cu  Cu123  1  0.55014981  0.73684091  0.66118322  1
  Cu  Cu124  1  0.33881678  0.05014981  0.76315909  1
  Cu  Cu125  1  0.16118322  0.94985019  0.26315909  1
  Cu  Cu126  1  0.83881678  0.44985019  0.23684091  1
  Cu  Cu127  1  0.66118322  0.55014981  0.73684091  1
  Cu  Cu128  1  0.76315909  0.33881678  0.05014981  1
  Cu  Cu129  1  0.26315909  0.16118322  0.94985019  1
  Cu  Cu130  1  0.23684091  0.83881678  0.44985019  1
  Cu  Cu131  1  0.73684091  0.66118322  0.55014981  1
  Cu  Cu132  1  0.94985019  0.23684091  0.66118322  1
  Cu  Cu133  1  0.05014981  0.73684091  0.83881678  1
  Cu  Cu134  1  0.55014981  0.76315909  0.16118322  1
  Cu  Cu135  1  0.44985019  0.26315909  0.33881678  1
  Cu  Cu136  1  0.66118322  0.94985019  0.23684091  1
  Cu  Cu137  1  0.83881678  0.05014981  0.73684091  1
  Cu  Cu138  1  0.16118322  0.55014981  0.76315909  1
  Cu  Cu139  1  0.33881678  0.44985019  0.26315909  1
  Cu  Cu140  1  0.23684091  0.66118322  0.94985019  1
  Cu  Cu141  1  0.73684091  0.83881678  0.05014981  1
  Cu  Cu142  1  0.76315909  0.16118322  0.55014981  1
  Cu  Cu143  1  0.26315909  0.33881678  0.44985019  1
  Cu  Cu144  1  0.17895912  0.63451747  0.03180649  1
  Cu  Cu145  1  0.82104088  0.13451747  0.46819351  1
  Cu  Cu146  1  0.32104088  0.36548253  0.53180649  1
  Cu  Cu147  1  0.67895912  0.86548253  0.96819351  1
  Cu  Cu148  1  0.03180649  0.17895912  0.63451747  1
  Cu  Cu149  1  0.46819351  0.82104088  0.13451747  1
  Cu  Cu150  1  0.53180649  0.32104088  0.36548253  1
  Cu  Cu151  1  0.96819351  0.67895912  0.86548253  1
  Cu  Cu152  1  0.63451747  0.03180649  0.17895912  1
  Cu  Cu153  1  0.13451747  0.46819351  0.82104088  1
  Cu  Cu154  1  0.36548253  0.53180649  0.32104088  1
  Cu  Cu155  1  0.86548253  0.96819351  0.67895912  1
  Cu  Cu156  1  0.82104088  0.36548253  0.96819351  1
  Cu  Cu157  1  0.17895912  0.86548253  0.53180649  1
  Cu  Cu158  1  0.67895912  0.63451747  0.46819351  1
  Cu  Cu159  1  0.32104088  0.13451747  0.03180649  1
  Cu  Cu160  1  0.96819351  0.82104088  0.36548253  1
  Cu  Cu161  1  0.53180649  0.17895912  0.86548253  1
  Cu  Cu162  1  0.46819351  0.67895912  0.63451747  1
  Cu  Cu163  1  0.03180649  0.32104088  0.13451747  1
  Cu  Cu164  1  0.36548253  0.96819351  0.82104088  1
  Cu  Cu165  1  0.86548253  0.53180649  0.17895912  1
  Cu  Cu166  1  0.63451747  0.46819351  0.67895912  1
  Cu  Cu167  1  0.13451747  0.03180649  0.32104088  1
  Cu  Cu168  1  0.50179147  0.65588367  0.99278317  1
  Cu  Cu169  1  0.49820853  0.15588367  0.50721683  1
  Cu  Cu170  1  0.99820853  0.34411633  0.49278317  1
  Cu  Cu171  1  0.00179147  0.84411633  0.00721683  1
  Cu  Cu172  1  0.99278317  0.50179147  0.65588367  1
  Cu  Cu173  1  0.50721683  0.49820853  0.15588367  1
  Cu  Cu174  1  0.49278317  0.99820853  0.34411633  1
  Cu  Cu175  1  0.00721683  0.00179147  0.84411633  1
  Cu  Cu176  1  0.65588367  0.99278317  0.50179147  1
  Cu  Cu177  1  0.15588367  0.50721683  0.49820853  1
  Cu  Cu178  1  0.34411633  0.49278317  0.99820853  1
  Cu  Cu179  1  0.84411633  0.00721683  0.00179147  1
  Cu  Cu180  1  0.49820853  0.34411633  0.00721683  1
  Cu  Cu181  1  0.50179147  0.84411633  0.49278317  1
  Cu  Cu182  1  0.00179147  0.65588367  0.50721683  1
  Cu  Cu183  1  0.99820853  0.15588367  0.99278317  1
  Cu  Cu184  1  0.00721683  0.49820853  0.34411633  1
  Cu  Cu185  1  0.49278317  0.50179147  0.84411633  1
  Cu  Cu186  1  0.50721683  0.00179147  0.65588367  1
  Cu  Cu187  1  0.99278317  0.99820853  0.15588367  1
  Cu  Cu188  1  0.34411633  0.00721683  0.49820853  1
  Cu  Cu189  1  0.84411633  0.49278317  0.50179147  1
  Cu  Cu190  1  0.65588367  0.50721683  0.00179147  1
  Cu  Cu191  1  0.15588367  0.99278317  0.99820853  1
