# generated using pymatgen
data_Cu6Ni6C
_symmetry_space_group_name_H-M   'P 1'
_cell_length_a   7.66235662
_cell_length_b   7.66235662
_cell_length_c   12.40447231
_cell_angle_alpha   83.01363415
_cell_angle_beta   83.01363415
_cell_angle_gamma   125.36459513
_symmetry_Int_Tables_number   1
_chemical_formula_structural   Cu6Ni6C
_chemical_formula_sum   'Cu6 Ni6 C1'
_cell_volume   572.66852568
_cell_formula_units_Z   1
loop_
 _symmetry_equiv_pos_site_id
 _symmetry_equiv_pos_as_xyz
  1  'x, y, z'
loop_
 _atom_site_type_symbol
 _atom_site_label
 _atom_site_symmetry_multiplicity
 _atom_site_fract_x
 _atom_site_fract_y
 _atom_site_fract_z
 _atom_site_occupancy
  C  C0  1  0.00000000  0.00000000  0.00000000  1
  Ni  Ni1  1  0.74990500  0.74990500  0.50573900  1
  Ni  Ni2  1  0.25009500  0.25009500  0.49426100  1
  Ni  Ni3  1  0.89458100  0.26373600  0.00002400  1
  Ni  Ni4  1  0.10541900  0.73626400  0.99997600  1
  Ni  Ni5  1  0.26373600  0.89458100  0.00002400  1
  Ni  Ni6  1  0.73626400  0.10541900  0.99997600  1
  Cu  Cu7  1  0.74130000  0.90369800  0.50422600  1
  Cu  Cu8  1  0.25870000  0.09630200  0.49577400  1
  Cu  Cu9  1  0.26466400  0.26466400  0.00004500  1
  Cu  Cu10  1  0.09630200  0.25870000  0.49577400  1
  Cu  Cu11  1  0.73533600  0.73533600  0.99995500  1
  Cu  Cu12  1  0.90369800  0.74130000  0.50422600  1
