# generated using pymatgen
data_Cu13NiC2
_symmetry_space_group_name_H-M   'P 1'
_cell_length_a   7.16765300
_cell_length_b   13.23686300
_cell_length_c   13.34619306
_cell_angle_alpha   65.16623128
_cell_angle_beta   90.00000000
_cell_angle_gamma   90.00000000
_symmetry_Int_Tables_number   1
_chemical_formula_structural   Cu13NiC2
_chemical_formula_sum   'Cu52 Ni4 C8'
_cell_volume   1149.15997164
_cell_formula_units_Z   4
loop_
 _symmetry_equiv_pos_site_id
 _symmetry_equiv_pos_as_xyz
  1  'x, y, z'
loop_
 _atom_site_type_symbol
 _atom_site_label
 _atom_site_symmetry_multiplicity
 _atom_site_fract_x
 _atom_site_fract_y
 _atom_site_fract_z
 _atom_site_occupancy
  C  C0  1  0.87734100  0.81674200  0.00330700  1
  C  C1  1  0.12265900  0.18325800  0.99669300  1
  C  C2  1  0.37734100  0.68325800  0.99669300  1
  C  C3  1  0.62265900  0.31674200  0.00330700  1
  C  C4  1  0.37919300  0.90091500  0.08358800  1
  C  C5  1  0.62080700  0.09908500  0.91641200  1
  C  C6  1  0.87919300  0.59908500  0.91641200  1
  C  C7  1  0.12080700  0.40091500  0.08358800  1
  Ni  Ni8  1  0.72325600  0.87630700  0.46479300  1
  Ni  Ni9  1  0.27674400  0.12369300  0.53520700  1
  Ni  Ni10  1  0.22325600  0.62369300  0.53520700  1
  Ni  Ni11  1  0.77674400  0.37630700  0.46479300  1
  Cu  Cu12  1  0.58244100  0.85910600  0.54778100  1
  Cu  Cu13  1  0.41755900  0.14089400  0.45221900  1
  Cu  Cu14  1  0.08244100  0.64089400  0.45221900  1
  Cu  Cu15  1  0.91755900  0.35910600  0.54778100  1
  Cu  Cu16  1  0.31548500  0.49947600  0.07516100  1
  Cu  Cu17  1  0.68451500  0.50052400  0.92483900  1
  Cu  Cu18  1  0.81548500  0.00052400  0.92483900  1
  Cu  Cu19  1  0.18451500  0.99947600  0.07516100  1
  Cu  Cu20  1  0.55906800  0.79964500  0.06612400  1
  Cu  Cu21  1  0.44093200  0.20035500  0.93387600  1
  Cu  Cu22  1  0.05906800  0.70035500  0.93387600  1
  Cu  Cu23  1  0.94093200  0.29964500  0.06612400  1
  Cu  Cu24  1  0.68757800  0.97496600  0.36451400  1
  Cu  Cu25  1  0.31242200  0.02503400  0.63548600  1
  Cu  Cu26  1  0.18757800  0.52503400  0.63548600  1
  Cu  Cu27  1  0.81242200  0.47496600  0.36451400  1
  Cu  Cu28  1  0.73416700  0.77760900  0.43992300  1
  Cu  Cu29  1  0.26583300  0.22239100  0.56007700  1
  Cu  Cu30  1  0.23416700  0.72239100  0.56007700  1
  Cu  Cu31  1  0.76583300  0.27760900  0.43992300  1
  Cu  Cu32  1  0.36914200  0.82788300  0.23060300  1
  Cu  Cu33  1  0.63085800  0.17211700  0.76939700  1
  Cu  Cu34  1  0.86914200  0.67211700  0.76939700  1
  Cu  Cu35  1  0.13085800  0.32788300  0.23060300  1
  Cu  Cu36  1  0.91683000  0.81212600  0.24353900  1
  Cu  Cu37  1  0.08317000  0.18787400  0.75646100  1
  Cu  Cu38  1  0.41683000  0.68787400  0.75646100  1
  Cu  Cu39  1  0.58317000  0.31212600  0.24353900  1
  Cu  Cu40  1  0.58092100  0.00496900  0.08193800  1
  Cu  Cu41  1  0.41907900  0.99503100  0.91806200  1
  Cu  Cu42  1  0.08092100  0.49503100  0.91806200  1
  Cu  Cu43  1  0.91907900  0.50496900  0.08193800  1
  Cu  Cu44  1  0.91165400  0.72629300  0.22784500  1
  Cu  Cu45  1  0.08834600  0.27370700  0.77215500  1
  Cu  Cu46  1  0.41165400  0.77370700  0.77215500  1
  Cu  Cu47  1  0.58834600  0.22629300  0.22784500  1
  Cu  Cu48  1  0.70158900  0.53346800  0.66967600  1
  Cu  Cu49  1  0.29841100  0.46653200  0.33032400  1
  Cu  Cu50  1  0.20158900  0.96653200  0.33032400  1
  Cu  Cu51  1  0.79841100  0.03346800  0.66967600  1
  Cu  Cu52  1  0.34255800  0.56187300  0.26981400  1
  Cu  Cu53  1  0.65744200  0.43812700  0.73018600  1
  Cu  Cu54  1  0.84255800  0.93812700  0.73018600  1
  Cu  Cu55  1  0.15744200  0.06187300  0.26981400  1
  Cu  Cu56  1  0.90965400  0.88351800  0.50844900  1
  Cu  Cu57  1  0.09034600  0.11648200  0.49155100  1
  Cu  Cu58  1  0.40965400  0.61648200  0.49155100  1
  Cu  Cu59  1  0.59034600  0.38351800  0.50844900  1
  Cu  Cu60  1  0.20533100  0.81617100  0.03881200  1
  Cu  Cu61  1  0.79466900  0.18382900  0.96118800  1
  Cu  Cu62  1  0.70533100  0.68382900  0.96118800  1
  Cu  Cu63  1  0.29466900  0.31617100  0.03881200  1
