# generated using pymatgen
data_Cu(Ni2C11)3
_symmetry_space_group_name_H-M   'P 1'
_cell_length_a   9.96431172
_cell_length_b   9.96431172
_cell_length_c   13.10444600
_cell_angle_alpha   90.00000000
_cell_angle_beta   90.00000000
_cell_angle_gamma   119.99999814
_symmetry_Int_Tables_number   1
_chemical_formula_structural   Cu(Ni2C11)3
_chemical_formula_sum   'Cu2 Ni12 C66'
_cell_volume   1126.79241838
_cell_formula_units_Z   2
loop_
 _symmetry_equiv_pos_site_id
 _symmetry_equiv_pos_as_xyz
  1  'x, y, z'
loop_
 _atom_site_type_symbol
 _atom_site_label
 _atom_site_symmetry_multiplicity
 _atom_site_fract_x
 _atom_site_fract_y
 _atom_site_fract_z
 _atom_site_occupancy
  C  C0  1  0.66666700  0.33333300  0.66202000  1
  C  C1  1  0.66666700  0.33333300  0.16202000  1
  C  C2  1  0.33333300  0.66666700  0.33798000  1
  C  C3  1  0.33333300  0.66666700  0.83798000  1
  C  C4  1  0.00000000  0.00000000  0.50000000  1
  C  C5  1  0.00000000  0.00000000  0.00000000  1
  Ni  Ni6  1  0.07529500  0.67234900  0.60103800  1
  Ni  Ni7  1  0.59705400  0.92470500  0.60103800  1
  Ni  Ni8  1  0.32765100  0.40294600  0.60103800  1
  Ni  Ni9  1  0.07529500  0.40294600  0.10103800  1
  Ni  Ni10  1  0.32765100  0.92470500  0.10103800  1
  Ni  Ni11  1  0.59705400  0.67234900  0.10103800  1
  Ni  Ni12  1  0.92470500  0.32765100  0.39896200  1
  Ni  Ni13  1  0.40294600  0.07529500  0.39896200  1
  Ni  Ni14  1  0.67234900  0.59705400  0.39896200  1
  Ni  Ni15  1  0.92470500  0.59705400  0.89896200  1
  Ni  Ni16  1  0.67234900  0.07529500  0.89896200  1
  Ni  Ni17  1  0.40294600  0.32765100  0.89896200  1
  Cu  Cu18  1  0.00000000  0.00000000  0.75000000  1
  Cu  Cu19  1  0.00000000  0.00000000  0.25000000  1
  C  C20  1  0.86888000  0.56474000  0.71622800  1
  C  C21  1  0.69586000  0.13112000  0.71622800  1
  C  C22  1  0.43526000  0.30414000  0.71622800  1
  C  C23  1  0.86888000  0.30414000  0.21622800  1
  C  C24  1  0.43526000  0.13112000  0.21622800  1
  C  C25  1  0.69586000  0.56474000  0.21622800  1
  C  C26  1  0.13112000  0.43526000  0.28377200  1
  C  C27  1  0.30414000  0.86888000  0.28377200  1
  C  C28  1  0.56474000  0.69586000  0.28377200  1
  C  C29  1  0.13112000  0.69586000  0.78377200  1
  C  C30  1  0.56474000  0.86888000  0.78377200  1
  C  C31  1  0.30414000  0.43526000  0.78377200  1
  C  C32  1  0.88379600  0.69283800  0.51859400  1
  C  C33  1  0.80904300  0.11620400  0.51859400  1
  C  C34  1  0.30716200  0.19095700  0.51859400  1
  C  C35  1  0.88379600  0.19095700  0.01859400  1
  C  C36  1  0.30716200  0.11620400  0.01859400  1
  C  C37  1  0.80904300  0.69283800  0.01859400  1
  C  C38  1  0.11620400  0.30716200  0.48140600  1
  C  C39  1  0.19095700  0.88379600  0.48140600  1
  C  C40  1  0.69283800  0.80904300  0.48140600  1
  C  C41  1  0.11620400  0.80904300  0.98140600  1
  C  C42  1  0.69283800  0.88379600  0.98140600  1
  C  C43  1  0.19095700  0.30716200  0.98140600  1
  C  C44  1  0.11989700  0.58676400  0.44836900  1
  C  C45  1  0.46686800  0.88010300  0.44836900  1
  C  C46  1  0.41323600  0.53313200  0.44836900  1
  C  C47  1  0.11989700  0.53313200  0.94836900  1
  C  C48  1  0.41323600  0.88010300  0.94836900  1
  C  C49  1  0.46686800  0.58676400  0.94836900  1
  C  C50  1  0.88010300  0.41323600  0.55163100  1
  C  C51  1  0.53313200  0.11989700  0.55163100  1
  C  C52  1  0.58676400  0.46686800  0.55163100  1
  C  C53  1  0.88010300  0.46686800  0.05163100  1
  C  C54  1  0.58676400  0.11989700  0.05163100  1
  C  C55  1  0.53313200  0.41323600  0.05163100  1
  C  C56  1  0.08023000  0.90043300  0.66344900  1
  C  C57  1  0.82020300  0.91977000  0.66344900  1
  C  C58  1  0.09956700  0.17979700  0.66344900  1
  C  C59  1  0.08023000  0.17979700  0.16344900  1
  C  C60  1  0.09956700  0.91977000  0.16344900  1
  C  C61  1  0.82020300  0.90043300  0.16344900  1
  C  C62  1  0.91977000  0.09956700  0.33655100  1
  C  C63  1  0.17979700  0.08023000  0.33655100  1
  C  C64  1  0.90043300  0.82020300  0.33655100  1
  C  C65  1  0.91977000  0.82020300  0.83655100  1
  C  C66  1  0.90043300  0.08023000  0.83655100  1
  C  C67  1  0.17979700  0.09956700  0.83655100  1
  C  C68  1  0.34014600  0.82885600  0.63690100  1
  C  C69  1  0.48871000  0.65985400  0.63690100  1
  C  C70  1  0.17114400  0.51129000  0.63690100  1
  C  C71  1  0.34014600  0.51129000  0.13690100  1
  C  C72  1  0.17114400  0.65985400  0.13690100  1
  C  C73  1  0.48871000  0.82885600  0.13690100  1
  C  C74  1  0.65985400  0.17114400  0.36309900  1
  C  C75  1  0.51129000  0.34014600  0.36309900  1
  C  C76  1  0.82885600  0.48871000  0.36309900  1
  C  C77  1  0.65985400  0.48871000  0.86309900  1
  C  C78  1  0.82885600  0.34014600  0.86309900  1
  C  C79  1  0.51129000  0.17114400  0.86309900  1
