# generated using pymatgen
data_Cu5(NiC)2
_symmetry_space_group_name_H-M   'P 1'
_cell_length_a   11.87059500
_cell_length_b   12.70977000
_cell_length_c   14.30867400
_cell_angle_alpha   90.00000000
_cell_angle_beta   90.00000000
_cell_angle_gamma   90.00000000
_symmetry_Int_Tables_number   1
_chemical_formula_structural   Cu5(NiC)2
_chemical_formula_sum   'Cu40 Ni16 C16'
_cell_volume   2158.78587899
_cell_formula_units_Z   8
loop_
 _symmetry_equiv_pos_site_id
 _symmetry_equiv_pos_as_xyz
  1  'x, y, z'
loop_
 _atom_site_type_symbol
 _atom_site_label
 _atom_site_symmetry_multiplicity
 _atom_site_fract_x
 _atom_site_fract_y
 _atom_site_fract_z
 _atom_site_occupancy
  C  C0  1  0.75016300  0.75436800  0.71280500  1
  C  C1  1  0.25016300  0.24563200  0.78719500  1
  C  C2  1  0.74983700  0.25436800  0.28719500  1
  C  C3  1  0.24983700  0.74563200  0.21280500  1
  C  C4  1  0.24983700  0.24563200  0.28719500  1
  C  C5  1  0.74983700  0.75436800  0.21280500  1
  C  C6  1  0.25016300  0.74563200  0.71280500  1
  C  C7  1  0.75016300  0.25436800  0.78719500  1
  C  C8  1  0.00533600  0.50120100  0.76141000  1
  C  C9  1  0.50533600  0.49879900  0.73859000  1
  C  C10  1  0.49466400  0.00120100  0.23859000  1
  C  C11  1  0.99466400  0.99879900  0.26141000  1
  C  C12  1  0.99466400  0.49879900  0.23859000  1
  C  C13  1  0.49466400  0.50120100  0.26141000  1
  C  C14  1  0.50533600  0.99879900  0.76141000  1
  C  C15  1  0.00533600  0.00120100  0.73859000  1
  Ni  Ni16  1  0.55637300  0.71887000  0.94562700  1
  Ni  Ni17  1  0.76526100  0.46819800  0.52793700  1
  Ni  Ni18  1  0.26526100  0.53180200  0.97206300  1
  Ni  Ni19  1  0.73473900  0.96819800  0.47206300  1
  Ni  Ni20  1  0.23473900  0.03180200  0.02793700  1
  Ni  Ni21  1  0.23473900  0.53180200  0.47206300  1
  Ni  Ni22  1  0.73473900  0.46819800  0.02793700  1
  Ni  Ni23  1  0.26526100  0.03180200  0.52793700  1
  Ni  Ni24  1  0.76526100  0.96819800  0.97206300  1
  Ni  Ni25  1  0.55637300  0.21887000  0.55437300  1
  Ni  Ni26  1  0.05637300  0.78113000  0.94562700  1
  Ni  Ni27  1  0.94362700  0.71887000  0.44562700  1
  Ni  Ni28  1  0.44362700  0.28113000  0.05437300  1
  Ni  Ni29  1  0.44362700  0.78113000  0.44562700  1
  Ni  Ni30  1  0.94362700  0.21887000  0.05437300  1
  Ni  Ni31  1  0.05637300  0.28113000  0.55437300  1
  Cu  Cu32  1  0.07072800  0.62065800  0.56453200  1
  Cu  Cu33  1  0.00216400  0.25192400  0.72062400  1
  Cu  Cu34  1  0.50216400  0.74807600  0.77937600  1
  Cu  Cu35  1  0.49783600  0.75192400  0.27937600  1
  Cu  Cu36  1  0.99783600  0.24807600  0.22062400  1
  Cu  Cu37  1  0.99783600  0.74807600  0.27937600  1
  Cu  Cu38  1  0.49783600  0.25192400  0.22062400  1
  Cu  Cu39  1  0.50216400  0.24807600  0.72062400  1
  Cu  Cu40  1  0.00216400  0.75192400  0.77937600  1
  Cu  Cu41  1  0.75921000  0.99903900  0.79960500  1
  Cu  Cu42  1  0.25921000  0.00096100  0.70039500  1
  Cu  Cu43  1  0.74079000  0.49903900  0.20039500  1
  Cu  Cu44  1  0.24079000  0.50096100  0.29960500  1
  Cu  Cu45  1  0.24079000  0.00096100  0.20039500  1
  Cu  Cu46  1  0.74079000  0.99903900  0.29960500  1
  Cu  Cu47  1  0.25921000  0.50096100  0.79960500  1
  Cu  Cu48  1  0.75704000  0.63789000  0.93016600  1
  Cu  Cu49  1  0.25704000  0.36211000  0.56983400  1
  Cu  Cu50  1  0.74296000  0.13789000  0.06983400  1
  Cu  Cu51  1  0.24296000  0.86211000  0.43016600  1
  Cu  Cu52  1  0.24296000  0.36211000  0.06983400  1
  Cu  Cu53  1  0.74296000  0.63789000  0.43016600  1
  Cu  Cu54  1  0.25704000  0.86211000  0.93016600  1
  Cu  Cu55  1  0.75704000  0.13789000  0.56983400  1
  Cu  Cu56  1  0.90620700  0.87882300  0.55414700  1
  Cu  Cu57  1  0.40620700  0.12117700  0.94585300  1
  Cu  Cu58  1  0.59379300  0.37882300  0.44585300  1
  Cu  Cu59  1  0.09379300  0.62117700  0.05414700  1
  Cu  Cu60  1  0.57072800  0.37934200  0.93546800  1
  Cu  Cu61  1  0.59379300  0.87882300  0.05414700  1
  Cu  Cu62  1  0.40620700  0.62117700  0.55414700  1
  Cu  Cu63  1  0.90620700  0.37882300  0.94585300  1
  Cu  Cu64  1  0.57072800  0.87934200  0.56453200  1
  Cu  Cu65  1  0.07072800  0.12065800  0.93546800  1
  Cu  Cu66  1  0.92927200  0.37934200  0.43546800  1
  Cu  Cu67  1  0.42927200  0.62065800  0.06453200  1
  Cu  Cu68  1  0.42927200  0.12065800  0.43546800  1
  Cu  Cu69  1  0.92927200  0.87934200  0.06453200  1
  Cu  Cu70  1  0.75921000  0.49903900  0.70039500  1
  Cu  Cu71  1  0.09379300  0.12117700  0.44585300  1
