# generated using pymatgen
data_Cu2Ni14C9
_symmetry_space_group_name_H-M   'P 1'
_cell_length_a   5.13219807
_cell_length_b   5.15319265
_cell_length_c   11.65962132
_cell_angle_alpha   90.62163831
_cell_angle_beta   89.28558119
_cell_angle_gamma   103.36943695
_symmetry_Int_Tables_number   1
_chemical_formula_structural   Cu2Ni14C9
_chemical_formula_sum   'Cu2 Ni14 C9'
_cell_volume   299.97414699
_cell_formula_units_Z   1
loop_
 _symmetry_equiv_pos_site_id
 _symmetry_equiv_pos_as_xyz
  1  'x, y, z'
loop_
 _atom_site_type_symbol
 _atom_site_label
 _atom_site_symmetry_multiplicity
 _atom_site_fract_x
 _atom_site_fract_y
 _atom_site_fract_z
 _atom_site_occupancy
  C  C0  1  0.68505600  0.30470900  0.00763300  1
  C  C1  1  0.03013000  0.96520600  0.00871000  1
  C  C2  1  0.99690500  0.00194100  0.25296800  1
  C  C3  1  0.01173800  0.03694800  0.49745200  1
  C  C4  1  0.00016300  0.98946400  0.74215500  1
  C  C5  1  0.41322900  0.59518600  0.14133000  1
  C  C6  1  0.57459300  0.40436300  0.63243100  1
  C  C7  1  0.40754400  0.58698700  0.86419500  1
  C  C8  1  0.58105200  0.40301600  0.36419200  1
  Ni  Ni9  1  0.17633300  0.82000600  0.13814800  1
  Ni  Ni10  1  0.15318500  0.86406900  0.61103800  1
  Ni  Ni11  1  0.17123500  0.82201800  0.87454900  1
  Ni  Ni12  1  0.14773800  0.87054100  0.37704100  1
  Ni  Ni13  1  0.30137800  0.32041900  0.99920600  1
  Ni  Ni14  1  0.30805300  0.29928100  0.24731300  1
  Ni  Ni15  1  0.34315600  0.30374400  0.49733100  1
  Ni  Ni16  1  0.30063100  0.30436900  0.75225300  1
  Ni  Ni17  1  0.67687500  0.68962900  0.99987100  1
  Ni  Ni18  1  0.69828800  0.69261400  0.25431400  1
  Ni  Ni19  1  0.68704300  0.68995900  0.74815600  1
  Ni  Ni20  1  0.85019300  0.13844300  0.12208000  1
  Ni  Ni21  1  0.83287800  0.17715300  0.37307400  1
  Ni  Ni22  1  0.82630600  0.18002400  0.61946100  1
  Cu  Cu23  1  0.70996400  0.66999500  0.49857100  1
  Cu  Cu24  1  0.82466500  0.16158900  0.87652700  1
