# generated using pymatgen
data_Cu4Ni11C3
_symmetry_space_group_name_H-M   'P 1'
_cell_length_a   8.31703920
_cell_length_b   8.31703920
_cell_length_c   8.56488500
_cell_angle_alpha   90.00000000
_cell_angle_beta   90.00000000
_cell_angle_gamma   119.99999363
_symmetry_Int_Tables_number   1
_chemical_formula_structural   Cu4Ni11C3
_chemical_formula_sum   'Cu8 Ni22 C6'
_cell_volume   513.08544205
_cell_formula_units_Z   2
loop_
 _symmetry_equiv_pos_site_id
 _symmetry_equiv_pos_as_xyz
  1  'x, y, z'
loop_
 _atom_site_type_symbol
 _atom_site_label
 _atom_site_symmetry_multiplicity
 _atom_site_fract_x
 _atom_site_fract_y
 _atom_site_fract_z
 _atom_site_occupancy
  C  C0  1  0.80453400  0.19546600  0.75000000  1
  C  C1  1  0.19546600  0.80453400  0.25000000  1
  C  C2  1  0.39093200  0.19546600  0.75000000  1
  C  C3  1  0.60906800  0.80453400  0.25000000  1
  C  C4  1  0.80453400  0.60906800  0.75000000  1
  C  C5  1  0.19546600  0.39093200  0.25000000  1
  Ni  Ni6  1  0.84153700  0.15846300  0.40524600  1
  Ni  Ni7  1  0.15846300  0.84153700  0.59475400  1
  Ni  Ni8  1  0.31692500  0.15846300  0.40524600  1
  Ni  Ni9  1  0.15846300  0.84153700  0.90524600  1
  Ni  Ni10  1  0.68307500  0.84153700  0.59475400  1
  Ni  Ni11  1  0.84153700  0.15846300  0.09475400  1
  Ni  Ni12  1  0.84153700  0.68307500  0.40524600  1
  Ni  Ni13  1  0.68307500  0.84153700  0.90524600  1
  Ni  Ni14  1  0.15846300  0.31692500  0.59475400  1
  Ni  Ni15  1  0.31692500  0.15846300  0.09475400  1
  Ni  Ni16  1  0.15846300  0.31692500  0.90524600  1
  Ni  Ni17  1  0.84153700  0.68307500  0.09475400  1
  Ni  Ni18  1  0.43445900  0.56554100  0.75000000  1
  Ni  Ni19  1  0.56554100  0.43445900  0.25000000  1
  Ni  Ni20  1  0.13108300  0.56554100  0.75000000  1
  Ni  Ni21  1  0.86891700  0.43445900  0.25000000  1
  Ni  Ni22  1  0.43445900  0.86891700  0.75000000  1
  Ni  Ni23  1  0.56554100  0.13108300  0.25000000  1
  Ni  Ni24  1  0.66666700  0.33333300  0.00390400  1
  Ni  Ni25  1  0.33333300  0.66666700  0.99609600  1
  Ni  Ni26  1  0.33333300  0.66666700  0.50390400  1
  Ni  Ni27  1  0.66666700  0.33333300  0.49609600  1
  Cu  Cu28  1  0.50000000  0.50000000  0.00000000  1
  Cu  Cu29  1  0.00000000  0.50000000  0.00000000  1
  Cu  Cu30  1  0.50000000  0.50000000  0.50000000  1
  Cu  Cu31  1  0.50000000  0.00000000  0.00000000  1
  Cu  Cu32  1  0.00000000  0.50000000  0.50000000  1
  Cu  Cu33  1  0.50000000  0.00000000  0.50000000  1
  Cu  Cu34  1  0.00000000  0.00000000  0.75000000  1
  Cu  Cu35  1  0.00000000  0.00000000  0.25000000  1
