# generated using pymatgen
data_CuNi7C60
_symmetry_space_group_name_H-M   'P 1'
_cell_length_a   8.79103932
_cell_length_b   8.79103932
_cell_length_c   12.13397000
_cell_angle_alpha   90.00000000
_cell_angle_beta   90.00000000
_cell_angle_gamma   90.04687851
_symmetry_Int_Tables_number   1
_chemical_formula_structural   CuNi7C60
_chemical_formula_sum   'Cu1 Ni7 C60'
_cell_volume   937.74167445
_cell_formula_units_Z   1
loop_
 _symmetry_equiv_pos_site_id
 _symmetry_equiv_pos_as_xyz
  1  'x, y, z'
loop_
 _atom_site_type_symbol
 _atom_site_label
 _atom_site_symmetry_multiplicity
 _atom_site_fract_x
 _atom_site_fract_y
 _atom_site_fract_z
 _atom_site_occupancy
  Ni  Ni0  1  0.64323500  0.64037500  0.50000000  1
  Ni  Ni1  1  0.35962500  0.35676500  0.50000000  1
  Ni  Ni2  1  0.14208600  0.85791400  0.00000000  1
  Ni  Ni3  1  0.85752900  0.14247100  0.00000000  1
  Ni  Ni4  1  0.23154400  0.76845600  0.50000000  1
  Ni  Ni5  1  0.26854400  0.26834300  0.00000000  1
  Ni  Ni6  1  0.73165700  0.73145600  0.00000000  1
  Cu  Cu7  1  0.77070100  0.22929900  0.50000000  1
  C  C8  1  0.81739700  0.18260300  0.74385400  1
  C  C9  1  0.18200800  0.81799200  0.74568700  1
  C  C10  1  0.31786600  0.31774400  0.24587300  1
  C  C11  1  0.68225600  0.68213400  0.24587300  1
  C  C12  1  0.18200800  0.81799200  0.25431300  1
  C  C13  1  0.81739700  0.18260300  0.25614600  1
  C  C14  1  0.68225600  0.68213400  0.75412700  1
  C  C15  1  0.31786600  0.31774400  0.75412700  1
  C  C16  1  0.53800500  0.13985800  0.67513200  1
  C  C17  1  0.46380600  0.86146400  0.67604100  1
  C  C18  1  0.03605700  0.36086900  0.17679800  1
  C  C19  1  0.96339500  0.63882300  0.17680700  1
  C  C20  1  0.46380600  0.86146400  0.32395900  1
  C  C21  1  0.53800500  0.13985800  0.32486800  1
  C  C22  1  0.96339500  0.63882300  0.82319300  1
  C  C23  1  0.03605700  0.36086900  0.82320200  1
  C  C24  1  0.13853600  0.53619400  0.67604100  1
  C  C25  1  0.86014200  0.46199500  0.67513200  1
  C  C26  1  0.36117700  0.03660500  0.17680700  1
  C  C27  1  0.63913100  0.96394300  0.17679800  1
  C  C28  1  0.86014200  0.46199500  0.32486800  1
  C  C29  1  0.13853600  0.53619400  0.32395900  1
  C  C30  1  0.63913100  0.96394300  0.82320200  1
  C  C31  1  0.36117700  0.03660500  0.82319300  1
  C  C32  1  0.59882100  0.40117900  0.70368600  1
  C  C33  1  0.40209600  0.59790400  0.70492300  1
  C  C34  1  0.09763400  0.09817300  0.20481800  1
  C  C35  1  0.90182700  0.90236600  0.20481800  1
  C  C36  1  0.40209600  0.59790400  0.29507700  1
  C  C37  1  0.59882100  0.40117900  0.29631400  1
  C  C38  1  0.90182700  0.90236600  0.79518200  1
  C  C39  1  0.09763400  0.09817300  0.79518200  1
  C  C40  1  0.72545600  0.93432300  0.62692900  1
  C  C41  1  0.27464100  0.06788400  0.62801400  1
  C  C42  1  0.22525500  0.56762800  0.12788300  1
  C  C43  1  0.77456900  0.43231100  0.12830300  1
  C  C44  1  0.27464100  0.06788400  0.37198600  1
  C  C45  1  0.72545600  0.93432300  0.37307100  1
  C  C46  1  0.77456900  0.43231100  0.87169700  1
  C  C47  1  0.22525500  0.56762800  0.87211700  1
  C  C48  1  0.93211600  0.72535900  0.62801400  1
  C  C49  1  0.06567700  0.27454400  0.62692900  1
  C  C50  1  0.56768900  0.22543100  0.12830300  1
  C  C51  1  0.43237200  0.77474500  0.12788300  1
  C  C52  1  0.06567700  0.27454400  0.37307100  1
  C  C53  1  0.93211600  0.72535900  0.37198600  1
  C  C54  1  0.43237200  0.77474500  0.87211700  1
  C  C55  1  0.56768900  0.22543100  0.87169700  1
  C  C56  1  0.99898500  0.00101500  0.61444800  1
  C  C57  1  0.50015700  0.49984300  0.11474400  1
  C  C58  1  0.99898500  0.00101500  0.38555200  1
  C  C59  1  0.50015700  0.49984300  0.88525600  1
  C  C60  1  0.50149300  0.00158300  0.50000000  1
  C  C61  1  0.00021800  0.49995900  0.00000000  1
  C  C62  1  0.99841700  0.49850700  0.50000000  1
  C  C63  1  0.50004100  0.99978200  0.00000000  1
  C  C64  1  0.87640500  0.87606300  0.50000000  1
  C  C65  1  0.12393700  0.12359500  0.50000000  1
  C  C66  1  0.37687800  0.62312200  0.00000000  1
  C  C67  1  0.62354900  0.37645100  0.00000000  1
