# generated using pymatgen
data_CuNi9C8
_symmetry_space_group_name_H-M   'P 1'
_cell_length_a   9.00141326
_cell_length_b   9.00141326
_cell_length_c   14.13029521
_cell_angle_alpha   84.88042461
_cell_angle_beta   84.88042461
_cell_angle_gamma   126.74510254
_symmetry_Int_Tables_number   1
_chemical_formula_structural   CuNi9C8
_chemical_formula_sum   'Cu4 Ni36 C32'
_cell_volume   899.05697579
_cell_formula_units_Z   4
loop_
 _symmetry_equiv_pos_site_id
 _symmetry_equiv_pos_as_xyz
  1  'x, y, z'
loop_
 _atom_site_type_symbol
 _atom_site_label
 _atom_site_symmetry_multiplicity
 _atom_site_fract_x
 _atom_site_fract_y
 _atom_site_fract_z
 _atom_site_occupancy
  C  C0  1  0.58741900  0.58526200  0.19462900  1
  C  C1  1  0.58526200  0.58741900  0.69462900  1
  C  C2  1  0.14915700  0.51079800  0.61150400  1
  C  C3  1  0.51079800  0.14915700  0.11150400  1
  C  C4  1  0.17612400  0.52639200  0.08997000  1
  C  C5  1  0.52639200  0.17612400  0.58997000  1
  C  C6  1  0.07423000  0.85682800  0.52772200  1
  C  C7  1  0.85682800  0.07423000  0.02772200  1
  C  C8  1  0.06068000  0.86422400  0.27411300  1
  C  C9  1  0.86422400  0.06068000  0.77411300  1
  C  C10  1  0.84266300  0.06910800  0.27581500  1
  C  C11  1  0.06910800  0.84266300  0.77581500  1
  C  C12  1  0.83456500  0.07755900  0.53323100  1
  C  C13  1  0.07755900  0.83456500  0.03323100  1
  C  C14  1  0.50282800  0.17202300  0.35006300  1
  C  C15  1  0.17202300  0.50282800  0.85006300  1
  C  C16  1  0.13215100  0.54311800  0.33984500  1
  C  C17  1  0.54311800  0.13215100  0.83984500  1
  C  C18  1  0.57277300  0.61153800  0.44908100  1
  C  C19  1  0.61153800  0.57277300  0.94908100  1
  C  C20  1  0.22331000  0.24971100  0.37018500  1
  C  C21  1  0.24971100  0.22331000  0.87018500  1
  C  C22  1  0.45234000  0.83602200  0.21662900  1
  C  C23  1  0.83602200  0.45234000  0.71662900  1
  C  C24  1  0.84294000  0.48172200  0.45612300  1
  C  C25  1  0.48172200  0.84294000  0.95612300  1
  C  C26  1  0.22147600  0.23119500  0.61371500  1
  C  C27  1  0.23119500  0.22147600  0.11371500  1
  C  C28  1  0.44938300  0.85230900  0.72335200  1
  C  C29  1  0.85230900  0.44938300  0.22335200  1
  C  C30  1  0.44499000  0.83279100  0.45845700  1
  C  C31  1  0.83279100  0.44499000  0.95845700  1
  Ni  Ni32  1  0.39821700  0.40102500  0.35873900  1
  Ni  Ni33  1  0.40102500  0.39821700  0.85873900  1
  Ni  Ni34  1  0.37847100  0.40308700  0.58100100  1
  Ni  Ni35  1  0.40308700  0.37847100  0.08100100  1
  Ni  Ni36  1  0.08982900  0.26908300  0.37247400  1
  Ni  Ni37  1  0.26908300  0.08982900  0.87247400  1
  Ni  Ni38  1  0.32614700  0.64912800  0.45191800  1
  Ni  Ni39  1  0.64912800  0.32614700  0.95191800  1
  Ni  Ni40  1  0.37234100  0.65581900  0.21778500  1
  Ni  Ni41  1  0.65581900  0.37234100  0.71778500  1
  Ni  Ni42  1  0.18522900  0.08718700  0.37790700  1
  Ni  Ni43  1  0.08718700  0.18522900  0.87790700  1
  Ni  Ni44  1  0.87974100  0.37096300  0.48965700  1
  Ni  Ni45  1  0.37096300  0.87974100  0.98965700  1
  Ni  Ni46  1  0.38601900  0.92063000  0.48836000  1
  Ni  Ni47  1  0.92063000  0.38601900  0.98836000  1
  Ni  Ni48  1  0.62071100  0.90491200  0.43474400  1
  Ni  Ni49  1  0.90491200  0.62071100  0.93474400  1
  Ni  Ni50  1  0.35524000  0.87020800  0.27268800  1
  Ni  Ni51  1  0.87020800  0.35524000  0.77268800  1
  Ni  Ni52  1  0.40120500  0.70051200  0.69572500  1
  Ni  Ni53  1  0.70051200  0.40120500  0.19572500  1
  Ni  Ni54  1  0.98528500  0.64842900  0.40720000  1
  Ni  Ni55  1  0.64842900  0.98528500  0.90720000  1
  Ni  Ni56  1  0.06450200  0.20794800  0.62819800  1
  Ni  Ni57  1  0.20794800  0.06450200  0.12819800  1
  Ni  Ni58  1  0.33450100  0.85193800  0.78877000  1
  Ni  Ni59  1  0.85193800  0.33450100  0.28877000  1
  Ni  Ni60  1  0.22702500  0.09154000  0.63131900  1
  Ni  Ni61  1  0.09154000  0.22702500  0.13131900  1
  Ni  Ni62  1  0.67403800  0.43098700  0.46544000  1
  Ni  Ni63  1  0.43098700  0.67403800  0.96544000  1
  Ni  Ni64  1  0.61310900  0.96717100  0.16581900  1
  Ni  Ni65  1  0.96717100  0.61310900  0.66581900  1
  Ni  Ni66  1  0.61356700  0.01633200  0.69280100  1
  Ni  Ni67  1  0.01633200  0.61356700  0.19280000  1
  Cu  Cu68  1  0.76551900  0.76671600  0.54235300  1
  Cu  Cu69  1  0.76671600  0.76551900  0.04235300  1
  Cu  Cu70  1  0.75288300  0.75945800  0.31174400  1
  Cu  Cu71  1  0.75945800  0.75288300  0.81174400  1
