# generated using pymatgen
data_CuNiC10
_symmetry_space_group_name_H-M   'P 1'
_cell_length_a   4.87420804
_cell_length_b   4.87420804
_cell_length_c   8.65623400
_cell_angle_alpha   90.00000000
_cell_angle_beta   90.00000000
_cell_angle_gamma   120.00000057
_symmetry_Int_Tables_number   1
_chemical_formula_structural   CuNiC10
_chemical_formula_sum   'Cu1 Ni1 C10'
_cell_volume   178.10156719
_cell_formula_units_Z   1
loop_
 _symmetry_equiv_pos_site_id
 _symmetry_equiv_pos_as_xyz
  1  'x, y, z'
loop_
 _atom_site_type_symbol
 _atom_site_label
 _atom_site_symmetry_multiplicity
 _atom_site_fract_x
 _atom_site_fract_y
 _atom_site_fract_z
 _atom_site_occupancy
  Ni  Ni0  1  0.00000000  0.00000000  0.50000000  1
  Cu  Cu1  1  0.00000000  0.00000000  0.00000000  1
  C  C2  1  0.66666700  0.33333300  0.79594000  1
  C  C3  1  0.33333300  0.66666700  0.20406000  1
  C  C4  1  0.91555700  0.26482800  0.85304700  1
  C  C5  1  0.34927100  0.08444300  0.85304700  1
  C  C6  1  0.65072900  0.73517200  0.14695300  1
  C  C7  1  0.73517200  0.65072900  0.85304700  1
  C  C8  1  0.26482800  0.91555700  0.14695300  1
  C  C9  1  0.08444300  0.34927100  0.14695300  1
  C  C10  1  0.66666700  0.33333300  0.62671800  1
  C  C11  1  0.33333300  0.66666700  0.37328200  1
