# generated using pymatgen
data_Cu3NiC4
_symmetry_space_group_name_H-M   'P 1'
_cell_length_a   6.20954458
_cell_length_b   6.20954458
_cell_length_c   5.68951870
_cell_angle_alpha   62.73422117
_cell_angle_beta   62.73422117
_cell_angle_gamma   30.75183257
_symmetry_Int_Tables_number   1
_chemical_formula_structural   Cu3NiC4
_chemical_formula_sum   'Cu3 Ni1 C4'
_cell_volume   98.70307397
_cell_formula_units_Z   1
loop_
 _symmetry_equiv_pos_site_id
 _symmetry_equiv_pos_as_xyz
  1  'x, y, z'
loop_
 _atom_site_type_symbol
 _atom_site_label
 _atom_site_symmetry_multiplicity
 _atom_site_fract_x
 _atom_site_fract_y
 _atom_site_fract_z
 _atom_site_occupancy
  Ni  Ni0  1  0.74915900  0.74915900  0.58207300  1
  Cu  Cu1  1  0.24869900  0.24869900  0.08634300  1
  Cu  Cu2  1  0.50067200  0.50067200  0.16787700  1
  Cu  Cu3  1  0.00107600  0.00107600  0.66393100  1
  C  C4  1  0.93871300  0.93871300  0.39460300  1
  C  C5  1  0.44084500  0.44084500  0.89239200  1
  C  C6  1  0.19167800  0.19167800  0.47773700  1
  C  C7  1  0.69119800  0.69119800  0.97304600  1
