# generated using pymatgen
data_Cu4Ni6C11
_symmetry_space_group_name_H-M   'P 1'
_cell_length_a   11.53485944
_cell_length_b   11.53485944
_cell_length_c   11.53485944
_cell_angle_alpha   119.83609709
_cell_angle_beta   119.83609709
_cell_angle_gamma   90.28412338
_symmetry_Int_Tables_number   1
_chemical_formula_structural   Cu4Ni6C11
_chemical_formula_sum   'Cu8 Ni12 C22'
_cell_volume   1087.90438312
_cell_formula_units_Z   2
loop_
 _symmetry_equiv_pos_site_id
 _symmetry_equiv_pos_as_xyz
  1  'x, y, z'
loop_
 _atom_site_type_symbol
 _atom_site_label
 _atom_site_symmetry_multiplicity
 _atom_site_fract_x
 _atom_site_fract_y
 _atom_site_fract_z
 _atom_site_occupancy
  C  C0  1  0.68462100  0.93476000  0.25013800  1
  C  C1  1  0.68462100  0.43448300  0.74986200  1
  C  C2  1  0.93476000  0.68462100  0.25013800  1
  C  C3  1  0.43448300  0.68462100  0.74986200  1
  C  C4  1  0.31537900  0.06524000  0.74986200  1
  C  C5  1  0.31537900  0.56551700  0.25013800  1
  C  C6  1  0.06524000  0.31537900  0.74986200  1
  C  C7  1  0.56551700  0.31537900  0.25013800  1
  C  C8  1  0.89923400  0.24652600  0.34729200  1
  C  C9  1  0.89923400  0.55194100  0.65270800  1
  C  C10  1  0.24652600  0.89923400  0.34729200  1
  C  C11  1  0.55194100  0.89923400  0.65270800  1
  C  C12  1  0.10076600  0.75347400  0.65270800  1
  C  C13  1  0.10076600  0.44805900  0.34729200  1
  C  C14  1  0.75347400  0.10076600  0.65270800  1
  C  C15  1  0.44805900  0.10076600  0.34729200  1
  C  C16  1  0.33274300  0.33274300  0.66548500  1
  C  C17  1  0.66725700  0.66725700  0.33451500  1
  C  C18  1  0.33274300  0.66725700  0.00000000  1
  C  C19  1  0.66725700  0.33274300  0.00000000  1
  C  C20  1  0.83200800  0.83200800  0.00000000  1
  C  C21  1  0.16799200  0.16799200  0.00000000  1
  Ni  Ni22  1  0.03377300  0.03377300  0.41059300  1
  Ni  Ni23  1  0.62318000  0.62318000  0.58940700  1
  Ni  Ni24  1  0.03377300  0.62318000  0.00000000  1
  Ni  Ni25  1  0.62318000  0.03377300  0.00000000  1
  Ni  Ni26  1  0.96622700  0.96622700  0.58940700  1
  Ni  Ni27  1  0.37682000  0.37682000  0.41059300  1
  Ni  Ni28  1  0.96622700  0.37682000  0.00000000  1
  Ni  Ni29  1  0.37682000  0.96622700  0.00000000  1
  Ni  Ni30  1  0.12929000  0.12929000  0.25858000  1
  Ni  Ni31  1  0.87071000  0.87071000  0.74142000  1
  Ni  Ni32  1  0.12929000  0.87071000  0.00000000  1
  Ni  Ni33  1  0.87071000  0.12929000  0.00000000  1
  Cu  Cu34  1  0.15361000  0.50000000  0.65361000  1
  Cu  Cu35  1  0.84639000  0.50000000  0.34639000  1
  Cu  Cu36  1  0.50000000  0.84639000  0.34639000  1
  Cu  Cu37  1  0.50000000  0.15361000  0.65361000  1
  Cu  Cu38  1  0.61705400  0.61705400  0.00000000  1
  Cu  Cu39  1  0.38294600  0.38294600  0.00000000  1
  Cu  Cu40  1  0.75000000  0.25000000  0.50000000  1
  Cu  Cu41  1  0.25000000  0.75000000  0.50000000  1
