# generated using pymatgen
data_Cu10NiC3
_symmetry_space_group_name_H-M   'P 1'
_cell_length_a   8.13271510
_cell_length_b   8.13271510
_cell_length_c   8.13271510
_cell_angle_alpha   60.00000000
_cell_angle_beta   60.00000000
_cell_angle_gamma   60.00000000
_symmetry_Int_Tables_number   1
_chemical_formula_structural   Cu10NiC3
_chemical_formula_sum   'Cu20 Ni2 C6'
_cell_volume   380.35723256
_cell_formula_units_Z   2
loop_
 _symmetry_equiv_pos_site_id
 _symmetry_equiv_pos_as_xyz
  1  'x, y, z'
loop_
 _atom_site_type_symbol
 _atom_site_label
 _atom_site_symmetry_multiplicity
 _atom_site_fract_x
 _atom_site_fract_y
 _atom_site_fract_z
 _atom_site_occupancy
  C  C0  1  0.75948300  0.24051700  0.24051700  1
  C  C1  1  0.24051700  0.75948300  0.75948300  1
  C  C2  1  0.24051700  0.75948300  0.24051700  1
  C  C3  1  0.75948300  0.24051700  0.75948300  1
  C  C4  1  0.24051700  0.24051700  0.75948300  1
  C  C5  1  0.75948300  0.75948300  0.24051700  1
  Ni  Ni6  1  0.25000000  0.25000000  0.25000000  1
  Ni  Ni7  1  0.75000000  0.75000000  0.75000000  1
  Cu  Cu8  1  0.82836100  0.50000000  0.50000000  1
  Cu  Cu9  1  0.17163900  0.50000000  0.50000000  1
  Cu  Cu10  1  0.50000000  0.82836100  0.17163900  1
  Cu  Cu11  1  0.50000000  0.17163900  0.82836100  1
  Cu  Cu12  1  0.50000000  0.82836100  0.50000000  1
  Cu  Cu13  1  0.17163900  0.50000000  0.82836100  1
  Cu  Cu14  1  0.50000000  0.17163900  0.50000000  1
  Cu  Cu15  1  0.82836100  0.50000000  0.17163900  1
  Cu  Cu16  1  0.50000000  0.50000000  0.82836100  1
  Cu  Cu17  1  0.50000000  0.50000000  0.17163900  1
  Cu  Cu18  1  0.17163900  0.82836100  0.50000000  1
  Cu  Cu19  1  0.82836100  0.17163900  0.50000000  1
  Cu  Cu20  1  0.11289000  0.11289000  0.11289000  1
  Cu  Cu21  1  0.88711000  0.88711000  0.88711000  1
  Cu  Cu22  1  0.11289000  0.11289000  0.66132900  1
  Cu  Cu23  1  0.11289000  0.66132900  0.11289000  1
  Cu  Cu24  1  0.88711000  0.88711000  0.33867100  1
  Cu  Cu25  1  0.88711000  0.33867100  0.88711000  1
  Cu  Cu26  1  0.66132900  0.11289000  0.11289000  1
  Cu  Cu27  1  0.33867100  0.88711000  0.88711000  1
