# generated using pymatgen
data_Cu5Ni3C13
_symmetry_space_group_name_H-M   'P 1'
_cell_length_a   9.90560426
_cell_length_b   9.90560426
_cell_length_c   7.36210500
_cell_angle_alpha   90.00000000
_cell_angle_beta   90.00000000
_cell_angle_gamma   120.00000171
_symmetry_Int_Tables_number   1
_chemical_formula_structural   Cu5Ni3C13
_chemical_formula_sum   'Cu10 Ni6 C26'
_cell_volume   625.59688548
_cell_formula_units_Z   2
loop_
 _symmetry_equiv_pos_site_id
 _symmetry_equiv_pos_as_xyz
  1  'x, y, z'
loop_
 _atom_site_type_symbol
 _atom_site_label
 _atom_site_symmetry_multiplicity
 _atom_site_fract_x
 _atom_site_fract_y
 _atom_site_fract_z
 _atom_site_occupancy
  Ni  Ni0  1  0.02380600  0.61898000  0.75019400  1
  Ni  Ni1  1  0.59517400  0.97619400  0.75019400  1
  Ni  Ni2  1  0.38102000  0.40482600  0.75019400  1
  Ni  Ni3  1  0.97619400  0.38102000  0.25019400  1
  Ni  Ni4  1  0.40482600  0.02380600  0.25019400  1
  Ni  Ni5  1  0.61898000  0.59517400  0.25019400  1
  Cu  Cu6  1  0.23049000  0.99425800  0.74811200  1
  Cu  Cu7  1  0.76376800  0.76951000  0.74811200  1
  Cu  Cu8  1  0.00574200  0.23623200  0.74811200  1
  Cu  Cu9  1  0.76951000  0.00574200  0.24811200  1
  Cu  Cu10  1  0.23623200  0.23049000  0.24811200  1
  Cu  Cu11  1  0.99425800  0.76376800  0.24811200  1
  Cu  Cu12  1  0.66666700  0.33333300  0.99811600  1
  Cu  Cu13  1  0.33333300  0.66666700  0.49811600  1
  Cu  Cu14  1  0.33333300  0.66666700  0.00220900  1
  Cu  Cu15  1  0.66666700  0.33333300  0.50220900  1
  C  C16  1  0.08266700  0.72756800  0.92069400  1
  C  C17  1  0.64490100  0.91733300  0.92069400  1
  C  C18  1  0.27243200  0.35509900  0.92069400  1
  C  C19  1  0.91733300  0.27243200  0.42069400  1
  C  C20  1  0.35509900  0.08266700  0.42069400  1
  C  C21  1  0.72756800  0.64490100  0.42069400  1
  C  C22  1  0.91629600  0.27212600  0.08042300  1
  C  C23  1  0.35582900  0.08370400  0.08042300  1
  C  C24  1  0.72787400  0.64417100  0.08042300  1
  C  C25  1  0.08370400  0.72787400  0.58042300  1
  C  C26  1  0.64417100  0.91629600  0.58042300  1
  C  C27  1  0.27212600  0.35582900  0.58042300  1
  C  C28  1  0.10115000  0.51406100  0.75015600  1
  C  C29  1  0.41291100  0.89885000  0.75015600  1
  C  C30  1  0.48593900  0.58708900  0.75015600  1
  C  C31  1  0.89885000  0.48593900  0.25015600  1
  C  C32  1  0.58708900  0.10115000  0.25015600  1
  C  C33  1  0.51406100  0.41291100  0.25015600  1
  C  C34  1  0.84322600  0.51687600  0.74991400  1
  C  C35  1  0.67365000  0.15677400  0.74991400  1
  C  C36  1  0.48312400  0.32635000  0.74991400  1
  C  C37  1  0.15677400  0.48312400  0.24991400  1
  C  C38  1  0.32635000  0.84322600  0.24991400  1
  C  C39  1  0.51687600  0.67365000  0.24991400  1
  C  C40  1  0.00000000  0.00000000  0.54019700  1
  C  C41  1  0.00000000  0.00000000  0.04019700  1
