# generated using pymatgen
data_CuNi4C19
_symmetry_space_group_name_H-M   'P 1'
_cell_length_a   4.98775407
_cell_length_b   4.98775407
_cell_length_c   10.45754020
_cell_angle_alpha   90.16394371
_cell_angle_beta   90.16394371
_cell_angle_gamma   93.40668214
_symmetry_Int_Tables_number   1
_chemical_formula_structural   CuNi4C19
_chemical_formula_sum   'Cu1 Ni4 C19'
_cell_volume   259.69746329
_cell_formula_units_Z   1
loop_
 _symmetry_equiv_pos_site_id
 _symmetry_equiv_pos_as_xyz
  1  'x, y, z'
loop_
 _atom_site_type_symbol
 _atom_site_label
 _atom_site_symmetry_multiplicity
 _atom_site_fract_x
 _atom_site_fract_y
 _atom_site_fract_z
 _atom_site_occupancy
  C  C0  1  0.49976300  0.49976300  0.49989400  1
  C  C1  1  0.95350700  0.72598000  0.59789000  1
  C  C2  1  0.72598000  0.95350700  0.59789000  1
  C  C3  1  0.04760900  0.27457000  0.40127500  1
  C  C4  1  0.27457000  0.04760900  0.40127500  1
  C  C5  1  0.13372900  0.13372900  0.96172900  1
  C  C6  1  0.89864700  0.89864700  0.91598700  1
  C  C7  1  0.07936200  0.84784200  0.04737800  1
  C  C8  1  0.84784200  0.07936200  0.04737800  1
  Ni  Ni9  1  0.74110200  0.52646700  0.25524500  1
  Ni  Ni10  1  0.52646700  0.74110200  0.25524500  1
  Ni  Ni11  1  0.25908200  0.47358000  0.74478500  1
  Ni  Ni12  1  0.47358000  0.25908200  0.74478500  1
  Cu  Cu13  1  0.99093200  0.99093200  0.99364400  1
  C  C14  1  0.75448700  0.39263300  0.36318300  1
  C  C15  1  0.39263300  0.75448700  0.36318300  1
  C  C16  1  0.24492200  0.60773600  0.63708200  1
  C  C17  1  0.60773600  0.24492200  0.63708200  1
  C  C18  1  0.78273700  0.78273700  0.55797600  1
  C  C19  1  0.21637200  0.21637200  0.44264800  1
  C  C20  1  0.88357400  0.49344500  0.16125400  1
  C  C21  1  0.49344500  0.88357400  0.16125400  1
  C  C22  1  0.11671900  0.50320200  0.83897000  1
  C  C23  1  0.50320200  0.11671900  0.83897000  1
