# generated using pymatgen
data_Cu3NiC14
_symmetry_space_group_name_H-M   'P 1'
_cell_length_a   5.49306100
_cell_length_b   5.69031300
_cell_length_c   15.83005008
_cell_angle_alpha   68.97968963
_cell_angle_beta   90.00000000
_cell_angle_gamma   90.00000000
_symmetry_Int_Tables_number   1
_chemical_formula_structural   Cu3NiC14
_chemical_formula_sum   'Cu6 Ni2 C28'
_cell_volume   461.87608600
_cell_formula_units_Z   2
loop_
 _symmetry_equiv_pos_site_id
 _symmetry_equiv_pos_as_xyz
  1  'x, y, z'
loop_
 _atom_site_type_symbol
 _atom_site_label
 _atom_site_symmetry_multiplicity
 _atom_site_fract_x
 _atom_site_fract_y
 _atom_site_fract_z
 _atom_site_occupancy
  C  C0  1  0.97841600  0.36777500  0.10713000  1
  C  C1  1  0.47841600  0.63222500  0.39287000  1
  C  C2  1  0.02170900  0.91894400  0.60723100  1
  C  C3  1  0.52170900  0.08105600  0.89276900  1
  C  C4  1  0.02158400  0.63222500  0.89287000  1
  C  C5  1  0.52158400  0.36777500  0.60713000  1
  C  C6  1  0.97829100  0.08105600  0.39276900  1
  C  C7  1  0.47829100  0.91894400  0.10723100  1
  Ni  Ni8  1  0.50000000  0.50000000  0.00000000  1
  Ni  Ni9  1  0.00000000  0.50000000  0.50000000  1
  Cu  Cu10  1  0.44614900  0.31956100  0.24905100  1
  Cu  Cu11  1  0.94614900  0.68043900  0.25094900  1
  Cu  Cu12  1  0.55385100  0.68043900  0.75094900  1
  Cu  Cu13  1  0.05385100  0.31956100  0.74905100  1
  Cu  Cu14  1  0.50000000  0.00000000  0.50000000  1
  Cu  Cu15  1  0.00000000  0.00000000  0.00000000  1
  C  C16  1  0.76466800  0.27968700  0.98271200  1
  C  C17  1  0.26466800  0.72031300  0.51728800  1
  C  C18  1  0.23636700  0.25197400  0.48243700  1
  C  C19  1  0.73636700  0.74802600  0.01756300  1
  C  C20  1  0.23533200  0.72031300  0.01728800  1
  C  C21  1  0.73533200  0.27968700  0.48271200  1
  C  C22  1  0.76363300  0.74802600  0.51756300  1
  C  C23  1  0.26363300  0.25197400  0.98243700  1
  C  C24  1  0.52738600  0.28833000  0.13840800  1
  C  C25  1  0.02738600  0.71167000  0.36159200  1
  C  C26  1  0.46916800  0.93695300  0.64256800  1
  C  C27  1  0.96916800  0.06304700  0.85743200  1
  C  C28  1  0.47261400  0.71167000  0.86159200  1
  C  C29  1  0.97261400  0.28833000  0.63840800  1
  C  C30  1  0.53083200  0.06304700  0.35743200  1
  C  C31  1  0.03083200  0.93695300  0.14256800  1
  C  C32  1  0.09172900  0.37009600  0.24996200  1
  C  C33  1  0.59172900  0.62990400  0.25003800  1
  C  C34  1  0.90827100  0.62990400  0.75003800  1
  C  C35  1  0.40827100  0.37009600  0.74996200  1
