# generated using pymatgen
data_Cu(NiC4)3
_symmetry_space_group_name_H-M   'P 1'
_cell_length_a   9.47977887
_cell_length_b   9.47977887
_cell_length_c   18.00277600
_cell_angle_alpha   90.00000000
_cell_angle_beta   90.00000000
_cell_angle_gamma   119.99999213
_symmetry_Int_Tables_number   1
_chemical_formula_structural   Cu(NiC4)3
_chemical_formula_sum   'Cu6 Ni18 C72'
_cell_volume   1401.09169219
_cell_formula_units_Z   6
loop_
 _symmetry_equiv_pos_site_id
 _symmetry_equiv_pos_as_xyz
  1  'x, y, z'
loop_
 _atom_site_type_symbol
 _atom_site_label
 _atom_site_symmetry_multiplicity
 _atom_site_fract_x
 _atom_site_fract_y
 _atom_site_fract_z
 _atom_site_occupancy
  Ni  Ni0  1  0.00000000  0.00000000  0.72129200  1
  Ni  Ni1  1  0.00000000  0.00000000  0.22129200  1
  Ni  Ni2  1  0.34405700  0.34405700  0.62920000  1
  Ni  Ni3  1  0.00000000  0.65594300  0.62920000  1
  Ni  Ni4  1  0.65594300  0.65594300  0.12920000  1
  Ni  Ni5  1  0.00000000  0.34405700  0.12920000  1
  Ni  Ni6  1  0.65594300  0.00000000  0.62920000  1
  Ni  Ni7  1  0.34405700  0.00000000  0.12920000  1
  Ni  Ni8  1  0.32135800  0.32135800  0.87026100  1
  Ni  Ni9  1  0.00000000  0.67864200  0.87026100  1
  Ni  Ni10  1  0.67864200  0.67864200  0.37026100  1
  Ni  Ni11  1  0.00000000  0.32135800  0.37026100  1
  Ni  Ni12  1  0.67864200  0.00000000  0.87026100  1
  Ni  Ni13  1  0.32135800  0.00000000  0.37026100  1
  Ni  Ni14  1  0.66666700  0.33333300  0.77212600  1
  Ni  Ni15  1  0.33333300  0.66666700  0.27212600  1
  Ni  Ni16  1  0.66666700  0.33333300  0.27212600  1
  Ni  Ni17  1  0.33333300  0.66666700  0.77212600  1
  Cu  Cu18  1  0.00000000  0.00000000  0.00366300  1
  Cu  Cu19  1  0.00000000  0.00000000  0.50366300  1
  Cu  Cu20  1  0.66666700  0.33333300  0.99821300  1
  Cu  Cu21  1  0.33333300  0.66666700  0.49821300  1
  Cu  Cu22  1  0.66666700  0.33333300  0.49821300  1
  Cu  Cu23  1  0.33333300  0.66666700  0.99821300  1
  C  C24  1  0.66638200  0.66638200  0.74827300  1
  C  C25  1  0.00000000  0.33361800  0.74827300  1
  C  C26  1  0.33361800  0.33361800  0.24827300  1
  C  C27  1  0.00000000  0.66638200  0.24827300  1
  C  C28  1  0.33361800  0.00000000  0.74827300  1
  C  C29  1  0.66638200  0.00000000  0.24827300  1
  C  C30  1  0.67220100  0.67220100  0.57405600  1
  C  C31  1  0.00000000  0.32779900  0.57405600  1
  C  C32  1  0.32779900  0.32779900  0.07405600  1
  C  C33  1  0.00000000  0.67220100  0.07405600  1
  C  C34  1  0.32779900  0.00000000  0.57405600  1
  C  C35  1  0.67220100  0.00000000  0.07405600  1
  C  C36  1  0.66176800  0.66176800  0.92384800  1
  C  C37  1  0.00000000  0.33823200  0.92384800  1
  C  C38  1  0.33823200  0.33823200  0.42384700  1
  C  C39  1  0.00000000  0.66176800  0.42384700  1
  C  C40  1  0.33823200  0.00000000  0.92384800  1
  C  C41  1  0.66176800  0.00000000  0.42384700  1
  C  C42  1  0.85278000  0.18656200  0.74874900  1
  C  C43  1  0.33378100  0.14722000  0.74874900  1
  C  C44  1  0.14722000  0.81343800  0.24874900  1
  C  C45  1  0.33378100  0.18656200  0.24874900  1
  C  C46  1  0.81343800  0.66621900  0.74874900  1
  C  C47  1  0.66621900  0.85278000  0.24874900  1
  C  C48  1  0.81343800  0.14722000  0.24874900  1
  C  C49  1  0.66621900  0.81343800  0.74874900  1
  C  C50  1  0.18656200  0.33378100  0.24874900  1
  C  C51  1  0.18656200  0.85278000  0.74874900  1
  C  C52  1  0.85278000  0.66621900  0.24874900  1
  C  C53  1  0.14722000  0.33378100  0.74874900  1
  C  C54  1  0.80789900  0.80789900  0.93165800  1
  C  C55  1  0.00000000  0.19210100  0.93165800  1
  C  C56  1  0.19210100  0.19210100  0.43165800  1
  C  C57  1  0.00000000  0.80789900  0.43165800  1
  C  C58  1  0.19210100  0.00000000  0.93165800  1
  C  C59  1  0.80789900  0.00000000  0.43165800  1
  C  C60  1  0.51917100  0.51917100  0.74821200  1
  C  C61  1  0.00000000  0.48082900  0.74821200  1
  C  C62  1  0.48082900  0.48082900  0.24821200  1
  C  C63  1  0.00000000  0.51917100  0.24821200  1
  C  C64  1  0.48082900  0.00000000  0.74821200  1
  C  C65  1  0.51917100  0.00000000  0.24821200  1
  C  C66  1  0.85310900  0.33751200  0.91928800  1
  C  C67  1  0.48440300  0.14689100  0.91928800  1
  C  C68  1  0.14689100  0.66248800  0.41928800  1
  C  C69  1  0.48440300  0.33751200  0.41928800  1
  C  C70  1  0.66248800  0.51559700  0.91928800  1
  C  C71  1  0.51559700  0.85310900  0.41928800  1
  C  C72  1  0.66248800  0.14689100  0.41928800  1
  C  C73  1  0.51559700  0.66248800  0.91928800  1
  C  C74  1  0.33751200  0.48440300  0.41928800  1
  C  C75  1  0.33751200  0.85310900  0.91928800  1
  C  C76  1  0.85310900  0.51559700  0.41928800  1
  C  C77  1  0.14689100  0.48440300  0.91928800  1
  C  C78  1  0.81785100  0.81785100  0.58303800  1
  C  C79  1  0.00000000  0.18214900  0.58303800  1
  C  C80  1  0.18214900  0.18214900  0.08303800  1
  C  C81  1  0.00000000  0.81785100  0.08303800  1
  C  C82  1  0.18214900  0.00000000  0.58303800  1
  C  C83  1  0.81785100  0.00000000  0.08303800  1
  C  C84  1  0.85373600  0.32785200  0.56981800  1
  C  C85  1  0.47411600  0.14626400  0.56981800  1
  C  C86  1  0.14626400  0.67214800  0.06981800  1
  C  C87  1  0.47411600  0.32785200  0.06981800  1
  C  C88  1  0.67214800  0.52588400  0.56981800  1
  C  C89  1  0.52588400  0.85373600  0.06981800  1
  C  C90  1  0.67214800  0.14626400  0.06981800  1
  C  C91  1  0.52588400  0.67214800  0.56981800  1
  C  C92  1  0.32785200  0.47411600  0.06981800  1
  C  C93  1  0.32785200  0.85373600  0.56981800  1
  C  C94  1  0.85373600  0.52588400  0.06981800  1
  C  C95  1  0.14626400  0.47411600  0.56981800  1
