# generated using pymatgen
data_Cu4NiC17
_symmetry_space_group_name_H-M   'P 1'
_cell_length_a   7.17154790
_cell_length_b   7.17154790
_cell_length_c   7.17154778
_cell_angle_alpha   61.14867166
_cell_angle_beta   61.14867166
_cell_angle_gamma   61.14867980
_symmetry_Int_Tables_number   1
_chemical_formula_structural   Cu4NiC17
_chemical_formula_sum   'Cu4 Ni1 C17'
_cell_volume   267.55098072
_cell_formula_units_Z   1
loop_
 _symmetry_equiv_pos_site_id
 _symmetry_equiv_pos_as_xyz
  1  'x, y, z'
loop_
 _atom_site_type_symbol
 _atom_site_label
 _atom_site_symmetry_multiplicity
 _atom_site_fract_x
 _atom_site_fract_y
 _atom_site_fract_z
 _atom_site_occupancy
  C  C0  1  0.00000000  0.50000000  0.50000000  1
  C  C1  1  0.50000000  0.50000000  0.00000000  1
  C  C2  1  0.50000000  0.00000000  0.50000000  1
  Ni  Ni3  1  0.50000000  0.50000000  0.50000000  1
  Cu  Cu4  1  0.00000000  0.00000000  0.00000000  1
  Cu  Cu5  1  0.50000000  0.00000000  0.00000000  1
  Cu  Cu6  1  0.00000000  0.00000000  0.50000000  1
  Cu  Cu7  1  0.00000000  0.50000000  0.00000000  1
  C  C8  1  0.93056000  0.32204700  0.32204700  1
  C  C9  1  0.32753700  0.92049600  0.92049600  1
  C  C10  1  0.32204700  0.32204700  0.93056000  1
  C  C11  1  0.92049600  0.92049600  0.32753700  1
  C  C12  1  0.92049600  0.32753700  0.92049600  1
  C  C13  1  0.32204700  0.93056000  0.32204700  1
  C  C14  1  0.06944000  0.67795300  0.67795300  1
  C  C15  1  0.67246300  0.07950400  0.07950400  1
  C  C16  1  0.67795300  0.67795300  0.06944000  1
  C  C17  1  0.07950400  0.07950400  0.67246300  1
  C  C18  1  0.07950400  0.67246300  0.07950400  1
  C  C19  1  0.67795300  0.06944000  0.67795300  1
  C  C20  1  0.38571700  0.38571700  0.38571700  1
  C  C21  1  0.61428300  0.61428300  0.61428300  1
