# generated using pymatgen
data_CuNi2C7
_symmetry_space_group_name_H-M   'P 1'
_cell_length_a   7.44426558
_cell_length_b   9.41718874
_cell_length_c   7.44376296
_cell_angle_alpha   76.60819326
_cell_angle_beta   74.43334678
_cell_angle_gamma   110.28975542
_symmetry_Int_Tables_number   1
_chemical_formula_structural   CuNi2C7
_chemical_formula_sum   'Cu4 Ni8 C28'
_cell_volume   440.01382374
_cell_formula_units_Z   4
loop_
 _symmetry_equiv_pos_site_id
 _symmetry_equiv_pos_as_xyz
  1  'x, y, z'
loop_
 _atom_site_type_symbol
 _atom_site_label
 _atom_site_symmetry_multiplicity
 _atom_site_fract_x
 _atom_site_fract_y
 _atom_site_fract_z
 _atom_site_occupancy
  C  C0  1  0.75400100  0.87501500  0.37098300  1
  C  C1  1  0.75400000  0.37501600  0.87098700  1
  C  C2  1  0.24600000  0.62498500  0.12901700  1
  C  C3  1  0.24600300  0.12498400  0.62901000  1
  Ni  Ni4  1  0.38728300  0.42182000  0.78745600  1
  Ni  Ni5  1  0.38727400  0.92181100  0.28745600  1
  Ni  Ni6  1  0.79073800  0.82819300  0.78451800  1
  Ni  Ni7  1  0.79073300  0.32819300  0.28452600  1
  Ni  Ni8  1  0.20926200  0.67180700  0.71548200  1
  Ni  Ni9  1  0.20926800  0.17180600  0.21547400  1
  Ni  Ni10  1  0.61271700  0.07818100  0.71254400  1
  Ni  Ni11  1  0.61272600  0.57818900  0.21254500  1
  Cu  Cu12  1  0.90241900  0.12506900  0.97253000  1
  Cu  Cu13  1  0.09758000  0.37493100  0.52747000  1
  Cu  Cu14  1  0.90241700  0.62506500  0.47255600  1
  Cu  Cu15  1  0.09758200  0.87493400  0.02744400  1
  C  C16  1  0.38473000  0.60112200  0.72126100  1
  C  C17  1  0.38473100  0.10111800  0.22126000  1
  C  C18  1  0.67763000  0.64888500  0.96637500  1
  C  C19  1  0.67762500  0.14888200  0.46637900  1
  C  C20  1  0.61527000  0.89887800  0.77873900  1
  C  C21  1  0.61526900  0.39888100  0.27874100  1
  C  C22  1  0.32237000  0.85111400  0.53362500  1
  C  C23  1  0.32237500  0.35111800  0.03362100  1
  C  C24  1  0.62109200  0.44318200  0.68904600  1
  C  C25  1  0.62107500  0.94316600  0.18904000  1
  C  C26  1  0.86776300  0.80681300  0.57206900  1
  C  C27  1  0.86774600  0.30680300  0.07208300  1
  C  C28  1  0.37890900  0.05681800  0.81095400  1
  C  C29  1  0.37892500  0.55683400  0.31096100  1
  C  C30  1  0.13223700  0.69318700  0.92793200  1
  C  C31  1  0.13225400  0.19319700  0.42791700  1
  C  C32  1  0.03135300  0.54638500  0.66312800  1
  C  C33  1  0.03135700  0.04638400  0.16311700  1
  C  C34  1  0.79043900  0.20360300  0.76507300  1
  C  C35  1  0.79045200  0.70360300  0.26507800  1
  C  C36  1  0.20956100  0.29639700  0.73492800  1
  C  C37  1  0.20954700  0.79639700  0.23492200  1
  C  C38  1  0.96864700  0.95361400  0.83687300  1
  C  C39  1  0.96864300  0.45361600  0.33688300  1
