# generated using pymatgen
data_Cu10Ni4C31
_symmetry_space_group_name_H-M   'P 1'
_cell_length_a   5.09852600
_cell_length_b   12.91149700
_cell_length_c   13.65070856
_cell_angle_alpha   110.57191943
_cell_angle_beta   90.00000000
_cell_angle_gamma   101.38737861
_symmetry_Int_Tables_number   1
_chemical_formula_structural   Cu10Ni4C31
_chemical_formula_sum   'Cu20 Ni8 C62'
_cell_volume   822.39606359
_cell_formula_units_Z   2
loop_
 _symmetry_equiv_pos_site_id
 _symmetry_equiv_pos_as_xyz
  1  'x, y, z'
loop_
 _atom_site_type_symbol
 _atom_site_label
 _atom_site_symmetry_multiplicity
 _atom_site_fract_x
 _atom_site_fract_y
 _atom_site_fract_z
 _atom_site_occupancy
  C  C0  1  0.85356200  0.00000000  0.75000000  1
  C  C1  1  0.14643800  0.00000000  0.25000000  1
  C  C2  1  0.63561400  0.71829300  0.65008000  1
  C  C3  1  0.36438600  0.28170700  0.34992000  1
  C  C4  1  0.91732000  0.28170700  0.84992000  1
  C  C5  1  0.08268000  0.71829300  0.15008000  1
  C  C6  1  0.82886200  0.69646300  0.89152800  1
  C  C7  1  0.17113800  0.30353700  0.10847200  1
  C  C8  1  0.13239900  0.30353700  0.60847200  1
  C  C9  1  0.86760100  0.69646300  0.39152800  1
  C  C10  1  0.00000000  0.00000000  0.00000000  1
  C  C11  1  0.00000000  0.00000000  0.50000000  1
  C  C12  1  0.50000000  0.50000000  0.50000000  1
  C  C13  1  0.00000000  0.50000000  0.00000000  1
  Ni  Ni14  1  0.35674000  0.16176700  0.89461200  1
  Ni  Ni15  1  0.64326000  0.83823300  0.10538800  1
  Ni  Ni16  1  0.19497300  0.83823300  0.60538800  1
  Ni  Ni17  1  0.80502700  0.16176700  0.39461200  1
  Ni  Ni18  1  0.48272400  0.43094400  0.82654600  1
  Ni  Ni19  1  0.51727600  0.56905600  0.17345400  1
  Ni  Ni20  1  0.05178000  0.56905600  0.67345400  1
  Ni  Ni21  1  0.94822000  0.43094400  0.32654600  1
  Cu  Cu22  1  0.42968100  0.70800200  0.80374000  1
  Cu  Cu23  1  0.57031900  0.29199800  0.19626000  1
  Cu  Cu24  1  0.72167900  0.29199800  0.69626000  1
  Cu  Cu25  1  0.27832100  0.70800200  0.30374000  1
  Cu  Cu26  1  0.54841900  0.30938400  0.52228600  1
  Cu  Cu27  1  0.45158100  0.69061600  0.47771400  1
  Cu  Cu28  1  0.23903500  0.69061600  0.97771400  1
  Cu  Cu29  1  0.76096500  0.30938400  0.02228600  1
  Cu  Cu30  1  0.30452400  0.15303200  0.62782300  1
  Cu  Cu31  1  0.69547600  0.84696800  0.37217700  1
  Cu  Cu32  1  0.15149300  0.84696800  0.87217700  1
  Cu  Cu33  1  0.84850700  0.15303200  0.12782300  1
  Cu  Cu34  1  0.53479400  0.99194300  0.90510200  1
  Cu  Cu35  1  0.46520600  0.00805700  0.09489800  1
  Cu  Cu36  1  0.54285000  0.00805700  0.59489800  1
  Cu  Cu37  1  0.45715000  0.99194300  0.40510200  1
  Cu  Cu38  1  0.64680900  0.87115100  0.86021500  1
  Cu  Cu39  1  0.35319100  0.12884900  0.13978500  1
  Cu  Cu40  1  0.77565800  0.12884900  0.63978500  1
  Cu  Cu41  1  0.22434200  0.87115100  0.36021500  1
  C  C42  1  0.21204100  0.41594500  0.87816000  1
  C  C43  1  0.78795900  0.58405500  0.12184000  1
  C  C44  1  0.79609600  0.58405500  0.62184000  1
  C  C45  1  0.20390400  0.41594500  0.37816000  1
  C  C46  1  0.59004800  0.55480600  0.84286800  1
  C  C47  1  0.40995200  0.44519400  0.15713200  1
  C  C48  1  0.03524300  0.44519400  0.65713200  1
  C  C49  1  0.96475700  0.55480600  0.34286800  1
  C  C50  1  0.46321600  0.83988500  0.65854500  1
  C  C51  1  0.53678400  0.16011500  0.34145500  1
  C  C52  1  0.62333100  0.16011500  0.84145500  1
  C  C53  1  0.37666900  0.83988500  0.15854500  1
  C  C54  1  0.61830000  0.74198000  0.79641300  1
  C  C55  1  0.38170000  0.25802000  0.20358700  1
  C  C56  1  0.87632100  0.25802000  0.70358700  1
  C  C57  1  0.12367900  0.74198000  0.29641300  1
  C  C58  1  0.24529500  0.04238800  0.90175100  1
  C  C59  1  0.75470500  0.95761200  0.09824900  1
  C  C60  1  0.20290700  0.95761200  0.59824900  1
  C  C61  1  0.79709300  0.04238800  0.40175100  1
  C  C62  1  0.80022500  0.85002600  0.43324400  1
  C  C63  1  0.19977500  0.14997400  0.56675600  1
  C  C64  1  0.95019900  0.14997400  0.06675600  1
  C  C65  1  0.04980100  0.85002600  0.93324400  1
  C  C66  1  0.69216000  0.39005200  0.87955900  1
  C  C67  1  0.30784000  0.60994800  0.12044100  1
  C  C68  1  0.30210700  0.60994800  0.62044100  1
  C  C69  1  0.69789300  0.39005200  0.37955900  1
  C  C70  1  0.69717600  0.95791400  0.89783200  1
  C  C71  1  0.30282400  0.04208600  0.10216800  1
  C  C72  1  0.73926200  0.04208600  0.60216800  1
  C  C73  1  0.26073800  0.95791400  0.39783200  1
  C  C74  1  0.43152000  0.35152600  0.70979100  1
  C  C75  1  0.56848000  0.64847400  0.29020900  1
  C  C76  1  0.07999400  0.64847400  0.79020900  1
  C  C77  1  0.92000600  0.35152600  0.20979100  1
  C  C78  1  0.14756900  0.18348000  0.82603000  1
  C  C79  1  0.85243100  0.81652000  0.17397000  1
  C  C80  1  0.96408900  0.81652000  0.67397000  1
  C  C81  1  0.03591100  0.18348000  0.32603000  1
  C  C82  1  0.59254000  0.74801500  0.99395300  1
  C  C83  1  0.40746000  0.25198500  0.00604700  1
  C  C84  1  0.84452500  0.25198500  0.50604700  1
  C  C85  1  0.15547500  0.74801500  0.49395300  1
  C  C86  1  0.61958600  0.66910200  0.49352100  1
  C  C87  1  0.38041400  0.33089800  0.50647900  1
  C  C88  1  0.95048300  0.33089800  0.00647900  1
  C  C89  1  0.04951700  0.66910200  0.99352100  1
