# generated using pymatgen
data_Cu10NiC35
_symmetry_space_group_name_H-M   'P 1'
_cell_length_a   13.93744791
_cell_length_b   13.93744791
_cell_length_c   13.93744788
_cell_angle_alpha   45.07607803
_cell_angle_beta   45.07607803
_cell_angle_gamma   45.07607778
_symmetry_Int_Tables_number   1
_chemical_formula_structural   Cu10NiC35
_chemical_formula_sum   'Cu20 Ni2 C70'
_cell_volume   1235.57390868
_cell_formula_units_Z   2
loop_
 _symmetry_equiv_pos_site_id
 _symmetry_equiv_pos_as_xyz
  1  'x, y, z'
loop_
 _atom_site_type_symbol
 _atom_site_label
 _atom_site_symmetry_multiplicity
 _atom_site_fract_x
 _atom_site_fract_y
 _atom_site_fract_z
 _atom_site_occupancy
  Ni  Ni0  1  0.66629000  0.66629000  0.66629000  1
  Ni  Ni1  1  0.16629000  0.16629000  0.16629000  1
  Cu  Cu2  1  0.98679300  0.98679300  0.98679300  1
  Cu  Cu3  1  0.48679300  0.48679300  0.48679300  1
  Cu  Cu4  1  0.04914500  0.64462100  0.06090400  1
  Cu  Cu5  1  0.06090400  0.04914500  0.64462100  1
  Cu  Cu6  1  0.64462100  0.06090400  0.04914500  1
  Cu  Cu7  1  0.56090400  0.14462100  0.54914500  1
  Cu  Cu8  1  0.54914500  0.56090400  0.14462100  1
  Cu  Cu9  1  0.14462100  0.54914500  0.56090400  1
  Cu  Cu10  1  0.83009200  0.43189400  0.40104600  1
  Cu  Cu11  1  0.40104600  0.83009200  0.43189400  1
  Cu  Cu12  1  0.43189400  0.40104600  0.83009200  1
  Cu  Cu13  1  0.90104600  0.93189400  0.33009200  1
  Cu  Cu14  1  0.33009200  0.90104600  0.93189400  1
  Cu  Cu15  1  0.93189400  0.33009200  0.90104600  1
  Cu  Cu16  1  0.05461200  0.43062200  0.45316100  1
  Cu  Cu17  1  0.45316100  0.05461200  0.43062200  1
  Cu  Cu18  1  0.43062200  0.45316100  0.05461200  1
  Cu  Cu19  1  0.95316100  0.93062200  0.55461200  1
  Cu  Cu20  1  0.55461200  0.95316100  0.93062200  1
  Cu  Cu21  1  0.93062200  0.55461200  0.95316100  1
  C  C22  1  0.25581000  0.25581000  0.25581000  1
  C  C23  1  0.75581000  0.75581000  0.75581000  1
  C  C24  1  0.67311300  0.71131300  0.17346900  1
  C  C25  1  0.17346900  0.67311300  0.71131300  1
  C  C26  1  0.71131300  0.17346900  0.67311300  1
  C  C27  1  0.67346900  0.21131300  0.17311300  1
  C  C28  1  0.17311300  0.67346900  0.21131300  1
  C  C29  1  0.21131300  0.17311300  0.67346900  1
  C  C30  1  0.76442300  0.80067700  0.29851000  1
  C  C31  1  0.29851000  0.76442300  0.80067700  1
  C  C32  1  0.80067700  0.29851000  0.76442300  1
  C  C33  1  0.79851000  0.30067700  0.26442300  1
  C  C34  1  0.26442300  0.79851000  0.30067700  1
  C  C35  1  0.30067700  0.26442300  0.79851000  1
  C  C36  1  0.29751500  0.29751500  0.29751500  1
  C  C37  1  0.79751500  0.79751500  0.79751500  1
  C  C38  1  0.09758900  0.37451800  0.25665900  1
  C  C39  1  0.25665900  0.09758900  0.37451800  1
  C  C40  1  0.37451800  0.25665900  0.09758900  1
  C  C41  1  0.75665900  0.87451800  0.59758900  1
  C  C42  1  0.59758900  0.75665900  0.87451800  1
  C  C43  1  0.87451800  0.59758900  0.75665900  1
  C  C44  1  0.60812400  0.63371700  0.34727800  1
  C  C45  1  0.34727800  0.60812400  0.63371700  1
  C  C46  1  0.63371700  0.34727800  0.60812400  1
  C  C47  1  0.84727800  0.13371700  0.10812400  1
  C  C48  1  0.10812400  0.84727800  0.13371700  1
  C  C49  1  0.13371700  0.10812400  0.84727800  1
  C  C50  1  0.58740100  0.88274400  0.12522000  1
  C  C51  1  0.12522000  0.58740100  0.88274400  1
  C  C52  1  0.88274400  0.12522000  0.58740100  1
  C  C53  1  0.62522000  0.38274400  0.08740100  1
  C  C54  1  0.08740100  0.62522000  0.38274400  1
  C  C55  1  0.38274400  0.08740100  0.62522000  1
  C  C56  1  0.65080000  0.67457000  0.10949700  1
  C  C57  1  0.10949700  0.65080000  0.67457000  1
  C  C58  1  0.67457000  0.10949700  0.65080000  1
  C  C59  1  0.60949700  0.17457000  0.15080000  1
  C  C60  1  0.15080000  0.60949700  0.17457000  1
  C  C61  1  0.17457000  0.15080000  0.60949700  1
  C  C62  1  0.84291900  0.65203500  0.11324000  1
  C  C63  1  0.11324000  0.84291900  0.65203500  1
  C  C64  1  0.65203500  0.11324000  0.84291900  1
  C  C65  1  0.61324000  0.15203500  0.34291900  1
  C  C66  1  0.34291900  0.61324000  0.15203500  1
  C  C67  1  0.15203500  0.34291900  0.61324000  1
  C  C68  1  0.59630200  0.87866300  0.33209800  1
  C  C69  1  0.33209800  0.59630200  0.87866300  1
  C  C70  1  0.87866300  0.33209800  0.59630200  1
  C  C71  1  0.83209800  0.37866300  0.09630200  1
  C  C72  1  0.09630200  0.83209800  0.37866300  1
  C  C73  1  0.37866300  0.09630200  0.83209800  1
  C  C74  1  0.85031600  0.85681900  0.12469300  1
  C  C75  1  0.12469300  0.85031600  0.85681900  1
  C  C76  1  0.85681900  0.12469300  0.85031600  1
  C  C77  1  0.62469300  0.35681900  0.35031600  1
  C  C78  1  0.35031600  0.62469300  0.35681900  1
  C  C79  1  0.35681900  0.35031600  0.62469300  1
  C  C80  1  0.83008600  0.62832000  0.36838500  1
  C  C81  1  0.36838500  0.83008600  0.62832000  1
  C  C82  1  0.62832000  0.36838500  0.83008600  1
  C  C83  1  0.86838500  0.12832000  0.33008600  1
  C  C84  1  0.33008600  0.86838500  0.12832000  1
  C  C85  1  0.12832000  0.33008600  0.86838500  1
  C  C86  1  0.77609700  0.85416800  0.35487000  1
  C  C87  1  0.35487000  0.77609700  0.85416800  1
  C  C88  1  0.85416800  0.35487000  0.77609700  1
  C  C89  1  0.85487000  0.35416800  0.27609700  1
  C  C90  1  0.27609700  0.85487000  0.35416800  1
  C  C91  1  0.35416800  0.27609700  0.85487000  1
