# generated using pymatgen
data_CuNiC8
_symmetry_space_group_name_H-M   'P 1'
_cell_length_a   8.08721126
_cell_length_b   8.14198145
_cell_length_c   8.04801570
_cell_angle_alpha   90.00000000
_cell_angle_beta   90.00000000
_cell_angle_gamma   90.00000000
_symmetry_Int_Tables_number   1
_chemical_formula_structural   CuNiC8
_chemical_formula_sum   'Cu4 Ni4 C32'
_cell_volume   529.92903063
_cell_formula_units_Z   4
loop_
 _symmetry_equiv_pos_site_id
 _symmetry_equiv_pos_as_xyz
  1  'x, y, z'
loop_
 _atom_site_type_symbol
 _atom_site_label
 _atom_site_symmetry_multiplicity
 _atom_site_fract_x
 _atom_site_fract_y
 _atom_site_fract_z
 _atom_site_occupancy
  Ni  Ni0  1  0.00000000  0.50000000  0.50000000  1
  Ni  Ni1  1  0.50000000  0.50000000  0.00000000  1
  Ni  Ni2  1  0.50000000  0.00000000  0.00000000  1
  Ni  Ni3  1  0.00000000  0.00000000  0.50000000  1
  Cu  Cu4  1  0.50000000  0.00000000  0.50000000  1
  Cu  Cu5  1  0.00000000  0.50000000  0.00000000  1
  Cu  Cu6  1  0.00000000  0.00000000  0.00000000  1
  Cu  Cu7  1  0.50000000  0.50000000  0.50000000  1
  C  C8  1  0.25000000  0.25000000  0.25000000  1
  C  C9  1  0.75000000  0.75000000  0.25000000  1
  C  C10  1  0.75000000  0.25000000  0.75000000  1
  C  C11  1  0.25000000  0.75000000  0.75000000  1
  C  C12  1  0.75000000  0.75000000  0.75000000  1
  C  C13  1  0.25000000  0.25000000  0.75000000  1
  C  C14  1  0.25000000  0.75000000  0.25000000  1
  C  C15  1  0.75000000  0.25000000  0.25000000  1
  C  C16  1  0.01102437  0.21124204  0.27019713  1
  C  C17  1  0.98897563  0.78875796  0.27019713  1
  C  C18  1  0.98897563  0.21124204  0.72980287  1
  C  C19  1  0.01102437  0.78875796  0.72980287  1
  C  C20  1  0.28209329  0.01096571  0.21547647  1
  C  C21  1  0.28209329  0.98903429  0.78452353  1
  C  C22  1  0.71790671  0.98903429  0.21547647  1
  C  C23  1  0.71790671  0.01096571  0.78452353  1
  C  C24  1  0.20406342  0.27720753  0.00898239  1
  C  C25  1  0.79593658  0.27720753  0.99101761  1
  C  C26  1  0.20406342  0.72279247  0.99101761  1
  C  C27  1  0.79593658  0.72279247  0.00898239  1
  C  C28  1  0.48897563  0.28875796  0.22980287  1
  C  C29  1  0.51102437  0.71124204  0.22980287  1
  C  C30  1  0.51102437  0.28875796  0.77019713  1
  C  C31  1  0.48897563  0.71124204  0.77019713  1
  C  C32  1  0.21790671  0.48903429  0.28452353  1
  C  C33  1  0.21790671  0.51096571  0.71547647  1
  C  C34  1  0.78209329  0.51096571  0.28452353  1
  C  C35  1  0.78209329  0.48903429  0.71547647  1
  C  C36  1  0.29593658  0.22279247  0.49101761  1
  C  C37  1  0.70406342  0.22279247  0.50898239  1
  C  C38  1  0.29593658  0.77720753  0.50898239  1
  C  C39  1  0.70406342  0.77720753  0.49101761  1
