# generated using pymatgen
data_Cu3Ni5
_symmetry_space_group_name_H-M   'P 1'
_cell_length_a   5.87855400
_cell_length_b   5.87855400
_cell_length_c   14.42385200
_cell_angle_alpha   90.00000000
_cell_angle_beta   90.00000000
_cell_angle_gamma   90.00000000
_symmetry_Int_Tables_number   1
_chemical_formula_structural   Cu3Ni5
_chemical_formula_sum   'Cu12 Ni20'
_cell_volume   498.45078172
_cell_formula_units_Z   4
loop_
 _symmetry_equiv_pos_site_id
 _symmetry_equiv_pos_as_xyz
  1  'x, y, z'
loop_
 _atom_site_type_symbol
 _atom_site_label
 _atom_site_symmetry_multiplicity
 _atom_site_fract_x
 _atom_site_fract_y
 _atom_site_fract_z
 _atom_site_occupancy
  Ni  Ni0  1  0.23031400  0.34933800  0.05165000  1
  Ni  Ni1  1  0.76968600  0.65066200  0.05165000  1
  Ni  Ni2  1  0.34933800  0.76968600  0.94835000  1
  Ni  Ni3  1  0.73031400  0.15066200  0.55165000  1
  Ni  Ni4  1  0.65066200  0.23031400  0.94835000  1
  Ni  Ni5  1  0.26968600  0.84933800  0.55165000  1
  Ni  Ni6  1  0.84933800  0.73031400  0.44835000  1
  Ni  Ni7  1  0.15066200  0.26968600  0.44835000  1
  Ni  Ni8  1  0.34227900  0.30347800  0.65128700  1
  Ni  Ni9  1  0.65772100  0.69652200  0.65128700  1
  Ni  Ni10  1  0.30347800  0.65772100  0.34871300  1
  Ni  Ni11  1  0.84227900  0.19652200  0.15128700  1
  Ni  Ni12  1  0.69652200  0.34227900  0.34871300  1
  Ni  Ni13  1  0.15772100  0.80347800  0.15128700  1
  Ni  Ni14  1  0.80347800  0.84227900  0.84871300  1
  Ni  Ni15  1  0.19652200  0.15772100  0.84871300  1
  Ni  Ni16  1  0.32920600  0.17079400  0.25000000  1
  Ni  Ni17  1  0.67079400  0.82920600  0.25000000  1
  Ni  Ni18  1  0.17079400  0.67079400  0.75000000  1
  Ni  Ni19  1  0.82920600  0.32920600  0.75000000  1
  Cu  Cu20  1  0.00000000  0.00000000  0.32865400  1
  Cu  Cu21  1  0.00000000  0.00000000  0.67134600  1
  Cu  Cu22  1  0.50000000  0.50000000  0.82865400  1
  Cu  Cu23  1  0.50000000  0.50000000  0.17134600  1
  Cu  Cu24  1  0.00000000  0.50000000  0.58630900  1
  Cu  Cu25  1  0.50000000  0.00000000  0.41369100  1
  Cu  Cu26  1  0.50000000  0.00000000  0.08630900  1
  Cu  Cu27  1  0.00000000  0.50000000  0.91369100  1
  Cu  Cu28  1  0.00000000  0.50000000  0.25000000  1
  Cu  Cu29  1  0.50000000  0.00000000  0.75000000  1
  Cu  Cu30  1  0.00000000  0.00000000  0.00000000  1
  Cu  Cu31  1  0.50000000  0.50000000  0.50000000  1
