# generated using pymatgen
data_CuNiC2
_symmetry_space_group_name_H-M   'P 1'
_cell_length_a   3.14040200
_cell_length_b   8.20797171
_cell_length_c   8.27042538
_cell_angle_alpha   107.42978982
_cell_angle_beta   88.69607716
_cell_angle_gamma   98.79742590
_symmetry_Int_Tables_number   1
_chemical_formula_structural   CuNiC2
_chemical_formula_sum   'Cu4 Ni4 C8'
_cell_volume   200.93997500
_cell_formula_units_Z   4
loop_
 _symmetry_equiv_pos_site_id
 _symmetry_equiv_pos_as_xyz
  1  'x, y, z'
loop_
 _atom_site_type_symbol
 _atom_site_label
 _atom_site_symmetry_multiplicity
 _atom_site_fract_x
 _atom_site_fract_y
 _atom_site_fract_z
 _atom_site_occupancy
  Ni  Ni0  1  0.25963800  0.08980500  0.45541300  1
  Ni  Ni1  1  0.89456200  0.46702200  0.77437000  1
  Ni  Ni2  1  0.26038900  0.51522500  0.12662700  1
  Ni  Ni3  1  0.65124100  0.76442100  0.53091300  1
  Cu  Cu4  1  0.19271100  0.10082600  0.84240000  1
  Cu  Cu5  1  0.56085400  0.83472200  0.04928800  1
  Cu  Cu6  1  0.67828200  0.20235300  0.19901400  1
  Cu  Cu7  1  0.21929000  0.41592100  0.43771600  1
  C  C8  1  0.11657500  0.62213300  0.36792900  1
  C  C9  1  0.66025200  0.04425100  0.96782500  1
  C  C10  1  0.51755700  0.56854400  0.65827400  1
  C  C11  1  0.84923500  0.26266700  0.56771300  1
  C  C12  1  0.70607900  0.98964500  0.29052600  1
  C  C13  1  0.28124200  0.35757500  0.88917900  1
  C  C14  1  0.20050600  0.93506400  0.61408700  1
  C  C15  1  0.98331100  0.66916200  0.00310800  1
