# generated using pymatgen
data_Cu3(NiC9)2
_symmetry_space_group_name_H-M   'P 1'
_cell_length_a   8.54089385
_cell_length_b   8.54089385
_cell_length_c   5.23524800
_cell_angle_alpha   90.00000000
_cell_angle_beta   90.00000000
_cell_angle_gamma   119.99999883
_symmetry_Int_Tables_number   1
_chemical_formula_structural   Cu3(NiC9)2
_chemical_formula_sum   'Cu3 Ni2 C18'
_cell_volume   330.73072647
_cell_formula_units_Z   1
loop_
 _symmetry_equiv_pos_site_id
 _symmetry_equiv_pos_as_xyz
  1  'x, y, z'
loop_
 _atom_site_type_symbol
 _atom_site_label
 _atom_site_symmetry_multiplicity
 _atom_site_fract_x
 _atom_site_fract_y
 _atom_site_fract_z
 _atom_site_occupancy
  C  C0  1  0.74900300  0.74900300  0.50000000  1
  C  C1  1  0.00000000  0.25099700  0.50000000  1
  C  C2  1  0.25099700  0.00000000  0.50000000  1
  Ni  Ni3  1  0.33333300  0.66666700  0.45511300  1
  Ni  Ni4  1  0.66666700  0.33333300  0.54488700  1
  Cu  Cu5  1  0.00000000  0.59398800  0.00000000  1
  Cu  Cu6  1  0.59398800  0.00000000  0.00000000  1
  Cu  Cu7  1  0.40601200  0.40601200  0.00000000  1
  C  C8  1  0.00000000  0.00000000  0.00000000  1
  C  C9  1  0.91071700  0.78457000  0.21449200  1
  C  C10  1  0.87385400  0.08928300  0.21449200  1
  C  C11  1  0.21543000  0.12614600  0.21449200  1
  C  C12  1  0.12614600  0.21543000  0.78550800  1
  C  C13  1  0.08928300  0.87385400  0.78550800  1
  C  C14  1  0.78457000  0.91071700  0.78550800  1
  C  C15  1  0.33333300  0.66666700  0.74859300  1
  C  C16  1  0.66666700  0.33333300  0.25140700  1
  C  C17  1  0.52254200  0.71859800  0.33825300  1
  C  C18  1  0.19605700  0.47745800  0.33825300  1
  C  C19  1  0.28140200  0.80394300  0.33825300  1
  C  C20  1  0.80394300  0.28140200  0.66174700  1
  C  C21  1  0.47745800  0.19605700  0.66174700  1
  C  C22  1  0.71859800  0.52254200  0.66174700  1
