# generated using pymatgen
data_Cu5Ni2C25
_symmetry_space_group_name_H-M   'P 1'
_cell_length_a   5.81380600
_cell_length_b   5.86717819
_cell_length_c   10.06985783
_cell_angle_alpha   73.07598331
_cell_angle_beta   74.16383951
_cell_angle_gamma   60.64637021
_symmetry_Int_Tables_number   1
_chemical_formula_structural   Cu5Ni2C25
_chemical_formula_sum   'Cu5 Ni2 C25'
_cell_volume   282.91046715
_cell_formula_units_Z   1
loop_
 _symmetry_equiv_pos_site_id
 _symmetry_equiv_pos_as_xyz
  1  'x, y, z'
loop_
 _atom_site_type_symbol
 _atom_site_label
 _atom_site_symmetry_multiplicity
 _atom_site_fract_x
 _atom_site_fract_y
 _atom_site_fract_z
 _atom_site_occupancy
  C  C0  1  0.49459500  0.50614700  0.00456500  1
  C  C1  1  0.74987600  0.25036900  0.25420900  1
  C  C2  1  0.00149000  0.99654400  0.49786300  1
  C  C3  1  0.99273700  0.50247000  0.00184300  1
  C  C4  1  0.25205300  0.24553500  0.25315400  1
  C  C5  1  0.50658000  0.99743900  0.49844000  1
  C  C6  1  0.75784800  0.74856200  0.74479000  1
  C  C7  1  0.24967900  0.74966900  0.74559600  1
  C  C8  1  0.25575700  0.75163100  0.24936600  1
  Ni  Ni9  1  0.00020100  0.99835900  0.00444100  1
  Ni  Ni10  1  0.74931800  0.74762300  0.24791800  1
  Cu  Cu11  1  0.49555000  0.50565300  0.49228900  1
  Cu  Cu12  1  0.74248700  0.25304800  0.74764300  1
  Cu  Cu13  1  0.49415400  0.99869900  0.00276500  1
  Cu  Cu14  1  0.00943900  0.50833600  0.49422400  1
  Cu  Cu15  1  0.24835300  0.25164400  0.74987400  1
  C  C16  1  0.87740100  0.34809900  0.87900000  1
  C  C17  1  0.13531400  0.11262700  0.11039000  1
  C  C18  1  0.40770800  0.86262900  0.36748200  1
  C  C19  1  0.37642100  0.34622700  0.87636000  1
  C  C20  1  0.63965800  0.09943400  0.12073000  1
  C  C21  1  0.87958900  0.84600900  0.37430100  1
  C  C22  1  0.13619600  0.61567900  0.62323600  1
  C  C23  1  0.63232100  0.60115300  0.62394900  1
  C  C24  1  0.09667400  0.65617400  0.12385700  1
  C  C25  1  0.38265700  0.37718900  0.38449100  1
  C  C26  1  0.61767800  0.13276300  0.63173600  1
  C  C27  1  0.62395300  0.65456900  0.12506600  1
  C  C28  1  0.87171000  0.39909100  0.36501300  1
  C  C29  1  0.11795700  0.14711200  0.62821000  1
  C  C30  1  0.35239000  0.88816400  0.89122200  1
  C  C31  1  0.85225600  0.90135200  0.88597600  1
