# generated using pymatgen
data_Cu2NiC3
_symmetry_space_group_name_H-M   'P 1'
_cell_length_a   5.08984960
_cell_length_b   5.08984960
_cell_length_c   6.27863800
_cell_angle_alpha   90.00000000
_cell_angle_beta   90.00000000
_cell_angle_gamma   107.56944779
_symmetry_Int_Tables_number   1
_chemical_formula_structural   Cu2NiC3
_chemical_formula_sum   'Cu4 Ni2 C6'
_cell_volume   155.07026173
_cell_formula_units_Z   2
loop_
 _symmetry_equiv_pos_site_id
 _symmetry_equiv_pos_as_xyz
  1  'x, y, z'
loop_
 _atom_site_type_symbol
 _atom_site_label
 _atom_site_symmetry_multiplicity
 _atom_site_fract_x
 _atom_site_fract_y
 _atom_site_fract_z
 _atom_site_occupancy
  Ni  Ni0  1  0.31181900  0.68818100  0.75051300  1
  Ni  Ni1  1  0.68818100  0.31181900  0.25051300  1
  Cu  Cu2  1  0.59426100  0.82167500  0.73293500  1
  Cu  Cu3  1  0.40573900  0.17832500  0.23293500  1
  Cu  Cu4  1  0.17832500  0.40573900  0.73293500  1
  Cu  Cu5  1  0.82167500  0.59426100  0.23293500  1
  C  C6  1  0.35081200  0.64918800  0.01103600  1
  C  C7  1  0.27483000  0.72517000  0.49079900  1
  C  C8  1  0.87729200  0.12270800  0.29878200  1
  C  C9  1  0.12270800  0.87729200  0.79878200  1
  C  C10  1  0.72517000  0.27483000  0.99079900  1
  C  C11  1  0.64918800  0.35081200  0.51103600  1
