# generated using pymatgen
data_Cu5NiC31
_symmetry_space_group_name_H-M   'P 1'
_cell_length_a   8.88445807
_cell_length_b   8.85572210
_cell_length_c   22.93046164
_cell_angle_alpha   90.10624005
_cell_angle_beta   89.89322750
_cell_angle_gamma   119.92575754
_symmetry_Int_Tables_number   1
_chemical_formula_structural   Cu5NiC31
_chemical_formula_sum   'Cu15 Ni3 C93'
_cell_volume   1563.58597778
_cell_formula_units_Z   3
loop_
 _symmetry_equiv_pos_site_id
 _symmetry_equiv_pos_as_xyz
  1  'x, y, z'
loop_
 _atom_site_type_symbol
 _atom_site_label
 _atom_site_symmetry_multiplicity
 _atom_site_fract_x
 _atom_site_fract_y
 _atom_site_fract_z
 _atom_site_occupancy
  C  C0  1  0.36633862  0.00015135  0.74959369  1
  C  C1  1  0.66446285  0.97022380  0.58519903  1
  C  C2  1  0.67003958  0.69555621  0.08286644  1
  C  C3  1  0.01328780  0.00055722  0.49926439  1
  C  C4  1  0.01017728  0.00556682  0.00021086  1
  C  C5  1  0.67588940  0.33870488  0.83384027  1
  C  C6  1  0.66661517  0.33323244  0.33318867  1
  C  C7  1  0.32024029  0.66565433  0.16712744  1
  C  C8  1  0.32866991  0.65585058  0.66645534  1
  C  C9  1  0.99405693  0.99994941  0.85415358  1
  C  C10  1  0.00208695  0.99904995  0.64752060  1
  C  C11  1  0.66920309  0.33246271  0.68551586  1
  C  C12  1  0.67187735  0.33522974  0.18713701  1
  C  C13  1  0.67013831  0.33593617  0.98052432  1
  C  C14  1  0.66178460  0.33192706  0.47873764  1
  Ni  Ni15  1  0.70506799  0.99754101  0.74962770  1
  Ni  Ni16  1  0.37038839  0.03795683  0.58239253  1
  Ni  Ni17  1  0.96392569  0.62845124  0.08397254  1
  C  C18  1  0.00058367  0.99993121  0.35250790  1
  C  C19  1  0.00564009  0.00256684  0.14881648  1
  C  C20  1  0.32686957  0.66679939  0.01896035  1
  C  C21  1  0.32895494  0.66518529  0.51747312  1
  C  C22  1  0.33288183  0.66678989  0.31399918  1
  C  C23  1  0.33547833  0.66460925  0.81505788  1
  Cu  Cu24  1  0.29084442  0.99851493  0.25123939  1
  Cu  Cu25  1  0.70703302  0.71036583  0.25044642  1
  Cu  Cu26  1  0.00233646  0.29083097  0.25103724  1
  Cu  Cu27  1  0.28914053  0.29310590  0.75080999  1
  Cu  Cu28  1  0.99952240  0.70740583  0.75177568  1
  Cu  Cu29  1  0.96075788  0.33733276  0.58196090  1
  Cu  Cu30  1  0.66434640  0.62313027  0.58218244  1
  Cu  Cu31  1  0.66765575  0.04183004  0.08362427  1
  Cu  Cu32  1  0.37421959  0.33141959  0.08320146  1
  Cu  Cu33  1  0.62201606  0.66525172  0.91823208  1
  Cu  Cu34  1  0.04494558  0.37813314  0.91657161  1
  Cu  Cu35  1  0.33352165  0.95891969  0.91597800  1
  Cu  Cu36  1  0.62651540  0.95628702  0.41595558  1
  Cu  Cu37  1  0.33058859  0.37576198  0.41541534  1
  Cu  Cu38  1  0.04302880  0.66863725  0.41523278  1
  C  C39  1  0.21027288  0.03117617  0.30615380  1
  C  C40  1  0.82224242  0.79276277  0.30452510  1
  C  C41  1  0.96998339  0.17822544  0.30588494  1
  C  C42  1  0.20804308  0.17500898  0.80460457  1
  C  C43  1  0.97712425  0.79590160  0.80605095  1
  C  C44  1  0.82663796  0.02508536  0.80598941  1
  C  C45  1  0.78952445  0.96970781  0.69009475  1
  C  C46  1  0.17794870  0.20573869  0.69619622  1
  C  C47  1  0.03583407  0.82602719  0.69754239  1
  C  C48  1  0.78406505  0.81938032  0.19372663  1
  C  C49  1  0.03495185  0.21147324  0.19540141  1
  C  C50  1  0.17790297  0.96412011  0.19593303  1
  C  C51  1  0.87639064  0.36549265  0.63699390  1
  C  C52  1  0.49232274  0.12306860  0.64100772  1
  C  C53  1  0.63930918  0.51321383  0.63716102  1
  C  C54  1  0.86756809  0.50741706  0.14070692  1
  C  C55  1  0.63658289  0.12445143  0.13799796  1
  C  C56  1  0.48973827  0.36230878  0.13735265  1
  C  C57  1  0.45807341  0.30282112  0.02848678  1
  C  C58  1  0.83581927  0.53922406  0.02766940  1
  C  C59  1  0.69211045  0.15216389  0.02891836  1
  C  C60  1  0.47005584  0.16042092  0.52642756  1
  C  C61  1  0.69390327  0.53962194  0.52782248  1
  C  C62  1  0.84437735  0.30647198  0.52830609  1
  C  C63  1  0.54453885  0.69678484  0.97478740  1
  C  C64  1  0.15800968  0.45692987  0.97143540  1
  C  C65  1  0.30220053  0.84381334  0.97030654  1
  C  C66  1  0.54976809  0.84765056  0.47271710  1
  C  C67  1  0.29818105  0.45497602  0.47112825  1
  C  C68  1  0.15554150  0.70268832  0.47063149  1
  C  C69  1  0.12372946  0.63607587  0.36040668  1
  C  C70  1  0.51107975  0.87353181  0.36201832  1
  C  C71  1  0.36288828  0.48844463  0.36064908  1
  C  C72  1  0.12325792  0.49041221  0.86121996  1
  C  C73  1  0.36373404  0.88051471  0.85915704  1
  C  C74  1  0.50846717  0.63320393  0.86364105  1
  C  C75  1  0.02583397  0.83468329  0.41017272  1
  C  C76  1  0.80878417  0.97317745  0.41033896  1
  C  C77  1  0.16626264  0.19220954  0.41042092  1
  C  C78  1  0.02754905  0.19669116  0.91060625  1
  C  C79  1  0.17069838  0.97698900  0.91037679  1
  C  C80  1  0.80381164  0.82796772  0.91177948  1
  C  C81  1  0.96996639  0.16813658  0.58906686  1
  C  C82  1  0.17942492  0.01723836  0.58816172  1
  C  C83  1  0.82324296  0.80927312  0.58855565  1
  C  C84  1  0.96992984  0.81750176  0.08944690  1
  C  C85  1  0.83085917  0.02106079  0.08980765  1
  C  C86  1  0.19042959  0.17214669  0.08919478  1
  C  C87  1  0.67882765  0.16853918  0.74553739  1
  C  C88  1  0.47060190  0.31008152  0.74331783  1
  C  C89  1  0.83701076  0.52810687  0.74432112  1
  C  C90  1  0.68630050  0.52721376  0.24411349  1
  C  C91  1  0.83822619  0.30788038  0.24451643  1
  C  C92  1  0.47191063  0.16067287  0.24401690  1
  C  C93  1  0.63933301  0.50078928  0.92329164  1
  C  C94  1  0.86259617  0.35795254  0.92325010  1
  C  C95  1  0.49782512  0.13950790  0.92275940  1
  C  C96  1  0.64715442  0.13934862  0.42200752  1
  C  C97  1  0.49452113  0.35836805  0.42162820  1
  C  C98  1  0.86196757  0.50653141  0.42213525  1
  C  C99  1  0.36850723  0.50418155  0.07712734  1
  C  C100  1  0.15526115  0.64671185  0.07934577  1
  C  C101  1  0.50981026  0.85337253  0.07737359  1
  C  C102  1  0.36586632  0.84983971  0.57701403  1
  C  C103  1  0.50171936  0.64478864  0.57622215  1
  C  C104  1  0.14362744  0.49744385  0.57675162  1
  C  C105  1  0.30792235  0.83249732  0.25642580  1
  C  C106  1  0.52481668  0.69332891  0.25622312  1
  C  C107  1  0.16665060  0.47423040  0.25616277  1
  C  C108  1  0.30434822  0.47324286  0.75621992  1
  C  C109  1  0.16672247  0.69340558  0.75682796  1
  C  C110  1  0.50700419  0.82843438  0.75528966  1
