# generated using pymatgen
data_Cu9(NiC26)4
_symmetry_space_group_name_H-M   'P 1'
_cell_length_a   9.03285325
_cell_length_b   9.02040332
_cell_length_c   22.45198126
_cell_angle_alpha   89.80152827
_cell_angle_beta   89.97921899
_cell_angle_gamma   120.11072961
_symmetry_Int_Tables_number   1
_chemical_formula_structural   Cu9(NiC26)4
_chemical_formula_sum   'Cu9 Ni4 C104'
_cell_volume   1582.51074045
_cell_formula_units_Z   1
loop_
 _symmetry_equiv_pos_site_id
 _symmetry_equiv_pos_as_xyz
  1  'x, y, z'
loop_
 _atom_site_type_symbol
 _atom_site_label
 _atom_site_symmetry_multiplicity
 _atom_site_fract_x
 _atom_site_fract_y
 _atom_site_fract_z
 _atom_site_occupancy
  C  C0  1  0.64059924  0.01913101  0.24121556  1
  C  C1  1  0.98317742  0.62340217  0.24075690  1
  C  C2  1  0.63825582  0.62151634  0.74134573  1
  C  C3  1  0.37500229  0.02021806  0.74161900  1
  C  C4  1  0.31421204  0.33878254  0.58795534  1
  C  C5  1  0.96214275  0.68131988  0.91196249  1
  C  C6  1  0.71505757  0.03275328  0.91137331  1
  C  C7  1  0.96034461  0.28425313  0.41185222  1
  C  C8  1  0.71201146  0.68098155  0.41028802  1
  C  C9  1  0.00952093  0.99262287  0.49187824  1
  C  C10  1  0.01358182  0.00976958  0.99270982  1
  C  C11  1  0.66852635  0.33305879  0.82471223  1
  C  C12  1  0.63970219  0.32355755  0.32530199  1
  C  C13  1  0.33328998  0.65735955  0.16245788  1
  C  C14  1  0.31859049  0.66673879  0.66370606  1
  C  C15  1  0.99718796  0.99844430  0.64387934  1
  C  C16  1  0.99961087  0.99771095  0.14357558  1
  C  C17  1  0.66195789  0.33396042  0.98240811  1
  C  C18  1  0.66561465  0.33400494  0.48174806  1
  C  C19  1  0.33717149  0.67504699  0.02205958  1
  C  C20  1  0.32737317  0.66656787  0.52144486  1
  C  C21  1  0.33044168  0.66082446  0.31201203  1
  C  C22  1  0.33435986  0.66405756  0.81269863  1
  Ni  Ni23  1  0.01858990  0.00410566  0.35307060  1
  Ni  Ni24  1  0.00527997  0.00135529  0.85329134  1
  Ni  Ni25  1  0.67307976  0.33355701  0.67767831  1
  Ni  Ni26  1  0.66146225  0.33139002  0.17799551  1
  Cu  Cu27  1  0.95358906  0.33366123  0.58545555  1
  Cu  Cu28  1  0.37806444  0.04019691  0.58838549  1
  Cu  Cu29  1  0.66658744  0.62425406  0.58593937  1
  Cu  Cu30  1  0.95758762  0.62103161  0.08737567  1
  Cu  Cu31  1  0.66846083  0.04408112  0.08723297  1
  Cu  Cu32  1  0.62296625  0.66219911  0.91665964  1
  Cu  Cu33  1  0.33503007  0.96323214  0.91560268  1
  Cu  Cu34  1  0.33329900  0.37083566  0.41786256  1
  Cu  Cu35  1  0.03924338  0.66794200  0.41578805  1
  C  C36  1  0.29341773  0.00375639  0.25148039  1
  C  C37  1  0.70921418  0.70948064  0.25301840  1
  C  C38  1  0.00190909  0.28731413  0.25328275  1
  C  C39  1  0.28681120  0.28959574  0.75185162  1
  C  C40  1  -0.00153997  0.70696614  0.75319249  1
  C  C41  1  0.71136305  0.00244830  0.75430379  1
  C  C42  1  0.37606508  0.33509188  0.08581317  1
  C  C43  1  0.04475090  0.37950010  0.91868027  1
  C  C44  1  0.61613196  0.95728169  0.41555196  1
  C  C45  1  0.21155762  0.01763217  0.30803441  1
  C  C46  1  0.80807868  0.78963804  0.31016267  1
  C  C47  1  0.97931684  0.18657547  0.31046996  1
  C  C48  1  0.19895796  0.17812111  0.80539359  1
  C  C49  1  0.97781773  0.78422799  0.81077718  1
  C  C50  1  0.80218688  0.01153857  0.81215653  1
  C  C51  1  0.80617209  0.97792339  0.69927038  1
  C  C52  1  0.18337083  0.20695150  0.69290682  1
  C  C53  1  0.02646935  0.83156315  0.69880860  1
  C  C54  1  0.80750743  0.83175353  0.19790488  1
  C  C55  1  0.02390428  0.19598624  0.19764272  1
  C  C56  1  0.17544540  0.97506261  0.19572366  1
  C  C57  1  0.88296789  0.37617894  0.64271781  1
  C  C58  1  0.47527133  0.10977074  0.64962364  1
  C  C59  1  0.61234464  0.50700817  0.64429666  1
  C  C60  1  0.88496417  0.51935611  0.14794682  1
  C  C61  1  0.63227591  0.11100472  0.14746594  1
  C  C62  1  0.48183533  0.37008806  0.14056313  1
  C  C63  1  0.46626125  0.30722703  0.02925284  1
  C  C64  1  0.83309391  0.52748868  0.02791767  1
  C  C65  1  0.69140632  0.16482599  0.02749675  1
  C  C66  1  0.47646352  0.17299986  0.53108858  1
  C  C67  1  0.69831619  0.53098328  0.52661431  1
  C  C68  1  0.83819556  0.30313094  0.52396616  1
  C  C69  1  0.51357353  0.67749678  0.97149459  1
  C  C70  1  0.15293311  0.47209646  0.97307242  1
  C  C71  1  0.31637292  0.83630432  0.97191263  1
  C  C72  1  0.52108267  0.84145563  0.46911375  1
  C  C73  1  0.32133245  0.47591486  0.47522521  1
  C  C74  1  0.16119116  0.68109843  0.47179027  1
  C  C75  1  0.13874519  0.64213393  0.35666741  1
  C  C76  1  0.50884752  0.87025199  0.35771189  1
  C  C77  1  0.36403331  0.50437660  0.35968800  1
  C  C78  1  0.13572695  0.49630367  0.86205408  1
  C  C79  1  0.36349158  0.86387860  0.85655667  1
  C  C80  1  0.50193078  0.63580870  0.85627808  1
  C  C81  1  0.00382249  0.82378779  0.41481807  1
  C  C82  1  0.79302080  0.97516395  0.41322605  1
  C  C83  1  0.15805237  0.19299984  0.41537606  1
  C  C84  1  0.01390005  0.19898200  0.91424144  1
  C  C85  1  0.16362819  0.97202031  0.91420881  1
  C  C86  1  0.80728698  0.83310800  0.91520819  1
  C  C87  1  0.97888154  0.16278745  0.59165504  1
  C  C88  1  0.18826114  0.02999933  0.59096221  1
  C  C89  1  0.83958453  0.81399112  0.59233838  1
  C  C90  1  0.97977997  0.81650440  0.09171831  1
  C  C91  1  0.84446781  0.02840364  0.09132322  1
  C  C92  1  0.19614491  0.16879425  0.08944560  1
  C  C93  1  0.67291779  0.14785241  0.74871587  1
  C  C94  1  0.47063053  0.32213912  0.74862905  1
  C  C95  1  0.84101439  0.53052860  0.74527832  1
  C  C96  1  0.68378713  0.53074776  0.24529401  1
  C  C97  1  0.85087369  0.31922057  0.24834471  1
  C  C98  1  0.47665601  0.15186196  0.24542287  1
  C  C99  1  0.64276817  0.49098113  0.92198511  1
  C  C100  1  0.86874568  0.37563326  0.92177932  1
  C  C101  1  0.51852762  0.14364368  0.92177111  1
  C  C102  1  0.63123205  0.13574332  0.42063982  1
  C  C103  1  0.51409931  0.36839428  0.42101208  1
  C  C104  1  0.85626651  0.48335058  0.42030978  1
  C  C105  1  0.34576976  0.48653582  0.07330752  1
  C  C106  1  0.14852002  0.64716218  0.07434272  1
  C  C107  1  0.50632762  0.84833386  0.07463393  1
  C  C108  1  0.34756529  0.84961631  0.57453071  1
  C  C109  1  0.50379940  0.65152409  0.57167638  1
  C  C110  1  0.15364863  0.49063782  0.57485737  1
  C  C111  1  0.30232752  0.82875227  0.25314029  1
  C  C112  1  0.53184940  0.70803670  0.25349330  1
  C  C113  1  0.17183511  0.47329744  0.25520586  1
  C  C114  1  0.30116389  0.47354550  0.75484436  1
  C  C115  1  0.17182553  0.70136606  0.75447750  1
  C  C116  1  0.52787920  0.82443846  0.75354739  1
