# generated using pymatgen
data_CuNiC12
_symmetry_space_group_name_H-M   'P 1'
_cell_length_a   9.58267111
_cell_length_b   9.58586287
_cell_length_c   22.96475613
_cell_angle_alpha   89.66031861
_cell_angle_beta   89.50010344
_cell_angle_gamma   120.10968846
_symmetry_Int_Tables_number   1
_chemical_formula_structural   CuNiC12
_chemical_formula_sum   'Cu9 Ni9 C108'
_cell_volume   1824.65948174
_cell_formula_units_Z   9
loop_
 _symmetry_equiv_pos_site_id
 _symmetry_equiv_pos_as_xyz
  1  'x, y, z'
loop_
 _atom_site_type_symbol
 _atom_site_label
 _atom_site_symmetry_multiplicity
 _atom_site_fract_x
 _atom_site_fract_y
 _atom_site_fract_z
 _atom_site_occupancy
  C  C0  1  0.64091316  0.02883808  0.26235188  1
  C  C1  1  0.34528963  0.33719109  0.25508535  1
  C  C2  1  0.99898523  0.62039828  0.24153685  1
  C  C3  1  0.62198015  0.61692806  0.72800269  1
  C  C4  1  0.98691681  0.34289429  0.73233261  1
  C  C5  1  0.39838482  0.03481422  0.75101941  1
  C  C6  1  0.30588127  0.35994488  0.59516832  1
  C  C7  1  0.01126961  0.67165827  0.58603862  1
  C  C8  1  0.66699574  0.95149697  0.58081604  1
  C  C9  1  0.28306747  0.93559718  0.08291598  1
  C  C10  1  0.68013170  0.69303925  0.08148858  1
  C  C11  1  0.03285650  0.35683073  0.09892358  1
  C  C12  1  0.98597810  0.69695435  0.91987970  1
  C  C13  1  0.68616979  0.02287107  0.89567286  1
  C  C14  1  0.31204206  0.26317954  0.89899755  1
  C  C15  1  0.95119476  0.26879685  0.41848784  1
  C  C16  1  0.34125533  0.02860389  0.40758935  1
  C  C17  1  0.70251088  0.69454783  0.43357674  1
  C  C18  1  0.96613018  0.99852944  0.50251410  1
  C  C19  1  0.01056606  0.97809623  0.99368843  1
  C  C20  1  0.64389620  0.31236339  0.81798357  1
  C  C21  1  0.66481389  0.30022157  0.32803005  1
  C  C22  1  0.29993652  0.66574430  0.16961125  1
  C  C23  1  0.34161960  0.65105790  0.65891100  1
  C  C24  1  0.99617137  0.00972797  0.65274445  1
  C  C25  1  0.00934136  0.00234994  0.16002957  1
  C  C26  1  0.66526208  0.33026098  0.98851024  1
  C  C27  1  0.67327948  0.33067798  0.49269061  1
  C  C28  1  0.33444774  0.67615858  0.32119167  1
  C  C29  1  0.34120347  0.67622287  0.81687728  1
  C  C30  1  0.00587445  0.01901134  0.34611024  1
  C  C31  1  0.01240112  0.01155959  0.83724349  1
  C  C32  1  0.67623073  0.34115271  0.68037657  1
  C  C33  1  0.68581581  0.33577307  0.19036412  1
  C  C34  1  0.29827981  0.67193431  0.01543121  1
  C  C35  1  0.35849914  0.67035298  0.52282801  1
  Ni  Ni36  1  0.31534752  0.01431926  0.24999686  1
  Ni  Ni37  1  0.99590981  0.30481506  0.24920886  1
  Ni  Ni38  1  0.31676942  0.30463801  0.75001780  1
  Ni  Ni39  1  0.70351011  0.01324870  0.75355831  1
  Ni  Ni40  1  0.98724754  0.35202387  0.58208220  1
  Ni  Ni41  1  0.66370305  0.63327447  0.58266597  1
  Ni  Ni42  1  0.96904002  0.63149775  0.08402630  1
  Ni  Ni43  1  0.32137230  0.97038978  0.91945202  1
  Ni  Ni44  1  0.64458223  0.96729116  0.41648315  1
  Cu  Cu45  1  0.69930242  0.68465537  0.25076262  1
  Cu  Cu46  1  0.98527403  0.69290002  0.75405145  1
  Cu  Cu47  1  0.36573899  0.01685621  0.58471411  1
  Cu  Cu48  1  0.65481867  0.01710133  0.08532399  1
  Cu  Cu49  1  0.36458837  0.35002602  0.08443053  1
  Cu  Cu50  1  0.63896606  0.67677416  0.92302647  1
  Cu  Cu51  1  0.03967497  0.35879302  0.92182935  1
  Cu  Cu52  1  0.32260401  0.35482312  0.41748109  1
  Cu  Cu53  1  0.02858266  0.68007077  0.41784269  1
  C  C54  1  0.20833306  0.02815689  0.30423874  1
  C  C55  1  0.80511067  0.78044206  0.29878159  1
  C  C56  1  0.97997245  0.18348738  0.30245026  1
  C  C57  1  0.21969104  0.18954915  0.80694988  1
  C  C58  1  0.97976454  0.78652561  0.80495472  1
  C  C59  1  0.81302760  0.01921122  0.81028742  1
  C  C60  1  0.77202373  0.97077745  0.69498938  1
  C  C61  1  0.20902397  0.22830428  0.69171534  1
  C  C62  1  0.01552191  0.78673712  0.69948142  1
  C  C63  1  0.75885163  0.77563438  0.19430545  1
  C  C64  1  0.01821171  0.23370572  0.18646145  1
  C  C65  1  0.21493833  0.97884388  0.18830790  1
  C  C66  1  0.88257453  0.36543892  0.63722848  1
  C  C67  1  0.47029285  0.11236790  0.63330396  1
  C  C68  1  0.65085212  0.51453117  0.63672102  1
  C  C69  1  0.86330819  0.51130868  0.13845436  1
  C  C70  1  0.64170777  0.10865478  0.13474650  1
  C  C71  1  0.46113105  0.35708350  0.13533253  1
  C  C72  1  0.43763261  0.32671457  0.03021989  1
  C  C73  1  0.87479396  0.55900417  0.02185247  1
  C  C74  1  0.67908171  0.10948447  0.02992649  1
  C  C75  1  0.42484703  0.10879305  0.52865584  1
  C  C76  1  0.67800183  0.55768169  0.52004613  1
  C  C77  1  0.88354601  0.31657901  0.52136081  1
  C  C78  1  0.54619846  0.67914865  0.97482487  1
  C  C79  1  0.13878012  0.45283977  0.97231032  1
  C  C80  1  0.30420568  0.85957550  0.97741407  1
  C  C81  1  0.53791123  0.84529196  0.47073366  1
  C  C82  1  0.31294840  0.44893102  0.46660949  1
  C  C83  1  0.12769690  0.68630345  0.46769711  1
  C  C84  1  0.09716575  0.65550035  0.36255797  1
  C  C85  1  0.54945958  0.89648745  0.35449062  1
  C  C86  1  0.34472338  0.44372210  0.36145388  1
  C  C87  1  0.11043429  0.45057066  0.86724678  1
  C  C88  1  0.35788864  0.89450597  0.86173549  1
  C  C89  1  0.54631272  0.65623036  0.86937554  1
  C  C90  1  0.02470769  0.83378874  0.41409321  1
  C  C91  1  0.82501166  0.98145616  0.41364031  1
  C  C92  1  0.17062002  0.19433657  0.41574157  1
  C  C93  1  0.02981166  0.19941913  0.92078776  1
  C  C94  1  0.15305696  0.97829906  0.91312928  1
  C  C95  1  0.79831117  0.82867619  0.92012940  1
  C  C96  1  0.01867622  0.19699610  0.58409066  1
  C  C97  1  0.19674359  0.98104161  0.59175728  1
  C  C98  1  0.82801083  0.81457454  0.58317570  1
  C  C99  1  0.99088080  0.81574225  0.08573049  1
  C  C100  1  0.79768795  0.99404640  0.08955186  1
  C  C101  1  0.19615677  0.20890565  0.08651262  1
  C  C102  1  0.70241679  0.18421536  0.74751078  1
  C  C103  1  0.49498317  0.31950825  0.74376893  1
  C  C104  1  0.83089086  0.53753601  0.75184473  1
  C  C105  1  0.69574946  0.52795342  0.24714412  1
  C  C106  1  0.83260576  0.32104424  0.24880283  1
  C  C107  1  0.49102820  0.18395377  0.24493662  1
  C  C108  1  0.66758321  0.53661496  0.92436682  1
  C  C109  1  0.87178552  0.33284698  0.92556928  1
  C  C110  1  0.48163757  0.15822491  0.92161851  1
  C  C111  1  0.66149480  0.15003352  0.41805919  1
  C  C112  1  0.46301206  0.32785756  0.42160152  1
  C  C113  1  0.85983806  0.54052640  0.42083810  1
  C  C114  1  0.35941974  0.50286217  0.07985750  1
  C  C115  1  0.14860610  0.64283101  0.08283316  1
  C  C116  1  0.50543820  0.85558483  0.08217169  1
  C  C117  1  0.36528400  0.86153837  0.58096584  1
  C  C118  1  0.50148474  0.65207014  0.58308603  1
  C  C119  1  0.16231033  0.52211506  0.57707083  1
  C  C120  1  0.34502234  0.85790474  0.25329011  1
  C  C121  1  0.53024235  0.65079671  0.25769440  1
  C  C122  1  0.15816157  0.48837111  0.25177749  1
  C  C123  1  0.33930957  0.48867582  0.75330323  1
  C  C124  1  0.12021833  0.65819329  0.75923821  1
  C  C125  1  0.51321227  0.86405660  0.75511455  1
