# generated using pymatgen
data_Cu2NiC7
_symmetry_space_group_name_H-M   'P 1'
_cell_length_a   3.69402758
_cell_length_b   5.82187830
_cell_length_c   7.84461641
_cell_angle_alpha   60.32676969
_cell_angle_beta   76.38184550
_cell_angle_gamma   71.50305037
_symmetry_Int_Tables_number   1
_chemical_formula_structural   Cu2NiC7
_chemical_formula_sum   'Cu2 Ni1 C7'
_cell_volume   138.38088335
_cell_formula_units_Z   1
loop_
 _symmetry_equiv_pos_site_id
 _symmetry_equiv_pos_as_xyz
  1  'x, y, z'
loop_
 _atom_site_type_symbol
 _atom_site_label
 _atom_site_symmetry_multiplicity
 _atom_site_fract_x
 _atom_site_fract_y
 _atom_site_fract_z
 _atom_site_occupancy
  C  C0  1  -0.00000000  0.50000000  0.50000000  1
  Ni  Ni1  1  0.50000000  0.00000000  -0.00000000  1
  Cu  Cu2  1  0.77709788  0.28031512  0.16549113  1
  Cu  Cu3  1  0.22290212  0.71968488  0.83450887  1
  C  C4  1  0.94457746  0.90964678  0.20119829  1
  C  C5  1  0.05542254  0.09035322  0.79880171  1
  C  C6  1  0.63947558  0.33624120  0.38480665  1
  C  C7  1  0.36052442  0.66375880  0.61519335  1
  C  C8  1  0.31071435  0.32281899  0.05575232  1
  C  C9  1  0.68928565  0.67718101  0.94424768  1
