# generated using pymatgen
data_Cu(NiC6)11
_symmetry_space_group_name_H-M   'P 1'
_cell_length_a   18.08971036
_cell_length_b   9.05589750
_cell_length_c   22.79027948
_cell_angle_alpha   90.04238490
_cell_angle_beta   89.94769621
_cell_angle_gamma   119.98347677
_symmetry_Int_Tables_number   1
_chemical_formula_structural   Cu(NiC6)11
_chemical_formula_sum   'Cu3 Ni33 C198'
_cell_volume   3233.81726413
_cell_formula_units_Z   3
loop_
 _symmetry_equiv_pos_site_id
 _symmetry_equiv_pos_as_xyz
  1  'x, y, z'
loop_
 _atom_site_type_symbol
 _atom_site_label
 _atom_site_symmetry_multiplicity
 _atom_site_fract_x
 _atom_site_fract_y
 _atom_site_fract_z
 _atom_site_occupancy
  C  C0  1  0.32162219  0.00003694  0.24976313  1
  C  C1  1  0.82149494  -0.00001597  0.25021360  1
  C  C2  1  0.81953351  0.63817640  0.74951835  1
  C  C3  1  0.49803305  0.36306361  0.74928653  1
  C  C4  1  0.01649155  0.70121115  0.58407678  1
  C  C5  1  0.33312664  0.96958405  0.58534801  1
  C  C6  1  0.83325596  0.96546120  0.58335818  1
  C  C7  1  0.33264063  0.69666631  0.08524015  1
  C  C8  1  0.83267807  0.69686672  0.08593292  1
  C  C9  1  0.01646586  0.33334130  0.08500704  1
  C  C10  1  0.51411090  0.33077149  0.08509457  1
  C  C11  1  0.98558083  0.66449549  0.91434101  1
  C  C12  1  0.34918311  0.03227749  0.91577279  1
  C  C13  1  0.85124990  0.03351094  0.91612032  1
  C  C14  1  0.48414245  0.30342592  0.41454734  1
  C  C15  1  0.98444597  0.30389024  0.41404974  1
  C  C16  1  0.34983505  0.66783995  0.41490762  1
  C  C17  1  0.84931021  0.66801502  0.41479413  1
  C  C18  1  0.00899958  0.00916894  0.49915869  1
  C  C19  1  0.50843076  0.00105952  0.50046762  1
  C  C20  1  0.01000761  0.00995287  0.00056136  1
  C  C21  1  0.50700856  0.99813343  0.99972492  1
  C  C22  1  0.33157237  0.34144923  0.83317770  1
  C  C23  1  0.83168530  0.32669865  0.83140412  1
  C  C24  1  0.33464626  0.34220934  0.33059679  1
  C  C25  1  0.83448450  0.34228101  0.33025404  1
  C  C26  1  0.16364458  0.65844510  0.16912017  1
  C  C27  1  0.66307777  0.65770452  0.16995343  1
  C  C28  1  0.16797336  0.66706516  0.67102472  1
  C  C29  1  0.66238383  0.66722314  0.66470403  1
  C  C30  1  0.99672913  0.99656248  0.35478635  1
  C  C31  1  0.49671717  0.99715349  0.35479779  1
  C  C32  1  0.99791461  0.99732404  0.85448288  1
  C  C33  1  0.99890093  0.99463247  0.64540600  1
  C  C34  1  0.99854000  0.00296662  0.14510795  1
  C  C35  1  0.49775597  0.00274968  0.14519796  1
  C  C36  1  0.33519599  0.33414217  0.68551356  1
  C  C37  1  0.33822621  0.34565180  0.18535974  1
  C  C38  1  0.83818927  0.34597243  0.18537110  1
  C  C39  1  0.16534174  0.65415294  0.31464571  1
  C  C40  1  0.66528899  0.65387878  0.31465624  1
  C  C41  1  0.16853142  0.67599970  0.81397531  1
  C  C42  1  0.50110199  0.99938214  0.85420786  1
  C  C43  1  0.50087521  0.99805051  0.64593844  1
  C  C44  1  0.83369053  0.33108343  0.68788465  1
  C  C45  1  0.33376254  0.33956689  0.97896436  1
  C  C46  1  0.83059497  0.33162978  0.97947850  1
  C  C47  1  0.33254218  0.33187010  0.48125983  1
  C  C48  1  0.83083309  0.32789662  0.48017467  1
  C  C49  1  0.16772425  0.66927662  0.01917291  1
  C  C50  1  0.66565825  0.66890980  0.01936024  1
  C  C51  1  0.16687496  0.66363842  0.52040260  1
  C  C52  1  0.66348552  0.66361746  0.52100681  1
  C  C53  1  0.66542920  0.67006860  0.81238522  1
  Ni  Ni54  1  0.35230773  0.70368393  0.25023184  1
  Ni  Ni55  1  0.85235176  0.70408529  0.25005295  1
  Ni  Ni56  1  0.00040601  0.29573187  0.24989289  1
  Ni  Ni57  1  0.50039179  0.29600160  0.24990013  1
  Ni  Ni58  1  0.64396927  0.28605567  0.74999190  1
  Ni  Ni59  1  0.00218854  0.70605114  0.74924663  1
  Ni  Ni60  1  0.49852129  0.71193504  0.75068622  1
  Ni  Ni61  1  0.35369555  0.99581508  0.74976331  1
  Ni  Ni62  1  0.85392095  0.00246880  0.75015651  1
  Ni  Ni63  1  0.48059297  0.33507700  0.58382908  1
  Ni  Ni64  1  0.97880818  0.33495643  0.58331619  1
  Ni  Ni65  1  0.18830037  0.04448341  0.58322601  1
  Ni  Ni66  1  0.68784564  0.04503091  0.58391562  1
  Ni  Ni67  1  0.33359838  0.62246807  0.58377898  1
  Ni  Ni68  1  0.83000778  0.61738143  0.58357160  1
  Ni  Ni69  1  0.48049533  0.62658823  0.08214440  1
  Ni  Ni70  1  0.98071789  0.62611762  0.08107859  1
  Ni  Ni71  1  0.32996209  0.04325738  0.08344142  1
  Ni  Ni72  1  0.82979323  0.04194433  0.08395173  1
  Ni  Ni73  1  0.18878260  0.33160896  0.08224297  1
  Ni  Ni74  1  0.68762140  0.33178705  0.08264199  1
  Ni  Ni75  1  0.31160577  0.66411155  0.91543574  1
  Ni  Ni76  1  0.80876922  0.66041552  0.91581740  1
  Ni  Ni77  1  0.02286361  0.37692128  0.91710825  1
  Ni  Ni78  1  0.52228074  0.37770278  0.91637330  1
  Ni  Ni79  1  0.16791033  0.96101072  0.91746093  1
  Ni  Ni80  1  0.66486285  0.95515926  0.91659384  1
  Ni  Ni81  1  0.30893930  0.95903018  0.41577387  1
  Ni  Ni82  1  0.80842532  0.95622372  0.41643935  1
  Ni  Ni83  1  0.16770384  0.37325409  0.41803862  1
  Ni  Ni84  1  0.66716392  0.37472770  0.41845458  1
  Ni  Ni85  1  0.02231220  0.66823403  0.41833101  1
  Ni  Ni86  1  0.52245190  0.66890530  0.41759540  1
  Cu  Cu87  1  0.14464056  0.99986949  0.25000602  1
  Cu  Cu88  1  0.64452493  0.00003389  0.24991490  1
  Cu  Cu89  1  0.14501742  0.29023130  0.75009462  1
  C  C90  1  0.10372908  0.02196717  0.30303636  1
  C  C91  1  0.60397288  0.02208628  0.30295734  1
  C  C92  1  0.41047273  0.79575746  0.30890726  1
  C  C93  1  0.91036134  0.79565485  0.30881940  1
  C  C94  1  0.48771449  0.17620992  0.30787060  1
  C  C95  1  0.98756245  0.17589383  0.30793954  1
  C  C96  1  0.10311069  0.18293493  0.80301441  1
  C  C97  1  0.59736721  0.16828706  0.80752876  1
  C  C98  1  0.48863713  0.81078423  0.80771199  1
  C  C99  1  0.98321771  0.79305559  0.80691553  1
  C  C100  1  0.41654411  0.02699613  0.80753790  1
  C  C101  1  0.91057035  0.03006322  0.80904940  1
  C  C102  1  0.40417227  0.97908625  0.69130959  1
  C  C103  1  0.89592431  0.96559678  0.69237221  1
  C  C104  1  0.09205162  0.20588593  0.69695216  1
  C  C105  1  0.58151189  0.19645624  0.69346040  1
  C  C106  1  0.01242061  0.82187644  0.69120737  1
  C  C107  1  0.51348438  0.83363334  0.69317154  1
  C  C108  1  0.39945457  0.82356778  0.19224104  1
  C  C109  1  0.89953110  0.82380375  0.19201642  1
  C  C110  1  0.01235721  0.20353484  0.19117277  1
  C  C111  1  0.51270923  0.20437365  0.19120704  1
  C  C112  1  0.09278822  0.97782218  0.19706738  1
  C  C113  1  0.59298407  0.97809704  0.19702755  1
  C  C114  1  0.43863472  0.36534661  0.64240647  1
  C  C115  1  0.93052737  0.36760927  0.63898711  1
  C  C116  1  0.25057545  0.12695406  0.63918963  1
  C  C117  1  0.75206029  0.13899274  0.63960773  1
  C  C118  1  0.31714985  0.50261865  0.63999936  1
  C  C119  1  0.81830919  0.50200564  0.64173334  1
  C  C120  1  0.43994937  0.50132622  0.13872115  1
  C  C121  1  0.93819138  0.49963098  0.13717250  1
  C  C122  1  0.31586267  0.12479949  0.14266480  1
  C  C123  1  0.81542206  0.12424387  0.14263756  1
  C  C124  1  0.25103841  0.37420804  0.13837101  1
  C  C125  1  0.75098017  0.37480848  0.13808126  1
  C  C126  1  0.23800403  0.30923185  0.02526719  1
  C  C127  1  0.73727494  0.30959110  0.02517230  1
  C  C128  1  0.41739896  0.52903498  0.02619354  1
  C  C129  1  0.91818797  0.53120438  0.02348371  1
  C  C130  1  0.34787045  0.16694957  0.02601842  1
  C  C131  1  0.84599848  0.16561081  0.02611121  1
  C  C132  1  0.23770447  0.16595561  0.52626338  1
  C  C133  1  0.73619932  0.16595569  0.52662451  1
  C  C134  1  0.34721146  0.53276676  0.52477825  1
  C  C135  1  0.84756103  0.52824201  0.52645146  1
  C  C136  1  0.41849231  0.30373132  0.52641904  1
  C  C137  1  0.91823247  0.30445007  0.52538054  1
  C  C138  1  0.26734576  0.69812953  0.97428309  1
  C  C139  1  0.76469757  0.69419754  0.97323231  1
  C  C140  1  0.08068403  0.46958006  0.97601325  1
  C  C141  1  0.58194129  0.47063987  0.97408157  1
  C  C142  1  0.15222187  0.83207981  0.97346318  1
  C  C143  1  0.65346350  0.83449457  0.97345520  1
  C  C144  1  0.26294558  0.83430487  0.47326699  1
  C  C145  1  0.76439245  0.83433823  0.47432053  1
  C  C146  1  0.15210486  0.47130179  0.47416950  1
  C  C147  1  0.65310186  0.47424339  0.47426369  1
  C  C148  1  0.08031568  0.68983467  0.47692217  1
  C  C149  1  0.58304065  0.69212057  0.47492443  1
  C  C150  1  0.06452807  0.62592049  0.36288462  1
  C  C151  1  0.56416448  0.62601865  0.36184809  1
  C  C152  1  0.25348062  0.87613894  0.35709232  1
  C  C153  1  0.75345344  0.87551398  0.35739383  1
  C  C154  1  0.18881470  0.49877870  0.36169362  1
  C  C155  1  0.68926713  0.49915333  0.36161187  1
  C  C156  1  0.06440856  0.50339331  0.86197692  1
  C  C157  1  0.56903739  0.49754628  0.85847216  1
  C  C158  1  0.18819666  0.87731604  0.86114217  1
  C  C159  1  0.68246622  0.86169487  0.86039361  1
  C  C160  1  0.25154629  0.63245784  0.85958121  1
  C  C161  1  0.75102421  0.63856881  0.85765732  1
  C  C162  1  0.00743449  0.83033383  0.41373098  1
  C  C163  1  0.50772629  0.83094430  0.41340765  1
  C  C164  1  0.40411387  0.97577587  0.41281160  1
  C  C165  1  0.90432835  0.97596465  0.41283187  1
  C  C166  1  0.08091551  0.19098004  0.41252398  1
  C  C167  1  0.58104925  0.19195730  0.41263165  1
  C  C168  1  0.00712006  0.18351784  0.91274530  1
  C  C169  1  0.50962235  0.18614905  0.90925494  1
  C  C170  1  0.08047808  0.96957467  0.91149900  1
  C  C171  1  0.58175408  0.97651879  0.90998280  1
  C  C172  1  0.40486702  0.84236969  0.90962342  1
  C  C173  1  0.90343453  0.83207556  0.91096016  1
  C  C174  1  0.48489394  0.15839302  0.58929866  1
  C  C175  1  0.98382504  0.16215285  0.58995772  1
  C  C176  1  0.09214734  0.01549442  0.58693002  1
  C  C177  1  0.59424198  0.02549302  0.59123640  1
  C  C178  1  0.41651945  0.81685587  0.59010725  1
  C  C179  1  0.91653021  0.80704932  0.58847063  1
  C  C180  1  0.48567286  0.80937540  0.08770397  1
  C  C181  1  0.98503645  0.80830998  0.08713369  1
  C  C182  1  0.41611695  0.02352178  0.08733620  1
  C  C183  1  0.91637344  0.02461434  0.08700439  1
  C  C184  1  0.09258162  0.16973585  0.08667971  1
  C  C185  1  0.59223744  0.16960578  0.08643935  1
  C  C186  1  0.35024914  0.17337390  0.74568477  1
  C  C187  1  0.84248368  0.16935140  0.74183591  1
  C  C188  1  0.22997755  0.30468006  0.74508266  1
  C  C189  1  0.74039832  0.31620091  0.74246085  1
  C  C190  1  0.41707924  0.52029769  0.74627287  1
  C  C191  1  0.91155355  0.52059080  0.74186393  1
  C  C192  1  0.34061377  0.51402437  0.24599969  1
  C  C193  1  0.84065789  0.51427232  0.24585354  1
  C  C194  1  0.40926919  0.29496246  0.24603085  1
  C  C195  1  0.90925872  0.29517226  0.24588434  1
  C  C196  1  0.23112169  0.15224041  0.24523698  1
  C  C197  1  0.73135979  0.15263065  0.24512331  1
  C  C198  1  0.32420057  0.49901765  0.92501538  1
  C  C199  1  0.82293426  0.49612276  0.92235166  1
  C  C200  1  0.42635014  0.35170623  0.92357424  1
  C  C201  1  0.92630650  0.35651612  0.92568913  1
  C  C202  1  0.25443288  0.14556185  0.92591907  1
  C  C203  1  0.75388849  0.13950633  0.92383212  1
  C  C204  1  0.32583786  0.15320047  0.42509738  1
  C  C205  1  0.82478207  0.15091131  0.42544648  1
  C  C206  1  0.25486359  0.36302559  0.42617815  1
  C  C207  1  0.75440331  0.36356056  0.42682084  1
  C  C208  1  0.42750711  0.49601690  0.42633193  1
  C  C209  1  0.92667318  0.49544127  0.42670637  1
  C  C210  1  0.17965290  0.50420003  0.07371582  1
  C  C211  1  0.67913021  0.50444200  0.07327840  1
  C  C212  1  0.07341555  0.63745504  0.07404799  1
  C  C213  1  0.57327281  0.63724841  0.07374403  1
  C  C214  1  0.24911689  0.84858665  0.07465628  1
  C  C215  1  0.74924219  0.84799555  0.07431986  1
  C  C216  1  0.17949329  0.85461983  0.57424756  1
  C  C217  1  0.68375024  0.86046813  0.57623432  1
  C  C218  1  0.25088505  0.65195465  0.57436320  1
  C  C219  1  0.74915273  0.64877639  0.57680831  1
  C  C220  1  0.07126697  0.50987324  0.57683786  1
  C  C221  1  0.57480076  0.50392188  0.57552638  1
  C  C222  1  0.15480369  0.84743313  0.25486407  1
  C  C223  1  0.65507466  0.84761268  0.25476180  1
  C  C224  1  0.26162090  0.70478023  0.25418878  1
  C  C225  1  0.76177361  0.70525334  0.25396174  1
  C  C226  1  0.08340357  0.48570873  0.25412830  1
  C  C227  1  0.58367670  0.48591352  0.25413154  1
  C  C228  1  0.15284182  0.45791058  0.75514045  1
  C  C229  1  0.65281495  0.47697674  0.75726321  1
  C  C230  1  0.08351926  0.67968900  0.75393407  1
  C  C231  1  0.58388224  0.68885446  0.75803050  1
  C  C232  1  0.26171730  0.82427112  0.75348147  1
  C  C233  1  0.76021921  0.82520181  0.75781205  1
