# generated using pymatgen
data_CuNiC5
_symmetry_space_group_name_H-M   'P 1'
_cell_length_a   8.18806600
_cell_length_b   8.81618900
_cell_length_c   20.99026600
_cell_angle_alpha   90.00000000
_cell_angle_beta   90.00000000
_cell_angle_gamma   90.00000000
_symmetry_Int_Tables_number   1
_chemical_formula_structural   CuNiC5
_chemical_formula_sum   'Cu8 Ni8 C40'
_cell_volume   1515.23561192
_cell_formula_units_Z   8
loop_
 _symmetry_equiv_pos_site_id
 _symmetry_equiv_pos_as_xyz
  1  'x, y, z'
loop_
 _atom_site_type_symbol
 _atom_site_label
 _atom_site_symmetry_multiplicity
 _atom_site_fract_x
 _atom_site_fract_y
 _atom_site_fract_z
 _atom_site_occupancy
  C  C0  1  0.92541900  0.60800700  0.90728700  1
  C  C1  1  0.42541900  0.39199300  0.59271300  1
  C  C2  1  0.57458100  0.10800700  0.09271300  1
  C  C3  1  0.07458100  0.89199300  0.40728700  1
  C  C4  1  0.07458100  0.39199300  0.09271300  1
  C  C5  1  0.57458100  0.60800700  0.40728700  1
  C  C6  1  0.42541900  0.89199300  0.90728700  1
  C  C7  1  0.92541900  0.10800700  0.59271300  1
  Ni  Ni8  1  0.82622700  0.50116000  0.79814600  1
  Ni  Ni9  1  0.32622700  0.49884000  0.70185400  1
  Ni  Ni10  1  0.67377300  0.00116000  0.20185400  1
  Ni  Ni11  1  0.17377300  0.99884000  0.29814600  1
  Ni  Ni12  1  0.17377300  0.49884000  0.20185400  1
  Ni  Ni13  1  0.67377300  0.50116000  0.29814600  1
  Ni  Ni14  1  0.32622700  0.99884000  0.79814600  1
  Ni  Ni15  1  0.82622700  0.00116000  0.70185400  1
  Cu  Cu16  1  0.95402900  0.75945300  0.61867500  1
  Cu  Cu17  1  0.45402900  0.24054700  0.88132500  1
  Cu  Cu18  1  0.54597100  0.25945300  0.38132500  1
  Cu  Cu19  1  0.04597100  0.74054700  0.11867500  1
  Cu  Cu20  1  0.04597100  0.24054700  0.38132500  1
  Cu  Cu21  1  0.54597100  0.75945300  0.11867500  1
  Cu  Cu22  1  0.45402900  0.74054700  0.61867500  1
  Cu  Cu23  1  0.95402900  0.25945300  0.88132500  1
  C  C24  1  0.00549800  0.10855800  0.42809900  1
  C  C25  1  0.62710500  0.80436000  0.18345100  1
  C  C26  1  0.12710500  0.19564000  0.31654900  1
  C  C27  1  0.12710500  0.69564000  0.18345100  1
  C  C28  1  0.62710500  0.30436000  0.31654900  1
  C  C29  1  0.37289500  0.19564000  0.81654900  1
  C  C30  1  0.87289500  0.80436000  0.68345100  1
  C  C31  1  0.99450200  0.39144200  0.92809900  1
  C  C32  1  0.49450200  0.60855800  0.57190100  1
  C  C33  1  0.50549800  0.89144200  0.07190100  1
  C  C34  1  0.87289500  0.30436000  0.81654900  1
  C  C35  1  0.37289500  0.69564000  0.68345100  1
  C  C36  1  0.50549800  0.39144200  0.42809900  1
  C  C37  1  0.49450200  0.10855800  0.92809900  1
  C  C38  1  0.99450200  0.89144200  0.57190100  1
  C  C39  1  0.00549800  0.60855800  0.07190100  1
  C  C40  1  0.74310000  0.85654200  0.85131500  1
  C  C41  1  0.25690000  0.64345800  0.35131500  1
  C  C42  1  0.75690000  0.35654200  0.14868500  1
  C  C43  1  0.24310000  0.14345800  0.64868500  1
  C  C44  1  0.66985200  0.56568300  0.96573400  1
  C  C45  1  0.74310000  0.35654200  0.64868500  1
  C  C46  1  0.24310000  0.64345800  0.85131500  1
  C  C47  1  0.66985200  0.06568300  0.53426600  1
  C  C48  1  0.16985200  0.93431700  0.96573400  1
  C  C49  1  0.83014800  0.56568300  0.46573400  1
  C  C50  1  0.33014800  0.43431700  0.03426600  1
  C  C51  1  0.33014800  0.93431700  0.46573400  1
  C  C52  1  0.83014800  0.06568300  0.03426600  1
  C  C53  1  0.16985200  0.43431700  0.53426600  1
  C  C54  1  0.75690000  0.85654200  0.35131500  1
  C  C55  1  0.25690000  0.14345800  0.14868500  1
