# generated using pymatgen
data_Cu12NiC20
_symmetry_space_group_name_H-M   'P 1'
_cell_length_a   8.83167857
_cell_length_b   8.83167857
_cell_length_c   8.83167857
_cell_angle_alpha   109.47122063
_cell_angle_beta   109.47122063
_cell_angle_gamma   109.47122063
_symmetry_Int_Tables_number   1
_chemical_formula_structural   Cu12NiC20
_chemical_formula_sum   'Cu12 Ni1 C20'
_cell_volume   530.28320531
_cell_formula_units_Z   1
loop_
 _symmetry_equiv_pos_site_id
 _symmetry_equiv_pos_as_xyz
  1  'x, y, z'
loop_
 _atom_site_type_symbol
 _atom_site_label
 _atom_site_symmetry_multiplicity
 _atom_site_fract_x
 _atom_site_fract_y
 _atom_site_fract_z
 _atom_site_occupancy
  Ni  Ni0  1  0.00000000  0.00000000  0.00000000  1
  Cu  Cu1  1  0.83271200  0.69179600  0.51095200  1
  Cu  Cu2  1  0.14091600  0.81915600  0.30820400  1
  Cu  Cu3  1  0.32176000  0.48904800  0.18084400  1
  Cu  Cu4  1  0.48904800  0.18084400  0.32176000  1
  Cu  Cu5  1  0.67824000  0.85908400  0.16728800  1
  Cu  Cu6  1  0.51095200  0.83271200  0.69179600  1
  Cu  Cu7  1  0.69179600  0.51095200  0.83271200  1
  Cu  Cu8  1  0.30820400  0.14091600  0.81915600  1
  Cu  Cu9  1  0.85908400  0.16728800  0.67824000  1
  Cu  Cu10  1  0.18084400  0.32176000  0.48904800  1
  Cu  Cu11  1  0.16728800  0.67824000  0.85908400  1
  Cu  Cu12  1  0.81915600  0.30820400  0.14091600  1
  C  C13  1  0.00000000  0.00000000  0.62138300  1
  C  C14  1  0.00000000  0.62138300  0.00000000  1
  C  C15  1  0.37861700  0.37861700  0.37861700  1
  C  C16  1  0.62138300  0.00000000  0.00000000  1
  C  C17  1  0.35843100  0.23938900  0.61989700  1
  C  C18  1  0.11904200  0.38050900  0.76061100  1
  C  C19  1  0.73853400  0.38010300  0.61949100  1
  C  C20  1  0.38010300  0.61949100  0.73853400  1
  C  C21  1  0.26146600  0.88095800  0.64156900  1
  C  C22  1  0.61989700  0.35843100  0.23938900  1
  C  C23  1  0.23938900  0.61989700  0.35843100  1
  C  C24  1  0.76061100  0.11904200  0.38050900  1
  C  C25  1  0.88095800  0.64156900  0.26146600  1
  C  C26  1  0.61949100  0.73853400  0.38010300  1
  C  C27  1  0.64156900  0.26146600  0.88095800  1
  C  C28  1  0.38050900  0.76061100  0.11904200  1
  C  C29  1  0.00000000  0.00000000  0.22980000  1
  C  C30  1  0.00000000  0.22980000  0.00000000  1
  C  C31  1  0.77020000  0.77020000  0.77020000  1
  C  C32  1  0.22980000  0.00000000  0.00000000  1
