# generated using pymatgen
data_CuNi3C16
_symmetry_space_group_name_H-M   'P 1'
_cell_length_a   9.45539142
_cell_length_b   9.39325126
_cell_length_c   23.50496671
_cell_angle_alpha   90.42431019
_cell_angle_beta   89.95225602
_cell_angle_gamma   119.82788713
_symmetry_Int_Tables_number   1
_chemical_formula_structural   CuNi3C16
_chemical_formula_sum   'Cu6 Ni18 C96'
_cell_volume   1811.01508432
_cell_formula_units_Z   6
loop_
 _symmetry_equiv_pos_site_id
 _symmetry_equiv_pos_as_xyz
  1  'x, y, z'
loop_
 _atom_site_type_symbol
 _atom_site_label
 _atom_site_symmetry_multiplicity
 _atom_site_fract_x
 _atom_site_fract_y
 _atom_site_fract_z
 _atom_site_occupancy
  Ni  Ni0  1  0.63436077  0.00752961  0.26246191  1
  Ni  Ni1  1  0.34715888  0.35234741  0.25729810  1
  Ni  Ni2  1  0.65176749  0.64653682  0.73166967  1
  Ni  Ni3  1  0.97380255  0.36062354  0.73962330  1
  Ni  Ni4  1  0.01767260  0.68344494  0.59358309  1
  Ni  Ni5  1  0.68028561  0.96880523  0.58369059  1
  Ni  Ni6  1  0.31453144  0.97255969  0.10009772  1
  Ni  Ni7  1  0.01734685  0.31807472  0.08577194  1
  Ni  Ni8  1  0.97068330  0.64858989  0.89739834  1
  Ni  Ni9  1  0.71414609  0.04625941  0.90819491  1
  Ni  Ni10  1  0.94952695  0.28903415  0.42064697  1
  Ni  Ni11  1  0.35025843  0.03270165  0.41251565  1
  Ni  Ni12  1  0.97049580  0.99263040  0.50870407  1
  Ni  Ni13  1  0.98534120  0.01986252  0.99825268  1
  Ni  Ni14  1  0.67413992  0.32375846  0.81622625  1
  Ni  Ni15  1  0.67498352  0.33304901  0.33719298  1
  Ni  Ni16  1  0.32350564  0.67633051  0.17835414  1
  Ni  Ni17  1  0.33280717  0.66446512  0.66354584  1
  C  C18  1  0.00284270  0.01322305  0.83713680  1
  C  C19  1  0.99347951  0.00054846  0.16382673  1
  C  C20  1  0.67399997  0.33098316  0.98641582  1
  C  C21  1  0.34110433  0.65981972  0.01874183  1
  C  C22  1  0.35200333  0.65897248  0.51841633  1
  C  C23  1  0.32112302  0.67074242  0.80713965  1
  Cu  Cu24  1  0.99315063  0.00643064  0.34533226  1
  Cu  Cu25  1  0.98552049  0.99083343  0.64797100  1
  Cu  Cu26  1  0.67810143  0.34046648  0.68013665  1
  Cu  Cu27  1  0.67007858  0.31511838  0.19271963  1
  Cu  Cu28  1  0.67762336  0.33410135  0.48956991  1
  Cu  Cu29  1  0.32932695  0.68533580  0.31720368  1
  C  C30  1  0.30360553  0.00142924  0.25061348  1
  C  C31  1  0.00949653  0.31530973  0.25104984  1
  C  C32  1  0.98743282  0.69271868  0.74580454  1
  C  C33  1  0.69744293  0.00636381  0.74553907  1
  C  C34  1  0.96015799  0.32796799  0.58408666  1
  C  C35  1  0.67776261  0.62750253  0.58647732  1
  C  C36  1  0.66606055  0.03077898  0.08707377  1
  C  C37  1  0.02788111  0.35771016  0.91917223  1
  C  C38  1  0.64024465  0.97456463  0.41491000  1
  C  C39  1  0.68674916  0.68983280  0.25458247  1
  C  C40  1  0.30891910  0.29570168  0.74268332  1
  C  C41  1  0.37461177  0.05112870  0.58273915  1
  C  C42  1  0.96557108  0.63338725  0.08746370  1
  C  C43  1  0.36842689  0.32988720  0.09041265  1
  C  C44  1  0.64645264  0.67228329  0.91330859  1
  C  C45  1  0.32596791  0.96912576  0.92025351  1
  C  C46  1  0.32841377  0.35473602  0.40977467  1
  C  C47  1  0.03422959  0.67092170  0.41489044  1
  C  C48  1  0.19479566  0.02369990  0.30086724  1
  C  C49  1  0.80220424  0.78172478  0.30107368  1
  C  C50  1  0.97277584  0.17131389  0.29883828  1
  C  C51  1  0.25108303  0.21991551  0.79954213  1
  C  C52  1  0.97989881  0.76732612  0.80928480  1
  C  C53  1  0.78874563  0.03613550  0.80864704  1
  C  C54  1  0.81552561  0.99366889  0.69635063  1
  C  C55  1  0.19255062  0.19686310  0.69775301  1
  C  C56  1  0.00327528  0.81886331  0.69554899  1
  C  C57  1  0.74337115  0.78345084  0.20074988  1
  C  C58  1  0.05140137  0.25569866  0.19035158  1
  C  C59  1  0.21333537  0.97256084  0.18893678  1
  C  C60  1  0.86447216  0.34840341  0.63910015  1
  C  C61  1  0.47908436  0.13857042  0.63172545  1
  C  C62  1  0.65914594  0.52450222  0.64369956  1
  C  C63  1  0.86015861  0.52905296  0.13353232  1
  C  C64  1  0.65818034  0.14665581  0.13953789  1
  C  C65  1  0.46777927  0.33814172  0.13990262  1
  C  C66  1  0.44955579  0.33198871  0.03625044  1
  C  C67  1  0.88911785  0.56910598  0.03092165  1
  C  C68  1  0.67831912  0.12136864  0.02590331  1
  C  C69  1  0.45214446  0.14007337  0.52850078  1
  C  C70  1  0.68593481  0.52141478  0.53096214  1
  C  C71  1  0.84791844  0.30452564  0.52538394  1
  C  C72  1  0.56215703  0.68436621  0.96532341  1
  C  C73  1  0.11810130  0.44555243  0.98030580  1
  C  C74  1  0.31993889  0.88152918  0.97377543  1
  C  C75  1  0.56621459  0.87613901  0.47421945  1
  C  C76  1  0.29326133  0.42402001  0.46114695  1
  C  C77  1  0.12933187  0.70182532  0.46825869  1
  C  C78  1  0.12484393  0.64414558  0.36737986  1
  C  C79  1  0.51189157  0.87155257  0.36206952  1
  C  C80  1  0.35006554  0.45875622  0.35994414  1
  C  C81  1  0.12718945  0.47353682  0.86521021  1
  C  C82  1  0.34713677  0.88217034  0.87121809  1
  C  C83  1  0.55405998  0.66451057  0.86212932  1
  C  C84  1  0.01790108  0.81734764  0.40343120  1
  C  C85  1  0.82727547  0.00468502  0.40377366  1
  C  C86  1  0.18031357  0.18629370  0.40296753  1
  C  C87  1  0.99685114  0.16987841  0.91814502  1
  C  C88  1  0.17156941  0.97195338  0.91650066  1
  C  C89  1  0.81152271  0.82203969  0.91450230  1
  C  C90  1  0.97120704  0.15861297  0.58822753  1
  C  C91  1  0.20840989  0.02884736  0.58694317  1
  C  C92  1  0.85032475  0.80942945  0.58656320  1
  C  C93  1  0.00168748  0.80578863  0.09051865  1
  C  C94  1  0.83571111  0.02284901  0.08976380  1
  C  C95  1  0.20687405  0.17432861  0.08933430  1
  C  C96  1  0.67780452  0.16819280  0.73800868  1
  C  C97  1  0.47386118  0.31939983  0.73592711  1
  C  C98  1  0.81739861  0.51255469  0.74337062  1
  C  C99  1  0.66856782  0.52405312  0.24835305  1
  C  C100  1  0.83624786  0.31947900  0.24670402  1
  C  C101  1  0.48595207  0.17445165  0.24841910  1
  C  C102  1  0.66671893  0.52556876  0.91577293  1
  C  C103  1  0.84557759  0.34675670  0.91551896  1
  C  C104  1  0.47023862  0.13660251  0.92020958  1
  C  C105  1  0.65106470  0.15925627  0.41815017  1
  C  C106  1  0.47326500  0.33400027  0.41728471  1
  C  C107  1  0.87248094  0.51670055  0.41866673  1
  C  C108  1  0.33800932  0.47150363  0.09269545  1
  C  C109  1  0.12479305  0.63284450  0.09025430  1
  C  C110  1  0.48999518  0.85674685  0.08968271  1
  C  C111  1  0.35953489  0.88358550  0.58051598  1
  C  C112  1  0.52826031  0.67103969  0.58517253  1
  C  C113  1  0.13355507  0.50374737  0.58023682  1
  C  C114  1  0.34163864  0.84867699  0.25980788  1
  C  C115  1  0.52156900  0.66975934  0.26495810  1
  C  C116  1  0.17444224  0.48957529  0.26586086  1
  C  C117  1  0.31994607  0.46117962  0.74320373  1
  C  C118  1  0.13931149  0.65335389  0.74100812  1
  C  C119  1  0.52925814  0.82655948  0.74452783  1
