# generated using pymatgen
data_Cu4Ni8C93
_symmetry_space_group_name_H-M   'P 1'
_cell_length_a   17.48431524
_cell_length_b   8.74016999
_cell_length_c   22.63864678
_cell_angle_alpha   90.05498246
_cell_angle_beta   89.93313715
_cell_angle_gamma   120.00025784
_symmetry_Int_Tables_number   1
_chemical_formula_structural   Cu4Ni8C93
_chemical_formula_sum   'Cu8 Ni16 C186'
_cell_volume   2996.04366113
_cell_formula_units_Z   2
loop_
 _symmetry_equiv_pos_site_id
 _symmetry_equiv_pos_as_xyz
  1  'x, y, z'
loop_
 _atom_site_type_symbol
 _atom_site_label
 _atom_site_symmetry_multiplicity
 _atom_site_fract_x
 _atom_site_fract_y
 _atom_site_fract_z
 _atom_site_occupancy
  C  C0  1  0.00059885  0.99456533  0.49475277  1
  C  C1  1  0.49539710  0.00245217  0.99924168  1
  C  C2  1  0.33390670  0.33338769  0.83758913  1
  C  C3  1  0.83886121  0.34294383  0.83037268  1
  C  C4  1  0.33406511  0.33594228  0.33350199  1
  C  C5  1  0.83545582  0.33692557  0.33739636  1
  Ni  Ni6  1  0.00043456  0.99715621  0.35507347  1
  Ni  Ni7  1  0.49850624  0.99805860  0.35371096  1
  Ni  Ni8  1  0.00101370  0.99716436  0.85437933  1
  Ni  Ni9  1  0.49751398  0.00042952  0.85499879  1
  Ni  Ni10  1  0.49481664  0.99797391  0.14838389  1
  Ni  Ni11  1  0.33162373  0.33092105  0.68379115  1
  Ni  Ni12  1  0.83789670  0.33945653  0.68429464  1
  Ni  Ni13  1  0.33527909  0.33132124  0.18324816  1
  Ni  Ni14  1  0.83184350  0.33247542  0.18521229  1
  Ni  Ni15  1  0.33392420  0.32624284  0.98040038  1
  Ni  Ni16  1  0.83641856  0.33808251  0.98109126  1
  Ni  Ni17  1  0.33209431  0.33047146  0.48088761  1
  Ni  Ni18  1  0.83854738  0.34111021  0.47961651  1
  Ni  Ni19  1  0.17088714  0.67553035  0.02153242  1
  Ni  Ni20  1  0.16325089  0.66732142  0.52054521  1
  Ni  Ni21  1  0.66765673  0.66646050  0.52099851  1
  Cu  Cu22  1  0.00159439  0.99161539  0.64499558  1
  Cu  Cu23  1  0.49965504  0.00013901  0.63987318  1
  Cu  Cu24  1  0.00346707  0.00146439  0.14231229  1
  Cu  Cu25  1  0.66021712  0.64949853  0.02292530  1
  Cu  Cu26  1  0.16511243  0.66618182  0.31597282  1
  Cu  Cu27  1  0.66436751  0.66466971  0.31286281  1
  Cu  Cu28  1  0.16225118  0.66794044  0.81194567  1
  Cu  Cu29  1  0.66287579  0.65883861  0.81144813  1
  C  C30  1  0.99199372  0.70116661  0.75374126  1
  C  C31  1  0.51289420  0.35984606  0.91613151  1
  C  C32  1  0.01563289  0.66728147  0.42196531  1
  C  C33  1  0.14655463  0.00464457  0.25115956  1
  C  C34  1  0.64510064  0.00558119  0.25025436  1
  C  C35  1  0.35654345  0.70818468  0.25034760  1
  C  C36  1  0.85653868  0.70955627  0.25086257  1
  C  C37  1  0.99813341  0.28672915  0.25100770  1
  C  C38  1  0.49725844  0.28453359  0.25054108  1
  C  C39  1  0.14647970  0.28799641  0.75132028  1
  C  C40  1  0.64475227  0.28268412  0.75050939  1
  C  C41  1  0.49728012  0.71037634  0.75066129  1
  C  C42  1  0.35700688  0.00450746  0.75069216  1
  C  C43  1  0.85665404  0.00439626  0.75141283  1
  C  C44  1  0.47840394  0.34243081  0.58318873  1
  C  C45  1  0.97895583  0.33706450  0.58306399  1
  C  C46  1  0.19220180  0.04356073  0.58306860  1
  C  C47  1  0.69347373  0.04446170  0.58316888  1
  C  C48  1  0.32858202  0.61444378  0.58305482  1
  C  C49  1  0.82910547  0.61667720  0.58301516  1
  C  C50  1  0.47487037  0.62542040  0.08326155  1
  C  C51  1  0.97848123  0.61520014  0.08349063  1
  C  C52  1  0.33338838  0.04227181  0.08327928  1
  C  C53  1  0.83269660  0.04689103  0.08335525  1
  C  C54  1  0.19352069  0.34411061  0.08295259  1
  C  C55  1  0.68863701  0.32522044  0.08336937  1
  C  C56  1  0.31172278  0.66540424  0.91766677  1
  C  C57  1  0.81292622  0.66793815  0.91719895  1
  C  C58  1  0.02086116  0.37291503  0.91868408  1
  C  C59  1  0.16507862  0.95821237  0.91875028  1
  C  C60  1  0.66765294  0.95885221  0.91712949  1
  C  C61  1  0.31398008  0.95913637  0.41868428  1
  C  C62  1  0.81171276  0.95700400  0.41816787  1
  C  C63  1  0.16691319  0.37498854  0.41857613  1
  C  C64  1  0.66485906  0.37236579  0.41831848  1
  C  C65  1  0.52062454  0.66858474  0.41878955  1
  C  C66  1  0.10395349  0.03019442  0.30186420  1
  C  C67  1  0.60553934  0.02903902  0.30375461  1
  C  C68  1  0.40978593  0.78914234  0.30354480  1
  C  C69  1  0.91003865  0.79244017  0.30235905  1
  C  C70  1  0.48610334  0.18233839  0.30389537  1
  C  C71  1  0.98561310  0.17871775  0.30258425  1
  C  C72  1  0.10550682  0.18255689  0.80346999  1
  C  C73  1  0.60329635  0.17794912  0.80297759  1
  C  C74  1  0.48633969  0.79282215  0.80320423  1
  C  C75  1  0.98491877  0.80196382  0.80839338  1
  C  C76  1  0.41128389  0.03089921  0.80243996  1
  C  C77  1  0.90972997  0.03135656  0.80385453  1
  C  C78  1  0.39820999  0.97263564  0.69637414  1
  C  C79  1  0.89637361  0.97076507  0.69720692  1
  C  C80  1  0.08997538  0.21065046  0.69683293  1
  C  C81  1  0.58726138  0.20490877  0.69668229  1
  C  C82  1  0.01505806  0.83626116  0.69335632  1
  C  C83  1  0.51389720  0.82341617  0.69672252  1
  C  C84  1  0.39369327  0.81676555  0.19739264  1
  C  C85  1  0.89665940  0.82233058  0.19629432  1
  C  C86  1  0.01269563  0.20139651  0.19620248  1
  C  C87  1  0.51779046  0.21730676  0.19754193  1
  C  C88  1  0.08806622  0.97228404  0.19624180  1
  C  C89  1  0.59171150  0.96813688  0.19701481  1
  C  C90  1  0.43829158  0.36106109  0.63723147  1
  C  C91  1  0.93804817  0.35785939  0.63640526  1
  C  C92  1  0.24149236  0.12613571  0.63704027  1
  C  C93  1  0.74197437  0.12396762  0.63732766  1
  C  C94  1  0.32021463  0.51645598  0.63710867  1
  C  C95  1  0.81871750  0.51699059  0.63679535  1
  C  C96  1  0.44239432  0.51817832  0.13633246  1
  C  C97  1  0.93727330  0.51436369  0.13708435  1
  C  C98  1  0.31976297  0.12343698  0.13673837  1
  C  C99  1  0.81831415  0.12136061  0.13667455  1
  C  C100  1  0.24193070  0.36078793  0.13704291  1
  C  C101  1  0.74294528  0.36471685  0.13616679  1
  C  C102  1  0.22516380  0.29688768  0.03057067  1
  C  C103  1  0.72888756  0.30491638  0.02947606  1
  C  C104  1  0.42438507  0.54582571  0.02988894  1
  C  C105  1  0.92226930  0.54911197  0.03110815  1
  C  C106  1  0.34917946  0.15463706  0.03066171  1
  C  C107  1  0.85045508  0.15359845  0.03037759  1
  C  C108  1  0.22717329  0.15606554  0.53063118  1
  C  C109  1  0.72533084  0.15490132  0.53077625  1
  C  C110  1  0.35244916  0.54881490  0.53095064  1
  C  C111  1  0.85087165  0.54938421  0.53060791  1
  C  C112  1  0.42264562  0.29663508  0.53093492  1
  C  C113  1  0.92229570  0.29402594  0.53074247  1
  C  C114  1  0.27074935  0.69510463  0.96941162  1
  C  C115  1  0.76792383  0.69302099  0.97034844  1
  C  C116  1  0.07623051  0.45945295  0.96965567  1
  C  C117  1  0.58417157  0.47713873  0.97243507  1
  C  C118  1  0.15192175  0.84449842  0.96907914  1
  C  C119  1  0.65524835  0.84558752  0.97021523  1
  C  C120  1  0.27257976  0.84815049  0.46948897  1
  C  C121  1  0.76993438  0.84433374  0.46942614  1
  C  C122  1  0.15456353  0.45872763  0.47006179  1
  C  C123  1  0.65202356  0.45962067  0.46901582  1
  C  C124  1  0.08263941  0.69884634  0.47334906  1
  C  C125  1  0.57676744  0.69373757  0.46937383  1
  C  C126  1  0.07210252  0.64066241  0.35905451  1
  C  C127  1  0.56626719  0.63900777  0.36303182  1
  C  C128  1  0.25460171  0.86946410  0.36277337  1
  C  C129  1  0.75369897  0.86502264  0.36259192  1
  C  C130  1  0.18210330  0.49002295  0.36239457  1
  C  C131  1  0.67942258  0.49488113  0.36275446  1
  C  C132  1  0.06520791  0.49208653  0.86292680  1
  C  C133  1  0.57269522  0.50359843  0.85999285  1
  C  C134  1  0.18019347  0.86638088  0.86322115  1
  C  C135  1  0.68276644  0.87452158  0.86274687  1
  C  C136  1  0.25574084  0.64135302  0.86264825  1
  C  C137  1  0.75430734  0.63836631  0.86338503  1
  C  C138  1  0.01150127  0.84242264  0.40899046  1
  C  C139  1  0.51376249  0.82384298  0.40655974  1
  C  C140  1  0.39943668  0.97563799  0.40633387  1
  C  C141  1  0.89827158  0.97523949  0.40786516  1
  C  C142  1  0.08788985  0.20413755  0.40788134  1
  C  C143  1  0.58682128  0.20318270  0.40604469  1
  C  C144  1  0.01270949  0.20263294  0.90644054  1
  C  C145  1  0.51764057  0.18491139  0.91175929  1
  C  C146  1  0.08790861  0.97441574  0.90804500  1
  C  C147  1  0.58762013  0.96808401  0.90985570  1
  C  C148  1  0.39962481  0.82204159  0.90857037  1
  C  C149  1  0.89712777  0.82665504  0.91035404  1
  C  C150  1  0.48782002  0.17326384  0.59434982  1
  C  C151  1  0.98825284  0.17007744  0.59280812  1
  C  C152  1  0.09912739  0.02970067  0.59082307  1
  C  C153  1  0.59815988  0.02405493  0.59514905  1
  C  C154  1  0.41371753  0.80289460  0.59458160  1
  C  C155  1  0.91291914  0.80669905  0.59176474  1
  C  C156  1  0.49229427  0.80679415  0.09007716  1
  C  C157  1  0.98731440  0.80271581  0.09479519  1
  C  C158  1  0.41383026  0.02453645  0.09021347  1
  C  C159  1  0.91251877  0.02211467  0.09334808  1
  C  C160  1  0.09810224  0.17212123  0.09515746  1
  C  C161  1  0.59865945  0.17731262  0.08997489  1
  C  C162  1  0.34524112  0.15721138  0.74165324  1
  C  C163  1  0.84167297  0.15156958  0.74185476  1
  C  C164  1  0.23458920  0.31139300  0.74192337  1
  C  C165  1  0.73228425  0.30782992  0.74158419  1
  C  C166  1  0.42208191  0.53302069  0.74205011  1
  C  C167  1  0.91318711  0.50763006  0.74292067  1
  C  C168  1  0.34341761  0.52808027  0.24308896  1
  C  C169  1  0.84402957  0.53227747  0.24165675  1
  C  C170  1  0.42247130  0.31533719  0.24383313  1
  C  C171  1  0.92169525  0.30983400  0.24141161  1
  C  C172  1  0.23392606  0.15782336  0.24171499  1
  C  C173  1  0.73565563  0.15603525  0.24314880  1
  C  C174  1  0.31745415  0.50405146  0.92236689  1
  C  C175  1  0.81762358  0.50604528  0.92345673  1
  C  C176  1  0.42492551  0.36623596  0.92060726  1
  C  C177  1  0.93341654  0.36118134  0.92215090  1
  C  C178  1  0.24610567  0.13050624  0.92109638  1
  C  C179  1  0.74717202  0.13233630  0.92369259  1
  C  C180  1  0.31942413  0.13340351  0.42150909  1
  C  C181  1  0.81555545  0.12745842  0.42148522  1
  C  C182  1  0.24756623  0.36094511  0.42158359  1
  C  C183  1  0.74522137  0.36097850  0.42140952  1
  C  C184  1  0.43407973  0.50552964  0.42179789  1
  C  C185  1  0.92300109  0.48601841  0.41888582  1
  C  C186  1  0.17439856  0.48538989  0.07528962  1
  C  C187  1  0.68100437  0.49467086  0.07488314  1
  C  C188  1  0.06686267  0.64777879  0.07536383  1
  C  C189  1  0.56922895  0.64661683  0.07345470  1
  C  C190  1  0.25510141  0.86674459  0.07518443  1
  C  C191  1  0.75627900  0.86611213  0.07406826  1
  C  C192  1  0.17780480  0.86739311  0.57694619  1
  C  C193  1  0.67503521  0.86469537  0.57525823  1
  C  C194  1  0.25688199  0.64862330  0.57512260  1
  C  C195  1  0.75563607  0.64820452  0.57515268  1
  C  C196  1  0.06762672  0.48482748  0.57576213  1
  C  C197  1  0.56759002  0.48673223  0.57530841  1
  C  C198  1  0.15365973  0.84175819  0.25594016  1
  C  C199  1  0.65524913  0.84045476  0.26086815  1
  C  C200  1  0.26619053  0.68952717  0.25994262  1
  C  C201  1  0.76682502  0.69324477  0.25767529  1
  C  C202  1  0.08052526  0.46277174  0.25590251  1
  C  C203  1  0.58004412  0.47067931  0.26082108  1
  C  C204  1  0.15497811  0.46737667  0.75852993  1
  C  C205  1  0.65302893  0.46474379  0.75688776  1
  C  C206  1  0.08714998  0.69272064  0.76078040  1
  C  C207  1  0.58065973  0.69734590  0.75657105  1
  C  C208  1  0.26878825  0.84090387  0.75722594  1
  C  C209  1  0.76712285  0.83843068  0.75930894  1
