# generated using pymatgen
data_Cu(NiC17)2
_symmetry_space_group_name_H-M   'P 1'
_cell_length_a   8.73025991
_cell_length_b   8.73447030
_cell_length_c   8.73508641
_cell_angle_alpha   59.87904986
_cell_angle_beta   60.03349926
_cell_angle_gamma   59.87221647
_symmetry_Int_Tables_number   1
_chemical_formula_structural   Cu(NiC17)2
_chemical_formula_sum   'Cu1 Ni2 C34'
_cell_volume   470.22575643
_cell_formula_units_Z   1
loop_
 _symmetry_equiv_pos_site_id
 _symmetry_equiv_pos_as_xyz
  1  'x, y, z'
loop_
 _atom_site_type_symbol
 _atom_site_label
 _atom_site_symmetry_multiplicity
 _atom_site_fract_x
 _atom_site_fract_y
 _atom_site_fract_z
 _atom_site_occupancy
  C  C0  1  0.25847700  0.24651400  0.24739400  1
  C  C1  1  0.05953400  0.64607200  0.64748400  1
  C  C2  1  0.43779300  0.85380700  0.85302000  1
  C  C3  1  0.88893900  0.37092800  0.37043200  1
  Ni  Ni4  1  0.01130500  0.99491500  0.99745400  1
  Ni  Ni5  1  0.48928500  0.50339700  0.50428900  1
  Cu  Cu6  1  0.61402000  0.13128400  0.12599100  1
  C  C7  1  0.24874700  0.25051400  0.54872600  1
  C  C8  1  0.24994900  0.95100100  0.25045500  1
  C  C9  1  0.24813800  0.54907200  0.95196400  1
  C  C10  1  0.75210500  0.45784200  0.03815500  1
  C  C11  1  0.75068500  0.03833000  0.75204500  1
  C  C12  1  0.75290100  0.75260100  0.45703000  1
  C  C13  1  0.07680600  0.11919900  0.30875900  1
  C  C14  1  0.07554800  0.49658300  0.12099300  1
  C  C15  1  0.07587500  0.30778700  0.49544800  1
  C  C16  1  0.23457800  0.08656100  0.73915900  1
  C  C17  1  0.42052100  0.19532200  0.38336000  1
  C  C18  1  0.25864900  0.41098600  0.57000600  1
  C  C19  1  0.23384000  0.93622600  0.08936200  1
  C  C20  1  0.26270800  0.75812700  0.41243300  1
  C  C21  1  0.57392900  0.60795500  0.99020500  1
  C  C22  1  0.25716300  0.56919100  0.76094300  1
  C  C23  1  0.79271600  0.26205900  0.04417200  1
  C  C24  1  0.57320500  0.98991700  0.82881000  1
  C  C25  1  0.42138100  0.00074700  0.19415000  1
  C  C26  1  0.23567600  0.73942900  0.93689800  1
  C  C27  1  0.71900600  0.44804200  0.23666800  1
  C  C28  1  0.42005500  0.38293000  0.00037300  1
  C  C29  1  0.71419800  0.23935500  0.59737300  1
  C  C30  1  0.79370900  0.04386700  0.90014500  1
  C  C31  1  0.71915500  0.59841700  0.44531600  1
  C  C32  1  0.57468100  0.82760400  0.60723100  1
  C  C33  1  0.79489300  0.90276900  0.26233400  1
  C  C34  1  0.92567700  0.66377900  0.51810000  1
  C  C35  1  0.92582700  0.51603500  0.89237500  1
  C  C36  1  0.92394400  0.89369800  0.66380300  1
