# generated using pymatgen
data_Cu3Ni2C31
_symmetry_space_group_name_H-M   'P 1'
_cell_length_a   9.31146061
_cell_length_b   9.30488476
_cell_length_c   24.52954241
_cell_angle_alpha   90.31664665
_cell_angle_beta   89.80678947
_cell_angle_gamma   120.11133516
_symmetry_Int_Tables_number   1
_chemical_formula_structural   Cu3Ni2C31
_chemical_formula_sum   'Cu9 Ni6 C93'
_cell_volume   1838.45848544
_cell_formula_units_Z   3
loop_
 _symmetry_equiv_pos_site_id
 _symmetry_equiv_pos_as_xyz
  1  'x, y, z'
loop_
 _atom_site_type_symbol
 _atom_site_label
 _atom_site_symmetry_multiplicity
 _atom_site_fract_x
 _atom_site_fract_y
 _atom_site_fract_z
 _atom_site_occupancy
  Ni  Ni0  1  0.99224534  0.99003923  0.50079204  1
  Ni  Ni1  1  0.00713226  0.99947969  0.99918554  1
  Ni  Ni2  1  0.66785391  0.32971161  0.83328622  1
  Ni  Ni3  1  0.68419156  0.34191930  0.33027967  1
  Ni  Ni4  1  0.32900827  0.65240860  0.16195206  1
  Ni  Ni5  1  0.33449287  0.66626862  0.67358844  1
  Cu  Cu6  1  0.98952756  0.99436313  0.34970413  1
  Cu  Cu7  1  0.00128725  0.00187623  0.85229865  1
  Cu  Cu8  1  0.99923332  0.99924558  0.66209120  1
  Cu  Cu9  1  0.99653471  0.00119467  0.14603822  1
  Cu  Cu10  1  0.66631550  0.33319735  0.69060077  1
  Cu  Cu11  1  0.67320343  0.34418535  0.18591873  1
  Cu  Cu12  1  0.67527512  0.33208805  0.47523333  1
  Cu  Cu13  1  0.32932614  0.66258967  0.01721841  1
  Cu  Cu14  1  0.33324487  0.67212950  0.51778518  1
  C  C15  1  0.66418200  0.34545887  0.97655231  1
  C  C16  1  0.33257850  0.66823415  0.31538850  1
  C  C17  1  0.33090542  0.66753953  0.82029706  1
  C  C18  1  0.68379320  0.69859739  0.25292805  1
  C  C19  1  0.01249085  0.31235065  0.25380489  1
  C  C20  1  0.30179466  0.31898413  0.75497780  1
  C  C21  1  0.01641616  0.69873501  0.75484501  1
  C  C22  1  0.68149607  0.98335816  0.75516551  1
  C  C23  1  0.94773141  0.62274770  0.07787126  1
  C  C24  1  0.37883581  0.32654194  0.07897866  1
  C  C25  1  0.61849555  0.65585736  0.91655359  1
  C  C26  1  0.02935507  0.38248156  0.91631242  1
  C  C27  1  0.35084101  0.96905108  0.91747626  1
  C  C28  1  0.61659431  0.95482537  0.41272791  1
  C  C29  1  0.04614672  0.66535491  0.41235793  1
  C  C30  1  0.30145899  0.98566091  0.25350720  1
  C  C31  1  0.96565330  0.32664106  0.58366557  1
  C  C32  1  0.36338332  0.03771424  0.58320094  1
  C  C33  1  0.67128817  0.63508628  0.58308314  1
  C  C34  1  0.67110710  0.05282280  0.07859752  1
  C  C35  1  0.33734892  0.38251176  0.41191135  1
  C  C36  1  0.22260741  0.00947992  0.30154113  1
  C  C37  1  0.79357734  0.78021354  0.30231844  1
  C  C38  1  0.99197137  0.20577829  0.30316024  1
  C  C39  1  0.21818196  0.20351392  0.80236414  1
  C  C40  1  0.98541640  0.78252748  0.80248264  1
  C  C41  1  0.79749311  0.01510089  0.80234776  1
  C  C42  1  0.74700611  0.94716978  0.70159725  1
  C  C43  1  0.19994455  0.25207037  0.70165617  1
  C  C44  1  0.05205888  0.80009596  0.70157083  1
  C  C45  1  0.75518644  0.80252576  0.20094695  1
  C  C46  1  0.04745300  0.24354653  0.20125534  1
  C  C47  1  0.20203188  0.95593237  0.20363784  1
  C  C48  1  0.88140580  0.34114951  0.63241748  1
  C  C49  1  0.46008296  0.12240839  0.63226767  1
  C  C50  1  0.65923831  0.53895583  0.63210639  1
  C  C51  1  0.86884197  0.52882554  0.13032106  1
  C  C52  1  0.65968552  0.12692769  0.13044093  1
  C  C53  1  0.47176808  0.33505279  0.13085008  1
  C  C54  1  0.48760442  0.32330163  0.02662911  1
  C  C55  1  0.83468797  0.51308207  0.02638665  1
  C  C56  1  0.67844811  0.15416779  0.03032347  1
  C  C57  1  0.45040768  0.13140170  0.53316178  1
  C  C58  1  0.68003850  0.54829120  0.53290889  1
  C  C59  1  0.87046204  0.31681533  0.53346092  1
  C  C60  1  0.54712610  0.67900310  0.96870066  1
  C  C61  1  0.12932462  0.45397088  0.96751556  1
  C  C62  1  0.32596394  0.86972806  0.96846292  1
  C  C63  1  0.53811353  0.86366342  0.46570707  1
  C  C64  1  0.32368270  0.45673565  0.46322644  1
  C  C65  1  0.13432887  0.67276111  0.46550235  1
  C  C66  1  0.15565702  0.65974596  0.36263685  1
  C  C67  1  0.50438203  0.84408842  0.36298480  1
  C  C68  1  0.34379390  0.48681175  0.36399103  1
  C  C69  1  0.13144419  0.50193884  0.86642740  1
  C  C70  1  0.36967526  0.86918059  0.86694130  1
  C  C71  1  0.50086617  0.63112687  0.86680023  1
  C  C72  1  0.03154586  0.82083980  0.40884144  1
  C  C73  1  0.79041590  0.97724971  0.41011111  1
  C  C74  1  0.19143746  0.21528742  0.40833902  1
  C  C75  1  0.99717989  0.20742358  0.90719145  1
  C  C76  1  0.20758747  -0.00008049  0.90845923  1
  C  C77  1  0.79511711  0.79393260  0.90846773  1
  C  C78  1  0.98071687  0.17519223  0.58534914  1
  C  C79  1  0.19595212  0.02054594  0.58494226  1
  C  C80  1  0.82241890  0.80305767  0.58488638  1
  C  C81  1  0.95343505  0.79146960  0.07720381  1
  C  C82  1  0.82584780  0.04107594  0.07877486  1
  C  C83  1  0.20800826  0.16521633  0.07695477  1
  C  C84  1  0.65014699  0.13000287  0.74852739  1
  C  C85  1  0.48001268  0.35143425  0.74819314  1
  C  C86  1  0.87049116  0.52014614  0.74809960  1
  C  C87  1  0.64844718  0.51932517  0.24925718  1
  C  C88  1  0.86519926  0.34201726  0.25002003  1
  C  C89  1  0.47140984  0.12660667  0.24876976  1
  C  C90  1  0.62902851  0.48693108  0.92495184  1
  C  C91  1  0.85487775  0.37426321  0.92355468  1
  C  C92  1  0.51671943  0.14623758  0.92539992  1
  C  C93  1  0.62116251  0.12301353  0.40981737  1
  C  C94  1  0.49240196  0.37435191  0.41090784  1
  C  C95  1  0.87549245  0.50354288  0.40918155  1
  C  C96  1  0.36355657  0.48246529  0.07641886  1
  C  C97  1  0.12046060  0.64259568  0.07490622  1
  C  C98  1  0.52472930  0.88385173  0.07663567  1
  C  C99  1  0.34641272  0.86945040  0.58230934  1
  C  C100  1  0.51999900  0.65112480  0.58158833  1
  C  C101  1  0.13343066  0.47740324  0.58170009  1
  C  C102  1  0.31518764  0.82957307  0.26166887  1
  C  C103  1  0.50764623  0.68411911  0.26590820  1
  C  C104  1  0.17362642  0.49094996  0.26676242  1
  C  C105  1  0.31470954  0.49285674  0.76841193  1
  C  C106  1  0.17730230  0.68529788  0.76781390  1
  C  C107  1  0.50715978  0.82288884  0.76844939  1
