# generated using pymatgen
data_Cu8Ni8C9
_symmetry_space_group_name_H-M   'P 1'
_cell_length_a   5.28164068
_cell_length_b   5.18598143
_cell_length_c   11.67461904
_cell_angle_alpha   91.15904246
_cell_angle_beta   91.61925768
_cell_angle_gamma   89.80427097
_symmetry_Int_Tables_number   1
_chemical_formula_structural   Cu8Ni8C9
_chemical_formula_sum   'Cu8 Ni8 C9'
_cell_volume   319.57915326
_cell_formula_units_Z   1
loop_
 _symmetry_equiv_pos_site_id
 _symmetry_equiv_pos_as_xyz
  1  'x, y, z'
loop_
 _atom_site_type_symbol
 _atom_site_label
 _atom_site_symmetry_multiplicity
 _atom_site_fract_x
 _atom_site_fract_y
 _atom_site_fract_z
 _atom_site_occupancy
  C  C0  1  0.49385400  0.04179100  0.63195200  1
  C  C1  1  0.93075800  0.90419400  0.00450300  1
  C  C2  1  0.09090500  0.06183900  0.24934300  1
  C  C3  1  0.95761600  0.91272400  0.49116600  1
  C  C4  1  0.05701400  0.04252300  0.76389500  1
  C  C5  1  0.58435900  0.41036000  0.12646300  1
  C  C6  1  0.44312100  0.55007100  0.62632400  1
  C  C7  1  0.42525600  0.54332900  0.88218000  1
  C  C8  1  0.44810800  0.56267900  0.37180300  1
  Ni  Ni9  1  0.16848400  0.79769700  0.36677400  1
  Ni  Ni10  1  0.17316600  0.83893500  0.61892900  1
  Ni  Ni11  1  0.15298300  0.77717300  0.88687400  1
  Ni  Ni12  1  0.35898600  0.30933800  0.25120800  1
  Ni  Ni13  1  0.35416500  0.30823100  0.75029600  1
  Ni  Ni14  1  0.66633200  0.65031900  0.00518700  1
  Ni  Ni15  1  0.63895400  0.74019800  0.50265600  1
  Ni  Ni16  1  0.84479500  0.15468900  0.13130100  1
  Cu  Cu17  1  0.18381700  0.80171600  0.12904400  1
  Cu  Cu18  1  0.33708800  0.28885800  0.00391100  1
  Cu  Cu19  1  0.36703700  0.28842500  0.49227400  1
  Cu  Cu20  1  0.68358000  0.67121600  0.25328500  1
  Cu  Cu21  1  0.62550000  0.77927900  0.75400200  1
  Cu  Cu22  1  0.87736700  0.19574700  0.37989500  1
  Cu  Cu23  1  0.82221100  0.19782100  0.61544500  1
  Cu  Cu24  1  0.82843500  0.17085000  0.89358200  1
