# generated using pymatgen
data_Cu2NiC8
_symmetry_space_group_name_H-M   'P 1'
_cell_length_a   6.23635152
_cell_length_b   6.82916932
_cell_length_c   7.37359257
_cell_angle_alpha   48.75815259
_cell_angle_beta   64.98317568
_cell_angle_gamma   62.83228159
_symmetry_Int_Tables_number   1
_chemical_formula_structural   Cu2NiC8
_chemical_formula_sum   'Cu2 Ni1 C8'
_cell_volume   206.56562908
_cell_formula_units_Z   1
loop_
 _symmetry_equiv_pos_site_id
 _symmetry_equiv_pos_as_xyz
  1  'x, y, z'
loop_
 _atom_site_type_symbol
 _atom_site_label
 _atom_site_symmetry_multiplicity
 _atom_site_fract_x
 _atom_site_fract_y
 _atom_site_fract_z
 _atom_site_occupancy
  C  C0  1  0.78557913  0.74185845  0.68698329  1
  C  C1  1  0.21442087  0.25814155  0.31301671  1
  Ni  Ni2  1  0.50000000  -0.00000000  0.00000000  1
  Cu  Cu3  1  -0.00000000  -0.00000000  0.00000000  1
  Cu  Cu4  1  0.50000000  0.50000000  0.50000000  1
  C  C5  1  0.81901282  0.11979615  0.70837465  1
  C  C6  1  0.64718362  0.88020385  0.29162535  1
  C  C7  1  0.18098718  0.88020385  0.29162535  1
  C  C8  1  0.35281638  0.11979615  0.70837465  1
  C  C9  1  0.64538055  0.58114081  0.12809808  1
  C  C10  1  0.35461945  0.41885919  0.87190192  1
