# generated using pymatgen
data_Cu7Ni7C2
_symmetry_space_group_name_H-M   'P 1'
_cell_length_a   9.60696474
_cell_length_b   9.60696474
_cell_length_c   11.99458142
_cell_angle_alpha   89.83363864
_cell_angle_beta   89.83363864
_cell_angle_gamma   88.42405174
_symmetry_Int_Tables_number   1
_chemical_formula_structural   Cu7Ni7C2
_chemical_formula_sum   'Cu28 Ni28 C8'
_cell_volume   1106.59734132
_cell_formula_units_Z   4
loop_
 _symmetry_equiv_pos_site_id
 _symmetry_equiv_pos_as_xyz
  1  'x, y, z'
loop_
 _atom_site_type_symbol
 _atom_site_label
 _atom_site_symmetry_multiplicity
 _atom_site_fract_x
 _atom_site_fract_y
 _atom_site_fract_z
 _atom_site_occupancy
  C  C0  1  0.71273400  0.32179600  0.13166300  1
  C  C1  1  0.67820400  0.28726600  0.36833700  1
  C  C2  1  0.28726600  0.67820400  0.86833700  1
  C  C3  1  0.32179600  0.71273400  0.63166300  1
  C  C4  1  0.94948400  0.25548000  0.27508800  1
  C  C5  1  0.74452000  0.05051600  0.22491200  1
  C  C6  1  0.05051600  0.74452000  0.72491200  1
  C  C7  1  0.25548000  0.94948400  0.77508800  1
  Ni  Ni8  1  0.52256700  0.29577500  0.10290700  1
  Ni  Ni9  1  0.70422500  0.47743300  0.39709300  1
  Ni  Ni10  1  0.47743300  0.70422500  0.89709300  1
  Ni  Ni11  1  0.29577500  0.52256700  0.60290700  1
  Ni  Ni12  1  0.68692600  0.51565500  0.15438400  1
  Ni  Ni13  1  0.48434500  0.31307400  0.34561600  1
  Ni  Ni14  1  0.31307400  0.48434500  0.84561600  1
  Ni  Ni15  1  0.51565500  0.68692600  0.65438400  1
  Ni  Ni16  1  0.75160500  0.34704900  0.97631500  1
  Ni  Ni17  1  0.65295100  0.24839500  0.52368500  1
  Ni  Ni18  1  0.24839500  0.65295100  0.02368500  1
  Ni  Ni19  1  0.34704900  0.75160500  0.47631500  1
  Ni  Ni20  1  0.10999700  0.13199800  0.26942700  1
  Ni  Ni21  1  0.86800200  0.89000300  0.23057300  1
  Ni  Ni22  1  0.89000300  0.86800200  0.73057300  1
  Ni  Ni23  1  0.13199800  0.10999700  0.76942700  1
  Ni  Ni24  1  0.03215800  0.42384000  0.32497200  1
  Ni  Ni25  1  0.57616000  0.96784200  0.17502800  1
  Ni  Ni26  1  0.96784200  0.57616000  0.67502800  1
  Ni  Ni27  1  0.42384000  0.03215800  0.82497200  1
  Ni  Ni28  1  0.98685900  0.30924800  0.11888900  1
  Ni  Ni29  1  0.69075200  0.01314100  0.38111100  1
  Ni  Ni30  1  0.01314100  0.69075200  0.88111100  1
  Ni  Ni31  1  0.30924800  0.98685900  0.61888900  1
  Ni  Ni32  1  0.92240000  0.19821200  0.43191100  1
  Ni  Ni33  1  0.80178800  0.07760000  0.06808900  1
  Ni  Ni34  1  0.07760000  0.80178800  0.56808900  1
  Ni  Ni35  1  0.19821200  0.92240000  0.93191100  1
  Cu  Cu36  1  0.40567500  0.27928300  0.08299700  1
  Cu  Cu37  1  0.72071700  0.59432500  0.41700300  1
  Cu  Cu38  1  0.59432500  0.72071700  0.91700300  1
  Cu  Cu39  1  0.27928300  0.40567500  0.58299700  1
  Cu  Cu40  1  0.66489200  0.63458600  0.16453600  1
  Cu  Cu41  1  0.36541400  0.33510800  0.33546400  1
  Cu  Cu42  1  0.33510800  0.36541400  0.83546400  1
  Cu  Cu43  1  0.63458600  0.66489200  0.66453600  1
  Cu  Cu44  1  0.77110700  0.36671900  0.88216400  1
  Cu  Cu45  1  0.63328100  0.22889300  0.61783600  1
  Cu  Cu46  1  0.22889300  0.63328100  0.11783600  1
  Cu  Cu47  1  0.36671900  0.77110700  0.38216400  1
  Cu  Cu48  1  0.20756200  0.05856400  0.26920200  1
  Cu  Cu49  1  0.94143600  0.79243800  0.23079800  1
  Cu  Cu50  1  0.79243800  0.94143600  0.73079800  1
  Cu  Cu51  1  0.05856400  0.20756200  0.76920200  1
  Cu  Cu52  1  0.08394300  0.52202000  0.36049300  1
  Cu  Cu53  1  0.47798000  0.91605700  0.13950700  1
  Cu  Cu54  1  0.91605700  0.47798000  0.63950700  1
  Cu  Cu55  1  0.52202000  0.08394300  0.86049300  1
  Cu  Cu56  1  0.04881600  0.33575800  0.03770700  1
  Cu  Cu57  1  0.66424200  0.95118400  0.46229300  1
  Cu  Cu58  1  0.95118400  0.66424200  0.96229300  1
  Cu  Cu59  1  0.33575800  0.04881600  0.53770700  1
  Cu  Cu60  1  0.94864300  0.15580900  0.52127700  1
  Cu  Cu61  1  0.84419100  0.05135700  0.97872300  1
  Cu  Cu62  1  0.05135700  0.84419100  0.47872300  1
  Cu  Cu63  1  0.15580900  0.94864300  0.02127700  1
