# generated using pymatgen
data_Cu(NiC3)3
_symmetry_space_group_name_H-M   'P 1'
_cell_length_a   3.39169200
_cell_length_b   3.39134529
_cell_length_c   44.53487895
_cell_angle_alpha   90.02190851
_cell_angle_beta   90.00000000
_cell_angle_gamma   120.00338192
_symmetry_Int_Tables_number   1
_chemical_formula_structural   Cu(NiC3)3
_chemical_formula_sum   'Cu1 Ni3 C9'
_cell_volume   443.61322134
_cell_formula_units_Z   1
loop_
 _symmetry_equiv_pos_site_id
 _symmetry_equiv_pos_as_xyz
  1  'x, y, z'
loop_
 _atom_site_type_symbol
 _atom_site_label
 _atom_site_symmetry_multiplicity
 _atom_site_fract_x
 _atom_site_fract_y
 _atom_site_fract_z
 _atom_site_occupancy
  C  C0  1  0.99996800  0.99993600  0.37331800  1
  C  C1  1  0.33363000  0.66726100  0.69990100  1
  C  C2  1  0.66640500  0.33281000  0.05165900  1
  C  C3  1  0.66665800  0.33331400  0.13593500  1
  C  C4  1  0.33336800  0.66673700  0.61561900  1
  Ni  Ni5  1  0.33317600  0.66635100  0.09380300  1
  Ni  Ni6  1  0.66663500  0.33327100  0.27708400  1
  Ni  Ni7  1  0.66685500  0.33371000  0.65775700  1
  Cu  Cu8  1  0.33334800  0.66669700  0.47634900  1
  C  C9  1  0.33341000  0.66682000  0.31484200  1
  C  C10  1  0.33315600  0.66631200  0.24020300  1
  C  C11  1  0.66657200  0.33314300  0.44248200  1
  C  C12  1  0.66682100  0.33364000  0.51000200  1
