# generated using pymatgen
data_Cu6Ni6C7
_symmetry_space_group_name_H-M   'P 1'
_cell_length_a   5.04525993
_cell_length_b   14.56223181
_cell_length_c   3.07276300
_cell_angle_alpha   90.00000000
_cell_angle_beta   90.00000000
_cell_angle_gamma   87.26494001
_symmetry_Int_Tables_number   1
_chemical_formula_structural   Cu6Ni6C7
_chemical_formula_sum   'Cu6 Ni6 C7'
_cell_volume   225.49948149
_cell_formula_units_Z   1
loop_
 _symmetry_equiv_pos_site_id
 _symmetry_equiv_pos_as_xyz
  1  'x, y, z'
loop_
 _atom_site_type_symbol
 _atom_site_label
 _atom_site_symmetry_multiplicity
 _atom_site_fract_x
 _atom_site_fract_y
 _atom_site_fract_z
 _atom_site_occupancy
  C  C0  1  0.54088000  0.99378700  0.00000000  1
  C  C1  1  0.04665700  0.01669000  0.00000000  1
  C  C2  1  0.02846000  0.34900100  0.00000000  1
  C  C3  1  0.00452000  0.65895600  0.00000000  1
  C  C4  1  0.51978700  0.16928600  0.50000000  1
  C  C5  1  0.45416800  0.50057200  0.50000000  1
  C  C6  1  0.41741800  0.81476500  0.50000000  1
  Ni  Ni7  1  0.17368700  0.60250100  0.50000000  1
  Ni  Ni8  1  0.28709400  0.94690000  0.50000000  1
  Ni  Ni9  1  0.33835200  0.11721100  0.00000000  1
  Ni  Ni10  1  0.24352200  0.76624500  0.00000000  1
  Ni  Ni11  1  0.32127700  0.44033900  0.00000000  1
  Ni  Ni12  1  0.77177800  0.05059800  0.50000000  1
  Cu  Cu13  1  0.23557400  0.27406500  0.50000000  1
  Cu  Cu14  1  0.72551500  0.23237000  0.00000000  1
  Cu  Cu15  1  0.68328600  0.56757700  0.00000000  1
  Cu  Cu16  1  0.68234600  0.86762500  0.00000000  1
  Cu  Cu17  1  0.79619600  0.40623300  0.50000000  1
  Cu  Cu18  1  0.75726300  0.72064500  0.50000000  1
