# generated using pymatgen
data_Cu2Ni2C7
_symmetry_space_group_name_H-M   'P 1'
_cell_length_a   5.92289476
_cell_length_b   5.92166585
_cell_length_c   5.92653014
_cell_angle_alpha   52.57508858
_cell_angle_beta   52.56786352
_cell_angle_gamma   52.57201733
_symmetry_Int_Tables_number   1
_chemical_formula_structural   Cu2Ni2C7
_chemical_formula_sum   'Cu2 Ni2 C7'
_cell_volume   121.35569122
_cell_formula_units_Z   1
loop_
 _symmetry_equiv_pos_site_id
 _symmetry_equiv_pos_as_xyz
  1  'x, y, z'
loop_
 _atom_site_type_symbol
 _atom_site_label
 _atom_site_symmetry_multiplicity
 _atom_site_fract_x
 _atom_site_fract_y
 _atom_site_fract_z
 _atom_site_occupancy
  C  C0  1  0.14782500  0.14863400  0.14704800  1
  Ni  Ni1  1  0.49572300  0.49676300  0.49545500  1
  Ni  Ni2  1  0.97050200  0.97173500  0.97098500  1
  Cu  Cu3  1  0.77478900  0.77623900  0.77464500  1
  Cu  Cu4  1  0.31539500  0.31651300  0.31707000  1
  C  C5  1  0.57197800  0.21298600  0.88714000  1
  C  C6  1  0.21171300  0.88867700  0.57139200  1
  C  C7  1  0.88773600  0.57255400  0.21195200  1
  C  C8  1  0.34755000  0.74187000  0.11137100  1
  C  C9  1  0.11147700  0.34879600  0.74111100  1
  C  C10  1  0.74088800  0.11271300  0.34740300  1
