# generated using pymatgen
data_Cu2Ni2C15
_symmetry_space_group_name_H-M   'P 1'
_cell_length_a   5.82270800
_cell_length_b   5.72940900
_cell_length_c   9.27358400
_cell_angle_alpha   90.00000000
_cell_angle_beta   90.00000000
_cell_angle_gamma   90.00000000
_symmetry_Int_Tables_number   1
_chemical_formula_structural   Cu2Ni2C15
_chemical_formula_sum   'Cu2 Ni2 C15'
_cell_volume   309.37302765
_cell_formula_units_Z   1
loop_
 _symmetry_equiv_pos_site_id
 _symmetry_equiv_pos_as_xyz
  1  'x, y, z'
loop_
 _atom_site_type_symbol
 _atom_site_label
 _atom_site_symmetry_multiplicity
 _atom_site_fract_x
 _atom_site_fract_y
 _atom_site_fract_z
 _atom_site_occupancy
  C  C0  1  0.75000000  0.25000000  0.08492000  1
  C  C1  1  0.25000000  0.75000000  0.00437100  1
  Ni  Ni2  1  0.25000000  0.25000000  0.76072100  1
  Ni  Ni3  1  0.75000000  0.75000000  0.23618600  1
  Cu  Cu4  1  0.25000000  0.75000000  0.51528600  1
  Cu  Cu5  1  0.75000000  0.25000000  0.45694600  1
  C  C6  1  0.75000000  0.25000000  0.75241000  1
  C  C7  1  0.75000000  0.75000000  0.74672200  1
  C  C8  1  0.25000000  0.25000000  0.26301600  1
  C  C9  1  0.48087400  0.48405400  0.32770600  1
  C  C10  1  0.52628300  0.99491900  0.65719900  1
  C  C11  1  0.48087400  0.01594600  0.32770600  1
  C  C12  1  0.52628300  0.50508100  0.65719900  1
  C  C13  1  0.01912600  0.48405400  0.32770600  1
  C  C14  1  0.25000000  0.25000000  0.06219200  1
  C  C15  1  0.75000000  0.75000000  0.95105000  1
  C  C16  1  0.01912600  0.01594600  0.32770600  1
  C  C17  1  0.97371700  0.50508100  0.65719900  1
  C  C18  1  0.97371700  0.99491900  0.65719900  1
