# generated using pymatgen
data_Cu2Ni5C32
_symmetry_space_group_name_H-M   'P 1'
_cell_length_a   18.06624124
_cell_length_b   9.08059843
_cell_length_c   22.75653191
_cell_angle_alpha   90.02424019
_cell_angle_beta   88.96240139
_cell_angle_gamma   120.11691149
_symmetry_Int_Tables_number   1
_chemical_formula_structural   Cu2Ni5C32
_chemical_formula_sum   'Cu12 Ni30 C192'
_cell_volume   3228.59178187
_cell_formula_units_Z   6
loop_
 _symmetry_equiv_pos_site_id
 _symmetry_equiv_pos_as_xyz
  1  'x, y, z'
loop_
 _atom_site_type_symbol
 _atom_site_label
 _atom_site_symmetry_multiplicity
 _atom_site_fract_x
 _atom_site_fract_y
 _atom_site_fract_z
 _atom_site_occupancy
  Ni  Ni0  1  0.18253212  0.37136308  0.24443434  1
  Ni  Ni1  1  0.68259011  0.37181757  0.24430376  1
  Ni  Ni2  1  0.99448115  0.62509961  0.25363858  1
  Ni  Ni3  1  0.49465324  0.62517847  0.25339781  1
  Ni  Ni4  1  0.49453738  0.36151211  0.75677063  1
  Ni  Ni5  1  0.18259835  0.99399400  0.74730762  1
  Ni  Ni6  1  0.68394960  0.99568844  0.74656032  1
  Ni  Ni7  1  0.65795794  0.34090592  0.58013530  1
  Ni  Ni8  1  0.01741089  0.70606474  0.58141741  1
  Ni  Ni9  1  0.82768990  0.95767344  0.59027917  1
  Ni  Ni10  1  0.49057109  0.67335624  0.91250477  1
  Ni  Ni11  1  0.99227103  0.67440045  0.91211155  1
  Ni  Ni12  1  0.84957019  0.03461036  0.90920876  1
  Ni  Ni13  1  0.16040318  0.29045819  0.92199796  1
  Ni  Ni14  1  0.49078986  0.31059947  0.41213198  1
  Ni  Ni15  1  0.98967609  0.30840960  0.41210580  1
  Ni  Ni16  1  0.34986995  0.66418751  0.40924853  1
  Ni  Ni17  1  0.85061243  0.66474571  0.41276043  1
  Ni  Ni18  1  0.01661331  0.00459040  0.49832876  1
  Ni  Ni19  1  0.51245364  0.99438521  0.49666188  1
  Ni  Ni20  1  0.00989482  0.01516599  0.00009955  1
  Ni  Ni21  1  0.51328799  0.03131283  0.99610050  1
  Ni  Ni22  1  0.33829769  0.32632710  0.83317245  1
  Ni  Ni23  1  0.83989441  0.33422832  0.82808926  1
  Ni  Ni24  1  0.33380129  0.33214203  0.33047741  1
  Ni  Ni25  1  0.83384541  0.33215794  0.33147325  1
  Ni  Ni26  1  0.17321466  0.65790094  0.16242876  1
  Ni  Ni27  1  0.67299524  0.65775956  0.16230083  1
  Ni  Ni28  1  0.17274212  0.67948452  0.66828568  1
  Ni  Ni29  1  0.67216102  0.68400867  0.66626475  1
  Cu  Cu30  1  0.00102277  0.00089073  0.35248249  1
  Cu  Cu31  1  0.50121614  0.00158222  0.35190482  1
  Cu  Cu32  1  0.99788532  0.99586386  0.85024840  1
  Cu  Cu33  1  0.49788236  0.00256981  0.85406755  1
  Cu  Cu34  1  0.33215070  0.32510721  0.68802736  1
  Cu  Cu35  1  0.83474327  0.33662882  0.68754829  1
  Cu  Cu36  1  0.33299261  0.34047491  0.18555147  1
  Cu  Cu37  1  0.83256861  0.34069672  0.18565699  1
  Cu  Cu38  1  0.16130229  0.65435306  0.01895592  1
  Cu  Cu39  1  0.65916662  0.64993111  0.01908353  1
  Cu  Cu40  1  0.16342569  0.66935750  0.51799030  1
  Cu  Cu41  1  0.66118777  0.66696680  0.51993268  1
  C  C42  1  0.35412587  0.71421529  0.25088936  1
  C  C43  1  0.85424885  0.71474652  0.25099252  1
  C  C44  1  0.99715081  0.29268888  0.25266317  1
  C  C45  1  0.49710496  0.29285717  0.25265683  1
  C  C46  1  0.99796396  0.69776124  0.75214966  1
  C  C47  1  0.49772845  0.70083249  0.75328838  1
  C  C48  1  0.35377017  0.99349856  0.75034148  1
  C  C49  1  0.85271876  0.99904937  0.75182014  1
  C  C50  1  0.18640878  0.03867440  0.58688991  1
  C  C51  1  0.68442932  0.03913996  0.58671175  1
  C  C52  1  0.83303152  0.62944657  0.58412871  1
  C  C53  1  0.18505425  0.33295351  0.08543702  1
  C  C54  1  0.68398104  0.33297314  0.08691714  1
  C  C55  1  0.01960366  0.37268483  0.91875325  1
  C  C56  1  0.51927950  0.36937108  0.91780485  1
  C  C57  1  0.16727571  0.96106691  0.91792542  1
  C  C58  1  0.66602447  0.96117677  0.91943435  1
  C  C59  1  0.16624900  0.37052359  0.41869806  1
  C  C60  1  0.66564515  0.36779124  0.41909770  1
  C  C61  1  0.01917717  0.66755412  0.41875600  1
  C  C62  1  0.51962271  0.66935298  0.41847089  1
  C  C63  1  0.99862936  0.98534724  0.65089831  1
  C  C64  1  0.49734819  0.97953390  0.65143144  1
  C  C65  1  0.00005049  0.01483729  0.14850026  1
  C  C66  1  0.49973560  0.01386216  0.14853255  1
  C  C67  1  0.32966494  0.31615963  0.98202247  1
  C  C68  1  0.82585030  0.32155563  0.98238273  1
  C  C69  1  0.32716545  0.33264440  0.48229560  1
  C  C70  1  0.82810892  0.34296200  0.48269720  1
  C  C71  1  0.16543577  0.65250789  0.31552181  1
  C  C72  1  0.66459991  0.65290759  0.31578695  1
  C  C73  1  0.16327966  0.67665467  0.81527730  1
  C  C74  1  0.66559396  0.67875509  0.81623141  1
  C  C75  1  0.14644629  0.99600083  0.24976117  1
  C  C76  1  0.64654392  0.99579292  0.24977333  1
  C  C77  1  0.14577547  0.29751254  0.74986707  1
  C  C78  1  0.64532432  0.29430181  0.74966874  1
  C  C79  1  0.47771853  0.32626554  0.58321060  1
  C  C80  1  0.97955582  0.32995020  0.58256863  1
  C  C81  1  0.33410656  0.62894951  0.58335721  1
  C  C82  1  0.47921512  0.63165850  0.08339149  1
  C  C83  1  0.97943027  0.63161941  0.08308028  1
  C  C84  1  0.33354562  0.03877940  0.08453119  1
  C  C85  1  0.83379169  0.03959459  0.08345379  1
  C  C86  1  0.31067449  0.66573908  0.91705580  1
  C  C87  1  0.81074255  0.66201007  0.91745142  1
  C  C88  1  0.31107717  0.95979706  0.41651181  1
  C  C89  1  0.81084007  0.96072116  0.41721614  1
  C  C90  1  0.10690135  0.02713476  0.30233218  1
  C  C91  1  0.60701110  0.02707952  0.30241291  1
  C  C92  1  0.41235345  0.79226668  0.30857201  1
  C  C93  1  0.91297840  0.79336197  0.30841767  1
  C  C94  1  0.48727360  0.18555809  0.31203981  1
  C  C95  1  0.98770715  0.18542308  0.31190355  1
  C  C96  1  0.10672646  0.19102343  0.80372053  1
  C  C97  1  0.60313957  0.18310643  0.80084794  1
  C  C98  1  0.48759101  0.79079410  0.81145295  1
  C  C99  1  0.99040557  0.79384430  0.81036222  1
  C  C100  1  0.41900305  0.03878020  0.80347416  1
  C  C101  1  0.90878488  0.02219853  0.80934721  1
  C  C102  1  0.39613856  0.97015346  0.68792417  1
  C  C103  1  0.89696851  0.97851037  0.68952707  1
  C  C104  1  0.09208544  0.21842858  0.69740942  1
  C  C105  1  0.59299848  0.22332035  0.69491585  1
  C  C106  1  0.02357729  0.82394284  0.69266989  1
  C  C107  1  0.52645434  0.82943031  0.69477237  1
  C  C108  1  0.40099742  0.82805724  0.19125105  1
  C  C109  1  0.90108043  0.82860047  0.19108212  1
  C  C110  1  0.02586800  0.21733608  0.19589755  1
  C  C111  1  0.52529569  0.21624903  0.19620280  1
  C  C112  1  0.09186314  0.96138414  0.19704919  1
  C  C113  1  0.59188862  0.96098423  0.19722424  1
  C  C114  1  0.43592628  0.34873143  0.63596858  1
  C  C115  1  0.93723805  0.35622961  0.63355634  1
  C  C116  1  0.24199231  0.13040841  0.64403358  1
  C  C117  1  0.74164679  0.12408574  0.64404246  1
  C  C118  1  0.32475901  0.52202311  0.63443283  1
  C  C119  1  0.81811010  0.49985029  0.63701533  1
  C  C120  1  0.43734425  0.52502387  0.13688614  1
  C  C121  1  0.93726504  0.52533074  0.13632303  1
  C  C122  1  0.32456906  0.12572432  0.13639730  1
  C  C123  1  0.82558209  0.12925874  0.13483720  1
  C  C124  1  0.23951246  0.34581770  0.14346917  1
  C  C125  1  0.73815937  0.34697590  0.14544610  1
  C  C126  1  0.22980011  0.30524026  0.02435244  1
  C  C127  1  0.72929407  0.30191037  0.02771949  1
  C  C128  1  0.42760986  0.54941883  0.02996153  1
  C  C129  1  0.92836186  0.55063106  0.02926461  1
  C  C130  1  0.35123933  0.14527918  0.02958699  1
  C  C131  1  0.85050105  0.14376641  0.02763925  1
  C  C132  1  0.23044766  0.15522182  0.52644289  1
  C  C133  1  0.72763636  0.16508243  0.52756539  1
  C  C134  1  0.35026037  0.55780645  0.52703303  1
  C  C135  1  0.85907684  0.56205150  0.52283093  1
  C  C136  1  0.42769359  0.30506892  0.52890865  1
  C  C137  1  0.92752088  0.29945806  0.52782862  1
  C  C138  1  0.27033601  0.68722811  0.97010490  1
  C  C139  1  0.77055376  0.68726426  0.96974591  1
  C  C140  1  0.08277684  0.45789068  0.97322488  1
  C  C141  1  0.57870636  0.46476059  0.97284033  1
  C  C142  1  0.15245149  0.83453854  0.97234968  1
  C  C143  1  0.65556475  0.83645729  0.97336982  1
  C  C144  1  0.27056532  0.85508720  0.46922834  1
  C  C145  1  0.77149641  0.85605929  0.47056974  1
  C  C146  1  0.15497701  0.47357050  0.47276440  1
  C  C147  1  0.65326425  0.46011470  0.47652502  1
  C  C148  1  0.07518024  0.69134944  0.47637492  1
  C  C149  1  0.57949866  0.69313212  0.47281227  1
  C  C150  1  0.06253948  0.63491370  0.35812642  1
  C  C151  1  0.55874013  0.63107302  0.35662346  1
  C  C152  1  0.25897289  0.88549876  0.36304485  1
  C  C153  1  0.75792404  0.88377932  0.36406288  1
  C  C154  1  0.19125737  0.49022040  0.35744317  1
  C  C155  1  0.68920827  0.49184577  0.35923342  1
  C  C156  1  0.06096573  0.49527042  0.85965158  1
  C  C157  1  0.55910645  0.48889571  0.85629425  1
  C  C158  1  0.18641258  0.89097671  0.85555242  1
  C  C159  1  0.69169051  0.89256181  0.85782537  1
  C  C160  1  0.25677357  0.63104976  0.86402823  1
  C  C161  1  0.75932572  0.63214647  0.86348859  1
  C  C162  1  0.00006639  0.82279985  0.41272754  1
  C  C163  1  0.49851475  0.82180153  0.41286178  1
  C  C164  1  0.39628836  0.97351461  0.41096247  1
  C  C165  1  0.89611133  0.97386259  0.41096874  1
  C  C166  1  0.07951905  0.18787175  0.41294684  1
  C  C167  1  0.57858921  0.18547641  0.41235073  1
  C  C168  1  0.00397025  0.18059068  0.91219618  1
  C  C169  1  0.50434604  0.18036979  0.91181634  1
  C  C170  1  0.08166426  0.98102100  0.91301722  1
  C  C171  1  0.57939044  0.97036476  0.91285133  1
  C  C172  1  0.39699063  0.81456653  0.91098211  1
  C  C173  1  0.89679973  0.81833006  0.91174303  1
  C  C174  1  0.48872097  0.17468196  0.58732355  1
  C  C175  1  0.98798886  0.17612689  0.58818739  1
  C  C176  1  0.09025055  0.02427503  0.58906875  1
  C  C177  1  0.59030842  0.03732763  0.58955444  1
  C  C178  1  0.41283676  0.80183279  0.58583101  1
  C  C179  1  0.91859506  0.82312274  0.58763614  1
  C  C180  1  0.48631276  0.80139960  0.08815220  1
  C  C181  1  0.98677131  0.80201319  0.08767789  1
  C  C182  1  0.41159614  0.02069367  0.08724253  1
  C  C183  1  0.91247331  0.02265065  0.08619746  1
  C  C184  1  0.08955448  0.15044709  0.08709250  1
  C  C185  1  0.58883870  0.15095310  0.08799737  1
  C  C186  1  0.33956041  0.15961459  0.74427026  1
  C  C187  1  0.83387160  0.15604988  0.74613693  1
  C  C188  1  0.23036579  0.31031102  0.74320189  1
  C  C189  1  0.72985287  0.30881233  0.74374805  1
  C  C190  1  0.41643300  0.51083546  0.74379261  1
  C  C191  1  0.91377150  0.51401771  0.74517591  1
  C  C192  1  0.33988723  0.51995085  0.24432630  1
  C  C193  1  0.84039408  0.52072476  0.24437635  1
  C  C194  1  0.41580980  0.32095587  0.24418674  1
  C  C195  1  0.91594800  0.32088182  0.24400665  1
  C  C196  1  0.23172491  0.14940813  0.24272358  1
  C  C197  1  0.73192401  0.14889671  0.24278997  1
  C  C198  1  0.32050738  0.50974919  0.92191367  1
  C  C199  1  0.82620162  0.51515178  0.92246473  1
  C  C200  1  0.42716625  0.37580435  0.92446430  1
  C  C201  1  0.92593348  0.36859693  0.92673417  1
  C  C202  1  0.25034065  0.15896917  0.92046337  1
  C  C203  1  0.75617150  0.14963828  0.92167151  1
  C  C204  1  0.32590641  0.13682836  0.42164036  1
  C  C205  1  0.82520941  0.13616805  0.42253039  1
  C  C206  1  0.25593837  0.36182795  0.42132131  1
  C  C207  1  0.75486189  0.35792344  0.41941282  1
  C  C208  1  0.42538136  0.48156883  0.42497687  1
  C  C209  1  0.92651508  0.47910074  0.42222534  1
  C  C210  1  0.17640015  0.50190156  0.08009584  1
  C  C211  1  0.67587353  0.50229980  0.08111669  1
  C  C212  1  0.06523849  0.64977162  0.07897339  1
  C  C213  1  0.56516757  0.65042067  0.07951159  1
  C  C214  1  0.25643709  0.87101526  0.07907079  1
  C  C215  1  0.75712681  0.87133933  0.07884089  1
  C  C216  1  0.17091139  0.84510021  0.58033049  1
  C  C217  1  0.67695205  0.85474699  0.57838560  1
  C  C218  1  0.25728901  0.64471501  0.57812345  1
  C  C219  1  0.74815038  0.64787966  0.57810028  1
  C  C220  1  0.06493406  0.48552272  0.57715939  1
  C  C221  1  0.56459996  0.47964542  0.57940926  1
  C  C222  1  0.15407613  0.84166996  0.25661087  1
  C  C223  1  0.65411553  0.84147875  0.25679361  1
  C  C224  1  0.25794159  0.69580440  0.25452216  1
  C  C225  1  0.75790056  0.69558907  0.25508311  1
  C  C226  1  0.08480085  0.48904577  0.25396297  1
  C  C227  1  0.58488212  0.48880203  0.25395301  1
  C  C228  1  0.15690750  0.46962540  0.75581790  1
  C  C229  1  0.65315945  0.46480781  0.75595948  1
  C  C230  1  0.08820096  0.68991157  0.75277151  1
  C  C231  1  0.58508128  0.67970890  0.75390038  1
  C  C232  1  0.25869918  0.81972874  0.75519904  1
  C  C233  1  0.75758396  0.81784645  0.75431720  1
