# generated using pymatgen
data_Cu2Ni2C15
_symmetry_space_group_name_H-M   'P 1'
_cell_length_a   9.30703023
_cell_length_b   9.30702988
_cell_length_c   23.89514785
_cell_angle_alpha   90.31663485
_cell_angle_beta   89.68336509
_cell_angle_gamma   119.82314037
_symmetry_Int_Tables_number   1
_chemical_formula_structural   Cu2Ni2C15
_chemical_formula_sum   'Cu12 Ni12 C90'
_cell_volume   1795.66349204
_cell_formula_units_Z   6
loop_
 _symmetry_equiv_pos_site_id
 _symmetry_equiv_pos_as_xyz
  1  'x, y, z'
loop_
 _atom_site_type_symbol
 _atom_site_label
 _atom_site_symmetry_multiplicity
 _atom_site_fract_x
 _atom_site_fract_y
 _atom_site_fract_z
 _atom_site_occupancy
  Ni  Ni0  1  0.00162763  0.62472439  0.25213915  1
  Ni  Ni1  1  0.37527561  0.99837237  0.75213915  1
  Ni  Ni2  1  0.65380544  0.97229512  0.59595775  1
  Ni  Ni3  1  0.02770488  0.34619456  0.09595775  1
  Ni  Ni4  1  0.98975640  0.68067399  0.92802999  1
  Ni  Ni5  1  0.31932601  0.01024360  0.42802999  1
  Ni  Ni6  1  0.02224414  0.97725718  0.50196339  1
  Ni  Ni7  1  0.02274282  0.97775586  0.00196339  1
  Ni  Ni8  1  0.65289666  0.28792060  0.83569155  1
  Ni  Ni9  1  0.71207940  0.34710334  0.33569155  1
  Ni  Ni10  1  0.31965405  0.65251305  0.16708314  1
  Ni  Ni11  1  0.34748695  0.68034595  0.66708314  1
  Cu  Cu12  1  0.99240549  0.00818813  0.35029078  1
  Cu  Cu13  1  0.99181187  0.00759451  0.85029078  1
  Cu  Cu14  1  0.00409305  0.99856329  0.64946895  1
  Cu  Cu15  1  0.00143671  0.99590695  0.14946895  1
  Cu  Cu16  1  0.66602849  0.32546201  0.68404234  1
  Cu  Cu17  1  0.67453799  0.33397151  0.18404234  1
  Cu  Cu18  1  0.65700999  0.32757755  0.98266067  1
  Cu  Cu19  1  0.67242245  0.34299001  0.48266067  1
  Cu  Cu20  1  0.33115124  0.68396110  0.01698952  1
  Cu  Cu21  1  0.31603890  0.66884876  0.51698952  1
  Cu  Cu22  1  0.31542785  0.64673786  0.31621224  1
  Cu  Cu23  1  0.35326214  0.68457214  0.81621224  1
  C  C24  1  0.00039444  0.30231099  0.24535966  1
  C  C25  1  0.69768901  0.99960556  0.74535966  1
  C  C26  1  0.36636915  0.03379689  0.58098327  1
  C  C27  1  0.96620311  0.63363085  0.08098327  1
  C  C28  1  0.32870053  0.97267004  0.91259811  1
  C  C29  1  0.02732996  0.67129947  0.41259811  1
  C  C30  1  0.29774121  -0.00012915  0.25243469  1
  C  C31  1  0.70268892  0.70393224  0.24996983  1
  C  C32  1  0.29606776  0.29731108  0.74996983  1
  C  C33  1  0.00012915  0.70225879  0.75243469  1
  C  C34  1  0.96386163  0.33059267  0.58311359  1
  C  C35  1  0.66612595  0.63443278  0.58411890  1
  C  C36  1  0.66940733  0.03613837  0.08311359  1
  C  C37  1  0.36556722  0.33387405  0.08411890  1
  C  C38  1  0.63343281  0.66470597  0.91752327  1
  C  C39  1  0.03977295  0.37468285  0.91786354  1
  C  C40  1  0.62531715  0.96022705  0.41786354  1
  C  C41  1  0.33529403  0.36656719  0.41752327  1
  C  C42  1  0.21965497  0.01667790  0.30438337  1
  C  C43  1  0.80880234  0.78252712  0.29968957  1
  C  C44  1  0.99183218  0.19179273  0.29923352  1
  C  C45  1  0.21747288  0.19119766  0.79968957  1
  C  C46  1  0.98332210  0.78034503  0.80438337  1
  C  C47  1  0.80820727  0.00816782  0.79923352  1
  C  C48  1  0.78421292  0.99135291  0.68623472  1
  C  C49  1  0.19828085  0.21514645  0.69925763  1
  C  C50  1  0.02803423  0.81342537  0.70386712  1
  C  C51  1  0.78485355  0.80171915  0.19925763  1
  C  C52  1  0.00864709  0.21578708  0.18623472  1
  C  C53  1  0.18657463  0.97196577  0.20386712  1
  C  C54  1  0.88827763  0.35774797  0.63397528  1
  C  C55  1  0.48282548  0.12966045  0.63615166  1
  C  C56  1  0.65685773  0.54070247  0.63498159  1
  C  C57  1  0.87033955  0.51717452  0.13615166  1
  C  C58  1  0.64225203  0.11172237  0.13397528  1
  C  C59  1  0.45929753  0.34314227  0.13498159  1
  C  C60  1  0.44631512  0.31337645  0.03363851  1
  C  C61  1  0.86318720  0.54162463  0.02361149  1
  C  C62  1  0.68417000  0.13686081  0.03343880  1
  C  C63  1  0.45837537  0.13681280  0.52361149  1
  C  C64  1  0.68662355  0.55368488  0.53363851  1
  C  C65  1  0.86313919  0.31583000  0.53343880  1
  C  C66  1  0.54866007  0.67663886  0.96806280  1
  C  C67  1  0.13505166  0.44958960  0.97010995  1
  C  C68  1  0.30353628  0.84679941  0.96506689  1
  C  C69  1  0.55041040  0.86494834  0.47010995  1
  C  C70  1  0.32336114  0.45133993  0.46806280  1
  C  C71  1  0.15320059  0.69646372  0.46506689  1
  C  C72  1  0.11338796  0.65281892  0.35429692  1
  C  C73  1  0.52244798  0.87013056  0.36887756  1
  C  C74  1  0.35464082  0.46512779  0.36687817  1
  C  C75  1  0.12986944  0.47755202  0.86887756  1
  C  C76  1  0.34718108  0.88661204  0.85429692  1
  C  C77  1  0.53487221  0.64535918  0.86687817  1
  C  C78  1  0.02656559  0.84858213  0.41200541  1
  C  C79  1  0.79518342  0.98743879  0.41329818  1
  C  C80  1  0.18406669  0.19904898  0.41375402  1
  C  C81  1  0.01256121  0.20481658  0.91329818  1
  C  C82  1  0.15141787  0.97343441  0.91200541  1
  C  C83  1  0.80095102  0.81593331  0.91375402  1
  C  C84  1  0.96630719  0.17208280  0.58694036  1
  C  C85  1  0.17907292  0.00773642  0.58578425  1
  C  C86  1  0.81245868  0.80636110  0.58643669  1
  C  C87  1  0.99226358  0.82092708  0.08578425  1
  C  C88  1  0.82791720  0.03369281  0.08694036  1
  C  C89  1  0.19363890  0.18754132  0.08643669  1
  C  C90  1  0.66820705  0.16242616  0.74803785  1
  C  C91  1  0.46399382  0.31324984  0.74510898  1
  C  C92  1  0.85079024  0.53939975  0.74492736  1
  C  C93  1  0.68675016  0.53600618  0.24510898  1
  C  C94  1  0.83757384  0.33179295  0.24803785  1
  C  C95  1  0.46060025  0.14920976  0.24492736  1
  C  C96  1  0.66112946  0.52007427  0.92013476  1
  C  C97  1  0.87616845  0.36940387  0.92051367  1
  C  C98  1  0.49346925  0.15564860  0.91896970  1
  C  C99  1  0.63059613  0.12383155  0.42051367  1
  C  C100  1  0.47992573  0.33887054  0.42013476  1
  C  C101  1  0.84435140  0.50653075  0.41896970  1
  C  C102  1  0.34974177  0.48490609  0.08014302  1
  C  C103  1  0.14650475  0.63493638  0.08063678  1
  C  C104  1  0.52901119  0.86527333  0.07824301  1
  C  C105  1  0.36506362  0.85349525  0.58063678  1
  C  C106  1  0.51509391  0.65025823  0.58014302  1
  C  C107  1  0.13472667  0.47098881  0.57824301  1
  C  C108  1  0.31658892  0.84942433  0.25521280  1
  C  C109  1  0.53847511  0.68901054  0.25577050  1
  C  C110  1  0.16487580  0.49280041  0.24783282  1
  C  C111  1  0.31098946  0.46152489  0.75577050  1
  C  C112  1  0.15057567  0.68341108  0.75521280  1
  C  C113  1  0.50719959  0.83512420  0.74783282  1
