# generated using pymatgen
data_Cu4(Ni3C23)3
_symmetry_space_group_name_H-M   'P 1'
_cell_length_a   18.06133868
_cell_length_b   9.03658236
_cell_length_c   22.09475081
_cell_angle_alpha   90.20133759
_cell_angle_beta   90.03735103
_cell_angle_gamma   120.08438223
_symmetry_Int_Tables_number   1
_chemical_formula_structural   Cu4(Ni3C23)3
_chemical_formula_sum   'Cu12 Ni27 C207'
_cell_volume   3120.32342504
_cell_formula_units_Z   3
loop_
 _symmetry_equiv_pos_site_id
 _symmetry_equiv_pos_as_xyz
  1  'x, y, z'
loop_
 _atom_site_type_symbol
 _atom_site_label
 _atom_site_symmetry_multiplicity
 _atom_site_fract_x
 _atom_site_fract_y
 _atom_site_fract_z
 _atom_site_occupancy
  C  C0  1  0.81859844  0.01003779  0.25456971  1
  C  C1  1  0.17556189  0.35751628  0.25360546  1
  C  C2  1  0.69165152  0.37212673  0.25621310  1
  C  C3  1  0.99704816  0.62933277  0.24526567  1
  C  C4  1  0.50594883  0.64707003  0.25269418  1
  C  C5  1  0.31721734  0.62568960  0.74981241  1
  C  C6  1  0.00384260  0.36253909  0.74408111  1
  C  C7  1  0.49931680  0.36719644  0.74033704  1
  C  C8  1  0.19028106  0.01067661  0.75062729  1
  C  C9  1  0.67884068  0.99402480  0.74698697  1
  C  C10  1  0.14678770  0.32563341  0.58107921  1
  C  C11  1  0.65159783  0.33459521  0.58326123  1
  C  C12  1  0.33472754  0.98096156  0.58745654  1
  C  C13  1  0.83201996  0.96461286  0.58242177  1
  C  C14  1  0.14285976  0.96209805  0.07985988  1
  C  C15  1  0.65078025  0.97222106  0.07994335  1
  C  C16  1  0.33179921  0.68807878  0.08283025  1
  C  C17  1  0.83445842  0.68833640  0.08782242  1
  C  C18  1  0.48167779  0.67894291  0.91455600  1
  C  C19  1  0.98244389  0.67517861  0.92235054  1
  C  C20  1  0.34929602  0.02966140  0.90721811  1
  C  C21  1  0.84788696  0.02965132  0.91028410  1
  C  C22  1  0.16911900  0.29484955  0.90700145  1
  C  C23  1  0.66709768  0.29370906  0.90786578  1
  C  C24  1  0.48476945  0.29420872  0.42733147  1
  C  C25  1  0.97943949  0.28429630  0.42155406  1
  C  C26  1  0.16633166  0.04065357  0.41220214  1
  C  C27  1  0.67444358  0.05144144  0.41517577  1
  C  C28  1  0.34873040  0.66650829  0.41475021  1
  C  C29  1  0.84843401  0.66701315  0.42028144  1
  C  C30  1  0.99774657  0.99451826  0.49879762  1
  C  C31  1  0.50599286  0.01260719  0.49972815  1
  C  C32  1  0.00271414  0.99738716  0.99808457  1
  C  C33  1  0.50435043  0.00092632  0.99502693  1
  C  C34  1  0.33039386  0.33743292  0.82811616  1
  C  C35  1  0.82508883  0.33236348  0.83294384  1
  C  C36  1  0.32497437  0.31631746  0.33705747  1
  C  C37  1  0.82959173  0.32333159  0.33372408  1
  C  C38  1  0.15737128  0.65105873  0.16880407  1
  C  C39  1  0.66317170  0.65852589  0.17105217  1
  C  C40  1  0.16067753  0.66671452  0.66867822  1
  C  C41  1  0.66628998  0.66471112  0.66460140  1
  C  C42  1  0.99953851  0.01954373  0.34696708  1
  C  C43  1  0.50334722  0.00557545  0.35081370  1
  C  C44  1  0.00189424  0.99926009  0.84888889  1
  C  C45  1  0.49950581  0.98122913  0.84576330  1
  C  C46  1  0.33564901  0.31726590  0.69007331  1
  C  C47  1  0.83519559  0.35264743  0.19080857  1
  C  C48  1  0.32188223  0.34308618  0.98005993  1
  C  C49  1  0.82088908  0.34531308  0.98360712  1
  C  C50  1  0.32250815  0.29893948  0.48352410  1
  C  C51  1  0.82492844  0.32072520  0.48651352  1
  C  C52  1  0.68758415  0.69513044  0.31731645  1
  C  C53  1  0.18435393  0.67990510  0.81482930  1
  Ni  Ni54  1  0.14774071  0.00124794  0.25136547  1
  Ni  Ni55  1  0.64895740  0.99466919  0.25280692  1
  Ni  Ni56  1  0.35826993  0.71585117  0.25082254  1
  Ni  Ni57  1  0.85587351  0.71437934  0.25189628  1
  Ni  Ni58  1  0.99726336  0.29429057  0.25045281  1
  Ni  Ni59  1  0.14601150  0.29696182  0.75190853  1
  Ni  Ni60  1  0.64710464  0.29252003  0.75336888  1
  Ni  Ni61  1  0.49706579  0.70042036  0.75104720  1
  Ni  Ni62  1  0.35518416  0.99677127  0.75225834  1
  Ni  Ni63  1  0.85822723  0.00658930  0.75105994  1
  Ni  Ni64  1  0.47507036  0.33397812  0.58350216  1
  Ni  Ni65  1  0.97977157  0.34313865  0.58183950  1
  Ni  Ni66  1  0.18827119  0.04079971  0.58609506  1
  Ni  Ni67  1  0.68119156  0.03122309  0.58113570  1
  Ni  Ni68  1  0.83668646  0.61999654  0.57994039  1
  Ni  Ni69  1  0.47826489  0.61489282  0.08093920  1
  Ni  Ni70  1  0.97541994  0.61532643  0.08340193  1
  Ni  Ni71  1  0.18129726  0.33140444  0.08140118  1
  Ni  Ni72  1  0.68551524  0.33340691  0.08659789  1
  Ni  Ni73  1  0.31660955  0.67207810  0.91762599  1
  Ni  Ni74  1  0.81642799  0.67080377  0.91730603  1
  Ni  Ni75  1  0.16774629  0.96163722  0.91453326  1
  Ni  Ni76  1  0.66892054  0.96862780  0.91885363  1
  Ni  Ni77  1  0.31687063  0.96255964  0.41683164  1
  Ni  Ni78  1  0.81816713  0.96983129  0.41796529  1
  Ni  Ni79  1  0.16871760  0.36908691  0.41756180  1
  Ni  Ni80  1  0.66526195  0.37293991  0.41154966  1
  Cu  Cu81  1  0.99820872  0.00495260  0.64378122  1
  Cu  Cu82  1  0.50354572  0.00615768  0.64961661  1
  Cu  Cu83  1  0.00317282  0.00124235  0.14986170  1
  Cu  Cu84  1  0.50385624  0.98716714  0.14853836  1
  Cu  Cu85  1  0.82913114  0.32318214  0.68341909  1
  Cu  Cu86  1  0.33099141  0.34396348  0.18625808  1
  Cu  Cu87  1  0.16279987  0.66423198  0.01813977  1
  Cu  Cu88  1  0.66765304  0.66707584  0.01984329  1
  Cu  Cu89  1  0.16700299  0.66883476  0.51955313  1
  Cu  Cu90  1  0.66762366  0.65845211  0.52069313  1
  Cu  Cu91  1  0.17469613  0.67322388  0.31165350  1
  Cu  Cu92  1  0.67499233  0.67772208  0.81109834  1
  C  C93  1  0.49695321  0.28774363  0.25019268  1
  C  C94  1  0.99969569  0.70702863  0.75270591  1
  C  C95  1  0.33514927  0.62228056  0.58248669  1
  C  C96  1  0.33585960  0.04797522  0.08200497  1
  C  C97  1  0.83549908  0.04800689  0.08242595  1
  C  C98  1  0.01909208  0.37123527  0.91453793  1
  C  C99  1  0.51807764  0.37187115  0.91733174  1
  C  C100  1  0.02024719  0.66726155  0.41465801  1
  C  C101  1  0.52093016  0.66734613  0.41474844  1
  C  C102  1  0.10393888  0.04226579  0.30850840  1
  C  C103  1  0.60292730  0.03714881  0.30819679  1
  C  C104  1  0.41927632  0.80998402  0.30836564  1
  C  C105  1  0.91926357  0.80950020  0.30867533  1
  C  C106  1  0.48721650  0.19163910  0.30585900  1
  C  C107  1  0.97880215  0.18268133  0.31178998  1
  C  C108  1  0.10381747  0.17028185  0.81057097  1
  C  C109  1  0.60132858  0.16785398  0.81146847  1
  C  C110  1  0.47761594  0.77260560  0.81344863  1
  C  C111  1  0.98976179  0.78422932  0.80960311  1
  C  C112  1  0.41568530  0.02493953  0.81084798  1
  C  C113  1  0.91650145  0.03150677  0.81079191  1
  C  C114  1  0.39321571  0.95628463  0.69045635  1
  C  C115  1  0.89658883  0.97608610  0.68877279  1
  C  C116  1  0.08465440  0.21668748  0.69158455  1
  C  C117  1  0.59170028  0.22111366  0.69046568  1
  C  C118  1  0.01236356  0.81606831  0.69941486  1
  C  C119  1  0.52265294  0.83733690  0.69594604  1
  C  C120  1  0.39457072  0.82013735  0.18668764  1
  C  C121  1  0.89248456  0.82807912  0.18891661  1
  C  C122  1  0.02449721  0.21248274  0.19414959  1
  C  C123  1  0.50854600  0.20291265  0.19554921  1
  C  C124  1  0.09465253  0.96597892  0.18727779  1
  C  C125  1  0.58908914  0.94353835  0.19006322  1
  C  C126  1  0.43252509  0.35298808  0.64523769  1
  C  C127  1  0.94115895  0.36642605  0.64610675  1
  C  C128  1  0.24814617  0.12739535  0.64541532  1
  C  C129  1  0.73898535  0.10591352  0.64344458  1
  C  C130  1  0.32619266  0.52461068  0.63749512  1
  C  C131  1  0.81661688  0.49856816  0.63928331  1
  C  C132  1  0.43962504  0.51043806  0.14459568  1
  C  C133  1  0.93304129  0.51174303  0.14488576  1
  C  C134  1  0.32533224  0.13067487  0.13717764  1
  C  C135  1  0.82672552  0.12839616  0.13743509  1
  C  C136  1  0.24129849  0.37223098  0.14257910  1
  C  C137  1  0.74472155  0.36189562  0.14556800  1
  C  C138  1  0.22322603  0.29162746  0.02267448  1
  C  C139  1  0.72000855  0.28873505  0.02454585  1
  C  C140  1  0.41680867  0.51760510  0.02339965  1
  C  C141  1  0.91885679  0.52400100  0.02216432  1
  C  C142  1  0.34293831  0.14121957  0.02622473  1
  C  C143  1  0.84077282  0.13919315  0.02599506  1
  C  C144  1  0.22289565  0.15192361  0.52378387  1
  C  C145  1  0.72292813  0.15355043  0.52242281  1
  C  C146  1  0.34092209  0.54100719  0.52592012  1
  C  C147  1  0.84570621  0.53445436  0.51764709  1
  C  C148  1  0.41725759  0.30827182  0.52268665  1
  C  C149  1  0.92022885  0.31686254  0.52366891  1
  C  C150  1  0.27297784  0.70654759  0.97840640  1
  C  C151  1  0.77846378  0.71314472  0.97946844  1
  C  C152  1  0.07324548  0.44864407  0.97026048  1
  C  C153  1  0.57390315  0.45336600  0.97191497  1
  C  C154  1  0.14551491  0.84277937  0.97667298  1
  C  C155  1  0.64732385  0.84249375  0.97835210  1
  C  C156  1  0.27715596  0.84187914  0.47785083  1
  C  C157  1  0.77202467  0.83953450  0.47520062  1
  C  C158  1  0.14784548  0.45525988  0.47635263  1
  C  C159  1  0.64041882  0.44664471  0.47216898  1
  C  C160  1  0.07584553  0.69737410  0.46907120  1
  C  C161  1  0.57518912  0.69309325  0.46873108  1
  C  C162  1  0.06108886  0.64205283  0.35983260  1
  C  C163  1  0.55937468  0.64182087  0.35910232  1
  C  C164  1  0.24613336  0.87709592  0.36257909  1
  C  C165  1  0.75680178  0.89615806  0.35778235  1
  C  C166  1  0.18897258  0.49257865  0.35776845  1
  C  C167  1  0.67661220  0.49608184  0.35324161  1
  C  C168  1  0.05974526  0.47880483  0.86112968  1
  C  C169  1  0.55662332  0.48016287  0.86312106  1
  C  C170  1  0.18235763  0.86339493  0.85738241  1
  C  C171  1  0.68837855  0.88153299  0.86022475  1
  C  C172  1  0.25251183  0.62334234  0.85996953  1
  C  C173  1  0.74428969  0.61539867  0.86443730  1
  C  C174  1  0.01268079  0.82198557  0.41135235  1
  C  C175  1  0.51349559  0.82475797  0.41273097  1
  C  C176  1  0.41004098  0.97574153  0.40866354  1
  C  C177  1  0.91100440  0.97779239  0.41248709  1
  C  C178  1  0.08390101  0.17862872  0.41190292  1
  C  C179  1  0.57987677  0.17822085  0.40803744  1
  C  C180  1  0.01178342  0.19964186  0.91204738  1
  C  C181  1  0.51084369  0.20242076  0.91353685  1
  C  C182  1  0.08299769  0.98510506  0.90996089  1
  C  C183  1  0.58415524  0.98900566  0.91281869  1
  C  C184  1  0.41000498  0.84684228  0.91351708  1
  C  C185  1  0.91052275  0.84244714  0.90856525  1
  C  C186  1  0.48124503  0.15407056  0.58545603  1
  C  C187  1  0.98879479  0.16833268  0.58204299  1
  C  C188  1  0.09380222  0.02213378  0.59136495  1
  C  C189  1  0.58819941  0.02271185  0.58544579  1
  C  C190  1  0.40979658  0.80012890  0.58389457  1
  C  C191  1  0.91861429  0.81535675  0.58504445  1
  C  C192  1  0.48292411  0.80545158  0.08212650  1
  C  C193  1  0.98289774  0.80882499  0.08452542  1
  C  C194  1  0.41140672  0.02402359  0.08643094  1
  C  C195  1  0.90988875  0.01865913  0.08349854  1
  C  C196  1  0.08788227  0.15693269  0.08490289  1
  C  C197  1  0.58834900  0.16187993  0.09086438  1
  C  C198  1  0.34493170  0.16702273  0.75064218  1
  C  C199  1  0.85327340  0.18576939  0.74943772  1
  C  C200  1  0.24169103  0.32106625  0.74401230  1
  C  C201  1  0.74094466  0.30389597  0.74876895  1
  C  C202  1  0.41170508  0.51353661  0.74244229  1
  C  C203  1  0.92240476  0.53422341  0.74862917  1
  C  C204  1  0.35504980  0.52788834  0.24988271  1
  C  C205  1  0.84488037  0.52285345  0.24962065  1
  C  C206  1  0.41857502  0.30365575  0.24561803  1
  C  C207  1  0.91224924  0.31048554  0.24185462  1
  C  C208  1  0.24372932  0.17701375  0.24596643  1
  C  C209  1  0.74330748  0.16321696  0.24389154  1
  C  C210  1  0.32734377  0.50109601  0.92095468  1
  C  C211  1  0.82727336  0.50076773  0.92123608  1
  C  C212  1  0.43226325  0.35273131  0.92383733  1
  C  C213  1  0.93316003  0.35068692  0.92127851  1
  C  C214  1  0.25727547  0.14957240  0.92116586  1
  C  C215  1  0.75813164  0.15571493  0.92537518  1
  C  C216  1  0.32812314  0.15462893  0.42067273  1
  C  C217  1  0.82867346  0.16129272  0.42446589  1
  C  C218  1  0.25776658  0.36014676  0.42458060  1
  C  C219  1  0.75251241  0.36071647  0.41628848  1
  C  C220  1  0.43395104  0.51580482  0.42058863  1
  C  C221  1  0.93600971  0.51201708  0.41876988  1
  C  C222  1  0.17923376  0.51100744  0.07702893  1
  C  C223  1  0.68329637  0.51381672  0.08043428  1
  C  C224  1  0.07646713  0.65711777  0.08012074  1
  C  C225  1  0.57821968  0.65679484  0.07997234  1
  C  C226  1  0.25612111  0.87304989  0.08202642  1
  C  C227  1  0.75449618  0.87095625  0.08215467  1
  C  C228  1  0.18564229  0.85540322  0.57996638  1
  C  C229  1  0.67544847  0.84570797  0.57584428  1
  C  C230  1  0.25457432  0.63716650  0.58168883  1
  C  C231  1  0.74969579  0.63908545  0.57959460  1
  C  C232  1  0.07977337  0.50599919  0.58064027  1
  C  C233  1  0.57392242  0.49305375  0.57947736  1
  C  C234  1  0.15129079  0.82451307  0.25568068  1
  C  C235  1  0.65338188  0.81714779  0.26023626  1
  C  C236  1  0.25932062  0.67447596  0.25085969  1
  C  C237  1  0.75935275  0.69163705  0.25423589  1
  C  C238  1  0.08288610  0.48665377  0.25637018  1
  C  C239  1  0.57290537  0.46201778  0.25174800  1
  C  C240  1  0.15126265  0.48521773  0.75944923  1
  C  C241  1  0.65060887  0.47683137  0.75787571  1
  C  C242  1  0.07672169  0.68793420  0.75575335  1
  C  C243  1  0.58237631  0.67910588  0.75715920  1
  C  C244  1  0.25824634  0.82628610  0.75364720  1
  C  C245  1  0.75918750  0.84746259  0.75188082  1
