# generated using pymatgen
data_Cu2NiC32
_symmetry_space_group_name_H-M   'P 1'
_cell_length_a   18.13998987
_cell_length_b   9.06116233
_cell_length_c   23.89570536
_cell_angle_alpha   90.03952352
_cell_angle_beta   90.00923125
_cell_angle_gamma   120.13257146
_symmetry_Int_Tables_number   1
_chemical_formula_structural   Cu2NiC32
_chemical_formula_sum   'Cu12 Ni6 C192'
_cell_volume   3396.95304191
_cell_formula_units_Z   6
loop_
 _symmetry_equiv_pos_site_id
 _symmetry_equiv_pos_as_xyz
  1  'x, y, z'
loop_
 _atom_site_type_symbol
 _atom_site_label
 _atom_site_symmetry_multiplicity
 _atom_site_fract_x
 _atom_site_fract_y
 _atom_site_fract_z
 _atom_site_occupancy
  Ni  Ni0  1  0.00165098  0.98649565  0.50149649  1
  Ni  Ni1  1  0.50183999  0.01674321  0.99073818  1
  Ni  Ni2  1  0.34026263  0.33418480  0.83684390  1
  Ni  Ni3  1  0.84080051  0.35128104  0.82491860  1
  Ni  Ni4  1  0.33094230  0.33051102  0.33460993  1
  Ni  Ni5  1  0.84362901  0.34908327  0.34139645  1
  Cu  Cu6  1  0.00117336  0.98817546  0.35622407  1
  Cu  Cu7  1  0.49922636  0.00008597  0.35636634  1
  Cu  Cu8  1  0.00022944  0.00395102  0.14377805  1
  Cu  Cu9  1  0.50009157  0.99859899  0.14706653  1
  Cu  Cu10  1  0.33474600  0.33716957  0.18276373  1
  Cu  Cu11  1  0.83244931  0.32831684  0.18292798  1
  Cu  Cu12  1  0.83366334  0.33413228  0.97835580  1
  Cu  Cu13  1  0.33314607  0.33371560  0.48522141  1
  Cu  Cu14  1  0.16553047  0.66503546  0.01683947  1
  Cu  Cu15  1  0.66643827  0.66836627  0.52512846  1
  Cu  Cu16  1  0.15773222  0.66260394  0.31567979  1
  Cu  Cu17  1  0.66891014  0.66728830  0.31354532  1
  C  C18  1  0.99877329  0.98938580  0.84895825  1
  C  C19  1  0.50062451  0.01486563  0.85131872  1
  C  C20  1  0.99917723  0.99387918  0.65580380  1
  C  C21  1  0.50091745  0.99887167  0.64941356  1
  C  C22  1  0.33089986  0.33383896  0.68449913  1
  C  C23  1  0.84100235  0.34567291  0.68655223  1
  C  C24  1  0.33935198  0.33510614  0.97755278  1
  C  C25  1  0.84031112  0.34258923  0.48496578  1
  C  C26  1  0.66319116  0.65632530  0.01324869  1
  C  C27  1  0.16153290  0.66768793  0.52083603  1
  C  C28  1  0.16217406  0.67063298  0.80954552  1
  C  C29  1  0.66104102  0.65500591  0.81455629  1
  C  C30  1  0.99828697  0.70518765  0.75084235  1
  C  C31  1  0.52004562  0.37212623  0.91602881  1
  C  C32  1  0.01629076  0.65867639  0.42092490  1
  C  C33  1  0.14832741  0.00464942  0.24928496  1
  C  C34  1  0.64690595  0.00219382  0.25120980  1
  C  C35  1  0.35343246  0.70552891  0.25114460  1
  C  C36  1  0.85383375  0.70462068  0.24941418  1
  C  C37  1  0.99838105  0.28954542  0.25018869  1
  C  C38  1  0.49874775  0.29204677  0.25087382  1
  C  C39  1  0.14926070  0.29544053  0.75072939  1
  C  C40  1  0.64620684  0.28996539  0.74896692  1
  C  C41  1  0.49898724  0.71018048  0.75044393  1
  C  C42  1  0.35487396  0.00313712  0.74894369  1
  C  C43  1  0.84975822  0.99645761  0.75191474  1
  C  C44  1  0.47704121  0.32472036  0.58708528  1
  C  C45  1  0.98042145  0.32426765  0.58435741  1
  C  C46  1  0.18462547  0.03802343  0.58506792  1
  C  C47  1  0.69006649  0.05609068  0.58503068  1
  C  C48  1  0.33260164  0.63172088  0.58491433  1
  C  C49  1  0.83687592  0.62868914  0.58408137  1
  C  C50  1  0.48220401  0.62736535  0.08053175  1
  C  C51  1  0.98008062  0.62584001  0.08301979  1
  C  C52  1  0.33371502  0.04168134  0.08161684  1
  C  C53  1  0.82740918  0.02918463  0.08083270  1
  C  C54  1  0.19069038  0.33425166  0.07989914  1
  C  C55  1  0.68645794  0.33959528  0.08208389  1
  C  C56  1  0.31244301  0.66620058  0.91378639  1
  C  C57  1  0.81384434  0.67462614  0.91541627  1
  C  C58  1  0.02126514  0.36605346  0.91301803  1
  C  C59  1  0.16656333  0.96347025  0.91535873  1
  C  C60  1  0.66472627  0.95483454  0.91496772  1
  C  C61  1  0.31117588  0.95820229  0.41804839  1
  C  C62  1  0.81202503  0.96471956  0.41825680  1
  C  C63  1  0.16864255  0.37780743  0.41835497  1
  C  C64  1  0.66980137  0.37559222  0.41792853  1
  C  C65  1  0.51983592  0.66222542  0.41641092  1
  C  C66  1  0.10885669  0.02955756  0.29973256  1
  C  C67  1  0.60538557  0.02554424  0.30077830  1
  C  C68  1  0.40766169  0.78874272  0.30062783  1
  C  C69  1  0.90521385  0.78481116  0.29991821  1
  C  C70  1  0.48693319  0.18633070  0.30072428  1
  C  C71  1  0.98673477  0.18637218  0.30037825  1
  C  C72  1  0.11018710  0.18840880  0.80079468  1
  C  C73  1  0.60754215  0.18231908  0.79953346  1
  C  C74  1  0.48469030  0.79010622  0.80057910  1
  C  C75  1  0.97909627  0.78260186  0.80704766  1
  C  C76  1  0.40880121  0.03536039  0.79929174  1
  C  C77  1  0.90572562  0.03337003  0.80153094  1
  C  C78  1  0.39450859  0.97925839  0.69789567  1
  C  C79  1  0.88812431  0.97255238  0.70004714  1
  C  C80  1  0.09824592  0.22224995  0.69906282  1
  C  C81  1  0.59214741  0.21143891  0.69836669  1
  C  C82  1  0.01451548  0.81596434  0.69362613  1
  C  C83  1  0.50991126  0.81099322  0.69859148  1
  C  C84  1  0.39560338  0.80618709  0.20017994  1
  C  C85  1  0.89494234  0.80687221  0.19912650  1
  C  C86  1  0.00583364  0.20468358  0.19924457  1
  C  C87  1  0.50847607  0.21057081  0.20005953  1
  C  C88  1  0.09706612  0.98613882  0.19906014  1
  C  C89  1  0.59646074  0.98197905  0.20018244  1
  C  C90  1  0.43683452  0.35543374  0.63638136  1
  C  C91  1  0.94007613  0.35202420  0.63356468  1
  C  C92  1  0.23779480  0.12235303  0.63527975  1
  C  C93  1  0.74382384  0.13436569  0.63484924  1
  C  C94  1  0.31788636  0.52169687  0.63480755  1
  C  C95  1  0.82245433  0.52245315  0.63366146  1
  C  C96  1  0.44214764  0.52619249  0.13214755  1
  C  C97  1  0.93950184  0.52049819  0.13343221  1
  C  C98  1  0.32382369  0.12097860  0.13329654  1
  C  C99  1  0.81532323  0.10964787  0.13192136  1
  C  C100  1  0.24164609  0.35973400  0.13160719  1
  C  C101  1  0.73649514  0.35447715  0.13324306  1
  C  C102  1  0.23245913  0.30882477  0.03075987  1
  C  C103  1  0.72718521  0.31160142  0.03266805  1
  C  C104  1  0.42608475  0.54681700  0.03174898  1
  C  C105  1  0.92653852  0.54341438  0.03336726  1
  C  C106  1  0.34655685  0.14867204  0.03225559  1
  C  C107  1  0.84278719  0.14292283  0.03244004  1
  C  C108  1  0.22626725  0.14452174  0.53427636  1
  C  C109  1  0.72853125  0.15882472  0.53320851  1
  C  C110  1  0.34826572  0.55220947  0.53491153  1
  C  C111  1  0.84896073  0.55121519  0.53244043  1
  C  C112  1  0.42520562  0.29935285  0.53596309  1
  C  C113  1  0.92743422  0.29259684  0.53288212  1
  C  C114  1  0.27437735  0.69223198  0.96559666  1
  C  C115  1  0.77523684  0.69602110  0.96759408  1
  C  C116  1  0.07058937  0.44483459  0.96533763  1
  C  C117  1  0.57419208  0.44729714  0.97395793  1
  C  C118  1  0.15562825  0.85957177  0.96650878  1
  C  C119  1  0.65529352  0.85946401  0.96767358  1
  C  C120  1  0.27340441  0.85738921  0.46876075  1
  C  C121  1  0.77020457  0.85664238  0.46764557  1
  C  C122  1  0.16051102  0.45891871  0.46937646  1
  C  C123  1  0.65809038  0.45918515  0.46736247  1
  C  C124  1  0.07629933  0.69345809  0.47529220  1
  C  C125  1  0.57054950  0.68165636  0.46681558  1
  C  C126  1  0.05704850  0.63401152  0.36307420  1
  C  C127  1  0.56041505  0.63969792  0.36588414  1
  C  C128  1  0.26061764  0.87990336  0.36683960  1
  C  C129  1  0.76195690  0.88237889  0.36676517  1
  C  C130  1  0.18097202  0.47830143  0.36699018  1
  C  C131  1  0.68157564  0.47976053  0.36684407  1
  C  C132  1  0.06223240  0.47775458  0.86470564  1
  C  C133  1  0.56089730  0.48691725  0.86026821  1
  C  C134  1  0.18272194  0.88468039  0.86617416  1
  C  C135  1  0.68007193  0.88012830  0.86506892  1
  C  C136  1  0.25979510  0.64531651  0.86413278  1
  C  C137  1  0.76082585  0.64479775  0.86531766  1
  C  C138  1  0.00679611  0.82992742  0.41664989  1
  C  C139  1  0.51110920  0.81386220  0.40947862  1
  C  C140  1  0.39716497  0.97993609  0.41027737  1
  C  C141  1  0.89803545  0.98654569  0.41233701  1
  C  C142  1  0.09141485  0.20689058  0.41286880  1
  C  C143  1  0.59245206  0.20717444  0.40972574  1
  C  C144  1  0.01174094  0.19602998  0.90546332  1
  C  C145  1  0.50959818  0.17920294  0.91277542  1
  C  C146  1  0.09052155  0.98027597  0.90911084  1
  C  C147  1  0.58670106  0.96925328  0.90938873  1
  C  C148  1  0.39982971  0.81717171  0.90862794  1
  C  C149  1  0.89869297  0.82741547  0.91003442  1
  C  C150  1  0.48600174  0.17323375  0.59453712  1
  C  C151  1  0.98890147  0.16859254  0.59176607  1
  C  C152  1  0.09984357  0.02484238  0.58930815  1
  C  C153  1  0.60365447  0.03389193  0.59251512  1
  C  C154  1  0.40981443  0.80108217  0.59338996  1
  C  C155  1  0.91278939  0.80282621  0.58889441  1
  C  C156  1  0.49002254  0.79884632  0.08784276  1
  C  C157  1  0.98876943  0.79449051  0.09090807  1
  C  C158  1  0.41044726  0.02291715  0.08796700  1
  C  C159  1  0.90391270  0.01411832  0.08982881  1
  C  C160  1  0.10575522  0.18255640  0.08839167  1
  C  C161  1  0.60015422  0.18461084  0.08829183  1
  C  C162  1  0.34547067  0.15840445  0.74237545  1
  C  C163  1  0.83805783  0.14743293  0.74444243  1
  C  C164  1  0.23574566  0.30922490  0.74399056  1
  C  C165  1  0.73055637  0.30279430  0.74187113  1
  C  C166  1  0.42096490  0.53550163  0.74364377  1
  C  C167  1  0.91155679  0.51255547  0.74714527  1
  C  C168  1  0.34579275  0.53398740  0.24562878  1
  C  C169  1  0.84313280  0.53126818  0.24375359  1
  C  C170  1  0.42212550  0.31101889  0.24541337  1
  C  C171  1  0.92216561  0.31093588  0.24408131  1
  C  C172  1  0.23491376  0.15968957  0.24394358  1
  C  C173  1  0.73288497  0.15541419  0.24547203  1
  C  C174  1  0.31846518  0.50869050  0.92075841  1
  C  C175  1  0.82269749  0.51884181  0.92225941  1
  C  C176  1  0.42424106  0.35333931  0.91920664  1
  C  C177  1  0.93494388  0.34862198  0.92048412  1
  C  C178  1  0.24340548  0.13687147  0.92268100  1
  C  C179  1  0.74057782  0.13063974  0.92143589  1
  C  C180  1  0.32191385  0.13290108  0.42308457  1
  C  C181  1  0.81730359  0.13261054  0.42386067  1
  C  C182  1  0.24486440  0.35480654  0.42266933  1
  C  C183  1  0.74460647  0.35283558  0.42377621  1
  C  C184  1  0.43323164  0.50876665  0.42136880  1
  C  C185  1  0.92052983  0.48640087  0.42283394  1
  C  C186  1  0.18121508  0.48538795  0.07298004  1
  C  C187  1  0.68025540  0.49376627  0.07674005  1
  C  C188  1  0.06458854  0.64316946  0.07564125  1
  C  C189  1  0.56709444  0.64779039  0.07438270  1
  C  C190  1  0.25789079  0.87168185  0.07504836  1
  C  C191  1  0.75154674  0.86024164  0.07208351  1
  C  C192  1  0.17920471  0.87133884  0.57874835  1
  C  C193  1  0.67971198  0.88393270  0.57620276  1
  C  C194  1  0.25680109  0.64824977  0.57471987  1
  C  C195  1  0.75998564  0.64513426  0.57612703  1
  C  C196  1  0.06576855  0.47615601  0.57686721  1
  C  C197  1  0.56178059  0.47765453  0.57839174  1
  C  C198  1  0.15835036  0.85441381  0.25506386  1
  C  C199  1  0.65542320  0.85026826  0.25809644  1
  C  C200  1  0.26925877  0.68757611  0.25781025  1
  C  C201  1  0.76888363  0.68703174  0.25625975  1
  C  C202  1  0.07555847  0.45852936  0.25422809  1
  C  C203  1  0.57461542  0.46148820  0.25776090  1
  C  C204  1  0.16237484  0.46802043  0.75881734  1
  C  C205  1  0.65599660  0.46056531  0.75597957  1
  C  C206  1  0.08276740  0.68796080  0.75689862  1
  C  C207  1  0.57562240  0.69514261  0.75648330  1
  C  C208  1  0.27125222  0.84979707  0.75701464  1
  C  C209  1  0.76554899  0.84070653  0.76081684  1
