# generated using pymatgen
data_Cu(NiC4)2
_symmetry_space_group_name_H-M   'P 1'
_cell_length_a   6.37593629
_cell_length_b   6.37593718
_cell_length_c   5.78972557
_cell_angle_alpha   57.32344968
_cell_angle_beta   57.32344615
_cell_angle_gamma   57.07095434
_symmetry_Int_Tables_number   1
_chemical_formula_structural   Cu(NiC4)2
_chemical_formula_sum   'Cu1 Ni2 C8'
_cell_volume   155.84601405
_cell_formula_units_Z   1
loop_
 _symmetry_equiv_pos_site_id
 _symmetry_equiv_pos_as_xyz
  1  'x, y, z'
loop_
 _atom_site_type_symbol
 _atom_site_label
 _atom_site_symmetry_multiplicity
 _atom_site_fract_x
 _atom_site_fract_y
 _atom_site_fract_z
 _atom_site_occupancy
  Ni  Ni0  1  0.31450408  0.31450407  0.19951560  1
  Ni  Ni1  1  0.68549592  0.68549593  0.80048440  1
  Cu  Cu2  1  -0.00000000  -0.00000000  0.00000000  1
  C  C3  1  -0.00000000  -0.00000000  0.50000000  1
  C  C4  1  0.50000000  0.50000000  0.50000000  1
  C  C5  1  0.25548436  0.25548536  0.84879319  1
  C  C6  1  0.74451564  0.74451464  0.15120681  1
  C  C7  1  0.70259566  0.19010705  0.33821413  1
  C  C8  1  0.80989295  0.29740534  0.66178587  1
  C  C9  1  0.29740434  0.80989295  0.66178587  1
  C  C10  1  0.19010705  0.70259466  0.33821413  1
