# generated using pymatgen
data_CuNiC4
_symmetry_space_group_name_H-M   'P 1'
_cell_length_a   4.37663981
_cell_length_b   4.37663981
_cell_length_c   4.37663981
_cell_angle_alpha   80.49062591
_cell_angle_beta   80.49062591
_cell_angle_gamma   80.49062591
_symmetry_Int_Tables_number   1
_chemical_formula_structural   CuNiC4
_chemical_formula_sum   'Cu1 Ni1 C4'
_cell_volume   80.72243205
_cell_formula_units_Z   1
loop_
 _symmetry_equiv_pos_site_id
 _symmetry_equiv_pos_as_xyz
  1  'x, y, z'
loop_
 _atom_site_type_symbol
 _atom_site_label
 _atom_site_symmetry_multiplicity
 _atom_site_fract_x
 _atom_site_fract_y
 _atom_site_fract_z
 _atom_site_occupancy
  C  C0  1  0.61720352  0.61720352  0.61720352  1
  Ni  Ni1  1  0.26582868  0.26582868  0.26582868  1
  Cu  Cu2  1  0.95949113  0.95949113  0.95949113  1
  C  C3  1  0.46863114  0.96942277  0.96942277  1
  C  C4  1  0.96942277  0.46863114  0.96942277  1
  C  C5  1  0.96942277  0.96942277  0.46863114  1
