# generated using pymatgen
data_Cu2Ni2C5
_symmetry_space_group_name_H-M   'P 1'
_cell_length_a   3.03359119
_cell_length_b   3.03359059
_cell_length_c   14.22455794
_cell_angle_alpha   90.00000000
_cell_angle_beta   90.00000000
_cell_angle_gamma   120.00000639
_symmetry_Int_Tables_number   1
_chemical_formula_structural   Cu2Ni2C5
_chemical_formula_sum   'Cu2 Ni2 C5'
_cell_volume   113.36615207
_cell_formula_units_Z   1
loop_
 _symmetry_equiv_pos_site_id
 _symmetry_equiv_pos_as_xyz
  1  'x, y, z'
loop_
 _atom_site_type_symbol
 _atom_site_label
 _atom_site_symmetry_multiplicity
 _atom_site_fract_x
 _atom_site_fract_y
 _atom_site_fract_z
 _atom_site_occupancy
  C  C0  1  0.00000000  0.00000000  0.63094524  1
  Ni  Ni1  1  0.00000000  0.00000000  0.44846937  1
  Ni  Ni2  1  -0.00000000  -0.00000000  0.02475161  1
  Cu  Cu3  1  0.66666600  0.33333200  0.80179888  1
  Cu  Cu4  1  0.33333400  0.66666700  0.24076578  1
  C  C5  1  0.33333400  0.66666700  0.38771234  1
  C  C6  1  0.66666600  0.33333200  0.95645730  1
  C  C7  1  0.66666600  0.33333200  0.56492369  1
  C  C8  1  0.33333400  0.66666700  0.09521779  1
