# generated using pymatgen
data_Cu2NiC8
_symmetry_space_group_name_H-M   'P 1'
_cell_length_a   3.77438467
_cell_length_b   3.93746126
_cell_length_c   11.25810232
_cell_angle_alpha   90.00000000
_cell_angle_beta   90.00000000
_cell_angle_gamma   90.00000000
_symmetry_Int_Tables_number   1
_chemical_formula_structural   Cu2NiC8
_chemical_formula_sum   'Cu2 Ni1 C8'
_cell_volume   167.31221353
_cell_formula_units_Z   1
loop_
 _symmetry_equiv_pos_site_id
 _symmetry_equiv_pos_as_xyz
  1  'x, y, z'
loop_
 _atom_site_type_symbol
 _atom_site_label
 _atom_site_symmetry_multiplicity
 _atom_site_fract_x
 _atom_site_fract_y
 _atom_site_fract_z
 _atom_site_occupancy
  C  C0  1  0.00000000  0.00000000  0.44813046  1
  C  C1  1  0.00000000  0.00000000  0.11929941  1
  Ni  Ni2  1  0.00000000  0.00000000  0.75570870  1
  Cu  Cu3  1  0.50000000  0.50000000  0.66173192  1
  Cu  Cu4  1  0.50000000  0.50000000  0.24624798  1
  C  C5  1  0.50000000  0.50000000  0.06840430  1
  C  C6  1  0.50000000  0.50000000  0.49652042  1
  C  C7  1  0.00000000  0.50000000  0.74321122  1
  C  C8  1  0.50000000  0.00000000  0.69944744  1
  C  C9  1  0.00000000  0.50000000  0.26015691  1
  C  C10  1  0.50000000  0.00000000  0.25114124  1
