# generated using pymatgen
data_Cu2NiC14
_symmetry_space_group_name_H-M   'P 1'
_cell_length_a   3.80421300
_cell_length_b   5.47409364
_cell_length_c   10.12007100
_cell_angle_alpha   90.00000000
_cell_angle_beta   90.00000000
_cell_angle_gamma   110.32881793
_symmetry_Int_Tables_number   1
_chemical_formula_structural   Cu2NiC14
_chemical_formula_sum   'Cu2 Ni1 C14'
_cell_volume   197.62011835
_cell_formula_units_Z   1
loop_
 _symmetry_equiv_pos_site_id
 _symmetry_equiv_pos_as_xyz
  1  'x, y, z'
loop_
 _atom_site_type_symbol
 _atom_site_label
 _atom_site_symmetry_multiplicity
 _atom_site_fract_x
 _atom_site_fract_y
 _atom_site_fract_z
 _atom_site_occupancy
  Ni  Ni0  1  0.51751000  0.03903100  0.75000000  1
  C  C1  1  0.11682000  0.23320700  0.06654800  1
  C  C2  1  0.86234700  0.72735200  0.94014500  1
  C  C3  1  0.86234700  0.72735200  0.55985500  1
  C  C4  1  0.11682000  0.23320700  0.43345200  1
  Cu  Cu5  1  0.79207500  0.58351000  0.25000000  1
  Cu  Cu6  1  0.21173300  0.42618300  0.75000000  1
  C  C7  1  0.35991100  0.72076000  0.59687500  1
  C  C8  1  0.68462100  0.36840100  0.45318700  1
  C  C9  1  0.68462100  0.36840100  0.04681300  1
  C  C10  1  0.35991100  0.72076000  0.90312500  1
  C  C11  1  0.04837300  0.09558700  0.62284700  1
  C  C12  1  0.94348300  0.88740200  0.38489800  1
  C  C13  1  0.73642800  0.47501800  0.75000000  1
  C  C14  1  0.19328100  0.38584200  0.25000000  1
  C  C15  1  0.94348300  0.88740200  0.11510200  1
  C  C16  1  0.04837300  0.09558700  0.87715300  1
