# generated using pymatgen
data_CuNi4C3
_symmetry_space_group_name_H-M   'P 1'
_cell_length_a   3.93996782
_cell_length_b   7.15480622
_cell_length_c   8.89295595
_cell_angle_alpha   101.43119314
_cell_angle_beta   90.09196069
_cell_angle_gamma   105.94583068
_symmetry_Int_Tables_number   1
_chemical_formula_structural   CuNi4C3
_chemical_formula_sum   'Cu1 Ni4 C3'
_cell_volume   235.84399916
_cell_formula_units_Z   1
loop_
 _symmetry_equiv_pos_site_id
 _symmetry_equiv_pos_as_xyz
  1  'x, y, z'
loop_
 _atom_site_type_symbol
 _atom_site_label
 _atom_site_symmetry_multiplicity
 _atom_site_fract_x
 _atom_site_fract_y
 _atom_site_fract_z
 _atom_site_occupancy
  C  C0  1  0.26927700  0.54579300  0.40516500  1
  C  C1  1  0.49346900  0.98503800  0.50897300  1
  C  C2  1  0.99471500  0.98617500  0.95857100  1
  Ni  Ni3  1  0.61454300  0.23203700  0.77773700  1
  Ni  Ni4  1  0.35391100  0.70926500  0.69013300  1
  Ni  Ni5  1  0.37389400  0.75185500  0.20134600  1
  Ni  Ni6  1  0.64508200  0.29666900  0.33714100  1
  Cu  Cu7  1  0.98774400  0.97650000  0.48760000  1
