# generated using pymatgen
data_CuNiC6
_symmetry_space_group_name_H-M   'P 1'
_cell_length_a   3.94747000
_cell_length_b   3.94746600
_cell_length_c   10.45042800
_cell_angle_alpha   90.00000000
_cell_angle_beta   90.00000000
_cell_angle_gamma   90.00000000
_symmetry_Int_Tables_number   1
_chemical_formula_structural   CuNiC6
_chemical_formula_sum   'Cu1 Ni1 C6'
_cell_volume   162.84383205
_cell_formula_units_Z   1
loop_
 _symmetry_equiv_pos_site_id
 _symmetry_equiv_pos_as_xyz
  1  'x, y, z'
loop_
 _atom_site_type_symbol
 _atom_site_label
 _atom_site_symmetry_multiplicity
 _atom_site_fract_x
 _atom_site_fract_y
 _atom_site_fract_z
 _atom_site_occupancy
  C  C0  1  0.99161700  0.00000000  0.04551600  1
  C  C1  1  0.99161700  0.00000000  0.45448400  1
  Ni  Ni2  1  0.99587100  0.00000000  0.75000000  1
  Cu  Cu3  1  0.49544100  0.50000000  0.75000000  1
  C  C4  1  0.99521700  0.50000000  0.75000000  1
  C  C5  1  0.49419600  0.50000000  0.94606300  1
  C  C6  1  0.49419600  0.50000000  0.55393700  1
  C  C7  1  0.49584600  0.00000000  0.75000000  1
