# generated using pymatgen
data_Cu2Ni2C11
_symmetry_space_group_name_H-M   'P 1'
_cell_length_a   10.66138400
_cell_length_b   9.32091500
_cell_length_c   9.35935234
_cell_angle_alpha   85.45283989
_cell_angle_beta   90.00000000
_cell_angle_gamma   90.00000000
_symmetry_Int_Tables_number   1
_chemical_formula_structural   Cu2Ni2C11
_chemical_formula_sum   'Cu8 Ni8 C44'
_cell_volume   927.14742525
_cell_formula_units_Z   4
loop_
 _symmetry_equiv_pos_site_id
 _symmetry_equiv_pos_as_xyz
  1  'x, y, z'
loop_
 _atom_site_type_symbol
 _atom_site_label
 _atom_site_symmetry_multiplicity
 _atom_site_fract_x
 _atom_site_fract_y
 _atom_site_fract_z
 _atom_site_occupancy
  Ni  Ni0  1  0.15373100  0.28031400  0.68643600  1
  Ni  Ni1  1  0.65373100  0.21968600  0.31356400  1
  Ni  Ni2  1  0.84626900  0.71968600  0.31356400  1
  Ni  Ni3  1  0.34626900  0.78031400  0.68643600  1
  Ni  Ni4  1  0.40480000  0.27764300  0.80506900  1
  Ni  Ni5  1  0.90480000  0.22235700  0.19493100  1
  Ni  Ni6  1  0.59520000  0.72235700  0.19493100  1
  Ni  Ni7  1  0.09520000  0.77764300  0.80506900  1
  Cu  Cu8  1  0.22196000  0.36714300  0.08251700  1
  Cu  Cu9  1  0.72196000  0.13285700  0.91748300  1
  Cu  Cu10  1  0.77804000  0.63285700  0.91748300  1
  Cu  Cu11  1  0.27804000  0.86714300  0.08251700  1
  Cu  Cu12  1  0.33288800  0.36718700  0.38840800  1
  Cu  Cu13  1  0.83288800  0.13281300  0.61159200  1
  Cu  Cu14  1  0.66711200  0.63281300  0.61159200  1
  Cu  Cu15  1  0.16711200  0.86718700  0.38840800  1
  C  C16  1  0.33938600  0.17839800  0.41980200  1
  C  C17  1  0.83938600  0.32160200  0.58019800  1
  C  C18  1  0.66061400  0.82160200  0.58019800  1
  C  C19  1  0.16061400  0.67839800  0.41980200  1
  C  C20  1  0.17165800  0.38703800  0.29172300  1
  C  C21  1  0.67165800  0.11296200  0.70827700  1
  C  C22  1  0.82834200  0.61296200  0.70827700  1
  C  C23  1  0.32834200  0.88703800  0.29172300  1
  C  C24  1  0.21293600  0.17740900  0.08332200  1
  C  C25  1  0.71293600  0.32259100  0.91667800  1
  C  C26  1  0.78706400  0.82259100  0.91667800  1
  C  C27  1  0.28706400  0.67740900  0.08332200  1
  C  C28  1  0.38344400  0.38287500  0.17577400  1
  C  C29  1  0.88344400  0.11712500  0.82422600  1
  C  C30  1  0.09580000  0.34478900  0.80449100  1
  C  C31  1  0.61655600  0.61712500  0.82422600  1
  C  C32  1  0.14705300  0.89393300  0.89168500  1
  C  C33  1  0.64705300  0.60606700  0.10831500  1
  C  C34  1  0.85294700  0.10606700  0.10831500  1
  C  C35  1  0.35294700  0.39393300  0.89168500  1
  C  C36  1  0.03189500  0.66361200  0.89136700  1
  C  C37  1  0.53189500  0.83638800  0.10863300  1
  C  C38  1  0.96810500  0.33638800  0.10863300  1
  C  C39  1  0.46810500  0.16361200  0.89136700  1
  C  C40  1  0.29471600  0.89433000  0.57966000  1
  C  C41  1  0.79471600  0.60567000  0.42034000  1
  C  C42  1  0.70528400  0.10567000  0.42034000  1
  C  C43  1  0.20528400  0.39433000  0.57966000  1
  C  C44  1  0.21979300  0.69153300  0.75116800  1
  C  C45  1  0.71979300  0.80846700  0.24883200  1
  C  C46  1  0.78020700  0.30846700  0.24883200  1
  C  C47  1  0.28020700  0.19153300  0.75116800  1
  C  C48  1  0.41281700  0.66659100  0.62154500  1
  C  C49  1  0.91281700  0.83340900  0.37845500  1
  C  C50  1  0.58718300  0.33340900  0.37845500  1
  C  C51  1  0.08718300  0.16659100  0.62154500  1
  C  C52  1  0.03246800  0.84173900  0.67945600  1
  C  C53  1  0.53246800  0.65826100  0.32054400  1
  C  C54  1  0.96753200  0.15826100  0.32054400  1
  C  C55  1  0.46753200  0.34173900  0.67945600  1
  C  C56  1  0.40420000  0.84478900  0.80449100  1
  C  C57  1  0.90420000  0.65521100  0.19550900  1
  C  C58  1  0.59580000  0.15521100  0.19550900  1
  C  C59  1  0.11655600  0.88287500  0.17577400  1
