# generated using pymatgen
data_CuNi5C33
_symmetry_space_group_name_H-M   'P 1'
_cell_length_a   9.06851134
_cell_length_b   9.06892409
_cell_length_c   22.30935807
_cell_angle_alpha   90.13364106
_cell_angle_beta   89.70369074
_cell_angle_gamma   119.81880741
_symmetry_Int_Tables_number   1
_chemical_formula_structural   CuNi5C33
_chemical_formula_sum   'Cu3 Ni15 C99'
_cell_volume   1591.81905359
_cell_formula_units_Z   3
loop_
 _symmetry_equiv_pos_site_id
 _symmetry_equiv_pos_as_xyz
  1  'x, y, z'
loop_
 _atom_site_type_symbol
 _atom_site_label
 _atom_site_symmetry_multiplicity
 _atom_site_fract_x
 _atom_site_fract_y
 _atom_site_fract_z
 _atom_site_occupancy
  C  C0  1  0.64302734  0.00760300  0.25323992  1
  C  C1  1  0.37423461  0.37488633  0.24473347  1
  C  C2  1  0.98919281  0.61869849  0.25145532  1
  C  C3  1  0.64014642  0.63139076  0.74665325  1
  C  C4  1  0.98511447  0.34851676  0.74525891  1
  C  C5  1  0.36655368  0.01756653  0.74493955  1
  C  C6  1  0.30599846  0.96516826  0.07478283  1
  C  C7  1  0.02958559  0.34885392  0.07623235  1
  C  C8  1  0.70378681  0.67308868  0.42327791  1
  C  C9  1  0.00683329  0.00480560  0.50481075  1
  C  C10  1  0.99754257  0.99434543  0.98950914  1
  C  C11  1  0.66463413  0.33236926  0.83500615  1
  C  C12  1  0.68334246  0.32283428  0.34240072  1
  C  C13  1  0.35024037  0.66065171  0.15970774  1
  C  C14  1  0.33853214  0.66340491  0.66191950  1
  C  C15  1  0.00102406  0.00468249  0.36164520  1
  C  C16  1  0.00359782  0.00447498  0.85279934  1
  C  C17  1  0.66806049  0.33502645  0.66946335  1
  C  C18  1  0.66794938  0.33959264  0.17806403  1
  C  C19  1  0.33900968  0.66432245  0.01415769  1
  C  C20  1  0.32850911  0.67019179  0.32204008  1
  C  C21  1  0.99763113  0.99991817  0.64705128  1
  C  C22  1  0.98442727  0.99507096  0.14167656  1
  C  C23  1  0.67000666  0.33101268  0.98278220  1
  C  C24  1  0.67628704  0.32916112  0.49382063  1
  C  C25  1  0.33104059  0.67638983  0.51777800  1
  C  C26  1  0.31927935  0.67090616  0.81942106  1
  Ni  Ni27  1  0.70972543  0.71301700  0.24981967  1
  Ni  Ni28  1  0.00344930  0.29032632  0.24537958  1
  Ni  Ni29  1  0.29045138  0.30154476  0.74772962  1
  Ni  Ni30  1  0.00676497  0.70875551  0.74900500  1
  Ni  Ni31  1  0.69769085  0.98988436  0.74874022  1
  Ni  Ni32  1  0.98357173  0.33486948  0.58511301  1
  Ni  Ni33  1  0.35594019  0.02685615  0.58442077  1
  Ni  Ni34  1  0.66549087  0.64582729  0.58281662  1
  Ni  Ni35  1  0.95941488  0.63911507  0.08391369  1
  Ni  Ni36  1  0.67431692  0.03928127  0.08474372  1
  Ni  Ni37  1  0.35787028  0.31767022  0.08536978  1
  Ni  Ni38  1  0.02165625  0.37565208  0.92078237  1
  Ni  Ni39  1  0.35167798  0.97824058  0.92126568  1
  Ni  Ni40  1  0.62388328  0.97528666  0.42133777  1
  Ni  Ni41  1  0.02125563  0.64752385  0.42192225  1
  Cu  Cu42  1  0.28633947  0.99588593  0.24565701  1
  Cu  Cu43  1  0.62347334  0.64669122  0.91442566  1
  Cu  Cu44  1  0.35358345  0.37610018  0.42228198  1
  C  C45  1  0.20109068  0.00664614  0.29980187  1
  C  C46  1  0.80147555  0.79075082  0.30831984  1
  C  C47  1  0.99608107  0.18936869  0.30028470  1
  C  C48  1  0.22157152  0.19394984  0.80320023  1
  C  C49  1  0.97026864  0.77785434  0.80486691  1
  C  C50  1  0.80501369  0.02487518  0.80382306  1
  C  C51  1  0.80066608  0.96831166  0.69338221  1
  C  C52  1  0.16645009  0.19824998  0.69314480  1
  C  C53  1  0.03431597  0.82979563  0.69376592  1
  C  C54  1  0.82616440  0.82736582  0.19462487  1
  C  C55  1  0.00375279  0.18489726  0.18703795  1
  C  C56  1  0.19205082  0.99238522  0.19010646  1
  C  C57  1  0.93385067  0.37703795  0.64480445  1
  C  C58  1  0.44508701  0.07148523  0.64434085  1
  C  C59  1  0.62121650  0.55181741  0.64220277  1
  C  C60  1  0.90157058  0.54907842  0.14405060  1
  C  C61  1  0.65405545  0.10684036  0.14469145  1
  C  C62  1  0.43854091  0.33652449  0.14653101  1
  C  C63  1  0.47103252  0.30133626  0.03423828  1
  C  C64  1  0.83433815  0.52755484  0.03228474  1
  C  C65  1  0.69866818  0.17098446  0.03300496  1
  C  C66  1  0.47463231  0.16519977  0.53727809  1
  C  C67  1  0.69067590  0.53650563  0.53282432  1
  C  C68  1  0.84232719  0.31179879  0.53767503  1
  C  C69  1  0.54940545  0.66521432  0.96943046  1
  C  C70  1  0.11249129  0.44676094  0.97893163  1
  C  C71  1  0.33564117  0.88554981  0.97874310  1
  C  C72  1  0.49455235  0.84042077  0.46594230  1
  C  C73  1  0.34525784  0.48645670  0.46884929  1
  C  C74  1  0.15146284  0.65260942  0.46772753  1
  C  C75  1  0.07245960  0.62489611  0.35819738  1
  C  C76  1  0.54929831  0.92678278  0.35784650  1
  C  C77  1  0.37375197  0.45736387  0.36222991  1
  C  C78  1  0.13561806  0.50210656  0.86554664  1
  C  C79  1  0.36298997  0.86475022  0.86513174  1
  C  C80  1  0.51659126  0.63617479  0.86002731  1
  C  C81  1  0.00123261  0.80507646  0.42947285  1
  C  C82  1  0.79117847  0.97332956  0.42892393  1
  C  C83  1  0.20252591  0.20639140  0.42605452  1
  C  C84  1  0.98771714  0.19702384  0.91148487  1
  C  C85  1  0.20276370  0.00663779  0.91319224  1
  C  C86  1  0.79692401  0.78931747  0.90951438  1
  C  C87  1  0.98667691  0.16534857  0.58654849  1
  C  C88  1  0.18122664  0.01864521  0.58631017  1
  C  C89  1  0.83391646  0.82063828  0.58729364  1
  C  C90  1  0.96551245  0.81554168  0.08466156  1
  C  C91  1  0.84768223  0.03673583  0.08306402  1
  C  C92  1  0.18323637  0.14226057  0.08393169  1
  C  C93  1  0.66572884  0.13943270  0.73902923  1
  C  C94  1  0.47269513  0.33551275  0.73795258  1
  C  C95  1  0.86319090  0.52569180  0.73945944  1
  C  C96  1  0.68191856  0.53157622  0.24636266  1
  C  C97  1  0.84523728  0.31238583  0.24612997  1
  C  C98  1  0.46133996  0.14487757  0.24581309  1
  C  C99  1  0.62431061  0.48102774  0.91614956  1
  C  C100  1  0.84910127  0.37884539  0.92210694  1
  C  C101  1  0.52494864  0.15151589  0.92207011  1
  C  C102  1  0.64704692  0.15389487  0.43614200  1
  C  C103  1  0.51228718  0.36529402  0.43003237  1
  C  C104  1  0.84208863  0.48722108  0.43482833  1
  C  C105  1  0.31802535  0.46085264  0.07795353  1
  C  C106  1  0.14130596  0.67296483  0.07553805  1
  C  C107  1  0.52341262  0.86400983  0.07684716  1
  C  C108  1  0.32588143  0.84578836  0.56666171  1
  C  C109  1  0.51605172  0.67655111  0.56529375  1
  C  C110  1  0.16014639  0.48381435  0.56655987  1
  C  C111  1  0.29678621  0.83632788  0.24490672  1
  C  C112  1  0.53897613  0.71131086  0.24396702  1
  C  C113  1  0.16892371  0.46477918  0.24110060  1
  C  C114  1  0.28967159  0.47504962  0.75324377  1
  C  C115  1  0.18303885  0.70745243  0.75683333  1
  C  C116  1  0.52269953  0.81774733  0.75365840  1
