# generated using pymatgen
data_Cu3NiC14
_symmetry_space_group_name_H-M   'P 1'
_cell_length_a   3.90503126
_cell_length_b   3.90503222
_cell_length_c   15.95004253
_cell_angle_alpha   97.04455178
_cell_angle_beta   97.03146889
_cell_angle_gamma   89.99999560
_symmetry_Int_Tables_number   1
_chemical_formula_structural   Cu3NiC14
_chemical_formula_sum   'Cu3 Ni1 C14'
_cell_volume   239.54714468
_cell_formula_units_Z   1
loop_
 _symmetry_equiv_pos_site_id
 _symmetry_equiv_pos_as_xyz
  1  'x, y, z'
loop_
 _atom_site_type_symbol
 _atom_site_label
 _atom_site_symmetry_multiplicity
 _atom_site_fract_x
 _atom_site_fract_y
 _atom_site_fract_z
 _atom_site_occupancy
  C  C0  1  0.71647700  0.71636700  0.43295300  1
  C  C1  1  0.28407400  0.28421900  0.56814800  1
  C  C2  1  0.59827700  0.59834900  0.19655400  1
  C  C3  1  0.40172300  0.40164600  0.80344600  1
  Ni  Ni4  1  0.49951900  0.49956100  0.99903900  1
  Cu  Cu5  1  0.84531300  0.84510800  0.69062700  1
  Cu  Cu6  1  0.15522000  0.15540700  0.31044000  1
  Cu  Cu7  1  0.00059600  0.00061700  0.00119200  1
  C  C8  1  0.86060600  0.36040500  0.72121300  1
  C  C9  1  0.36060500  0.86040400  0.72121300  1
  C  C10  1  0.13899200  0.63917400  0.27798300  1
  C  C11  1  0.63899200  0.13918500  0.27798300  1
  C  C12  1  0.78919800  0.78877000  0.57839700  1
  C  C13  1  0.21134000  0.21176500  0.42267800  1
  C  C14  1  0.99989600  0.49990300  0.99979400  1
  C  C15  1  0.06536000  0.06536100  0.13072000  1
  C  C16  1  0.93391300  0.93382400  0.86782500  1
  C  C17  1  0.49989700  0.99993400  0.99979400  1
