# generated using pymatgen
data_Cu2Ni2C15
_symmetry_space_group_name_H-M   'P 1'
_cell_length_a   5.68395354
_cell_length_b   5.68395354
_cell_length_c   9.43779740
_cell_angle_alpha   90.00000000
_cell_angle_beta   90.00000000
_cell_angle_gamma   90.00000000
_symmetry_Int_Tables_number   1
_chemical_formula_structural   Cu2Ni2C15
_chemical_formula_sum   'Cu2 Ni2 C15'
_cell_volume   304.91001474
_cell_formula_units_Z   1
loop_
 _symmetry_equiv_pos_site_id
 _symmetry_equiv_pos_as_xyz
  1  'x, y, z'
loop_
 _atom_site_type_symbol
 _atom_site_label
 _atom_site_symmetry_multiplicity
 _atom_site_fract_x
 _atom_site_fract_y
 _atom_site_fract_z
 _atom_site_occupancy
  C  C0  1  0.25000000  0.75000000  0.97045079  1
  C  C1  1  0.75000000  0.25000000  0.97045079  1
  Ni  Ni2  1  0.75000000  0.75000000  0.15988858  1
  Ni  Ni3  1  0.25000000  0.25000000  0.74601723  1
  Cu  Cu4  1  0.75000000  0.25000000  0.52597265  1
  Cu  Cu5  1  0.25000000  0.75000000  0.52597265  1
  C  C6  1  0.75000000  0.75000000  0.40055427  1
  C  C7  1  0.25000000  0.25000000  0.28683327  1
  C  C8  1  0.75000000  0.75000000  0.73673522  1
  C  C9  1  0.75000000  0.75000000  0.94048831  1
  C  C10  1  0.25000000  0.25000000  0.08759428  1
  C  C11  1  0.98494221  0.98494221  0.67757919  1
  C  C12  1  0.51505779  0.51505779  0.67757919  1
  C  C13  1  0.49383852  0.49383852  0.34600930  1
  C  C14  1  0.98494221  0.51505779  0.67757919  1
  C  C15  1  0.51505779  0.98494221  0.67757919  1
  C  C16  1  0.00616148  0.49383852  0.34600930  1
  C  C17  1  0.00616148  0.00616148  0.34600930  1
  C  C18  1  0.49383852  0.00616148  0.34600930  1
