# generated using pymatgen
data_CuNi2C17
_symmetry_space_group_name_H-M   'P 1'
_cell_length_a   15.80058488
_cell_length_b   27.34308936
_cell_length_c   9.01919877
_cell_angle_alpha   90.00000000
_cell_angle_beta   124.97307803
_cell_angle_gamma   90.00000000
_symmetry_Int_Tables_number   1
_chemical_formula_structural   CuNi2C17
_chemical_formula_sum   'Cu12 Ni24 C204'
_cell_volume   3192.97882786
_cell_formula_units_Z   12
loop_
 _symmetry_equiv_pos_site_id
 _symmetry_equiv_pos_as_xyz
  1  'x, y, z'
loop_
 _atom_site_type_symbol
 _atom_site_label
 _atom_site_symmetry_multiplicity
 _atom_site_fract_x
 _atom_site_fract_y
 _atom_site_fract_z
 _atom_site_occupancy
  C  C0  1  0.25453611  0.25477349  0.00832544  1
  C  C1  1  0.24814631  0.58721686  0.01799931  1
  C  C2  1  0.25009820  0.91818636  0.01915896  1
  C  C3  1  0.75453611  0.24522651  0.50832544  1
  C  C4  1  0.75009820  0.58181364  0.51915896  1
  C  C5  1  0.74814631  0.91278314  0.51799931  1
  C  C6  1  0.74814631  0.08721686  0.01799931  1
  C  C7  1  0.75009820  0.41818636  0.01915896  1
  C  C8  1  0.75453611  0.75477349  0.00832544  1
  C  C9  1  0.25009820  0.08181364  0.51915896  1
  C  C10  1  0.24814631  0.41278314  0.51799931  1
  C  C11  1  0.25453611  0.74522651  0.50832544  1
  C  C12  1  0.49441393  0.03261796  0.75083847  1
  C  C13  1  0.49642132  0.36639843  0.75613940  1
  C  C14  1  0.49377118  0.69911307  0.74572522  1
  C  C15  1  0.49377118  0.30088693  0.24572522  1
  C  C16  1  0.49642132  0.63360157  0.25613940  1
  C  C17  1  0.49441393  0.96738204  0.25083847  1
  C  C18  1  0.99377118  0.19911307  0.74572522  1
  C  C19  1  0.99441393  0.53261796  0.75083847  1
  C  C20  1  0.99642132  0.86639843  0.75613940  1
  C  C21  1  0.99642132  0.13360157  0.25613940  1
  C  C22  1  0.99441393  0.46738204  0.25083847  1
  C  C23  1  0.99377118  0.80088693  0.24572522  1
  C  C24  1  0.81756208  0.64369927  0.20147436  1
  C  C25  1  0.81638459  0.97788850  0.20625555  1
  C  C26  1  0.19352574  0.30723787  0.29234515  1
  C  C27  1  0.19352574  0.69276213  0.79234515  1
  C  C28  1  0.81638459  0.02211150  0.70625555  1
  C  C29  1  0.81756208  0.35630073  0.70147436  1
  C  C30  1  0.31756208  0.14369927  0.20147436  1
  C  C31  1  0.31638459  0.47788850  0.20625555  1
  C  C32  1  0.69352574  0.80723787  0.29234515  1
  C  C33  1  0.69352574  0.19276213  0.79234515  1
  C  C34  1  0.31638459  0.52211150  0.70625555  1
  C  C35  1  0.31756208  0.85630073  0.70147436  1
  C  C36  1  0.89787634  0.25051596  0.94040184  1
  C  C37  1  0.89308621  0.58324569  0.93222833  1
  C  C38  1  0.89377658  0.91449674  0.93483300  1
  C  C39  1  0.89377658  0.08550326  0.43483300  1
  C  C40  1  0.89308621  0.41675431  0.43222833  1
  C  C41  1  0.89787634  0.74948404  0.44040184  1
  C  C42  1  0.39308621  0.08324569  0.93222833  1
  C  C43  1  0.39377658  0.41449674  0.93483300  1
  C  C44  1  0.39787634  0.75051596  0.94040184  1
  C  C45  1  0.39787634  0.24948404  0.44040184  1
  C  C46  1  0.39377658  0.58550326  0.43483300  1
  C  C47  1  0.39308621  0.91675431  0.43222833  1
  C  C48  1  0.10756987  0.24764337  0.56835441  1
  C  C49  1  0.10422179  0.58229428  0.56588979  1
  C  C50  1  0.10595884  0.91692660  0.56632722  1
  C  C51  1  0.10595884  0.08307340  0.06632722  1
  C  C52  1  0.10422179  0.41770572  0.06588979  1
  C  C53  1  0.10756987  0.75235663  0.06835441  1
  C  C54  1  0.60422179  0.08229428  0.56588979  1
  C  C55  1  0.60595884  0.41692660  0.56632722  1
  C  C56  1  0.60756987  0.74764337  0.56835441  1
  C  C57  1  0.60756987  0.25235663  0.06835441  1
  C  C58  1  0.60595884  0.58307340  0.06632722  1
  C  C59  1  0.60422179  0.91770572  0.06588979  1
  Ni  Ni60  1  0.34958937  0.29698268  0.74658241  1
  Ni  Ni61  1  0.35169094  0.63116238  0.75468695  1
  Ni  Ni62  1  0.35036658  0.96472303  0.74974753  1
  Ni  Ni63  1  0.64537989  0.30082855  0.73985502  1
  Ni  Ni64  1  0.64517691  0.63179945  0.73885749  1
  Ni  Ni65  1  0.64553132  0.96612319  0.73856108  1
  Ni  Ni66  1  0.64553132  0.03387681  0.23856108  1
  Ni  Ni67  1  0.64517691  0.36820055  0.23885749  1
  Ni  Ni68  1  0.64537989  0.69917145  0.23985502  1
  Ni  Ni69  1  0.35036658  0.03527697  0.24974753  1
  Ni  Ni70  1  0.35169094  0.36883762  0.25468695  1
  Ni  Ni71  1  0.34958937  0.70301732  0.24658241  1
  Ni  Ni72  1  0.85169094  0.13116238  0.75468695  1
  Ni  Ni73  1  0.85036658  0.46472303  0.74974753  1
  Ni  Ni74  1  0.84958937  0.79698268  0.74658241  1
  Ni  Ni75  1  0.14517691  0.13179945  0.73885749  1
  Ni  Ni76  1  0.14553132  0.46612319  0.73856108  1
  Ni  Ni77  1  0.14537989  0.80082855  0.73985502  1
  Ni  Ni78  1  0.14537989  0.19917145  0.23985502  1
  Ni  Ni79  1  0.14553132  0.53387681  0.23856108  1
  Ni  Ni80  1  0.14517691  0.86820055  0.23885749  1
  Ni  Ni81  1  0.84958937  0.20301732  0.24658241  1
  Ni  Ni82  1  0.85036658  0.53527697  0.24974753  1
  Ni  Ni83  1  0.85169094  0.86883762  0.25468695  1
  Cu  Cu84  1  0.00599619  0.31961718  0.75243051  1
  Cu  Cu85  1  0.00065416  0.65293603  0.74709567  1
  Cu  Cu86  1  0.00314259  0.98664399  0.74603249  1
  Cu  Cu87  1  0.00314259  0.01335601  0.24603249  1
  Cu  Cu88  1  0.00065416  0.34706397  0.24709567  1
  Cu  Cu89  1  0.00599619  0.68038282  0.25243051  1
  Cu  Cu90  1  0.50065416  0.15293603  0.74709567  1
  Cu  Cu91  1  0.50314259  0.48664399  0.74603249  1
  Cu  Cu92  1  0.50599619  0.81961718  0.75243051  1
  Cu  Cu93  1  0.50599619  0.18038282  0.25243051  1
  Cu  Cu94  1  0.50314259  0.51335601  0.24603249  1
  Cu  Cu95  1  0.50065416  0.84706397  0.24709567  1
  C  C96  1  0.14532448  0.19364360  0.74519821  1
  C  C97  1  0.14630841  0.52818499  0.74711116  1
  C  C98  1  0.14656410  0.86160888  0.74605208  1
  C  C99  1  0.84371911  0.19048218  0.75325629  1
  C  C100  1  0.84724431  0.52339607  0.75193015  1
  C  C101  1  0.84540572  0.85644822  0.75189114  1
  C  C102  1  0.84540572  0.14355178  0.25189114  1
  C  C103  1  0.84724431  0.47660393  0.25193015  1
  C  C104  1  0.84371911  0.80951782  0.25325629  1
  C  C105  1  0.14656410  0.13839112  0.24605208  1
  C  C106  1  0.14630841  0.47181501  0.24711116  1
  C  C107  1  0.14532448  0.80635640  0.24519821  1
  C  C108  1  0.64630841  0.02818499  0.74711116  1
  C  C109  1  0.64656410  0.36160888  0.74605208  1
  C  C110  1  0.64532448  0.69364360  0.74519821  1
  C  C111  1  0.34724431  0.02339607  0.75193015  1
  C  C112  1  0.34540572  0.35644822  0.75189114  1
  C  C113  1  0.34371911  0.69048218  0.75325629  1
  C  C114  1  0.34371911  0.30951782  0.25325629  1
  C  C115  1  0.34540572  0.64355178  0.25189114  1
  C  C116  1  0.34724431  0.97660393  0.25193015  1
  C  C117  1  0.64532448  0.30635640  0.24519821  1
  C  C118  1  0.64656410  0.63839112  0.24605208  1
  C  C119  1  0.64630841  0.97181501  0.24711116  1
  C  C120  1  0.43821887  0.18194908  0.57035750  1
  C  C121  1  0.43752870  0.51694446  0.57397776  1
  C  C122  1  0.44256110  0.85233950  0.58789731  1
  C  C123  1  0.56509487  0.18868619  0.91198204  1
  C  C124  1  0.56476123  0.52209348  0.91438603  1
  C  C125  1  0.57078950  0.85258756  0.92870165  1
  C  C126  1  0.57078950  0.14741244  0.42870165  1
  C  C127  1  0.56476123  0.47790652  0.41438603  1
  C  C128  1  0.56509487  0.81131381  0.41198204  1
  C  C129  1  0.44256110  0.14766050  0.08789731  1
  C  C130  1  0.43752870  0.48305554  0.07397776  1
  C  C131  1  0.43821887  0.81805092  0.07035750  1
  C  C132  1  0.93752870  0.01694446  0.57397776  1
  C  C133  1  0.94256110  0.35233950  0.58789731  1
  C  C134  1  0.93821887  0.68194908  0.57035750  1
  C  C135  1  0.06476123  0.02209348  0.91438603  1
  C  C136  1  0.07078950  0.35258756  0.92870165  1
  C  C137  1  0.06509487  0.68868619  0.91198204  1
  C  C138  1  0.06509487  0.31131381  0.41198204  1
  C  C139  1  0.07078950  0.64741244  0.42870165  1
  C  C140  1  0.06476123  0.97790652  0.41438603  1
  C  C141  1  0.93821887  0.31805092  0.07035750  1
  C  C142  1  0.94256110  0.64766050  0.08789731  1
  C  C143  1  0.93752870  0.98305554  0.07397776  1
  C  C144  1  0.25141766  0.27213695  0.73852016  1
  C  C145  1  0.25433540  0.60627636  0.75114831  1
  C  C146  1  0.25437175  0.93752519  0.74384038  1
  C  C147  1  0.74566122  0.28088536  0.75152602  1
  C  C148  1  0.74596410  0.61236771  0.75692661  1
  C  C149  1  0.74886503  0.95139866  0.75251120  1
  C  C150  1  0.74886503  0.04860134  0.25251120  1
  C  C151  1  0.74596410  0.38763229  0.25692661  1
  C  C152  1  0.74566122  0.71911464  0.25152602  1
  C  C153  1  0.25437175  0.06247481  0.24384038  1
  C  C154  1  0.25433540  0.39372364  0.25114831  1
  C  C155  1  0.25141766  0.72786305  0.23852016  1
  C  C156  1  0.75433540  0.10627636  0.75114831  1
  C  C157  1  0.75437175  0.43752519  0.74384038  1
  C  C158  1  0.75141766  0.77213695  0.73852016  1
  C  C159  1  0.24596410  0.11236771  0.75692661  1
  C  C160  1  0.24886503  0.45139866  0.75251120  1
  C  C161  1  0.24566122  0.78088536  0.75152602  1
  C  C162  1  0.24566122  0.21911464  0.25152602  1
  C  C163  1  0.24886503  0.54860134  0.25251120  1
  C  C164  1  0.24596410  0.88763229  0.25692661  1
  C  C165  1  0.75141766  0.22786305  0.23852016  1
  C  C166  1  0.75437175  0.56247481  0.24384038  1
  C  C167  1  0.75433540  0.89372364  0.25114831  1
  C  C168  1  0.34321622  0.28339932  0.56530733  1
  C  C169  1  0.35125038  0.61273842  0.58512227  1
  C  C170  1  0.35412372  0.94500664  0.58659206  1
  C  C171  1  0.63862475  0.28505398  0.91449915  1
  C  C172  1  0.64067092  0.61859721  0.92032664  1
  C  C173  1  0.64376650  0.95153025  0.92246791  1
  C  C174  1  0.64376650  0.04846975  0.42246791  1
  C  C175  1  0.64067092  0.38140279  0.42032664  1
  C  C176  1  0.63862475  0.71494602  0.41449915  1
  C  C177  1  0.35412372  0.05499336  0.08659206  1
  C  C178  1  0.35125038  0.38726158  0.08512227  1
  C  C179  1  0.34321622  0.71660068  0.06530733  1
  C  C180  1  0.85125038  0.11273842  0.58512227  1
  C  C181  1  0.85412372  0.44500664  0.58659206  1
  C  C182  1  0.84321622  0.78339932  0.56530733  1
  C  C183  1  0.14067092  0.11859721  0.92032664  1
  C  C184  1  0.14376650  0.45153025  0.92246791  1
  C  C185  1  0.13862475  0.78505398  0.91449915  1
  C  C186  1  0.13862475  0.21494602  0.41449915  1
  C  C187  1  0.14376650  0.54846975  0.42246791  1
  C  C188  1  0.14067092  0.88140279  0.42032664  1
  C  C189  1  0.84321622  0.21660068  0.06530733  1
  C  C190  1  0.85412372  0.55499336  0.08659206  1
  C  C191  1  0.85125038  0.88726158  0.08512227  1
  C  C192  1  0.46001326  0.27483237  0.92847206  1
  C  C193  1  0.46091128  0.60828607  0.93959974  1
  C  C194  1  0.46106436  0.94093162  0.93828254  1
  C  C195  1  0.54083865  0.28035463  0.55981487  1
  C  C196  1  0.53779077  0.61515913  0.55750713  1
  C  C197  1  0.53992104  0.94836069  0.55880624  1
  C  C198  1  0.53992104  0.05163931  0.05880624  1
  C  C199  1  0.53779077  0.38484087  0.05750713  1
  C  C200  1  0.54083865  0.71964537  0.05981487  1
  C  C201  1  0.46106436  0.05906838  0.43828254  1
  C  C202  1  0.46091128  0.39171393  0.43959974  1
  C  C203  1  0.46001326  0.72516763  0.42847206  1
  C  C204  1  0.96091128  0.10828607  0.93959974  1
  C  C205  1  0.96106436  0.44093162  0.93828254  1
  C  C206  1  0.96001326  0.77483237  0.92847206  1
  C  C207  1  0.03779077  0.11515913  0.55750713  1
  C  C208  1  0.03992104  0.44836069  0.55880624  1
  C  C209  1  0.04083865  0.78035463  0.55981487  1
  C  C210  1  0.04083865  0.21964537  0.05981487  1
  C  C211  1  0.03992104  0.55163931  0.05880624  1
  C  C212  1  0.03779077  0.88484087  0.05750713  1
  C  C213  1  0.96001326  0.22516763  0.42847206  1
  C  C214  1  0.96106436  0.55906838  0.43828254  1
  C  C215  1  0.96091128  0.89171393  0.43959974  1
  C  C216  1  0.08409083  0.28613923  0.74828372  1
  C  C217  1  0.08741574  0.62275316  0.74893628  1
  C  C218  1  0.08459425  0.95450181  0.74639415  1
  C  C219  1  0.92988651  0.28633274  0.76196089  1
  C  C220  1  0.93273831  0.61621261  0.75980813  1
  C  C221  1  0.93006992  0.95287327  0.76045926  1
  C  C222  1  0.93006992  0.04712673  0.26045926  1
  C  C223  1  0.93273831  0.38378739  0.25980813  1
  C  C224  1  0.92988651  0.71366726  0.26196089  1
  C  C225  1  0.08459425  0.04549819  0.24639415  1
  C  C226  1  0.08741574  0.37724684  0.24893628  1
  C  C227  1  0.08409083  0.71386077  0.24828372  1
  C  C228  1  0.58741574  0.12275316  0.74893628  1
  C  C229  1  0.58459425  0.45450181  0.74639415  1
  C  C230  1  0.58409083  0.78613923  0.74828372  1
  C  C231  1  0.43273831  0.11621261  0.75980813  1
  C  C232  1  0.43006992  0.45287327  0.76045926  1
  C  C233  1  0.42988651  0.78633274  0.76196089  1
  C  C234  1  0.42988651  0.21366726  0.26196089  1
  C  C235  1  0.43006992  0.54712673  0.26045926  1
  C  C236  1  0.43273831  0.88378739  0.25980813  1
  C  C237  1  0.58409083  0.21386077  0.24828372  1
  C  C238  1  0.58459425  0.54549819  0.24639415  1
  C  C239  1  0.58741574  0.87724684  0.24893628  1
