# generated using pymatgen
data_CuNi4C
_symmetry_space_group_name_H-M   'P 1'
_cell_length_a   6.71599800
_cell_length_b   7.38612371
_cell_length_c   6.71599800
_cell_angle_alpha   62.95847274
_cell_angle_beta   90.00000000
_cell_angle_gamma   117.04152726
_symmetry_Int_Tables_number   1
_chemical_formula_structural   CuNi4C
_chemical_formula_sum   'Cu2 Ni8 C2'
_cell_volume   255.16031497
_cell_formula_units_Z   2
loop_
 _symmetry_equiv_pos_site_id
 _symmetry_equiv_pos_as_xyz
  1  'x, y, z'
loop_
 _atom_site_type_symbol
 _atom_site_label
 _atom_site_symmetry_multiplicity
 _atom_site_fract_x
 _atom_site_fract_y
 _atom_site_fract_z
 _atom_site_occupancy
  C  C0  1  0.00000000  0.00000000  0.00000000  1
  C  C1  1  0.50000000  0.00000000  0.50000000  1
  Ni  Ni2  1  0.47731500  0.27475300  0.02268500  1
  Ni  Ni3  1  0.97731500  0.27475300  0.20256200  1
  Ni  Ni4  1  0.29743800  0.27475300  0.52268500  1
  Ni  Ni5  1  0.70256200  0.72524700  0.47731500  1
  Ni  Ni6  1  0.02268500  0.72524700  0.79743800  1
  Ni  Ni7  1  0.52268500  0.72524700  0.97731500  1
  Ni  Ni8  1  0.20256200  0.72524700  0.29743800  1
  Ni  Ni9  1  0.79743800  0.27475300  0.70256200  1
  Cu  Cu10  1  0.75000000  0.50000000  0.25000000  1
  Cu  Cu11  1  0.25000000  0.50000000  0.75000000  1
