# generated using pymatgen
data_CuNiC5
_symmetry_space_group_name_H-M   'P 1'
_cell_length_a   3.20211839
_cell_length_b   5.07255049
_cell_length_c   6.40501688
_cell_angle_alpha   69.41539300
_cell_angle_beta   90.00000000
_cell_angle_gamma   90.00000000
_symmetry_Int_Tables_number   1
_chemical_formula_structural   CuNiC5
_chemical_formula_sum   'Cu1 Ni1 C5'
_cell_volume   97.39380923
_cell_formula_units_Z   1
loop_
 _symmetry_equiv_pos_site_id
 _symmetry_equiv_pos_as_xyz
  1  'x, y, z'
loop_
 _atom_site_type_symbol
 _atom_site_label
 _atom_site_symmetry_multiplicity
 _atom_site_fract_x
 _atom_site_fract_y
 _atom_site_fract_z
 _atom_site_occupancy
  Ni  Ni0  1  0.00000000  0.01391010  0.64055215  1
  C  C1  1  0.00000000  0.19950350  0.08521901  1
  Cu  Cu2  1  0.50000000  0.52062581  0.48993827  1
  C  C3  1  0.00000000  0.35198799  0.35195703  1
  C  C4  1  0.50000000  0.92889079  0.23477766  1
  C  C5  1  0.50000000  0.13975679  0.75498035  1
  C  C6  1  0.00000000  0.63699202  0.63701952  1
