# generated using pymatgen
data_Cu5NiC19
_symmetry_space_group_name_H-M   'P 1'
_cell_length_a   5.73302908
_cell_length_b   5.78081915
_cell_length_c   9.24343777
_cell_angle_alpha   89.90235502
_cell_angle_beta   92.01510349
_cell_angle_gamma   120.09211217
_symmetry_Int_Tables_number   1
_chemical_formula_structural   Cu5NiC19
_chemical_formula_sum   'Cu5 Ni1 C19'
_cell_volume   264.84482755
_cell_formula_units_Z   1
loop_
 _symmetry_equiv_pos_site_id
 _symmetry_equiv_pos_as_xyz
  1  'x, y, z'
loop_
 _atom_site_type_symbol
 _atom_site_label
 _atom_site_symmetry_multiplicity
 _atom_site_fract_x
 _atom_site_fract_y
 _atom_site_fract_z
 _atom_site_occupancy
  Ni  Ni0  1  0.66293500  0.33158900  0.96094300  1
  C  C1  1  0.65968000  0.82933200  0.18542100  1
  C  C2  1  0.84097600  0.67404400  0.68738700  1
  C  C3  1  0.84749300  0.17363500  0.68568500  1
  Cu  Cu4  1  0.15255100  0.82912500  0.19386700  1
  Cu  Cu5  1  0.33536400  0.66902400  0.47061700  1
  Cu  Cu6  1  0.15273300  0.32273300  0.19465800  1
  Cu  Cu7  1  0.35030800  0.17814700  0.67221900  1
  Cu  Cu8  1  0.65001600  0.32442200  0.36187700  1
  C  C9  1  0.17991700  0.83628800  0.56823000  1
  C  C10  1  0.03246500  0.51637500  0.32014400  1
  C  C11  1  0.30458600  0.65155400  0.09133300  1
  C  C12  1  0.00234200  0.99930200  0.30036200  1
  C  C13  1  0.04181500  0.01988100  0.78403600  1
  C  C14  1  0.17557400  0.33483700  0.56663700  1
  C  C15  1  0.46827300  0.95682500  0.32665300  1
  C  C16  1  0.46819500  0.51150600  0.32639300  1
  C  C17  1  0.31246300  0.15614600  0.10500400  1
  C  C18  1  0.67395800  0.83659100  0.56857700  1
  C  C19  1  0.51844100  0.47689300  0.79192400  1
  C  C20  1  0.52409200  0.04393100  0.78979000  1
  C  C21  1  0.66649400  0.33569400  0.56120600  1
  C  C22  1  0.83732400  0.66602200  0.09072800  1
  C  C23  1  0.97263300  0.48808900  0.80075200  1
  C  C24  1  0.83603900  0.17154500  0.09252800  1
