# generated using pymatgen
data_Cu2NiC6
_symmetry_space_group_name_H-M   'P 1'
_cell_length_a   5.38733926
_cell_length_b   6.04559745
_cell_length_c   5.48155400
_cell_angle_alpha   90.00000000
_cell_angle_beta   90.00000000
_cell_angle_gamma   120.97802490
_symmetry_Int_Tables_number   1
_chemical_formula_structural   Cu2NiC6
_chemical_formula_sum   'Cu2 Ni1 C6'
_cell_volume   153.06746321
_cell_formula_units_Z   1
loop_
 _symmetry_equiv_pos_site_id
 _symmetry_equiv_pos_as_xyz
  1  'x, y, z'
loop_
 _atom_site_type_symbol
 _atom_site_label
 _atom_site_symmetry_multiplicity
 _atom_site_fract_x
 _atom_site_fract_y
 _atom_site_fract_z
 _atom_site_occupancy
  Ni  Ni0  1  0.18168500  0.86214400  0.75000000  1
  Cu  Cu1  1  0.55976900  0.82193000  0.25000000  1
  Cu  Cu2  1  0.79956600  0.18782000  0.75000000  1
  C  C3  1  0.87319500  0.84302200  0.25000000  1
  C  C4  1  0.05381600  0.11232000  0.75000000  1
  C  C5  1  0.52705000  0.00092400  0.98118100  1
  C  C6  1  0.52705000  0.00092400  0.51881900  1
  C  C7  1  0.89222700  0.49648000  0.75000000  1
  C  C8  1  0.27314000  0.53693500  0.25000000  1
