# generated using pymatgen
data_CuNi3C17
_symmetry_space_group_name_H-M   'P 1'
_cell_length_a   9.36119585
_cell_length_b   9.36119550
_cell_length_c   22.63364232
_cell_angle_alpha   90.00000000
_cell_angle_beta   90.00000000
_cell_angle_gamma   120.00000119
_symmetry_Int_Tables_number   1
_chemical_formula_structural   CuNi3C17
_chemical_formula_sum   'Cu6 Ni18 C102'
_cell_volume   1717.70160623
_cell_formula_units_Z   6
loop_
 _symmetry_equiv_pos_site_id
 _symmetry_equiv_pos_as_xyz
  1  'x, y, z'
loop_
 _atom_site_type_symbol
 _atom_site_label
 _atom_site_symmetry_multiplicity
 _atom_site_fract_x
 _atom_site_fract_y
 _atom_site_fract_z
 _atom_site_occupancy
  Ni  Ni0  1  0.64852998  -0.00000000  0.25000000  1
  Ni  Ni1  1  0.35147002  0.35147002  0.25000000  1
  Ni  Ni2  1  1.00000000  0.64852998  0.25000000  1
  Ni  Ni3  1  0.64852998  0.64852998  0.75000000  1
  Ni  Ni4  1  0.00000000  0.35147002  0.75000000  1
  Ni  Ni5  1  0.35147002  -0.00000000  0.75000000  1
  Ni  Ni6  1  0.31519698  0.33333300  0.58333300  1
  Ni  Ni7  1  0.01813702  0.68480302  0.58333300  1
  Ni  Ni8  1  0.66666700  0.98186298  0.58333300  1
  Ni  Ni9  1  0.31519698  0.98186298  0.08333300  1
  Ni  Ni10  1  0.66666700  0.68480302  0.08333300  1
  Ni  Ni11  1  0.01813702  0.33333300  0.08333300  1
  Ni  Ni12  1  0.98186298  0.66666700  0.91666700  1
  Ni  Ni13  1  0.68480302  0.01813702  0.91666700  1
  Ni  Ni14  1  0.33333300  0.31519698  0.91666700  1
  Ni  Ni15  1  0.98186298  0.31519698  0.41666700  1
  Ni  Ni16  1  0.33333300  0.01813702  0.41666700  1
  Ni  Ni17  1  0.68480302  0.66666700  0.41666700  1
  Cu  Cu18  1  -0.00000000  -0.00000000  0.50000000  1
  Cu  Cu19  1  -0.00000000  -0.00000000  0.00000000  1
  Cu  Cu20  1  0.66666700  0.33333300  0.83333300  1
  Cu  Cu21  1  0.66666700  0.33333300  0.33333300  1
  Cu  Cu22  1  0.33333300  0.66666700  0.16666700  1
  Cu  Cu23  1  0.33333300  0.66666700  0.66666700  1
  C  C24  1  0.29595462  -0.00000000  0.25000000  1
  C  C25  1  0.70404538  0.70404538  0.25000000  1
  C  C26  1  0.00000000  0.29595462  0.25000000  1
  C  C27  1  0.29595462  0.29595462  0.75000000  1
  C  C28  1  1.00000000  0.70404538  0.75000000  1
  C  C29  1  0.70404538  -0.00000000  0.75000000  1
  C  C30  1  0.96262162  0.33333300  0.58333300  1
  C  C31  1  0.37071238  0.03737838  0.58333300  1
  C  C32  1  0.66666700  0.62928762  0.58333300  1
  C  C33  1  0.96262162  0.62928762  0.08333300  1
  C  C34  1  0.66666700  0.03737838  0.08333300  1
  C  C35  1  0.37071238  0.33333300  0.08333300  1
  C  C36  1  0.62928762  0.66666700  0.91666700  1
  C  C37  1  0.03737838  0.37071238  0.91666700  1
  C  C38  1  0.33333300  0.96262162  0.91666700  1
  C  C39  1  0.62928762  0.96262162  0.41666700  1
  C  C40  1  0.33333300  0.37071238  0.41666700  1
  C  C41  1  0.03737838  0.66666700  0.41666700  1
  C  C42  1  -0.00000000  -0.00000000  0.35096893  1
  C  C43  1  -0.00000000  -0.00000000  0.85096893  1
  C  C44  1  -0.00000000  -0.00000000  0.64903107  1
  C  C45  1  -0.00000000  -0.00000000  0.14903107  1
  C  C46  1  0.66666700  0.33333300  0.68430193  1
  C  C47  1  0.66666700  0.33333300  0.18430193  1
  C  C48  1  0.66666700  0.33333300  0.98236407  1
  C  C49  1  0.66666700  0.33333300  0.48236407  1
  C  C50  1  0.33333300  0.66666700  0.01763593  1
  C  C51  1  0.33333300  0.66666700  0.51763593  1
  C  C52  1  0.33333300  0.66666700  0.31569807  1
  C  C53  1  0.33333300  0.66666700  0.81569807  1
  C  C54  1  0.20949071  0.03413183  0.30762034  1
  C  C55  1  0.82464112  0.79050929  0.30762034  1
  C  C56  1  0.96586817  0.17535888  0.30762034  1
  C  C57  1  0.20949071  0.17535888  0.80762034  1
  C  C58  1  0.96586817  0.79050929  0.80762034  1
  C  C59  1  0.82464112  0.03413183  0.80762034  1
  C  C60  1  0.79050929  0.96586817  0.69237966  1
  C  C61  1  0.17535888  0.20949071  0.69237966  1
  C  C62  1  0.03413183  0.82464112  0.69237966  1
  C  C63  1  0.79050929  0.82464112  0.19237966  1
  C  C64  1  0.03413183  0.20949071  0.19237966  1
  C  C65  1  0.17535888  0.96586817  0.19237966  1
  C  C66  1  0.87615771  0.36746483  0.64095334  1
  C  C67  1  0.49130812  0.12384229  0.64095334  1
  C  C68  1  0.63253517  0.50869188  0.64095334  1
  C  C69  1  0.87615771  0.50869188  0.14095334  1
  C  C70  1  0.63253517  0.12384229  0.14095334  1
  C  C71  1  0.49130812  0.36746483  0.14095334  1
  C  C72  1  0.45717629  0.29920117  0.02571266  1
  C  C73  1  0.84202588  0.54282371  0.02571266  1
  C  C74  1  0.70079883  0.15797412  0.02571266  1
  C  C75  1  0.45717629  0.15797412  0.52571266  1
  C  C76  1  0.70079883  0.54282371  0.52571266  1
  C  C77  1  0.84202588  0.29920117  0.52571266  1
  C  C78  1  0.54282371  0.70079883  0.97428734  1
  C  C79  1  0.15797412  0.45717629  0.97428734  1
  C  C80  1  0.29920117  0.84202588  0.97428734  1
  C  C81  1  0.54282371  0.84202588  0.47428734  1
  C  C82  1  0.29920117  0.45717629  0.47428734  1
  C  C83  1  0.15797412  0.70079883  0.47428734  1
  C  C84  1  0.12384229  0.63253517  0.35904666  1
  C  C85  1  0.50869188  0.87615771  0.35904666  1
  C  C86  1  0.36746483  0.49130812  0.35904666  1
  C  C87  1  0.12384229  0.49130812  0.85904666  1
  C  C88  1  0.36746483  0.87615771  0.85904666  1
  C  C89  1  0.50869188  0.63253517  0.85904666  1
  C  C90  1  0.01608081  0.83198569  0.41112630  1
  C  C91  1  0.81590489  0.98391919  0.41112630  1
  C  C92  1  0.16801431  0.18409511  0.41112630  1
  C  C93  1  0.01608081  0.18409511  0.91112630  1
  C  C94  1  0.16801431  0.98391919  0.91112630  1
  C  C95  1  0.81590489  0.83198569  0.91112630  1
  C  C96  1  0.98391919  0.16801431  0.58887370  1
  C  C97  1  0.18409511  0.01608081  0.58887370  1
  C  C98  1  0.83198569  0.81590489  0.58887370  1
  C  C99  1  0.98391919  0.81590489  0.08887370  1
  C  C100  1  0.83198569  0.01608081  0.08887370  1
  C  C101  1  0.18409511  0.16801431  0.08887370  1
  C  C102  1  0.68274781  0.16531869  0.74445930  1
  C  C103  1  0.48257189  0.31725219  0.74445930  1
  C  C104  1  0.83468131  0.51742811  0.74445930  1
  C  C105  1  0.68274781  0.51742811  0.24445930  1
  C  C106  1  0.83468131  0.31725219  0.24445930  1
  C  C107  1  0.48257189  0.16531869  0.24445930  1
  C  C108  1  0.65058619  0.50134731  0.92220670  1
  C  C109  1  0.85076211  0.34941381  0.92220670  1
  C  C110  1  0.49865269  0.14923789  0.92220670  1
  C  C111  1  0.65058619  0.14923789  0.42220670  1
  C  C112  1  0.49865269  0.34941381  0.42220670  1
  C  C113  1  0.85076211  0.50134731  0.42220670  1
  C  C114  1  0.34941381  0.49865269  0.07779330  1
  C  C115  1  0.14923789  0.65058619  0.07779330  1
  C  C116  1  0.50134731  0.85076211  0.07779330  1
  C  C117  1  0.34941381  0.85076211  0.57779330  1
  C  C118  1  0.50134731  0.65058619  0.57779330  1
  C  C119  1  0.14923789  0.49865269  0.57779330  1
  C  C120  1  0.31725219  0.83468131  0.25554070  1
  C  C121  1  0.51742811  0.68274781  0.25554070  1
  C  C122  1  0.16531869  0.48257189  0.25554070  1
  C  C123  1  0.31725219  0.48257189  0.75554070  1
  C  C124  1  0.16531869  0.68274781  0.75554070  1
  C  C125  1  0.51742811  0.83468131  0.75554070  1
