# generated using pymatgen
data_Cu3Ni5C31
_symmetry_space_group_name_H-M   'P 1'
_cell_length_a   8.98034035
_cell_length_b   8.96982300
_cell_length_c   22.68610940
_cell_angle_alpha   89.96256674
_cell_angle_beta   89.99583746
_cell_angle_gamma   120.01160226
_symmetry_Int_Tables_number   1
_chemical_formula_structural   Cu3Ni5C31
_chemical_formula_sum   'Cu9 Ni15 C93'
_cell_volume   1582.40045294
_cell_formula_units_Z   3
loop_
 _symmetry_equiv_pos_site_id
 _symmetry_equiv_pos_as_xyz
  1  'x, y, z'
loop_
 _atom_site_type_symbol
 _atom_site_label
 _atom_site_symmetry_multiplicity
 _atom_site_fract_x
 _atom_site_fract_y
 _atom_site_fract_z
 _atom_site_occupancy
  Ni  Ni0  1  0.63713127  0.99960723  0.25448221  1
  Ni  Ni1  1  0.36284284  0.36406207  0.25511291  1
  Ni  Ni2  1  0.99991568  0.63714120  0.25472656  1
  Ni  Ni3  1  0.64562077  0.63750618  0.74933320  1
  Ni  Ni4  1  0.99535042  0.35763899  0.74978988  1
  Ni  Ni5  1  0.03247076  0.70193451  0.58117767  1
  Ni  Ni6  1  0.66572228  0.96579854  0.58079194  1
  Ni  Ni7  1  0.66588932  0.70061110  0.08125624  1
  Ni  Ni8  1  0.03319602  0.33011255  0.08137538  1
  Ni  Ni9  1  0.01399917  0.01519637  0.49455335  1
  Ni  Ni10  1  0.01404027  0.99885037  0.99337937  1
  Ni  Ni11  1  0.65211851  0.31755289  0.83498114  1
  Ni  Ni12  1  0.66673095  0.33344549  0.34041298  1
  Ni  Ni13  1  0.33234249  0.67985973  0.16546293  1
  Ni  Ni14  1  0.33321767  0.66553569  0.66325344  1
  Cu  Cu15  1  0.99859856  0.99877785  0.35567670  1
  Cu  Cu16  1  0.00148171  0.00024702  0.85435952  1
  Cu  Cu17  1  0.00977114  0.00749195  0.64953470  1
  Cu  Cu18  1  0.00689638  0.99919917  0.14765596  1
  Cu  Cu19  1  0.65705799  0.32600653  0.68503591  1
  Cu  Cu20  1  0.66386858  0.33021996  0.18337490  1
  Cu  Cu21  1  0.33272901  0.67315831  0.01542392  1
  Cu  Cu22  1  0.33251700  0.65869087  0.51469942  1
  Cu  Cu23  1  0.33331039  0.66644878  0.32229212  1
  C  C24  1  0.66436630  0.33152352  0.97931000  1
  C  C25  1  0.66354887  0.33318298  0.48056699  1
  C  C26  1  0.33367407  0.67298836  0.81969970  1
  C  C27  1  0.29332745  0.99904477  0.25096704  1
  C  C28  1  0.70551231  0.70647817  0.24863714  1
  C  C29  1  0.00093801  0.29449613  0.24882223  1
  C  C30  1  0.29411455  0.29822561  0.75307942  1
  C  C31  1  0.00475812  0.70671061  0.74991825  1
  C  C32  1  0.70382211  0.99603723  0.75025585  1
  C  C33  1  0.95718078  0.33211598  0.58453072  1
  C  C34  1  0.37223433  0.04018406  0.58178645  1
  C  C35  1  0.66749581  0.62774008  0.58491328  1
  C  C36  1  0.95780067  0.62528294  0.08322222  1
  C  C37  1  0.66734858  0.03971605  0.08384404  1
  C  C38  1  0.37245358  0.33223964  0.08265220  1
  C  C39  1  0.62865183  0.66335026  0.91751540  1
  C  C40  1  0.03393664  0.37098922  0.91786840  1
  C  C41  1  0.33666133  0.96636147  0.91714817  1
  C  C42  1  0.63136867  0.96803614  0.41816436  1
  C  C43  1  0.33651595  0.36807473  0.41591430  1
  C  C44  1  0.03209049  0.66339267  0.41832980  1
  C  C45  1  0.20890352  0.03043966  0.30407778  1
  C  C46  1  0.82519498  0.79575167  0.30075387  1
  C  C47  1  0.97130938  0.17490790  0.30093205  1
  C  C48  1  0.20740069  0.19007755  0.80722401  1
  C  C49  1  0.97726659  0.79677410  0.80235673  1
  C  C50  1  0.82126424  0.02291584  0.80280936  1
  C  C51  1  0.77976485  0.96398928  0.69322041  1
  C  C52  1  0.18064920  0.21918713  0.69773826  1
  C  C53  1  0.02982896  0.80838688  0.69217630  1
  C  C54  1  0.78369226  0.81229608  0.19121684  1
  C  C55  1  0.02891681  0.21654143  0.19142931  1
  C  C56  1  0.18091065  0.96831386  0.19543343  1
  C  C57  1  0.87553872  0.36015109  0.64058359  1
  C  C58  1  0.48894425  0.12661439  0.63549001  1
  C  C59  1  0.64455614  0.52277191  0.64138968  1
  C  C60  1  0.87655323  0.51638230  0.13941130  1
  C  C61  1  0.64423284  0.12030176  0.14052218  1
  C  C62  1  0.48109244  0.35961619  0.13872534  1
  C  C63  1  0.45960373  0.30621395  0.02812699  1
  C  C64  1  0.83663995  0.53900431  0.02957325  1
  C  C65  1  0.70186617  0.16099823  0.03027730  1
  C  C66  1  0.45280636  0.14977398  0.52584501  1
  C  C67  1  0.70232389  0.54203568  0.53101358  1
  C  C68  1  0.83616180  0.29638131  0.53058448  1
  C  C69  1  0.53793556  0.67969296  0.97269476  1
  C  C70  1  0.14126423  0.46184851  0.97296340  1
  C  C71  1  0.31818286  0.85575130  0.97110883  1
  C  C72  1  0.54148366  0.86281964  0.47399876  1
  C  C73  1  0.32046547  0.46349608  0.46955301  1
  C  C74  1  0.13697741  0.67863906  0.47416272  1
  C  C75  1  0.11698969  0.64051850  0.36179320  1
  C  C76  1  0.52409946  0.88234443  0.36161811  1
  C  C77  1  0.35958975  0.47155686  0.35831753  1
  C  C78  1  0.11545354  0.48006806  0.86019354  1
  C  C79  1  0.36950960  0.88907854  0.86014157  1
  C  C80  1  0.51963014  0.63629143  0.85994042  1
  C  C81  1  0.01212285  0.82285529  0.41344894  1
  C  C82  1  0.81068347  0.98777724  0.41334699  1
  C  C83  1  0.17705940  0.18896841  0.41253437  1
  C  C84  1  0.01605464  0.19318760  0.91268344  1
  C  C85  1  0.17690117  0.98348609  0.91192165  1
  C  C86  1  0.80648546  0.82333294  0.91213210  1
  C  C87  1  0.97074140  0.16756239  0.58950866  1
  C  C88  1  0.18911667  0.01326124  0.58790031  1
  C  C89  1  0.83212481  0.80887582  0.58861153  1
  C  C90  1  0.97109454  0.80311114  0.08739582  1
  C  C91  1  0.83159761  0.02306540  0.08715437  1
  C  C92  1  0.18848340  0.17629328  0.08655340  1
  C  C93  1  0.68622393  0.15836404  0.74507593  1
  C  C94  1  0.47960012  0.33112831  0.74654343  1
  C  C95  1  0.84298558  0.52267139  0.74572285  1
  C  C96  1  0.68380826  0.52298893  0.24405403  1
  C  C97  1  0.83902061  0.31571626  0.24435860  1
  C  C98  1  0.47601449  0.16047919  0.24457236  1
  C  C99  1  0.64298750  0.49718714  0.92040785  1
  C  C100  1  0.85347399  0.35680024  0.92097159  1
  C  C101  1  0.50174955  0.14651224  0.92112204  1
  C  C102  1  0.64557871  0.14888443  0.42085428  1
  C  C103  1  0.50384545  0.35631461  0.42041866  1
  C  C104  1  0.85145629  0.49633145  0.42145222  1
  C  C105  1  0.35768385  0.49783648  0.07762239  1
  C  C106  1  0.13348179  0.63462501  0.07677516  1
  C  C107  1  0.51050831  0.85657468  0.07780247  1
  C  C108  1  0.35595779  0.85922019  0.57721053  1
  C  C109  1  0.51071734  0.65373760  0.57814199  1
  C  C110  1  0.13319003  0.49795796  0.57728440  1
  C  C111  1  0.31438499  0.83757001  0.25635943  1
  C  C112  1  0.52429797  0.68765437  0.25516341  1
  C  C113  1  0.16240263  0.47689133  0.25513436  1
  C  C114  1  0.31021953  0.48290592  0.75739866  1
  C  C115  1  0.16436749  0.67900012  0.75617382  1
  C  C116  1  0.52392371  0.82630744  0.75683476  1
