# generated using pymatgen
data_CuNi2C17
_symmetry_space_group_name_H-M   'P 1'
_cell_length_a   9.07153216
_cell_length_b   9.02750465
_cell_length_c   22.30005166
_cell_angle_alpha   89.77924574
_cell_angle_beta   89.87402743
_cell_angle_gamma   120.10701298
_symmetry_Int_Tables_number   1
_chemical_formula_structural   CuNi2C17
_chemical_formula_sum   'Cu6 Ni12 C102'
_cell_volume   1579.81911809
_cell_formula_units_Z   6
loop_
 _symmetry_equiv_pos_site_id
 _symmetry_equiv_pos_as_xyz
  1  'x, y, z'
loop_
 _atom_site_type_symbol
 _atom_site_label
 _atom_site_symmetry_multiplicity
 _atom_site_fract_x
 _atom_site_fract_y
 _atom_site_fract_z
 _atom_site_occupancy
  C  C0  1  0.36560900  0.36763409  0.25218223  1
  C  C1  1  0.63894380  0.63180099  0.74454402  1
  C  C2  1  0.99328955  0.34977519  0.74777313  1
  C  C3  1  0.29603809  0.34168993  0.58458670  1
  C  C4  1  0.03035684  0.69513441  0.58067737  1
  C  C5  1  0.67211451  0.95970450  0.58213147  1
  C  C6  1  0.29033410  0.96072824  0.08104547  1
  C  C7  1  0.66284573  0.69491244  0.08286358  1
  C  C8  1  0.04509422  0.34267552  0.08396995  1
  C  C9  1  0.31963714  0.29253408  0.91168971  1
  C  C10  1  0.97826357  0.30099347  0.41125268  1
  C  C11  1  0.69936633  0.67990532  0.41171276  1
  C  C12  1  0.00476786  0.99973887  0.49441236  1
  C  C13  1  0.99405948  0.98780864  0.99202714  1
  C  C14  1  0.65629028  0.30948499  0.82803437  1
  C  C15  1  0.66607429  0.31883078  0.32604810  1
  C  C16  1  0.32503081  0.67076922  0.17125813  1
  C  C17  1  0.33836591  0.66831549  0.66259430  1
  C  C18  1  0.67100730  0.34067651  0.97955785  1
  C  C19  1  0.66739819  0.33373944  0.48015705  1
  C  C20  1  0.33705159  0.67483063  0.81774207  1
  C  C21  1  0.00863589  0.99797713  0.35078678  1
  C  C22  1  0.99536745  0.00575480  0.85078945  1
  C  C23  1  0.99131777  0.01029171  0.65626157  1
  C  C24  1  0.00794087  0.99558146  0.15532646  1
  C  C25  1  0.65720082  0.32449373  0.68273884  1
  C  C26  1  0.67448369  0.34481960  0.18085844  1
  C  C27  1  0.32671558  0.66262829  0.00893927  1
  C  C28  1  0.33144990  0.66117747  0.50513807  1
  C  C29  1  0.33267588  0.67781922  0.32453620  1
  Ni  Ni30  1  0.29852312  0.29457539  0.75047546  1
  Ni  Ni31  1  0.70565809  0.00303150  0.74879718  1
  Ni  Ni32  1  0.96558162  0.33620151  0.58598684  1
  Ni  Ni33  1  0.66776887  0.63155342  0.58624040  1
  Ni  Ni34  1  0.96472917  0.63009443  0.08616886  1
  Ni  Ni35  1  0.36893034  0.33369820  0.08634383  1
  Ni  Ni36  1  0.63453049  0.67551768  0.91919390  1
  Ni  Ni37  1  0.03636880  0.36617090  0.91796810  1
  Ni  Ni38  1  0.32800916  0.96325641  0.92094571  1
  Ni  Ni39  1  0.62982133  0.96006461  0.41702846  1
  Ni  Ni40  1  0.32998756  0.36841212  0.41498532  1
  Ni  Ni41  1  0.04245076  0.67218711  0.41792654  1
  Cu  Cu42  1  0.29937771  -0.00054039  0.24895527  1
  Cu  Cu43  1  0.70112735  0.70310749  0.24970483  1
  Cu  Cu44  1  0.99803381  0.29545385  0.24932160  1
  Cu  Cu45  1  0.00098482  0.70796715  0.74912296  1
  Cu  Cu46  1  0.36934165  0.03543739  0.58520346  1
  Cu  Cu47  1  0.66653196  0.03949441  0.08593242  1
  C  C48  1  0.21140084  0.02654942  0.30023431  1
  C  C49  1  0.80280587  0.78748881  0.30385459  1
  C  C50  1  0.97943759  0.19290922  0.30428846  1
  C  C51  1  0.21483328  0.19055116  0.80710874  1
  C  C52  1  0.98075741  0.79290426  0.80107876  1
  C  C53  1  0.82145225  0.02969950  0.80179490  1
  C  C54  1  0.76823071  0.95841393  0.69007079  1
  C  C55  1  0.19102051  0.21928174  0.69278558  1
  C  C56  1  0.02676765  0.80447885  0.69225566  1
  C  C57  1  0.78423472  0.80266315  0.19394452  1
  C  C58  1  0.02050882  0.21225633  0.19423595  1
  C  C59  1  0.20397912  0.97814598  0.19167484  1
  C  C60  1  0.88026659  0.36035424  0.64175638  1
  C  C61  1  0.47563953  0.11505906  0.63800019  1
  C  C62  1  0.63895474  0.51854265  0.64185205  1
  C  C63  1  0.88270145  0.51106378  0.13983020  1
  C  C64  1  0.63925060  0.11972936  0.13855230  1
  C  C65  1  0.47908274  0.35905282  0.14195497  1
  C  C66  1  0.45978436  0.30710900  0.03008769  1
  C  C67  1  0.84726096  0.53814319  0.03020627  1
  C  C68  1  0.69204283  0.14933552  0.03133735  1
  C  C69  1  0.45501845  0.14560573  0.53106381  1
  C  C70  1  0.68598140  0.53686678  0.52967129  1
  C  C71  1  0.84867892  0.31120451  0.53013382  1
  C  C72  1  0.55108437  0.69252985  0.97654259  1
  C  C73  1  0.14276866  0.44690708  0.97454154  1
  C  C74  1  0.31090061  0.86455004  0.97887703  1
  C  C75  1  0.55445876  0.85651732  0.47592439  1
  C  C76  1  0.29994789  0.44340003  0.47319280  1
  C  C77  1  0.13891997  0.69565939  0.47723867  1
  C  C78  1  0.11852898  0.62804993  0.36482600  1
  C  C79  1  0.51959896  0.88022380  0.36266240  1
  C  C80  1  0.36940975  0.48381857  0.35934144  1
  C  C81  1  0.12517261  0.48058847  0.86130497  1
  C  C82  1  0.35321042  0.87001971  0.86624599  1
  C  C83  1  0.51533315  0.64383225  0.86330438  1
  C  C84  1  0.00644252  0.82100227  0.41103031  1
  C  C85  1  0.81188912  0.98375582  0.41162697  1
  C  C86  1  0.16834146  0.19133833  0.40911054  1
  C  C87  1  0.02468729  0.19212971  0.91182860  1
  C  C88  1  0.17638722  0.99054151  0.91317094  1
  C  C89  1  0.81219584  0.82574464  0.91051732  1
  C  C90  1  0.98130573  0.17238148  0.58642572  1
  C  C91  1  0.19942853  0.02138327  0.58831693  1
  C  C92  1  0.83596467  0.80685062  0.58703004  1
  C  C93  1  0.97221155  0.80599825  0.08896007  1
  C  C94  1  0.82282077  0.02493152  0.08906504  1
  C  C95  1  0.18900546  0.17037696  0.08863880  1
  C  C96  1  0.69185251  0.16624802  0.74353133  1
  C  C97  1  0.48387040  0.33076095  0.74592285  1
  C  C98  1  0.84787360  0.53201660  0.74623602  1
  C  C99  1  0.68039106  0.52673439  0.24741724  1
  C  C100  1  0.84474700  0.31272022  0.24494450  1
  C  C101  1  0.46997377  0.16112139  0.24516443  1
  C  C102  1  0.63506581  0.50001780  0.92127335  1
  C  C103  1  0.85816931  0.35151452  0.92157334  1
  C  C104  1  0.49401082  0.14563383  0.92210882  1
  C  C105  1  0.65652331  0.14682259  0.42292668  1
  C  C106  1  0.49573054  0.35485915  0.42311250  1
  C  C107  1  0.85656291  0.50375393  0.42326306  1
  C  C108  1  0.35394593  0.49650652  0.07960538  1
  C  C109  1  0.14527176  0.65431628  0.07927867  1
  C  C110  1  0.51426274  0.86666425  0.07941269  1
  C  C111  1  0.35137069  0.86372603  0.57873556  1
  C  C112  1  0.50968641  0.65333116  0.58028607  1
  C  C113  1  0.14377691  0.49854038  0.57937874  1
  C  C114  1  0.31619163  0.84612972  0.25525787  1
  C  C115  1  0.52675567  0.68079939  0.25238506  1
  C  C116  1  0.15849294  0.46588612  0.25261607  1
  C  C117  1  0.31230950  0.47939264  0.75524619  1
  C  C118  1  0.15360469  0.68172805  0.75431176  1
  C  C119  1  0.52397237  0.83762594  0.75657724  1
