# generated using pymatgen
data_Cu5NiC11
_symmetry_space_group_name_H-M   'P 1'
_cell_length_a   7.68110140
_cell_length_b   8.84800619
_cell_length_c   9.55752905
_cell_angle_alpha   92.58028386
_cell_angle_beta   90.00000000
_cell_angle_gamma   90.00000000
_symmetry_Int_Tables_number   1
_chemical_formula_structural   Cu5NiC11
_chemical_formula_sum   'Cu20 Ni4 C44'
_cell_volume   648.89435665
_cell_formula_units_Z   4
loop_
 _symmetry_equiv_pos_site_id
 _symmetry_equiv_pos_as_xyz
  1  'x, y, z'
loop_
 _atom_site_type_symbol
 _atom_site_label
 _atom_site_symmetry_multiplicity
 _atom_site_fract_x
 _atom_site_fract_y
 _atom_site_fract_z
 _atom_site_occupancy
  C  C0  1  0.68414444  0.31588703  0.26212343  1
  C  C1  1  0.31585556  0.68411297  0.73787657  1
  C  C2  1  0.18414444  0.18411297  0.23787657  1
  C  C3  1  0.81585556  0.81588703  0.76212343  1
  Ni  Ni4  1  0.41210002  0.61002069  0.12293692  1
  Ni  Ni5  1  0.08789998  0.11002069  0.62293692  1
  Ni  Ni6  1  0.58789998  0.38997931  0.87706308  1
  Ni  Ni7  1  0.91210002  0.88997931  0.37706308  1
  Cu  Cu8  1  0.59725739  0.84859740  0.00293871  1
  Cu  Cu9  1  0.17296223  0.98542228  0.89162501  1
  Cu  Cu10  1  0.03279703  0.78257848  0.05326057  1
  Cu  Cu11  1  0.67296223  0.51457772  0.60837499  1
  Cu  Cu12  1  0.82703777  0.01457772  0.10837499  1
  Cu  Cu13  1  0.09725739  0.65140260  0.49706129  1
  Cu  Cu14  1  0.46720297  0.28257848  0.55326057  1
  Cu  Cu15  1  0.32703777  0.48542228  0.39162501  1
  Cu  Cu16  1  0.40274261  0.15140260  0.99706129  1
  Cu  Cu17  1  0.41888155  0.08771725  0.73576998  1
  Cu  Cu18  1  0.96720297  0.21742152  0.94673943  1
  Cu  Cu19  1  0.31522907  0.92814363  0.41457620  1
  Cu  Cu20  1  0.90274261  0.34859740  0.50293871  1
  Cu  Cu21  1  0.58111845  0.91228275  0.26423002  1
  Cu  Cu22  1  0.68477093  0.07185637  0.58542380  1
  Cu  Cu23  1  0.18477093  0.42814363  0.91457620  1
  Cu  Cu24  1  0.53279703  0.71742152  0.44673943  1
  Cu  Cu25  1  0.81522907  0.57185637  0.08542380  1
  Cu  Cu26  1  0.91888155  0.41228275  0.76423002  1
  Cu  Cu27  1  0.08111845  0.58771725  0.23576998  1
  C  C28  1  0.95786982  0.27039181  0.38615895  1
  C  C29  1  0.02509421  0.08581038  0.85500377  1
  C  C30  1  0.78383503  0.52709157  0.73654639  1
  C  C31  1  0.53661115  0.81758355  0.13428059  1
  C  C32  1  0.54213018  0.77039181  0.88615895  1
  C  C33  1  0.04213018  0.72960819  0.61384105  1
  C  C34  1  0.47490579  0.58581038  0.35500377  1
  C  C35  1  0.34597532  0.49741110  0.93146616  1
  C  C36  1  0.10668889  0.83033566  0.91645054  1
  C  C37  1  0.97490579  0.91418962  0.14499623  1
  C  C38  1  0.77627286  0.45909563  0.48759188  1
  C  C39  1  0.91741315  0.51374421  0.18930678  1
  C  C40  1  0.71616497  0.02709157  0.23654639  1
  C  C41  1  0.89331111  0.16966434  0.08354946  1
  C  C42  1  0.27627286  0.04090437  0.01240812  1
  C  C43  1  0.46338885  0.18241645  0.86571941  1
  C  C44  1  0.41741315  0.98625579  0.31069322  1
  C  C45  1  0.08258685  0.48625579  0.81069322  1
  C  C46  1  0.15197517  0.68683989  0.13022911  1
  C  C47  1  0.60668889  0.66966434  0.58354946  1
  C  C48  1  0.65197517  0.81316011  0.36977089  1
  C  C49  1  0.96338885  0.31758355  0.63428059  1
  C  C50  1  0.84597532  0.00258890  0.56853384  1
  C  C51  1  0.45786982  0.22960819  0.11384105  1
  C  C52  1  0.58258685  0.01374421  0.68930678  1
  C  C53  1  0.39331111  0.33033566  0.41645054  1
  C  C54  1  0.52509421  0.41418962  0.64499623  1
  C  C55  1  0.37411507  0.81035971  0.49022847  1
  C  C56  1  0.34802483  0.18683989  0.63022911  1
  C  C57  1  0.65402468  0.50258890  0.06853384  1
  C  C58  1  0.21616497  0.47290843  0.26345361  1
  C  C59  1  0.62588493  0.18964029  0.50977153  1
  C  C60  1  0.15402468  0.99741110  0.43146616  1
  C  C61  1  0.28383503  0.97290843  0.76345361  1
  C  C62  1  0.84802483  0.31316011  0.86977089  1
  C  C63  1  0.12588493  0.31035971  0.99022847  1
  C  C64  1  0.87411507  0.68964029  0.00977153  1
  C  C65  1  0.72372714  0.95909563  0.98759188  1
  C  C66  1  0.22372714  0.54090437  0.51240812  1
  C  C67  1  0.03661115  0.68241645  0.36571941  1
