# generated using pymatgen
data_CuNi7C66
_symmetry_space_group_name_H-M   'P 1'
_cell_length_a   17.37179551
_cell_length_b   8.67657326
_cell_length_c   22.56747534
_cell_angle_alpha   89.96765890
_cell_angle_beta   90.01638323
_cell_angle_gamma   119.91535310
_symmetry_Int_Tables_number   1
_chemical_formula_structural   CuNi7C66
_chemical_formula_sum   'Cu3 Ni21 C198'
_cell_volume   2948.33134234
_cell_formula_units_Z   3
loop_
 _symmetry_equiv_pos_site_id
 _symmetry_equiv_pos_as_xyz
  1  'x, y, z'
loop_
 _atom_site_type_symbol
 _atom_site_label
 _atom_site_symmetry_multiplicity
 _atom_site_fract_x
 _atom_site_fract_y
 _atom_site_fract_z
 _atom_site_occupancy
  C  C0  1  0.32121303  0.64172308  0.74975911  1
  C  C1  1  0.64937405  0.33122324  0.58432913  1
  C  C2  1  0.98709613  0.66705883  0.91725950  1
  C  C3  1  0.66527529  0.30182871  0.91555368  1
  C  C4  1  0.16711490  0.02938484  0.41696555  1
  C  C5  1  0.66633932  0.02779003  0.41698342  1
  C  C6  1  0.99582013  0.00139462  0.49730754  1
  C  C7  1  0.48778300  0.98487218  0.50097526  1
  C  C8  1  0.00249864  0.01329518  0.99898554  1
  C  C9  1  0.49302353  0.98803179  0.99704057  1
  C  C10  1  0.33698770  0.32723177  0.83609841  1
  C  C11  1  0.83118841  0.32001497  0.83009674  1
  C  C12  1  0.33872649  0.34277204  0.33333376  1
  C  C13  1  0.83901560  0.34325155  0.33269065  1
  C  C14  1  0.16725466  0.66679856  0.16620458  1
  C  C15  1  0.66613164  0.66637984  0.16647302  1
  C  C16  1  0.16630239  0.67177382  0.66396289  1
  C  C17  1  0.66289244  0.67226337  0.66922868  1
  Ni  Ni18  1  0.99630874  0.99904435  0.35155483  1
  Ni  Ni19  1  0.49564049  0.99885826  0.35162334  1
  Ni  Ni20  1  0.00119150  0.00837413  0.85153426  1
  Ni  Ni21  1  0.49608535  0.99412793  0.85016505  1
  Ni  Ni22  1  0.49623353  0.99204153  0.64990470  1
  Ni  Ni23  1  0.33770439  0.33231090  0.68235551  1
  Ni  Ni24  1  0.83114214  0.32949426  0.68558669  1
  Ni  Ni25  1  0.33351907  0.33332633  0.18416429  1
  Ni  Ni26  1  0.83294371  0.33316337  0.18453567  1
  Ni  Ni27  1  0.33357458  0.33685158  0.98162582  1
  Ni  Ni28  1  0.83338364  0.32199734  0.98491308  1
  Ni  Ni29  1  0.33759598  0.34351028  0.48364514  1
  Ni  Ni30  1  0.83916627  0.33883676  0.48260188  1
  Ni  Ni31  1  0.16950610  0.66742348  0.01697022  1
  Ni  Ni32  1  0.66443607  0.66768642  0.01762988  1
  Ni  Ni33  1  0.16899449  0.66347875  0.51769576  1
  Ni  Ni34  1  0.66502941  0.67187559  0.51631158  1
  Ni  Ni35  1  0.16698024  0.66459928  0.31556042  1
  Ni  Ni36  1  0.66644847  0.66461941  0.31465813  1
  Ni  Ni37  1  0.16698512  0.67290192  0.81748146  1
  Ni  Ni38  1  0.66389098  0.66427750  0.81456510  1
  Cu  Cu39  1  0.00032964  0.00260856  0.64825887  1
  Cu  Cu40  1  0.00036064  0.00173954  0.14862746  1
  Cu  Cu41  1  0.49850028  0.99902458  0.14810804  1
  C  C42  1  0.14571755  0.00084996  0.25059102  1
  C  C43  1  0.64551426  0.00114807  0.25049596  1
  C  C44  1  0.35484429  0.70845221  0.24993819  1
  C  C45  1  0.85523483  0.70931369  0.24981986  1
  C  C46  1  0.99941002  0.29042433  0.25001884  1
  C  C47  1  0.49951699  0.28987793  0.24982656  1
  C  C48  1  0.14528589  0.28951363  0.74997047  1
  C  C49  1  0.64791351  0.29546429  0.75003045  1
  C  C50  1  0.99929789  0.70891530  0.75053716  1
  C  C51  1  0.50096243  0.70667350  0.74972242  1
  C  C52  1  0.35247057  0.00175929  0.75023708  1
  C  C53  1  0.85568119  0.00105773  0.75010794  1
  C  C54  1  0.48086424  0.33303927  0.58290513  1
  C  C55  1  0.97965060  0.33404281  0.58521908  1
  C  C56  1  0.18564314  0.03848301  0.58411396  1
  C  C57  1  0.68713598  0.03941704  0.58276449  1
  C  C58  1  0.33277999  0.62738891  0.58458274  1
  C  C59  1  0.83483565  0.62835755  0.58424861  1
  C  C60  1  0.47978301  0.62639864  0.08494364  1
  C  C61  1  0.98050010  0.62772257  0.08404485  1
  C  C62  1  0.33298345  0.04097350  0.08461599  1
  C  C63  1  0.83310878  0.03838392  0.08542617  1
  C  C64  1  0.18684824  0.33317559  0.08482244  1
  C  C65  1  0.68605729  0.33329695  0.08420332  1
  C  C66  1  0.31381282  0.66559026  0.91587091  1
  C  C67  1  0.81364855  0.66943083  0.91712863  1
  C  C68  1  0.02040496  0.37310292  0.91701235  1
  C  C69  1  0.51959076  0.37380933  0.91679650  1
  C  C70  1  0.16722763  0.96194050  0.91702770  1
  C  C71  1  0.66688354  0.95974003  0.91644096  1
  C  C72  1  0.31330964  0.95994945  0.41675445  1
  C  C73  1  0.81338657  0.95870412  0.41660740  1
  C  C74  1  0.16669060  0.37261151  0.41623433  1
  C  C75  1  0.66714987  0.37313400  0.41706806  1
  C  C76  1  0.02010670  0.66496526  0.41637455  1
  C  C77  1  0.51948655  0.66546831  0.41529692  1
  C  C78  1  0.10589798  0.02561941  0.30457434  1
  C  C79  1  0.60597260  0.02591841  0.30477089  1
  C  C80  1  0.40871341  0.79023825  0.30256482  1
  C  C81  1  0.90892160  0.79087986  0.30259729  1
  C  C82  1  0.48709080  0.18270656  0.30263114  1
  C  C83  1  0.98675466  0.18268944  0.30259953  1
  C  C84  1  0.10458612  0.18266748  0.80210634  1
  C  C85  1  0.60679194  0.18854256  0.80424064  1
  C  C86  1  0.48460193  0.78674826  0.80265758  1
  C  C87  1  0.98705240  0.78819294  0.80466160  1
  C  C88  1  0.40594994  0.02683507  0.80364934  1
  C  C89  1  0.90935027  0.02600723  0.80270496  1
  C  C90  1  0.39250043  0.96861429  0.69728980  1
  C  C91  1  0.90315722  0.98007752  0.69594113  1
  C  C92  1  0.08823115  0.19883624  0.69592590  1
  C  C93  1  0.59496210  0.21324771  0.69556429  1
  C  C94  1  0.01039163  0.82692228  0.69711813  1
  C  C95  1  0.51339713  0.81365318  0.69612362  1
  C  C96  1  0.40166630  0.82494039  0.19581420  1
  C  C97  1  0.90199275  0.82558518  0.19584510  1
  C  C98  1  0.01036773  0.19634395  0.19578021  1
  C  C99  1  0.51023618  0.19570314  0.19574920  1
  C  C100  1  0.08706715  0.97950163  0.19715042  1
  C  C101  1  0.58710371  0.97937764  0.19718800  1
  C  C102  1  0.44109377  0.36002307  0.63640266  1
  C  C103  1  0.93836443  0.35776095  0.63799115  1
  C  C104  1  0.23980288  0.12410613  0.63641738  1
  C  C105  1  0.74218865  0.12475964  0.63522263  1
  C  C106  1  0.32010003  0.52306955  0.63962962  1
  C  C107  1  0.82000138  0.51750940  0.63700447  1
  C  C108  1  0.43903888  0.52039615  0.13798810  1
  C  C109  1  0.93757615  0.51848999  0.13584204  1
  C  C110  1  0.32111171  0.12206037  0.13790632  1
  C  C111  1  0.82111661  0.12173936  0.13777320  1
  C  C112  1  0.23970223  0.35719606  0.13794057  1
  C  C113  1  0.74066338  0.35645431  0.13595641  1
  C  C114  1  0.22258566  0.29655326  0.03122321  1
  C  C115  1  0.72163497  0.29981970  0.02885809  1
  C  C116  1  0.42603856  0.55471570  0.03120153  1
  C  C117  1  0.92809051  0.55734995  0.02878805  1
  C  C118  1  0.35108192  0.14907382  0.03106763  1
  C  C119  1  0.85181148  0.14662146  0.03122654  1
  C  C120  1  0.21964840  0.14164637  0.52899363  1
  C  C121  1  0.72635515  0.14936487  0.52832411  1
  C  C122  1  0.34496726  0.54175446  0.53188075  1
  C  C123  1  0.85170857  0.55416782  0.53058402  1
  C  C124  1  0.42675250  0.30690232  0.52983040  1
  C  C125  1  0.92628970  0.29625857  0.53127855  1
  C  C126  1  0.27097557  0.69151493  0.96831794  1
  C  C127  1  0.77308518  0.69416573  0.97054022  1
  C  C128  1  0.07351299  0.45482079  0.97048032  1
  C  C129  1  0.57636302  0.45411925  0.96980959  1
  C  C130  1  0.15016075  0.84726146  0.96963980  1
  C  C131  1  0.65475824  0.85434767  0.97024885  1
  C  C132  1  0.27234003  0.85221206  0.47030838  1
  C  C133  1  0.77264911  0.85123346  0.47041721  1
  C  C134  1  0.15288546  0.45335381  0.46974689  1
  C  C135  1  0.65469855  0.45179479  0.47238136  1
  C  C136  1  0.07615738  0.69671255  0.46967739  1
  C  C137  1  0.57548114  0.69862342  0.46878754  1
  C  C138  1  0.06058635  0.63955913  0.36263647  1
  C  C139  1  0.56090353  0.64011596  0.36227534  1
  C  C140  1  0.25741321  0.88001393  0.36345861  1
  C  C141  1  0.75723417  0.87880625  0.36363799  1
  C  C142  1  0.17964636  0.47969693  0.36278174  1
  C  C143  1  0.67948624  0.48263585  0.36476322  1
  C  C144  1  0.06005871  0.48497136  0.86344961  1
  C  C145  1  0.56068645  0.48133311  0.86340313  1
  C  C146  1  0.17920176  0.88016578  0.86303012  1
  C  C147  1  0.68097923  0.87927869  0.86313669  1
  C  C148  1  0.26168385  0.63944089  0.86043840  1
  C  C149  1  0.75809430  0.63793246  0.86394624  1
  C  C150  1  0.01296565  0.82955453  0.41057392  1
  C  C151  1  0.51277913  0.83033710  0.40978037  1
  C  C152  1  0.40236646  0.97931521  0.41045437  1
  C  C153  1  0.90260601  0.97898799  0.41058725  1
  C  C154  1  0.08738345  0.19011642  0.41079260  1
  C  C155  1  0.58777197  0.19143192  0.41126942  1
  C  C156  1  0.00982980  0.19451592  0.91055336  1
  C  C157  1  0.51296257  0.19567351  0.91090643  1
  C  C158  1  0.08453924  0.97475572  0.91081213  1
  C  C159  1  0.58792949  0.98402394  0.91086831  1
  C  C160  1  0.40270247  0.82673783  0.91077665  1
  C  C161  1  0.90466796  0.82429061  0.91078367  1
  C  C162  1  0.49282173  0.17478126  0.58867489  1
  C  C163  1  0.98926194  0.16773165  0.59404963  1
  C  C164  1  0.09389634  0.02134435  0.59390520  1
  C  C165  1  0.59845878  0.02596168  0.58895164  1
  C  C166  1  0.41334128  0.80559712  0.58928236  1
  C  C167  1  0.91558603  0.81051485  0.59264133  1
  C  C168  1  0.48929763  0.81106480  0.09374587  1
  C  C169  1  0.98919448  0.81076097  0.09271841  1
  C  C170  1  0.41582755  0.02115889  0.09344265  1
  C  C171  1  0.91617033  0.02100059  0.09348000  1
  C  C172  1  0.09449160  0.16738575  0.09378154  1
  C  C173  1  0.59493781  0.16790598  0.09280562  1
  C  C174  1  0.34175861  0.15884006  0.74353559  1
  C  C175  1  0.84786019  0.16072908  0.74184869  1
  C  C176  1  0.23492235  0.31204403  0.74188258  1
  C  C177  1  0.73710947  0.31181978  0.74468149  1
  C  C178  1  0.41833757  0.52839735  0.74410749  1
  C  C179  1  0.92007163  0.53392080  0.74169413  1
  C  C180  1  0.34661583  0.53282993  0.24154099  1
  C  C181  1  0.84688401  0.53352757  0.24144461  1
  C  C182  1  0.42004249  0.30708451  0.24170510  1
  C  C183  1  0.92004584  0.30734028  0.24161015  1
  C  C184  1  0.23338393  0.16006643  0.24200990  1
  C  C185  1  0.73336496  0.16026608  0.24213833  1
  C  C186  1  0.32213370  0.50460195  0.92240140  1
  C  C187  1  0.82325093  0.50599512  0.92293526  1
  C  C188  1  0.43060550  0.35417249  0.92369704  1
  C  C189  1  0.93113729  0.35990243  0.92280699  1
  C  C190  1  0.24624929  0.13919415  0.92360584  1
  C  C191  1  0.74625261  0.14318923  0.92228708  1
  C  C192  1  0.32020385  0.13813575  0.42300584  1
  C  C193  1  0.82032193  0.13702918  0.42271998  1
  C  C194  1  0.24573924  0.34841464  0.42219197  1
  C  C195  1  0.74641909  0.34929395  0.42249611  1
  C  C196  1  0.43053262  0.50736264  0.42214001  1
  C  C197  1  0.93077243  0.50711125  0.42290146  1
  C  C198  1  0.17310812  0.48701024  0.07827270  1
  C  C199  1  0.67388007  0.48904075  0.07797286  1
  C  C200  1  0.07054570  0.65224190  0.07771118  1
  C  C201  1  0.57013826  0.65294457  0.07848060  1
  C  C202  1  0.25613407  0.85982544  0.07819896  1
  C  C203  1  0.75594629  0.85900388  0.07821742  1
  C  C204  1  0.17210390  0.85735005  0.57825292  1
  C  C205  1  0.67771126  0.86094845  0.57689899  1
  C  C206  1  0.25240498  0.64532635  0.57847937  1
  C  C207  1  0.75472209  0.64694715  0.57760606  1
  C  C208  1  0.06979424  0.48762851  0.57835556  1
  C  C209  1  0.57220276  0.49220015  0.57721955  1
  C  C210  1  0.15153710  0.83709299  0.25265217  1
  C  C211  1  0.65185275  0.83775577  0.25279011  1
  C  C212  1  0.26737181  0.69745842  0.25248391  1
  C  C213  1  0.76754310  0.69745135  0.25253201  1
  C  C214  1  0.08130814  0.46531802  0.25236987  1
  C  C215  1  0.58128208  0.46473590  0.25225339  1
  C  C216  1  0.15348417  0.46855947  0.75271417  1
  C  C217  1  0.65701215  0.47406989  0.75549330  1
  C  C218  1  0.08101285  0.69655130  0.75283338  1
  C  C219  1  0.58009973  0.68716441  0.75583013  1
  C  C220  1  0.26349051  0.83525967  0.75597012  1
  C  C221  1  0.76831001  0.83831024  0.75236968  1
