# generated using pymatgen
data_Cu5NiC19
_symmetry_space_group_name_H-M   'P 1'
_cell_length_a   5.77144614
_cell_length_b   5.85588660
_cell_length_c   8.91372377
_cell_angle_alpha   89.75154092
_cell_angle_beta   90.70114996
_cell_angle_gamma   120.38629802
_symmetry_Int_Tables_number   1
_chemical_formula_structural   Cu5NiC19
_chemical_formula_sum   'Cu5 Ni1 C19'
_cell_volume   259.85427025
_cell_formula_units_Z   1
loop_
 _symmetry_equiv_pos_site_id
 _symmetry_equiv_pos_as_xyz
  1  'x, y, z'
loop_
 _atom_site_type_symbol
 _atom_site_label
 _atom_site_symmetry_multiplicity
 _atom_site_fract_x
 _atom_site_fract_y
 _atom_site_fract_z
 _atom_site_occupancy
  Ni  Ni0  1  0.33815600  0.16785300  0.44917400  1
  C  C1  1  0.67320000  0.83707000  0.20273400  1
  C  C2  1  0.83150900  0.66649000  0.70947700  1
  C  C3  1  0.83705400  0.16660100  0.70775300  1
  Cu  Cu4  1  0.16899400  0.82762700  0.19758700  1
  Cu  Cu5  1  0.33158500  0.66415100  0.48236800  1
  Cu  Cu6  1  0.16990500  0.34284800  0.19767900  1
  Cu  Cu7  1  0.34092700  0.16556900  0.73804400  1
  Cu  Cu8  1  0.67599400  0.33919600  0.99038900  1
  C  C9  1  0.17679900  0.84016900  0.59645200  1
  C  C10  1  0.04862300  0.52437600  0.32678100  1
  C  C11  1  0.32292000  0.66252100  0.09399500  1
  C  C12  1  0.02282300  0.01150400  0.30745100  1
  C  C13  1  0.00973900  0.00329600  0.81890200  1
  C  C14  1  0.17864100  0.33342100  0.59528800  1
  C  C15  1  0.46315800  0.95224800  0.33997300  1
  C  C16  1  0.46328500  0.51005000  0.33981200  1
  C  C17  1  0.34353900  0.17314400  0.10562100  1
  C  C18  1  0.64835500  0.82184500  0.59936600  1
  C  C19  1  0.51237000  0.46550600  0.85487600  1
  C  C20  1  0.51301800  0.04734700  0.85599200  1
  C  C21  1  0.63564900  0.31753100  0.60638400  1
  C  C22  1  0.84351700  0.66250200  0.09885300  1
  C  C23  1  0.94977600  0.48035000  0.84777400  1
  C  C24  1  0.84421300  0.18365000  0.09830900  1
