# generated using pymatgen
data_Cu2NiC4
_symmetry_space_group_name_H-M   'P 1'
_cell_length_a   3.92966223
_cell_length_b   4.86013133
_cell_length_c   8.30483623
_cell_angle_alpha   107.01419472
_cell_angle_beta   103.68529711
_cell_angle_gamma   89.99999911
_symmetry_Int_Tables_number   1
_chemical_formula_structural   Cu2NiC4
_chemical_formula_sum   'Cu2 Ni1 C4'
_cell_volume   146.95374355
_cell_formula_units_Z   1
loop_
 _symmetry_equiv_pos_site_id
 _symmetry_equiv_pos_as_xyz
  1  'x, y, z'
loop_
 _atom_site_type_symbol
 _atom_site_label
 _atom_site_symmetry_multiplicity
 _atom_site_fract_x
 _atom_site_fract_y
 _atom_site_fract_z
 _atom_site_occupancy
  Ni  Ni0  1  0.94108646  0.50000000  1.00000000  1
  Cu  Cu1  1  0.78804571  0.28304523  0.56609245  1
  Cu  Cu2  1  0.22195526  0.71695477  0.43390755  1
  C  C3  1  0.44146409  0.79657944  1.00000000  1
  C  C4  1  0.44146409  0.20342056  0.00000000  1
  C  C5  1  0.18856941  0.18593421  0.37186642  1
  C  C6  1  0.81670099  0.81406579  0.62813358  1
