# generated using pymatgen
data_CuNiC33
_symmetry_space_group_name_H-M   'P 1'
_cell_length_a   8.95252303
_cell_length_b   8.95252274
_cell_length_c   23.55143171
_cell_angle_alpha   90.00000000
_cell_angle_beta   90.00000000
_cell_angle_gamma   120.00000112
_symmetry_Int_Tables_number   1
_chemical_formula_structural   CuNiC33
_chemical_formula_sum   'Cu3 Ni3 C99'
_cell_volume   1634.70284963
_cell_formula_units_Z   3
loop_
 _symmetry_equiv_pos_site_id
 _symmetry_equiv_pos_as_xyz
  1  'x, y, z'
loop_
 _atom_site_type_symbol
 _atom_site_label
 _atom_site_symmetry_multiplicity
 _atom_site_fract_x
 _atom_site_fract_y
 _atom_site_fract_z
 _atom_site_occupancy
  Ni  Ni0  1  0.00000000  -0.00000000  0.99828134  1
  Ni  Ni1  1  0.66666700  0.33333300  0.83516949  1
  Ni  Ni2  1  0.66666700  0.33333300  0.33319890  1
  Cu  Cu3  1  0.00000000  -0.00000000  0.35542659  1
  Cu  Cu4  1  0.00000000  -0.00000000  0.85116039  1
  Cu  Cu5  1  0.66666700  0.33333300  0.98199453  1
  C  C6  1  0.00000000  -0.00000000  0.64882305  1
  C  C7  1  0.00000000  -0.00000000  0.15339157  1
  C  C8  1  0.66666700  0.33333300  0.68178693  1
  C  C9  1  0.66666700  0.33333300  0.18025307  1
  C  C10  1  0.66666700  0.33333300  0.48368595  1
  C  C11  1  0.33333300  0.66666700  0.02058670  1
  C  C12  1  0.33333300  0.66666700  0.52027534  1
  C  C13  1  0.33333300  0.66666700  0.31390512  1
  C  C14  1  0.33333300  0.66666700  0.81250334  1
  C  C15  1  0.30045881  0.00177343  0.24971532  1
  C  C16  1  0.70131462  0.69954119  0.24971532  1
  C  C17  1  0.99822657  0.29868538  0.24971532  1
  C  C18  1  0.29957083  0.29805097  0.74867559  1
  C  C19  1  0.99848014  0.70042917  0.74867559  1
  C  C20  1  0.70194903  0.00151986  0.74867559  1
  C  C21  1  0.96022449  0.33245029  0.58333997  1
  C  C22  1  0.37222680  0.03977551  0.58333997  1
  C  C23  1  0.66754971  0.62777320  0.58333997  1
  C  C24  1  0.96594899  0.63484307  0.08415971  1
  C  C25  1  0.66889507  0.03405101  0.08415971  1
  C  C26  1  0.36515693  0.33110493  0.08415971  1
  C  C27  1  0.62034871  0.66664543  0.91663753  1
  C  C28  1  0.04629572  0.37965129  0.91663753  1
  C  C29  1  0.33335457  0.95370428  0.91663753  1
  C  C30  1  0.61795439  0.95946799  0.41791617  1
  C  C31  1  0.34151260  0.38204561  0.41791617  1
  C  C32  1  0.04053201  0.65848740  0.41791617  1
  C  C33  1  0.22390286  0.03195438  0.29991344  1
  C  C34  1  0.80805152  0.77609714  0.29991344  1
  C  C35  1  0.96804562  0.19194848  0.29991344  1
  C  C36  1  0.22501431  0.19264367  0.79943173  1
  C  C37  1  0.96762936  0.77498569  0.79943173  1
  C  C38  1  0.80735633  0.03237064  0.79943173  1
  C  C39  1  0.78189766  0.97597065  0.69684931  1
  C  C40  1  0.19407299  0.21810234  0.69684931  1
  C  C41  1  0.02402935  0.80592701  0.69684931  1
  C  C42  1  0.77871195  0.80377018  0.19740313  1
  C  C43  1  0.02505823  0.22128805  0.19740313  1
  C  C44  1  0.19622982  0.97494177  0.19740313  1
  C  C45  1  0.88321674  0.36462735  0.63431064  1
  C  C46  1  0.48141161  0.11678326  0.63431064  1
  C  C47  1  0.63537265  0.51858839  0.63431064  1
  C  C48  1  0.88731625  0.52934089  0.13606822  1
  C  C49  1  0.64202564  0.11268375  0.13606822  1
  C  C50  1  0.47065911  0.35797436  0.13606822  1
  C  C51  1  0.44099261  0.30069758  0.03366838  1
  C  C52  1  0.85970597  0.55900739  0.03366838  1
  C  C53  1  0.69930242  0.14029403  0.03366838  1
  C  C54  1  0.44980322  0.14852868  0.53221748  1
  C  C55  1  0.69872646  0.55019678  0.53221748  1
  C  C56  1  0.85147132  0.30127354  0.53221748  1
  C  C57  1  0.53729710  0.68573333  0.96876746  1
  C  C58  1  0.14843523  0.46270290  0.96876746  1
  C  C59  1  0.31426667  0.85156477  0.96876746  1
  C  C60  1  0.53580531  0.85623516  0.46940256  1
  C  C61  1  0.32042884  0.46419469  0.46940256  1
  C  C62  1  0.14376484  0.67957116  0.46940256  1
  C  C63  1  0.11767929  0.62826233  0.36605913  1
  C  C64  1  0.51058204  0.88232071  0.36605913  1
  C  C65  1  0.37173767  0.48941796  0.36605913  1
  C  C66  1  0.12954115  0.48184779  0.86453784  1
  C  C67  1  0.35230564  0.87045885  0.86453784  1
  C  C68  1  0.51815221  0.64769436  0.86453784  1
  C  C69  1  0.02188922  0.80924205  0.41183496  1
  C  C70  1  0.78735283  0.97811078  0.41183496  1
  C  C71  1  0.19075795  0.21264717  0.41183496  1
  C  C72  1  0.03125370  0.20797943  0.91380442  1
  C  C73  1  0.17672573  0.96874630  0.91380442  1
  C  C74  1  0.79202057  0.82327427  0.91380442  1
  C  C75  1  0.97745353  0.17780792  0.59171805  1
  C  C76  1  0.20035439  0.02254647  0.59171805  1
  C  C77  1  0.82219208  0.79964561  0.59171805  1
  C  C78  1  0.98525584  0.81064441  0.09168763  1
  C  C79  1  0.82538858  0.01474416  0.09168763  1
  C  C80  1  0.18935559  0.17461143  0.09168763  1
  C  C81  1  0.68225680  0.15817820  0.74151121  1
  C  C82  1  0.47592240  0.31774320  0.74151121  1
  C  C83  1  0.84182180  0.52407760  0.74151121  1
  C  C84  1  0.68133968  0.52316740  0.24204119  1
  C  C85  1  0.84182872  0.31866032  0.24204119  1
  C  C86  1  0.47683260  0.15817128  0.24204119  1
  C  C87  1  0.63545530  0.51027374  0.91947338  1
  C  C88  1  0.87481944  0.36454470  0.91947338  1
  C  C89  1  0.48972626  0.12518056  0.91947338  1
  C  C90  1  0.63272795  0.13491428  0.42322220  1
  C  C91  1  0.50218733  0.36727205  0.42322220  1
  C  C92  1  0.86508572  0.49781267  0.42322220  1
  C  C93  1  0.34770794  0.48629449  0.07778613  1
  C  C94  1  0.13858556  0.65229206  0.07778613  1
  C  C95  1  0.51370551  0.86141444  0.07778613  1
  C  C96  1  0.35492781  0.86772925  0.57534513  1
  C  C97  1  0.51280044  0.64507219  0.57534513  1
  C  C98  1  0.13227075  0.48719956  0.57534513  1
  C  C99  1  0.31816267  0.84632275  0.25622851  1
  C  C100  1  0.52815907  0.68183733  0.25622851  1
  C  C101  1  0.15367726  0.47184093  0.25622851  1
  C  C102  1  0.31775348  0.47089068  0.75501482  1
  C  C103  1  0.15313620  0.68224652  0.75501482  1
  C  C104  1  0.52910932  0.84686380  0.75501482  1
