# generated using pymatgen
data_CuNiC18
_symmetry_space_group_name_H-M   'P 1'
_cell_length_a   15.64199141
_cell_length_b   9.00865163
_cell_length_c   8.92435934
_cell_angle_alpha   90.00000000
_cell_angle_beta   124.41998812
_cell_angle_gamma   90.00000000
_symmetry_Int_Tables_number   1
_chemical_formula_structural   CuNiC18
_chemical_formula_sum   'Cu4 Ni4 C72'
_cell_volume   1037.38221612
_cell_formula_units_Z   4
loop_
 _symmetry_equiv_pos_site_id
 _symmetry_equiv_pos_as_xyz
  1  'x, y, z'
loop_
 _atom_site_type_symbol
 _atom_site_label
 _atom_site_symmetry_multiplicity
 _atom_site_fract_x
 _atom_site_fract_y
 _atom_site_fract_z
 _atom_site_occupancy
  C  C0  1  0.25059213  0.72629298  0.98218726  1
  C  C1  1  0.75059213  0.77370702  0.48218726  1
  C  C2  1  0.75059213  0.22629298  0.98218726  1
  C  C3  1  0.25059213  0.27370702  0.48218726  1
  C  C4  1  0.50799317  0.09800430  0.75476390  1
  C  C5  1  0.50799317  0.90199570  0.25476390  1
  C  C6  1  0.00799317  0.59800430  0.75476390  1
  C  C7  1  0.00799317  0.40199570  0.25476390  1
  C  C8  1  0.18212686  0.92791344  0.30006177  1
  C  C9  1  0.18212686  0.07208656  0.80006177  1
  C  C10  1  0.68212686  0.42791344  0.30006177  1
  C  C11  1  0.68212686  0.57208656  0.80006177  1
  Ni  Ni12  1  0.10328000  0.74692358  0.56221135  1
  Ni  Ni13  1  0.10328000  0.25307642  0.06221135  1
  Ni  Ni14  1  0.60328000  0.24692358  0.56221135  1
  Ni  Ni15  1  0.60328000  0.75307642  0.06221135  1
  Cu  Cu16  1  0.89568955  0.75570589  0.93720131  1
  Cu  Cu17  1  0.89568955  0.24429411  0.43720131  1
  Cu  Cu18  1  0.39568955  0.25570589  0.93720131  1
  Cu  Cu19  1  0.39568955  0.74429411  0.43720131  1
  C  C20  1  0.64815416  0.89472579  0.75008916  1
  C  C21  1  0.64815416  0.10527421  0.25008916  1
  C  C22  1  0.14815416  0.39472579  0.75008916  1
  C  C23  1  0.14815416  0.60527421  0.25008916  1
  C  C24  1  0.00023771  0.95766362  0.75978408  1
  C  C25  1  0.00023771  0.04233638  0.25978408  1
  C  C26  1  0.50023771  0.45766362  0.75978408  1
  C  C27  1  0.50023771  0.54233638  0.25978408  1
  C  C28  1  0.35406372  0.89729611  0.76138796  1
  C  C29  1  0.35406372  0.10270389  0.26138796  1
  C  C30  1  0.85406372  0.39729611  0.76138796  1
  C  C31  1  0.85406372  0.60270389  0.26138796  1
  C  C32  1  0.14991905  0.57180556  0.73765326  1
  C  C33  1  0.85268034  0.57440399  0.75508235  1
  C  C34  1  0.85268034  0.42559601  0.25508235  1
  C  C35  1  0.14991905  0.42819444  0.23765326  1
  C  C36  1  0.64991905  0.07180556  0.73765326  1
  C  C37  1  0.35268034  0.07440399  0.75508235  1
  C  C38  1  0.35268034  0.92559601  0.25508235  1
  C  C39  1  0.64991905  0.92819444  0.23765326  1
  C  C40  1  0.43752201  0.56713547  0.58932860  1
  C  C41  1  0.56133839  0.54921906  0.93120913  1
  C  C42  1  0.56133839  0.45078094  0.43120913  1
  C  C43  1  0.43752201  0.43286453  0.08932860  1
  C  C44  1  0.93752201  0.06713547  0.58932860  1
  C  C45  1  0.06133839  0.04921906  0.93120913  1
  C  C46  1  0.06133839  0.95078094  0.43120913  1
  C  C47  1  0.93752201  0.93286453  0.08932860  1
  C  C48  1  0.25570438  0.84941980  0.74459802  1
  C  C49  1  0.74591233  0.80890833  0.75691271  1
  C  C50  1  0.74591233  0.19109167  0.25691271  1
  C  C51  1  0.25570438  0.15058020  0.24459802  1
  C  C52  1  0.75570438  0.34941980  0.74459802  1
  C  C53  1  0.24591233  0.30890833  0.75691271  1
  C  C54  1  0.24591233  0.69109167  0.25691271  1
  C  C55  1  0.75570438  0.65058020  0.24459802  1
  C  C56  1  0.35474769  0.85674385  0.58606065  1
  C  C57  1  0.64520409  0.83106689  0.91185554  1
  C  C58  1  0.64520409  0.16893311  0.41185554  1
  C  C59  1  0.35474769  0.14325615  0.08606065  1
  C  C60  1  0.85474769  0.35674385  0.58606065  1
  C  C61  1  0.14520409  0.33106689  0.91185554  1
  C  C62  1  0.14520409  0.66893311  0.41185554  1
  C  C63  1  0.85474769  0.64325615  0.08606065  1
  C  C64  1  0.45327170  0.84218528  0.93020606  1
  C  C65  1  0.53552037  0.82417439  0.55886370  1
  C  C66  1  0.53552037  0.17582561  0.05886370  1
  C  C67  1  0.45327170  0.15781472  0.43020606  1
  C  C68  1  0.95327170  0.34218528  0.93020606  1
  C  C69  1  0.03552037  0.32417439  0.55886370  1
  C  C70  1  0.03552037  0.67582561  0.05886370  1
  C  C71  1  0.95327170  0.65781472  0.43020606  1
  C  C72  1  0.07181387  0.85735478  0.73971346  1
  C  C73  1  0.91422845  0.85995962  0.75082972  1
  C  C74  1  0.91422845  0.14004038  0.25082972  1
  C  C75  1  0.07181387  0.14264522  0.23971346  1
  C  C76  1  0.57181387  0.35735478  0.73971346  1
  C  C77  1  0.41422845  0.35995962  0.75082972  1
  C  C78  1  0.41422845  0.64004038  0.25082972  1
  C  C79  1  0.57181387  0.64264522  0.23971346  1
