# generated using pymatgen
data_Cu2Ni2C15
_symmetry_space_group_name_H-M   'P 1'
_cell_length_a   8.44664146
_cell_length_b   8.44664117
_cell_length_c   21.59955117
_cell_angle_alpha   90.31799941
_cell_angle_beta   89.68199407
_cell_angle_gamma   119.82609852
_symmetry_Int_Tables_number   1
_chemical_formula_structural   Cu2Ni2C15
_chemical_formula_sum   'Cu12 Ni12 C90'
_cell_volume   1336.88145415
_cell_formula_units_Z   6
loop_
 _symmetry_equiv_pos_site_id
 _symmetry_equiv_pos_as_xyz
  1  'x, y, z'
loop_
 _atom_site_type_symbol
 _atom_site_label
 _atom_site_symmetry_multiplicity
 _atom_site_fract_x
 _atom_site_fract_y
 _atom_site_fract_z
 _atom_site_occupancy
  C  C0  1  0.99736194  0.63235022  0.25110945  1
  C  C1  1  0.36764980  0.00263806  0.75110942  1
  C  C2  1  0.66402720  0.96568264  0.58444259  1
  C  C3  1  0.03431746  0.33597286  0.08444257  1
  C  C4  1  0.33070046  0.29902099  0.91777788  1
  C  C5  1  0.70097925  0.66929961  0.41777791  1
  C  C6  1  0.01170443  0.99978921  0.50017387  1
  C  C7  1  0.00021115  0.98829551  0.00017387  1
  C  C8  1  0.67837288  0.33312272  0.83350606  1
  C  C9  1  0.66687735  0.32162710  0.33350612  1
  C  C10  1  0.34503752  0.66645461  0.16683988  1
  C  C11  1  0.33354540  0.65496272  0.66683989  1
  Ni  Ni12  1  0.98954358  0.99728154  0.35239956  1
  Ni  Ni13  1  0.00271848  0.01045640  0.85239959  1
  Ni  Ni14  1  0.00193302  0.99918420  0.64776489  1
  Ni  Ni15  1  0.00081580  0.99806702  0.14776491  1
  Ni  Ni16  1  0.65620886  0.33062214  0.68573462  1
  Ni  Ni17  1  0.66937783  0.34379110  0.18573462  1
  Ni  Ni18  1  0.66859444  0.33252361  0.98110004  1
  Ni  Ni19  1  0.66747638  0.33140554  0.48110004  1
  Ni  Ni20  1  0.32287267  0.66394656  0.01906645  1
  Ni  Ni21  1  0.33605343  0.67712731  0.51906646  1
  Ni  Ni22  1  0.33525782  0.66585225  0.31443400  1
  Ni  Ni23  1  0.33414771  0.66474209  0.81443401  1
  Cu  Cu24  1  0.70686545  0.71298025  0.24972958  1
  Cu  Cu25  1  0.99927659  0.28539605  0.24965525  1
  Cu  Cu26  1  0.28701964  0.29313457  0.74972963  1
  Cu  Cu27  1  0.71460406  0.00072357  0.74965529  1
  Cu  Cu28  1  0.37352769  0.04631234  0.58306127  1
  Cu  Cu29  1  0.66594016  0.61872374  0.58298986  1
  Cu  Cu30  1  0.95368767  0.62647230  0.08306131  1
  Cu  Cu31  1  0.38127629  0.33405973  0.08298991  1
  Cu  Cu32  1  0.04019951  0.37964751  0.91639665  1
  Cu  Cu33  1  0.33261196  0.95205909  0.91632289  1
  Cu  Cu34  1  0.62035250  0.95980039  0.41639661  1
  Cu  Cu35  1  0.04794097  0.66738797  0.41632290  1
  C  C36  1  0.29208595  0.00553229  0.25035236  1
  C  C37  1  0.99446777  0.70791405  0.75035235  1
  C  C38  1  0.95874963  0.33886305  0.58368581  1
  C  C39  1  0.66113690  0.04125044  0.08368585  1
  C  C40  1  0.62541591  0.67220035  0.91702019  1
  C  C41  1  0.32779958  0.37458416  0.41702017  1
  C  C42  1  0.20949064  0.03537816  0.30622022  1
  C  C43  1  0.83012973  0.78995242  0.30805639  1
  C  C44  1  0.97071042  0.16823442  0.30682715  1
  C  C45  1  0.21004764  0.16987029  0.80805638  1
  C  C46  1  0.96462181  0.79050931  0.80622022  1
  C  C47  1  0.83176547  0.02928968  0.80682717  1
  C  C48  1  0.79597946  0.96711355  0.69015680  1
  C  C49  1  0.16761399  0.20104054  0.69309672  1
  C  C50  1  0.03464904  0.82557112  0.69502815  1
  C  C51  1  0.79895938  0.83238599  0.19309678  1
  C  C52  1  0.03288656  0.20402046  0.19015673  1
  C  C53  1  0.17442888  0.96535095  0.19502810  1
  C  C54  1  0.87615569  0.36870900  0.63955321  1
  C  C55  1  0.49679108  0.12328156  0.64138934  1
  C  C56  1  0.63737476  0.50157067  0.64015991  1
  C  C57  1  0.87671840  0.50320894  0.14138934  1
  C  C58  1  0.63129117  0.12384462  0.13955331  1
  C  C59  1  0.49842946  0.36262523  0.14015989  1
  C  C60  1  0.46264745  0.30044921  0.02349126  1
  C  C61  1  0.83428637  0.53437643  0.02642913  1
  C  C62  1  0.70131559  0.15890561  0.02836109  1
  C  C63  1  0.46562344  0.16571357  0.52642917  1
  C  C64  1  0.69955082  0.53735247  0.52349132  1
  C  C65  1  0.84109457  0.29868445  0.52836113  1
  C  C66  1  0.54282015  0.70204354  0.97288712  1
  C  C67  1  0.16346465  0.45662031  0.97472365  1
  C  C68  1  0.30404395  0.83490432  0.97349445  1
  C  C69  1  0.54337978  0.83653540  0.47472364  1
  C  C70  1  0.29795641  0.45717985  0.47288712  1
  C  C71  1  0.16509549  0.69595591  0.47349438  1
  C  C72  1  0.12931421  0.63378374  0.35682513  1
  C  C73  1  0.50095033  0.86770863  0.35976290  1
  C  C74  1  0.36798114  0.49223825  0.36169496  1
  C  C75  1  0.13229116  0.49904974  0.85976281  1
  C  C76  1  0.36621633  0.87068607  0.85682520  1
  C  C77  1  0.50776189  0.63201890  0.86169492  1
  C  C78  1  0.02488482  0.83853922  0.40878235  1
  C  C79  1  0.81194053  0.97678128  0.40943553  1
  C  C80  1  0.16722606  0.19261303  0.40917227  1
  C  C81  1  0.02321866  0.18805927  0.90943552  1
  C  C82  1  0.16146029  0.97511518  0.90878232  1
  C  C83  1  0.80738695  0.83277392  0.90917229  1
  C  C84  1  0.97461829  0.17095796  0.58968451  1
  C  C85  1  0.18398879  0.02556898  0.59191311  1
  C  C86  1  0.83404861  0.81446965  0.59043797  1
  C  C87  1  0.97443104  0.81601124  0.09191308  1
  C  C88  1  0.82904220  0.02538184  0.08968453  1
  C  C89  1  0.18553030  0.16595126  0.09043797  1
  C  C90  1  0.69155716  0.17187380  0.74211558  1
  C  C91  1  0.47860553  0.31011370  0.74276871  1
  C  C92  1  0.83389296  0.52594579  0.74250525  1
  C  C93  1  0.68988632  0.52139460  0.24276874  1
  C  C94  1  0.82812627  0.30844295  0.24211560  1
  C  C95  1  0.47405412  0.16610691  0.24250524  1
  C  C96  1  0.64128430  0.50429327  0.92301754  1
  C  C97  1  0.85065759  0.35890590  0.92524622  1
  C  C98  1  0.50071405  0.14780305  0.92377142  1
  C  C99  1  0.64109388  0.14934248  0.42524620  1
  C  C100  1  0.49570688  0.35871568  0.42301755  1
  C  C101  1  0.85219696  0.49928584  0.42377140  1
  C  C102  1  0.35821930  0.50520912  0.07544953  1
  C  C103  1  0.14527690  0.64344983  0.07610265  1
  C  C104  1  0.50055976  0.85928011  0.07584051  1
  C  C105  1  0.35655025  0.85472313  0.57610266  1
  C  C106  1  0.49479105  0.64178086  0.57544944  1
  C  C107  1  0.14071958  0.49943987  0.57584054  1
  C  C108  1  0.30794947  0.83762340  0.25635166  1
  C  C109  1  0.51732750  0.69224641  0.25857971  1
  C  C110  1  0.16737766  0.48113418  0.25710464  1
  C  C111  1  0.30775349  0.48267233  0.75857971  1
  C  C112  1  0.16237647  0.69205059  0.75635163  1
  C  C113  1  0.51886557  0.83262214  0.75710466  1
