# generated using pymatgen
data_Cu8NiC16
_symmetry_space_group_name_H-M   'P 1'
_cell_length_a   5.19049236
_cell_length_b   5.09508208
_cell_length_c   11.82666056
_cell_angle_alpha   89.74973561
_cell_angle_beta   88.24924890
_cell_angle_gamma   87.41983788
_symmetry_Int_Tables_number   1
_chemical_formula_structural   Cu8NiC16
_chemical_formula_sum   'Cu8 Ni1 C16'
_cell_volume   312.30334689
_cell_formula_units_Z   1
loop_
 _symmetry_equiv_pos_site_id
 _symmetry_equiv_pos_as_xyz
  1  'x, y, z'
loop_
 _atom_site_type_symbol
 _atom_site_label
 _atom_site_symmetry_multiplicity
 _atom_site_fract_x
 _atom_site_fract_y
 _atom_site_fract_z
 _atom_site_occupancy
  Ni  Ni0  1  0.50191999  0.01388634  0.36693068  1
  Cu  Cu1  1  0.93183303  0.91938621  0.99534515  1
  Cu  Cu2  1  0.04654701  0.03597628  0.23633986  1
  Cu  Cu3  1  0.95912834  0.91685481  0.50831160  1
  Cu  Cu4  1  0.09711222  0.05869727  0.75066371  1
  Cu  Cu5  1  0.55446008  0.43205106  0.12021354  1
  Cu  Cu6  1  0.46632218  0.54679172  0.62318927  1
  Cu  Cu7  1  0.45436981  0.54883679  0.87548224  1
  Cu  Cu8  1  0.44836368  0.52730981  0.37172235  1
  C  C9  1  0.17073964  0.83157255  0.37674017  1
  C  C10  1  0.17739783  0.80262273  0.62831052  1
  C  C11  1  0.18170177  0.81891712  0.87348358  1
  C  C12  1  0.37176849  0.27806655  0.24931097  1
  C  C13  1  0.34049625  0.33005043  0.74865335  1
  C  C14  1  0.66791038  0.66845654  0.99603468  1
  C  C15  1  0.64641629  0.73109699  0.49399700  1
  C  C16  1  0.83696710  0.17957450  0.10990586  1
  C  C17  1  0.17130876  0.75871404  0.11098642  1
  C  C18  1  0.34150500  0.29929602  0.99564752  1
  C  C19  1  0.35099394  0.28302731  0.50710933  1
  C  C20  1  0.65852711  0.73423546  0.24745953  1
  C  C21  1  0.66442541  0.70087644  0.74496068  1
  C  C22  1  0.81079817  0.20634595  0.39119434  1
  C  C23  1  0.85069343  0.19902500  0.62485643  1
  C  C24  1  0.82607206  0.17833209  0.86565222  1
