# generated using pymatgen
data_Cu3Ni7C31
_symmetry_space_group_name_H-M   'P 1'
_cell_length_a   9.38035437
_cell_length_b   9.39928904
_cell_length_c   22.81857489
_cell_angle_alpha   89.97221694
_cell_angle_beta   90.02560081
_cell_angle_gamma   119.94295524
_symmetry_Int_Tables_number   1
_chemical_formula_structural   Cu3Ni7C31
_chemical_formula_sum   'Cu9 Ni21 C93'
_cell_volume   1743.34239151
_cell_formula_units_Z   3
loop_
 _symmetry_equiv_pos_site_id
 _symmetry_equiv_pos_as_xyz
  1  'x, y, z'
loop_
 _atom_site_type_symbol
 _atom_site_label
 _atom_site_symmetry_multiplicity
 _atom_site_fract_x
 _atom_site_fract_y
 _atom_site_fract_z
 _atom_site_occupancy
  Ni  Ni0  1  0.63630316  0.00009163  0.24807574  1
  Ni  Ni1  1  0.36359266  0.36385603  0.24823698  1
  Ni  Ni2  1  0.99981323  0.63606261  0.24819091  1
  Ni  Ni3  1  0.66252615  0.65090647  0.74977882  1
  Ni  Ni4  1  0.98745652  0.34238779  0.74902892  1
  Ni  Ni5  1  0.29497971  0.33834034  0.58459964  1
  Ni  Ni6  1  0.04077759  0.70348374  0.58559830  1
  Ni  Ni7  1  0.66344011  0.95902379  0.58568090  1
  Ni  Ni8  1  0.29581794  0.95868107  0.08428276  1
  Ni  Ni9  1  0.65915528  0.70201545  0.08460913  1
  Ni  Ni10  1  0.04520885  0.33865492  0.08492529  1
  Ni  Ni11  1  0.31796064  0.29935424  0.90873049  1
  Ni  Ni12  1  0.98599634  0.30704083  0.40343235  1
  Ni  Ni13  1  0.32115217  0.01353204  0.40389601  1
  Ni  Ni14  1  0.69272114  0.67893622  0.40351475  1
  Ni  Ni15  1  0.99967085  0.99971992  0.49872778  1
  Ni  Ni16  1  0.98238214  0.98368906  0.99586013  1
  Ni  Ni17  1  0.66344891  0.31809225  0.82911945  1
  Ni  Ni18  1  0.66659460  0.33328771  0.32099984  1
  Ni  Ni19  1  0.33323054  0.66647685  0.17473028  1
  Ni  Ni20  1  0.33479454  0.68499876  0.66653543  1
  Cu  Cu21  1  0.99997929  -0.00007942  0.34470490  1
  Cu  Cu22  1  0.99755939  0.99197717  0.85067557  1
  Cu  Cu23  1  0.00447799  0.99793645  0.65570932  1
  Cu  Cu24  1  0.00015236  0.00038295  0.14896861  1
  Cu  Cu25  1  0.65781276  0.32684666  0.68693154  1
  Cu  Cu26  1  0.66650896  0.33329041  0.18192054  1
  Cu  Cu27  1  0.33484894  0.67126790  0.01247212  1
  Cu  Cu28  1  0.33329693  0.66609448  0.51302826  1
  Cu  Cu29  1  0.33335059  0.66701838  0.32094252  1
  C  C30  1  0.67125529  0.33345432  0.97887967  1
  C  C31  1  0.66610315  0.33277428  0.48496750  1
  C  C32  1  0.33221232  0.67474269  0.82086280  1
  C  C33  1  0.30671668  0.99615180  0.24992135  1
  C  C34  1  0.68942475  0.69335465  0.24991603  1
  C  C35  1  0.00395696  0.31066383  0.24997570  1
  C  C36  1  0.30544276  0.32151690  0.75502286  1
  C  C37  1  0.00870741  0.69382195  0.74938023  1
  C  C38  1  0.68846884  0.98919345  0.75106120  1
  C  C39  1  0.96036112  0.33067463  0.58500975  1
  C  C40  1  0.36970937  0.03829855  0.58194486  1
  C  C41  1  0.66887965  0.62999402  0.58457499  1
  C  C42  1  0.95833383  0.62782381  0.08039017  1
  C  C43  1  0.66998857  0.04213053  0.08050379  1
  C  C44  1  0.37253685  0.33038971  0.07899342  1
  C  C45  1  0.62715771  0.65372201  0.91977147  1
  C  C46  1  0.03119971  0.37334486  0.91967829  1
  C  C47  1  0.34582349  0.97602505  0.92116916  1
  C  C48  1  0.64393795  0.98378740  0.42119536  1
  C  C49  1  0.34013232  0.35679355  0.42102997  1
  C  C50  1  0.01657697  0.65993594  0.42114643  1
  C  C51  1  0.22080588  0.00509981  0.30673641  1
  C  C52  1  0.78440262  0.77894426  0.30674705  1
  C  C53  1  0.99474910  0.21554088  0.30674780  1
  C  C54  1  0.21981479  0.21718477  0.80841820  1
  C  C55  1  0.97411311  0.78790922  0.79557971  1
  C  C56  1  0.81155406  0.01201628  0.79822996  1
  C  C57  1  0.73591682  0.94136212  0.69168632  1
  C  C58  1  0.20313893  0.25272951  0.69783323  1
  C  C59  1  0.04201735  0.77801649  0.68868453  1
  C  C60  1  0.77896605  0.79485051  0.19462679  1
  C  C61  1  0.01615095  0.22139694  0.19464367  1
  C  C62  1  0.20526800  0.98420819  0.19455185  1
  C  C63  1  0.88227991  0.34340667  0.64160008  1
  C  C64  1  0.47080939  0.12214460  0.63559336  1
  C  C65  1  0.65728944  0.54054846  0.64141593  1
  C  C66  1  0.88261317  0.53707739  0.13722675  1
  C  C67  1  0.65578736  0.11768478  0.13748862  1
  C  C68  1  0.46496930  0.34498666  0.13553458  1
  C  C69  1  0.48638047  0.32828881  0.02493117  1
  C  C70  1  0.83990484  0.51027130  0.02719984  1
  C  C71  1  0.67092558  0.16106231  0.02762416  1
  C  C72  1  0.47944409  0.14818133  0.52659210  1
  C  C73  1  0.66604339  0.51158261  0.53168688  1
  C  C74  1  0.84378956  0.33028083  0.53177707  1
  C  C75  1  0.55627618  0.66754233  0.97782327  1
  C  C76  1  0.12144289  0.44308274  0.97684025  1
  C  C77  1  0.32540093  0.89150330  0.97930774  1
  C  C78  1  0.56426138  0.88072685  0.47611336  1
  C  C79  1  0.31574414  0.43521211  0.47612494  1
  C  C80  1  0.12009655  0.68378404  0.47596511  1
  C  C81  1  0.08791302  0.62077659  0.36666416  1
  C  C82  1  0.53276675  0.91226201  0.36685337  1
  C  C83  1  0.37777838  0.46746038  0.36672452  1
  C  C84  1  0.13499994  0.49885816  0.86751787  1
  C  C85  1  0.35728328  0.86216930  0.87051660  1
  C  C86  1  0.49881270  0.63486286  0.86847582  1
  C  C87  1  0.98899775  0.80775389  0.41479253  1
  C  C88  1  0.81918198  0.01020400  0.41488607  1
  C  C89  1  0.19285948  0.18120747  0.41475286  1
  C  C90  1  0.01481241  0.20628364  0.90830541  1
  C  C91  1  0.20767209  0.01319254  0.90957713  1
  C  C92  1  0.79902957  0.79471389  0.90942445  1
  C  C93  1  0.96373054  0.16801208  0.57913169  1
  C  C94  1  0.20453319  0.03819360  0.57825641  1
  C  C95  1  0.83210137  0.79484891  0.57785336  1
  C  C96  1  0.95720010  0.79090208  0.07403552  1
  C  C97  1  0.83354455  0.04148641  0.07380617  1
  C  C98  1  0.20738132  0.16718782  0.07338118  1
  C  C99  1  0.66805061  0.14096229  0.74904292  1
  C  C100  1  0.48637111  0.36333221  0.75147965  1
  C  C101  1  0.86700220  0.51281338  0.74958125  1
  C  C102  1  0.67212684  0.51953307  0.24985427  1
  C  C103  1  0.84713014  0.32791558  0.24996785  1
  C  C104  1  0.48050690  0.15284876  0.24988821  1
  C  C105  1  0.62581585  0.48127806  0.91889129  1
  C  C106  1  0.85505338  0.36075551  0.92127927  1
  C  C107  1  0.51398455  0.14844110  0.91982885  1
  C  C108  1  0.66618919  0.16475786  0.42864166  1
  C  C109  1  0.50168152  0.33896632  0.42838402  1
  C  C110  1  0.83652412  0.50026621  0.42926912  1
  C  C111  1  0.34851437  0.48092687  0.07514184  1
  C  C112  1  0.13244883  0.65165942  0.07561934  1
  C  C113  1  0.51961339  0.86848741  0.07581021  1
  C  C114  1  0.34415161  0.86302977  0.57766621  1
  C  C115  1  0.51687335  0.65192957  0.57882297  1
  C  C116  1  0.13391501  0.48244114  0.57881619  1
  C  C117  1  0.32479163  0.84000236  0.25063741  1
  C  C118  1  0.51502918  0.67549396  0.25062152  1
  C  C119  1  0.16035281  0.48463634  0.25069522  1
  C  C120  1  0.31325937  0.49786674  0.76411693  1
  C  C121  1  0.17276049  0.68507120  0.76558004  1
  C  C122  1  0.51299693  0.82898854  0.76744161  1
