# generated using pymatgen
data_Cu2NiC10
_symmetry_space_group_name_H-M   'P 1'
_cell_length_a   5.53941642
_cell_length_b   5.53941653
_cell_length_c   7.35646356
_cell_angle_alpha   91.25262225
_cell_angle_beta   88.74737836
_cell_angle_gamma   113.59220447
_symmetry_Int_Tables_number   1
_chemical_formula_structural   Cu2NiC10
_chemical_formula_sum   'Cu2 Ni1 C10'
_cell_volume   206.79597453
_cell_formula_units_Z   1
loop_
 _symmetry_equiv_pos_site_id
 _symmetry_equiv_pos_as_xyz
  1  'x, y, z'
loop_
 _atom_site_type_symbol
 _atom_site_label
 _atom_site_symmetry_multiplicity
 _atom_site_fract_x
 _atom_site_fract_y
 _atom_site_fract_z
 _atom_site_occupancy
  Ni  Ni0  1  0.50000000  0.50000000  0.00000000  1
  Cu  Cu1  1  0.64539200  0.35460800  0.29992700  1
  Cu  Cu2  1  0.35460800  0.64539200  0.70007300  1
  C  C3  1  0.00000000  0.00000000  0.50000000  1
  C  C4  1  0.00000000  0.00000000  0.00000000  1
  C  C5  1  0.22560800  0.77439200  0.53964900  1
  C  C6  1  0.70692500  0.29307500  0.07383100  1
  C  C7  1  0.77439200  0.22560800  0.46035100  1
  C  C8  1  0.29307500  0.70692500  0.92616900  1
  C  C9  1  0.70462000  0.76007600  0.70765300  1
  C  C10  1  0.29538000  0.23992400  0.29234700  1
  C  C11  1  0.76007600  0.70462000  0.29234700  1
  C  C12  1  0.23992400  0.29538000  0.70765300  1
