# generated using pymatgen
data_Cu3NiC2
_symmetry_space_group_name_H-M   'P 1'
_cell_length_a   6.98929200
_cell_length_b   7.27968400
_cell_length_c   8.85561400
_cell_angle_alpha   90.00000000
_cell_angle_beta   90.00000000
_cell_angle_gamma   90.00000000
_symmetry_Int_Tables_number   1
_chemical_formula_structural   Cu3NiC2
_chemical_formula_sum   'Cu12 Ni4 C8'
_cell_volume   450.57219813
_cell_formula_units_Z   4
loop_
 _symmetry_equiv_pos_site_id
 _symmetry_equiv_pos_as_xyz
  1  'x, y, z'
loop_
 _atom_site_type_symbol
 _atom_site_label
 _atom_site_symmetry_multiplicity
 _atom_site_fract_x
 _atom_site_fract_y
 _atom_site_fract_z
 _atom_site_occupancy
  C  C0  1  0.25000000  0.60436500  0.53901100  1
  C  C1  1  0.75000000  0.39563500  0.46098900  1
  C  C2  1  0.25000000  0.10436500  0.96098900  1
  C  C3  1  0.75000000  0.89563500  0.03901100  1
  C  C4  1  0.25000000  0.20919800  0.36673300  1
  C  C5  1  0.75000000  0.79080200  0.63326700  1
  C  C6  1  0.75000000  0.29080200  0.86673300  1
  C  C7  1  0.25000000  0.70919800  0.13326700  1
  Ni  Ni8  1  0.75000000  0.55882800  0.18276800  1
  Ni  Ni9  1  0.75000000  0.05882800  0.31723200  1
  Ni  Ni10  1  0.25000000  0.44117200  0.81723200  1
  Ni  Ni11  1  0.25000000  0.94117200  0.68276800  1
  Cu  Cu12  1  0.25000000  0.25218000  0.17793000  1
  Cu  Cu13  1  0.75000000  0.74782000  0.82207000  1
  Cu  Cu14  1  0.25000000  0.75218000  0.32207000  1
  Cu  Cu15  1  0.75000000  0.24782000  0.67793000  1
  Cu  Cu16  1  0.92780200  0.64086100  0.56745600  1
  Cu  Cu17  1  0.42780200  0.35913900  0.43254400  1
  Cu  Cu18  1  0.57219800  0.14086100  0.93254400  1
  Cu  Cu19  1  0.92780200  0.14086100  0.93254400  1
  Cu  Cu20  1  0.07219800  0.35913900  0.43254400  1
  Cu  Cu21  1  0.57219800  0.64086100  0.56745600  1
  Cu  Cu22  1  0.42780200  0.85913900  0.06745600  1
  Cu  Cu23  1  0.07219800  0.85913900  0.06745600  1
