# generated using pymatgen
data_Cu2NiC4
_symmetry_space_group_name_H-M   'P 1'
_cell_length_a   5.02211412
_cell_length_b   5.02211412
_cell_length_c   9.07948288
_cell_angle_alpha   73.94476086
_cell_angle_beta   73.94476086
_cell_angle_gamma   59.99999845
_symmetry_Int_Tables_number   1
_chemical_formula_structural   Cu2NiC4
_chemical_formula_sum   'Cu2 Ni1 C4'
_cell_volume   187.93473133
_cell_formula_units_Z   1
loop_
 _symmetry_equiv_pos_site_id
 _symmetry_equiv_pos_as_xyz
  1  'x, y, z'
loop_
 _atom_site_type_symbol
 _atom_site_label
 _atom_site_symmetry_multiplicity
 _atom_site_fract_x
 _atom_site_fract_y
 _atom_site_fract_z
 _atom_site_occupancy
  C  C0  1  0.79280400  0.79280400  0.62158800  1
  C  C1  1  0.59719900  0.59719900  0.20840300  1
  C  C2  1  0.20719600  0.20719600  0.37841200  1
  C  C3  1  0.40280100  0.40280100  0.79159700  1
  Ni  Ni4  1  0.00000000  0.00000000  0.00000000  1
  Cu  Cu5  1  0.09369900  0.09369900  0.71890300  1
  Cu  Cu6  1  0.90630100  0.90630100  0.28109700  1
