# generated using pymatgen
data_Cu12Ni4C3
_symmetry_space_group_name_H-M   'P 1'
_cell_length_a   6.59552586
_cell_length_b   7.78983244
_cell_length_c   5.28453537
_cell_angle_alpha   91.51480259
_cell_angle_beta   117.85212474
_cell_angle_gamma   88.97366214
_symmetry_Int_Tables_number   1
_chemical_formula_structural   Cu12Ni4C3
_chemical_formula_sum   'Cu12 Ni4 C3'
_cell_volume   239.96782022
_cell_formula_units_Z   1
loop_
 _symmetry_equiv_pos_site_id
 _symmetry_equiv_pos_as_xyz
  1  'x, y, z'
loop_
 _atom_site_type_symbol
 _atom_site_label
 _atom_site_symmetry_multiplicity
 _atom_site_fract_x
 _atom_site_fract_y
 _atom_site_fract_z
 _atom_site_occupancy
  C  C0  1  0.30383500  0.95287000  0.60055600  1
  C  C1  1  0.97478500  0.00590100  0.95733400  1
  C  C2  1  0.51205900  0.51023800  0.00303600  1
  Ni  Ni3  1  0.12461100  0.26031900  0.87058900  1
  Ni  Ni4  1  0.60377400  0.24210100  0.88815700  1
  Ni  Ni5  1  0.39580600  0.77352100  0.14355000  1
  Ni  Ni6  1  0.89220700  0.74534900  0.10556200  1
  Cu  Cu7  1  0.09719600  0.11347800  0.71751300  1
  Cu  Cu8  1  0.18139100  0.39968100  0.81536200  1
  Cu  Cu9  1  0.38826100  0.76181800  0.88967000  1
  Cu  Cu10  1  0.07398900  0.23473000  0.07876200  1
  Cu  Cu11  1  0.34485700  0.91174800  0.23803900  1
  Cu  Cu12  1  0.45874000  0.63456400  0.28717900  1
  Cu  Cu13  1  0.55913800  0.37373600  0.72622600  1
  Cu  Cu14  1  0.61835500  0.08703600  0.80172400  1
  Cu  Cu15  1  0.88398500  0.77331300  0.85767200  1
  Cu  Cu16  1  0.61740100  0.27751800  0.13599400  1
  Cu  Cu17  1  0.83742900  0.61046900  0.17773100  1
  Cu  Cu18  1  0.96551400  0.88518000  0.27677200  1
