# generated using pymatgen
data_Cu3Ni3C35
_symmetry_space_group_name_H-M   'P 1'
_cell_length_a   9.07739402
_cell_length_b   9.07939610
_cell_length_c   22.40565716
_cell_angle_alpha   89.76045537
_cell_angle_beta   90.28063224
_cell_angle_gamma   120.00503223
_symmetry_Int_Tables_number   1
_chemical_formula_structural   Cu3Ni3C35
_chemical_formula_sum   'Cu9 Ni9 C105'
_cell_volume   1599.11009971
_cell_formula_units_Z   3
loop_
 _symmetry_equiv_pos_site_id
 _symmetry_equiv_pos_as_xyz
  1  'x, y, z'
loop_
 _atom_site_type_symbol
 _atom_site_label
 _atom_site_symmetry_multiplicity
 _atom_site_fract_x
 _atom_site_fract_y
 _atom_site_fract_z
 _atom_site_occupancy
  C  C0  1  0.63742931  0.01340912  0.24751774  1
  C  C1  1  0.37677139  0.36366589  0.24763328  1
  C  C2  1  0.98776594  0.62637336  0.25014475  1
  C  C3  1  0.63743558  0.62106019  0.74883011  1
  C  C4  1  0.98578425  0.36975969  0.74607598  1
  C  C5  1  0.37411282  0.00952566  0.74505052  1
  C  C6  1  0.02913314  0.69250839  0.58402743  1
  C  C7  1  0.66806959  0.97451516  0.57956915  1
  C  C8  1  0.31189191  0.97750416  0.08429171  1
  C  C9  1  0.66144898  0.69262895  0.08347395  1
  C  C10  1  0.02759213  0.33072827  0.08060579  1
  C  C11  1  0.33428852  0.30432165  0.91891484  1
  C  C12  1  0.96773961  0.28742785  0.41533973  1
  C  C13  1  0.31948237  0.03151269  0.41400514  1
  C  C14  1  0.71282173  0.67981865  0.41343139  1
  C  C15  1  0.00817082  0.01120340  0.49259186  1
  C  C16  1  0.98560039  0.99499573  0.99711631  1
  C  C17  1  0.68473629  0.34437892  0.83355159  1
  C  C18  1  0.66632281  0.33312974  0.33259079  1
  C  C19  1  0.33831818  0.66752928  0.16509686  1
  C  C20  1  0.32531669  0.65327387  0.66405750  1
  C  C21  1  0.99845591  0.99984453  0.35476533  1
  C  C22  1  0.67930911  0.34397092  0.68014715  1
  C  C23  1  0.66077868  0.32700212  0.17664185  1
  Ni  Ni24  1  0.00137611  0.70802576  0.75035368  1
  Ni  Ni25  1  0.96574509  0.33403318  0.58578409  1
  Ni  Ni26  1  0.66459837  0.03844627  0.08552154  1
  Ni  Ni27  1  0.37358659  0.33391177  0.08466002  1
  Ni  Ni28  1  0.63058958  0.66678295  0.91690096  1
  Ni  Ni29  1  0.03362149  0.37006561  0.91584525  1
  Ni  Ni30  1  0.62497764  0.96039977  0.41784059  1
  Ni  Ni31  1  0.33540011  0.37215161  0.41639687  1
  Ni  Ni32  1  0.03860807  0.66612563  0.41735263  1
  Cu  Cu33  1  0.99261432  0.99461531  0.85488581  1
  Cu  Cu34  1  0.00530020  0.00351841  0.64780628  1
  Cu  Cu35  1  0.00034381  0.00294473  0.15012300  1
  Cu  Cu36  1  0.67123079  0.33317406  0.98069236  1
  Cu  Cu37  1  0.66799331  0.33132731  0.48220800  1
  Cu  Cu38  1  0.33614306  0.66526656  0.01578582  1
  Cu  Cu39  1  0.33001361  0.65953184  0.51743523  1
  Cu  Cu40  1  0.33337319  0.66504677  0.31825378  1
  Cu  Cu41  1  0.32890827  0.66413682  0.81723195  1
  C  C42  1  0.29247414  0.99692619  0.25203695  1
  C  C43  1  0.70513362  0.70622470  0.25163384  1
  C  C44  1  0.00205930  0.29777975  0.25166942  1
  C  C45  1  0.29096715  0.29222971  0.75180581  1
  C  C46  1  0.70584919  0.99754549  0.75015181  1
  C  C47  1  0.37362151  0.04106386  0.58507095  1
  C  C48  1  0.66385039  0.62702255  0.58569589  1
  C  C49  1  0.96041132  0.62742232  0.08509919  1
  C  C50  1  0.33437081  0.96091949  0.91641675  1
  C  C51  1  0.20574820  0.02027662  0.30569812  1
  C  C52  1  0.81450029  0.79194685  0.30601938  1
  C  C53  1  0.97520131  0.18648984  0.30578323  1
  C  C54  1  0.20965029  0.18308674  0.80873055  1
  C  C55  1  0.96839490  0.80345991  0.80549135  1
  C  C56  1  0.82638277  0.03539540  0.80384109  1
  C  C57  1  0.78143179  0.96028024  0.69308946  1
  C  C58  1  0.16972286  0.21298426  0.69730053  1
  C  C59  1  0.04431282  0.82862217  0.68949208  1
  C  C60  1  0.78384762  0.81746725  0.19296589  1
  C  C61  1  0.03715652  0.22101347  0.19325392  1
  C  C62  1  0.18078129  0.96267579  0.19310878  1
  C  C63  1  0.88943366  0.37115606  0.64480202  1
  C  C64  1  0.47984297  0.12074136  0.64115790  1
  C  C65  1  0.63591699  0.52403517  0.64226265  1
  C  C66  1  0.89284786  0.52162496  0.14186965  1
  C  C67  1  0.62670853  0.10812968  0.14607564  1
  C  C68  1  0.48992680  0.37823804  0.14361487  1
  C  C69  1  0.45359939  0.29331591  0.02515479  1
  C  C70  1  0.84228495  0.55011261  0.03037275  1
  C  C71  1  0.71373644  0.16911197  0.02896737  1
  C  C72  1  0.45176560  0.14710690  0.52742719  1
  C  C73  1  0.69666358  0.54770906  0.52892165  1
  C  C74  1  0.84270357  0.29293037  0.52599332  1
  C  C75  1  0.54786572  0.69752224  0.97692972  1
  C  C76  1  0.15456745  0.45334677  0.97532768  1
  C  C77  1  0.30445820  0.85169453  0.97297154  1
  C  C78  1  0.54095530  0.84141608  0.47728832  1
  C  C79  1  0.29327626  0.45789946  0.47225617  1
  C  C80  1  0.15949042  0.70519870  0.47639050  1
  C  C81  1  0.11495387  0.61952376  0.35734650  1
  C  C82  1  0.50359453  0.88252218  0.35731876  1
  C  C83  1  0.38338856  0.49257765  0.35517474  1
  C  C84  1  0.11605900  0.48265252  0.85499402  1
  C  C85  1  0.36212677  0.88156368  0.85940931  1
  C  C86  1  0.50932582  0.63004060  0.85704659  1
  C  C87  1  0.01780639  0.83127402  0.41244352  1
  C  C88  1  0.81090560  0.98081185  0.41357347  1
  C  C89  1  0.17051700  0.18602354  0.41143844  1
  C  C90  1  0.03542602  0.18892870  0.91151877  1
  C  C91  1  0.17688870  0.98555463  0.91177517  1
  C  C92  1  0.81778669  0.83541071  0.91369516  1
  C  C93  1  0.97270144  0.15402637  0.58893278  1
  C  C94  1  0.18755627  0.01137323  0.58696443  1
  C  C95  1  0.83169853  0.80768496  0.58841026  1
  C  C96  1  0.98113678  0.80978981  0.09011133  1
  C  C97  1  0.83376345  0.01131252  0.08921804  1
  C  C98  1  0.18240469  0.15824890  0.08926097  1
  C  C99  1  0.67870995  0.15042595  0.74506136  1
  C  C100  1  0.46610660  0.30828285  0.74581779  1
  C  C101  1  0.83396918  0.52062319  0.74765254  1
  C  C102  1  0.68458032  0.52779484  0.24580500  1
  C  C103  1  0.84667255  0.32248454  0.24473555  1
  C  C104  1  0.47147510  0.15419885  0.24651377  1
  C  C105  1  0.63202342  0.48655597  0.92168928  1
  C  C106  1  0.84676496  0.35083992  0.92074170  1
  C  C107  1  0.49294102  0.14118821  0.92112443  1
  C  C108  1  0.63350801  0.14564177  0.42181542  1
  C  C109  1  0.51094284  0.36259857  0.42371333  1
  C  C110  1  0.85173149  0.49174775  0.42275687  1
  C  C111  1  0.34303190  0.49929373  0.07848644  1
  C  C112  1  0.14247988  0.65197905  0.07560383  1
  C  C113  1  0.49076943  0.84898331  0.07692227  1
  C  C114  1  0.35834786  0.86078080  0.57994317  1
  C  C115  1  0.51239922  0.66088232  0.57935062  1
  C  C116  1  0.15243572  0.51013410  0.57945386  1
  C  C117  1  0.30553318  0.82858666  0.25329012  1
  C  C118  1  0.52427562  0.69408107  0.25256728  1
  C  C119  1  0.17096820  0.47820281  0.25334212  1
  C  C120  1  0.30895077  0.47397637  0.75477511  1
  C  C121  1  0.18145088  0.69852233  0.75439635  1
  C  C122  1  0.52874723  0.82919339  0.75645522  1
