# generated using pymatgen
data_CuNiC2
_symmetry_space_group_name_H-M   'P 1'
_cell_length_a   6.38230705
_cell_length_b   6.38230705
_cell_length_c   6.38230671
_cell_angle_alpha   40.24354432
_cell_angle_beta   40.24354432
_cell_angle_gamma   40.24354294
_symmetry_Int_Tables_number   1
_chemical_formula_structural   CuNiC2
_chemical_formula_sum   'Cu1 Ni1 C2'
_cell_volume   97.81169796
_cell_formula_units_Z   1
loop_
 _symmetry_equiv_pos_site_id
 _symmetry_equiv_pos_as_xyz
  1  'x, y, z'
loop_
 _atom_site_type_symbol
 _atom_site_label
 _atom_site_symmetry_multiplicity
 _atom_site_fract_x
 _atom_site_fract_y
 _atom_site_fract_z
 _atom_site_occupancy
  Ni  Ni0  1  0.49237700  0.49237700  0.49237700  1
  Cu  Cu1  1  0.99506300  0.99506300  0.99506300  1
  C  C2  1  0.13188300  0.13188300  0.13188300  1
  C  C3  1  0.63167700  0.63167700  0.63167700  1
