# generated using pymatgen
data_CuNi3C
_symmetry_space_group_name_H-M   'P 1'
_cell_length_a   8.87845000
_cell_length_b   4.90221400
_cell_length_c   11.04186803
_cell_angle_alpha   75.49338050
_cell_angle_beta   90.00000000
_cell_angle_gamma   90.00000000
_symmetry_Int_Tables_number   1
_chemical_formula_structural   CuNi3C
_chemical_formula_sum   'Cu4 Ni12 C4'
_cell_volume   465.26521421
_cell_formula_units_Z   4
loop_
 _symmetry_equiv_pos_site_id
 _symmetry_equiv_pos_as_xyz
  1  'x, y, z'
loop_
 _atom_site_type_symbol
 _atom_site_label
 _atom_site_symmetry_multiplicity
 _atom_site_fract_x
 _atom_site_fract_y
 _atom_site_fract_z
 _atom_site_occupancy
  C  C0  1  0.92610200  0.56119500  0.70989400  1
  C  C1  1  0.42610200  0.43880500  0.79010600  1
  C  C2  1  0.07389800  0.43880500  0.29010600  1
  C  C3  1  0.57389800  0.56119500  0.20989400  1
  Ni  Ni4  1  0.84107900  0.34182800  0.80194700  1
  Ni  Ni5  1  0.34107900  0.65817200  0.69805300  1
  Ni  Ni6  1  0.15892100  0.65817200  0.19805300  1
  Ni  Ni7  1  0.65892100  0.34182800  0.30194700  1
  Ni  Ni8  1  0.02713000  0.43548900  0.63113900  1
  Ni  Ni9  1  0.52713000  0.56451100  0.86886100  1
  Ni  Ni10  1  0.97287000  0.56451100  0.36886100  1
  Ni  Ni11  1  0.47287000  0.43548900  0.13113900  1
  Ni  Ni12  1  0.49191500  0.75493900  0.27109600  1
  Ni  Ni13  1  0.99191500  0.24506100  0.22890400  1
  Ni  Ni14  1  0.50808500  0.24506100  0.72890400  1
  Ni  Ni15  1  0.00808500  0.75493900  0.77109600  1
  Cu  Cu16  1  0.73683700  0.85163700  0.56852000  1
  Cu  Cu17  1  0.23683700  0.14836300  0.93148000  1
  Cu  Cu18  1  0.26316300  0.14836300  0.43148000  1
  Cu  Cu19  1  0.76316300  0.85163700  0.06852000  1
