# generated using pymatgen
data_Cu6NiC33
_symmetry_space_group_name_H-M   'P 1'
_cell_length_a   15.78269017
_cell_length_b   9.09438768
_cell_length_c   9.12647703
_cell_angle_alpha   90.32754414
_cell_angle_beta   125.09564965
_cell_angle_gamma   89.84133682
_symmetry_Int_Tables_number   1
_chemical_formula_structural   Cu6NiC33
_chemical_formula_sum   'Cu12 Ni2 C66'
_cell_volume   1071.78193960
_cell_formula_units_Z   2
loop_
 _symmetry_equiv_pos_site_id
 _symmetry_equiv_pos_as_xyz
  1  'x, y, z'
loop_
 _atom_site_type_symbol
 _atom_site_label
 _atom_site_symmetry_multiplicity
 _atom_site_fract_x
 _atom_site_fract_y
 _atom_site_fract_z
 _atom_site_occupancy
  C  C0  1  0.25139763  0.74988115  0.99887921  1
  C  C1  1  0.74673196  0.74790726  0.48757726  1
  C  C2  1  0.75139763  0.24988115  0.99887921  1
  C  C3  1  0.24673196  0.24790726  0.48757726  1
  C  C4  1  0.50740920  0.10119273  0.76369271  1
  C  C5  1  0.50090289  0.87982309  0.24006059  1
  C  C6  1  0.00740920  0.60119273  0.76369271  1
  C  C7  1  0.00090289  0.37982309  0.24006059  1
  C  C8  1  0.80099698  0.93382489  0.21918053  1
  C  C9  1  0.18631004  0.06596691  0.79250757  1
  C  C10  1  0.30099698  0.43382489  0.21918053  1
  C  C11  1  0.68631004  0.56596691  0.79250757  1
  C  C12  1  0.10604105  0.74995207  0.56134656  1
  C  C13  1  0.89477129  0.75447768  0.93064372  1
  C  C14  1  0.89234168  0.25013473  0.43593928  1
  C  C15  1  0.60604105  0.24995207  0.56134656  1
  C  C16  1  0.39477129  0.25447768  0.93064372  1
  C  C17  1  0.39234168  0.75013473  0.43593928  1
  Ni  Ni18  1  0.10345396  0.24310427  0.06414974  1
  Ni  Ni19  1  0.60345396  0.74310427  0.06414974  1
  Cu  Cu20  1  0.99697341  0.95749478  0.74457542  1
  Cu  Cu21  1  0.00035802  0.04092235  0.25624953  1
  Cu  Cu22  1  0.49697341  0.45749478  0.74457542  1
  Cu  Cu23  1  0.50035802  0.54092235  0.25624953  1
  Cu  Cu24  1  0.35492773  0.89489482  0.75977242  1
  Cu  Cu25  1  0.64642921  0.89617966  0.74786650  1
  Cu  Cu26  1  0.64542255  0.11308516  0.24344751  1
  Cu  Cu27  1  0.35682964  0.10126697  0.25051156  1
  Cu  Cu28  1  0.85492773  0.39489482  0.75977242  1
  Cu  Cu29  1  0.14642921  0.39617966  0.74786650  1
  Cu  Cu30  1  0.14542255  0.61308516  0.24344751  1
  Cu  Cu31  1  0.85682964  0.60126697  0.25051156  1
  C  C32  1  0.15460741  0.57314290  0.72216182  1
  C  C33  1  0.85044292  0.57775838  0.75698070  1
  C  C34  1  0.85585177  0.42067908  0.26283197  1
  C  C35  1  0.15713747  0.43640802  0.25572583  1
  C  C36  1  0.65460741  0.07314290  0.72216182  1
  C  C37  1  0.35044292  0.07775838  0.75698070  1
  C  C38  1  0.35585177  0.92067908  0.26283197  1
  C  C39  1  0.65713747  0.93640802  0.25572583  1
  C  C40  1  0.42800648  0.56183932  0.56389259  1
  C  C41  1  0.58220188  0.55538932  0.91378491  1
  C  C42  1  0.55818803  0.43555095  0.43358658  1
  C  C43  1  0.43418189  0.42562977  0.08263936  1
  C  C44  1  0.92800648  0.06183932  0.56389259  1
  C  C45  1  0.08220188  0.05538932  0.91378491  1
  C  C46  1  0.05818803  0.93555095  0.43358658  1
  C  C47  1  0.93418189  0.92562977  0.08263936  1
  C  C48  1  0.24767458  0.84007621  0.73475215  1
  C  C49  1  0.74247937  0.80723796  0.76369219  1
  C  C50  1  0.74428169  0.18851153  0.25663378  1
  C  C51  1  0.26915392  0.18880510  0.25403073  1
  C  C52  1  0.74767458  0.34007621  0.73475215  1
  C  C53  1  0.24247937  0.30723796  0.76369219  1
  C  C54  1  0.24428169  0.68851153  0.25663378  1
  C  C55  1  0.76915392  0.68880510  0.25403073  1
  C  C56  1  0.36184913  0.84896338  0.58947991  1
  C  C57  1  0.64717255  0.88549701  0.92568769  1
  C  C58  1  0.64366831  0.17139411  0.41189627  1
  C  C59  1  0.35658514  0.13801885  0.07125558  1
  C  C60  1  0.86184913  0.34896338  0.58947991  1
  C  C61  1  0.14717255  0.38549701  0.92568769  1
  C  C62  1  0.14366831  0.67139411  0.41189627  1
  C  C63  1  0.85658514  0.63801885  0.07125558  1
  C  C64  1  0.45235063  0.83358691  0.94559393  1
  C  C65  1  0.53780036  0.82394463  0.57197369  1
  C  C66  1  0.53638427  0.17140247  0.05913640  1
  C  C67  1  0.46996608  0.15665524  0.42385041  1
  C  C68  1  0.95235063  0.33358691  0.94559393  1
  C  C69  1  0.03780036  0.32394463  0.57197369  1
  C  C70  1  0.03638427  0.67140247  0.05913640  1
  C  C71  1  0.96996608  0.65665524  0.42385041  1
  C  C72  1  0.06886327  0.83585782  0.72529918  1
  C  C73  1  0.91624972  0.85696443  0.76195189  1
  C  C74  1  0.91162022  0.13802066  0.25736892  1
  C  C75  1  0.08198565  0.14855740  0.25939338  1
  C  C76  1  0.56886327  0.33585782  0.72529918  1
  C  C77  1  0.41624972  0.35696443  0.76195189  1
  C  C78  1  0.41162022  0.63802066  0.25736892  1
  C  C79  1  0.58198565  0.64855740  0.25939338  1
