# generated using pymatgen
data_Cu4NiC36
_symmetry_space_group_name_H-M   'P 1'
_cell_length_a   9.23606738
_cell_length_b   5.24814899
_cell_length_c   13.60261934
_cell_angle_alpha   89.69533841
_cell_angle_beta   103.84762260
_cell_angle_gamma   90.14299219
_symmetry_Int_Tables_number   1
_chemical_formula_structural   Cu4NiC36
_chemical_formula_sum   'Cu4 Ni1 C36'
_cell_volume   640.17656390
_cell_formula_units_Z   1
loop_
 _symmetry_equiv_pos_site_id
 _symmetry_equiv_pos_as_xyz
  1  'x, y, z'
loop_
 _atom_site_type_symbol
 _atom_site_label
 _atom_site_symmetry_multiplicity
 _atom_site_fract_x
 _atom_site_fract_y
 _atom_site_fract_z
 _atom_site_occupancy
  Ni  Ni0  1  0.33329500  0.26808800  0.22589300  1
  Cu  Cu1  1  0.25244300  0.76276800  0.53215900  1
  Cu  Cu2  1  0.77523000  0.73344800  0.02336700  1
  Cu  Cu3  1  0.24792600  0.27491000  0.95701500  1
  Cu  Cu4  1  0.72832900  0.23764800  0.47232100  1
  C  C5  1  0.48006400  0.75622000  0.34983200  1
  C  C6  1  0.02379800  0.76953600  0.85003100  1
  C  C7  1  0.56861800  0.25063400  0.87315900  1
  C  C8  1  0.45068500  0.76126600  0.12385400  1
  C  C9  1  0.05921100  0.23777400  0.38614100  1
  C  C10  1  0.92794600  0.75637600  0.62311100  1
  C  C11  1  0.48352300  0.25363400  0.64515700  1
  C  C12  1  0.00757300  0.21585700  0.15505200  1
  C  C13  1  0.80660100  0.57004900  0.57441300  1
  C  C14  1  0.14272800  0.28428700  0.11171600  1
  C  C15  1  0.57799700  0.14511000  0.57855300  1
  C  C16  1  0.32892300  0.89208600  0.04552700  1
  C  C17  1  0.06564200  0.95380700  0.41659000  1
  C  C18  1  0.08713600  0.66535800  0.62380100  1
  C  C19  1  0.93654700  0.64908300  0.92150100  1
  C  C20  1  0.44571500  0.53960000  0.62779900  1
  C  C21  1  0.90453300  0.34527300  0.37606300  1
  C  C22  1  0.36932300  0.88385500  0.40177300  1
  C  C23  1  0.64120600  0.83679900  0.38848900  1
  C  C24  1  0.42416500  0.47312300  0.12884200  1
  C  C25  1  0.96365800  0.93487400  0.14093600  1
  C  C26  1  0.16073100  0.60876400  0.84816100  1
  C  C27  1  0.87396500  0.39148800  0.12821000  1
  C  C28  1  0.58804600  0.24347100  0.75846700  1
  C  C29  1  0.34229600  0.09096500  0.64041200  1
  C  C30  1  0.91383600  0.76669600  0.73882900  1
  C  C31  1  0.41319600  0.14426900  0.87015500  1
  C  C32  1  0.46055700  0.46678900  0.33819500  1
  C  C33  1  0.61048500  0.83330900  0.12388700  1
  C  C34  1  0.09951500  0.25153800  0.27476400  1
  C  C35  1  0.19046800  0.38312900  0.45244400  1
  C  C36  1  0.05886900  0.05376900  0.87156300  1
  C  C37  1  0.90211300  0.02901700  0.58055500  1
  C  C38  1  0.42124900  0.88542400  0.23264700  1
  C  C39  1  0.58102000  0.52851100  0.91059100  1
  C  C40  1  0.70083900  0.09639900  0.93312900  1
