# generated using pymatgen
data_CuNiC6
_symmetry_space_group_name_H-M   'P 1'
_cell_length_a   4.45860100
_cell_length_b   9.89123700
_cell_length_c   12.23226800
_cell_angle_alpha   90.00000000
_cell_angle_beta   90.00000000
_cell_angle_gamma   90.00000000
_symmetry_Int_Tables_number   1
_chemical_formula_structural   CuNiC6
_chemical_formula_sum   'Cu8 Ni8 C48'
_cell_volume   539.45621961
_cell_formula_units_Z   8
loop_
 _symmetry_equiv_pos_site_id
 _symmetry_equiv_pos_as_xyz
  1  'x, y, z'
loop_
 _atom_site_type_symbol
 _atom_site_label
 _atom_site_symmetry_multiplicity
 _atom_site_fract_x
 _atom_site_fract_y
 _atom_site_fract_z
 _atom_site_occupancy
  C  C0  1  0.27599700  0.23763500  0.06834800  1
  C  C1  1  0.77599700  0.26236500  0.93165200  1
  C  C2  1  0.72400300  0.73763500  0.43165200  1
  C  C3  1  0.75945300  0.00284100  0.31100300  1
  C  C4  1  0.72400300  0.76236500  0.93165200  1
  C  C5  1  0.22400300  0.73763500  0.06834800  1
  C  C6  1  0.27599700  0.26236500  0.56834800  1
  C  C7  1  0.77599700  0.23763500  0.43165200  1
  C  C8  1  0.25945300  0.49715900  0.68899700  1
  C  C9  1  0.24054700  0.50284100  0.18899700  1
  C  C10  1  0.74054700  0.99715900  0.81100300  1
  C  C11  1  0.24054700  0.99715900  0.68899700  1
  C  C12  1  0.74054700  0.50284100  0.31100300  1
  C  C13  1  0.75945300  0.49715900  0.81100300  1
  C  C14  1  0.22400300  0.76236500  0.56834800  1
  C  C15  1  0.25945300  0.00284100  0.18899700  1
  Ni  Ni16  1  0.27222000  0.10733600  0.39258900  1
  Ni  Ni17  1  0.77222000  0.10733600  0.10741100  1
  Ni  Ni18  1  0.27222000  0.39266400  0.89258900  1
  Ni  Ni19  1  0.22778000  0.60733600  0.39258900  1
  Ni  Ni20  1  0.72778000  0.89266400  0.60741100  1
  Ni  Ni21  1  0.22778000  0.89266400  0.89258900  1
  Ni  Ni22  1  0.72778000  0.60733600  0.10741100  1
  Ni  Ni23  1  0.77222000  0.39266400  0.60741100  1
  Cu  Cu24  1  0.96180500  0.31683100  0.27654400  1
  Cu  Cu25  1  0.96180500  0.18316900  0.77654400  1
  Cu  Cu26  1  0.53819500  0.81683100  0.27654400  1
  Cu  Cu27  1  0.03819500  0.68316900  0.72345600  1
  Cu  Cu28  1  0.53819500  0.68316900  0.77654400  1
  Cu  Cu29  1  0.03819500  0.81683100  0.22345600  1
  Cu  Cu30  1  0.46180500  0.18316900  0.72345600  1
  Cu  Cu31  1  0.46180500  0.31683100  0.22345600  1
  C  C32  1  0.61754000  0.03766100  0.18744700  1
  C  C33  1  0.58138800  0.39786500  0.89624700  1
  C  C34  1  0.91861200  0.60213500  0.39624700  1
  C  C35  1  0.41861200  0.89786500  0.60375300  1
  C  C36  1  0.91861200  0.89786500  0.89624700  1
  C  C37  1  0.41861200  0.60213500  0.10375300  1
  C  C38  1  0.08138800  0.39786500  0.60375300  1
  C  C39  1  0.58138800  0.10213500  0.39624700  1
  C  C40  1  0.61658100  0.18833800  0.03508400  1
  C  C41  1  0.11658100  0.31166200  0.96491600  1
  C  C42  1  0.38341900  0.68833800  0.46491600  1
  C  C43  1  0.88341900  0.81166200  0.53508400  1
  C  C44  1  0.08138800  0.10213500  0.10375300  1
  C  C45  1  0.88341900  0.68833800  0.03508400  1
  C  C46  1  0.61658100  0.31166200  0.53508400  1
  C  C47  1  0.11658100  0.18833800  0.46491600  1
  C  C48  1  0.38341900  0.81166200  0.96491600  1
  C  C49  1  0.79348300  0.15984100  0.82540300  1
  C  C50  1  0.70651700  0.84015900  0.32540300  1
  C  C51  1  0.20651700  0.65984100  0.67459700  1
  C  C52  1  0.70651700  0.65984100  0.82540300  1
  C  C53  1  0.20651700  0.84015900  0.17459700  1
  C  C54  1  0.29348300  0.15984100  0.67459700  1
  C  C55  1  0.79348300  0.34015900  0.32540300  1
  C  C56  1  0.11754000  0.03766100  0.31255300  1
  C  C57  1  0.61754000  0.46233900  0.68744700  1
  C  C58  1  0.88246000  0.53766100  0.18744700  1
  C  C59  1  0.38246000  0.96233900  0.81255300  1
  C  C60  1  0.88246000  0.96233900  0.68744700  1
  C  C61  1  0.38246000  0.53766100  0.31255300  1
  C  C62  1  0.11754000  0.46233900  0.81255300  1
  C  C63  1  0.29348300  0.34015900  0.17459700  1
