# generated using pymatgen
data_CuNi2C17
_symmetry_space_group_name_H-M   'P 1'
_cell_length_a   9.14389571
_cell_length_b   9.14389539
_cell_length_c   22.82141062
_cell_angle_alpha   89.69294295
_cell_angle_beta   90.30705705
_cell_angle_gamma   120.00360295
_symmetry_Int_Tables_number   1
_chemical_formula_structural   CuNi2C17
_chemical_formula_sum   'Cu6 Ni12 C102'
_cell_volume   1652.38614981
_cell_formula_units_Z   6
loop_
 _symmetry_equiv_pos_site_id
 _symmetry_equiv_pos_as_xyz
  1  'x, y, z'
loop_
 _atom_site_type_symbol
 _atom_site_label
 _atom_site_symmetry_multiplicity
 _atom_site_fract_x
 _atom_site_fract_y
 _atom_site_fract_z
 _atom_site_occupancy
  C  C0  1  0.63280179  0.99497832  0.24172697  1
  C  C1  1  0.99262948  0.64159197  0.24322365  1
  C  C2  1  0.00502168  0.36719821  0.74172697  1
  C  C3  1  0.35840803  0.00737052  0.74322365  1
  C  C4  1  0.29946879  0.32831132  0.57505997  1
  C  C5  1  0.65929648  0.97492497  0.57655665  1
  C  C6  1  0.67168868  0.70053121  0.07505997  1
  C  C7  1  0.02507503  0.34070352  0.07655665  1
  C  C8  1  0.96613479  0.66164532  0.90839397  1
  C  C9  1  0.32596248  0.30825897  0.90989065  1
  C  C10  1  0.33835468  0.03386521  0.40839397  1
  C  C11  1  0.69174103  0.67403752  0.40989065  1
  C  C12  1  0.00706831  0.03249650  0.49608806  1
  C  C13  1  0.96750350  0.99293169  0.99608806  1
  C  C14  1  0.67373531  0.36582950  0.82942106  1
  C  C15  1  0.63417050  0.32626469  0.32942106  1
  C  C16  1  0.34040131  0.69916350  0.16275506  1
  C  C17  1  0.30083650  0.65959869  0.66275506  1
  C  C18  1  0.00456373  0.00715844  0.35196837  1
  C  C19  1  0.99284156  0.99543627  0.85196837  1
  C  C20  1  0.67123073  0.34049144  0.68530137  1
  C  C21  1  0.65950856  0.32876927  0.18530137  1
  C  C22  1  0.33789673  0.67382544  0.01863537  1
  C  C23  1  0.32617456  0.66210327  0.51863537  1
  Ni  Ni24  1  0.29412788  0.99718111  0.25429168  1
  Ni  Ni25  1  0.70165333  0.70143045  0.25138156  1
  Ni  Ni26  1  0.29856955  0.29834667  0.75138156  1
  Ni  Ni27  1  0.00281889  0.70587212  0.75429168  1
  Ni  Ni28  1  0.96079488  0.33051411  0.58762468  1
  Ni  Ni29  1  0.36832033  0.03476345  0.58471456  1
  Ni  Ni30  1  0.96523655  0.63167967  0.08471456  1
  Ni  Ni31  1  0.66948589  0.03920512  0.08762468  1
  Ni  Ni32  1  0.62746088  0.66384811  0.92095868  1
  Ni  Ni33  1  0.03498633  0.36809745  0.91804856  1
  Ni  Ni34  1  0.63190255  0.96501367  0.41804856  1
  Ni  Ni35  1  0.33615189  0.37253912  0.42095868  1
  Cu  Cu36  1  0.01691090  0.00573054  0.64820120  1
  Cu  Cu37  1  0.99426946  0.98308910  0.14820120  1
  Cu  Cu38  1  0.68357790  0.33906354  0.98153420  1
  Cu  Cu39  1  0.66093646  0.31642210  0.48153420  1
  Cu  Cu40  1  0.35024390  0.67239754  0.31486820  1
  Cu  Cu41  1  0.32760246  0.64975610  0.81486820  1
  C  C42  1  0.01032236  0.30196028  0.24899647  1
  C  C43  1  0.69803972  0.98967764  0.74899647  1
  C  C44  1  0.67698936  0.63529328  0.58232947  1
  C  C45  1  0.36470672  0.32301064  0.08232947  1
  C  C46  1  0.34365536  0.96862728  0.91566347  1
  C  C47  1  0.03137272  0.65634464  0.41566347  1
  C  C48  1  0.21793950  0.01826669  0.31547666  1
  C  C49  1  0.81347863  0.78699204  0.31026137  1
  C  C50  1  0.98977469  0.19827093  0.30081000  1
  C  C51  1  0.21300796  0.18652137  0.81026137  1
  C  C52  1  0.98173331  0.78206050  0.81547666  1
  C  C53  1  0.80172907  0.01022531  0.80081000  1
  C  C54  1  0.77257346  0.96826242  0.69389265  1
  C  C55  1  0.17470957  0.21607595  0.69270391  1
  C  C56  1  0.03337728  0.83298317  0.69761912  1
  C  C57  1  0.78392405  0.82529043  0.19270391  1
  C  C58  1  0.03173758  0.22742654  0.19389265  1
  C  C59  1  0.16701683  0.96662272  0.19761912  1
  C  C60  1  0.88460650  0.35159969  0.64880966  1
  C  C61  1  0.48014563  0.12032504  0.64359437  1
  C  C62  1  0.65644169  0.53160393  0.63414300  1
  C  C63  1  0.87967496  0.51985437  0.14359437  1
  C  C64  1  0.64840031  0.11539350  0.14880966  1
  C  C65  1  0.46839607  0.34355831  0.13414300  1
  C  C66  1  0.43924046  0.30159542  0.02722565  1
  C  C67  1  0.84137657  0.54940895  0.02603691  1
  C  C68  1  0.70004428  0.16631617  0.03095212  1
  C  C69  1  0.45059105  0.15862343  0.52603691  1
  C  C70  1  0.69840458  0.56075954  0.52722565  1
  C  C71  1  0.83368383  0.29995572  0.53095212  1
  C  C72  1  0.55127250  0.68493369  0.98214366  1
  C  C73  1  0.14681163  0.45365904  0.97692837  1
  C  C74  1  0.32310769  0.86493793  0.96747700  1
  C  C75  1  0.54634096  0.85318837  0.47692837  1
  C  C76  1  0.31506631  0.44872750  0.48214366  1
  C  C77  1  0.13506207  0.67689231  0.46747700  1
  C  C78  1  0.10590646  0.63492942  0.36055965  1
  C  C79  1  0.50804257  0.88274295  0.35937091  1
  C  C80  1  0.36671028  0.49965017  0.36428612  1
  C  C81  1  0.11725705  0.49195743  0.85937091  1
  C  C82  1  0.36507058  0.89409354  0.86055965  1
  C  C83  1  0.50034983  0.63328972  0.86428612  1
  C  C84  1  0.01392952  0.80930900  0.41398399  1
  C  C85  1  0.81525517  0.97636138  0.41318798  1
  C  C86  1  0.18312358  0.17792761  0.41515358  1
  C  C87  1  0.02363862  0.18474483  0.91318798  1
  C  C88  1  0.19069100  0.98607048  0.91398399  1
  C  C89  1  0.82207239  0.81687642  0.91515358  1
  C  C90  1  0.96028079  0.14446295  0.58852836  1
  C  C91  1  0.18209322  0.02502281  0.58554845  1
  C  C92  1  0.82819472  0.80834534  0.58695599  1
  C  C93  1  0.97497719  0.81790678  0.08554845  1
  C  C94  1  0.85553705  0.03971921  0.08852836  1
  C  C95  1  0.19165466  0.17180528  0.08695599  1
  C  C96  1  0.68059652  0.14264200  0.74731699  1
  C  C97  1  0.48192217  0.30969438  0.74652098  1
  C  C98  1  0.84979058  0.51126061  0.74848658  1
  C  C99  1  0.69030562  0.51807783  0.24652098  1
  C  C100  1  0.85735800  0.31940348  0.24731699  1
  C  C101  1  0.48873939  0.15020942  0.24848658  1
  C  C102  1  0.62694779  0.47779595  0.92186136  1
  C  C103  1  0.84876022  0.35835581  0.91888145  1
  C  C104  1  0.49486172  0.14167834  0.92028899  1
  C  C105  1  0.64164419  0.15123978  0.41888145  1
  C  C106  1  0.52220405  0.37305221  0.42186136  1
  C  C107  1  0.85832166  0.50513828  0.42028899  1
  C  C108  1  0.34726252  0.47597600  0.08065099  1
  C  C109  1  0.14858817  0.64302838  0.07985498  1
  C  C110  1  0.51645658  0.84459461  0.08182058  1
  C  C111  1  0.35697162  0.85141183  0.57985498  1
  C  C112  1  0.52402400  0.65273748  0.58065099  1
  C  C113  1  0.15540539  0.48354342  0.58182058  1
  C  C114  1  0.29361379  0.81112995  0.25519536  1
  C  C115  1  0.51542622  0.69168981  0.25221545  1
  C  C116  1  0.16152772  0.47501234  0.25362299  1
  C  C117  1  0.30831019  0.48457378  0.75221545  1
  C  C118  1  0.18887005  0.70638621  0.75519536  1
  C  C119  1  0.52498766  0.83847228  0.75362299  1
