# generated using pymatgen
data_CuNi3C34
_symmetry_space_group_name_H-M   'P 1'
_cell_length_a   8.85209312
_cell_length_b   8.86041078
_cell_length_c   22.37651088
_cell_angle_alpha   90.29339554
_cell_angle_beta   90.27010502
_cell_angle_gamma   120.08393224
_symmetry_Int_Tables_number   1
_chemical_formula_structural   CuNi3C34
_chemical_formula_sum   'Cu3 Ni9 C102'
_cell_volume   1518.56656044
_cell_formula_units_Z   3
loop_
 _symmetry_equiv_pos_site_id
 _symmetry_equiv_pos_as_xyz
  1  'x, y, z'
loop_
 _atom_site_type_symbol
 _atom_site_label
 _atom_site_symmetry_multiplicity
 _atom_site_fract_x
 _atom_site_fract_y
 _atom_site_fract_z
 _atom_site_occupancy
  C  C0  1  0.36330597  0.36351154  0.25000887  1
  C  C1  1  0.30837543  0.34079844  0.58674594  1
  C  C2  1  0.03241315  0.70106776  0.58310832  1
  C  C3  1  0.98059218  0.67814925  0.91845548  1
  C  C4  1  0.70054166  0.02785193  0.91284573  1
  C  C5  1  0.31556488  0.29275358  0.91840904  1
  C  C6  1  0.97984018  0.99153096  0.49766999  1
  C  C7  1  0.01144658  0.00926732  0.00243817  1
  C  C8  1  0.66494339  0.32874686  0.82604057  1
  C  C9  1  0.67755911  0.32798191  0.33125059  1
  C  C10  1  0.33032930  0.67566049  0.16586985  1
  C  C11  1  0.35813715  0.67703054  0.66520218  1
  C  C12  1  0.66858175  0.32237220  0.98218041  1
  C  C13  1  0.67116796  0.34759524  0.48139079  1
  C  C14  1  0.32011073  0.67112116  0.81705796  1
  Ni  Ni15  1  0.99469661  0.99747448  0.34831503  1
  Ni  Ni16  1  0.00874695  0.01158584  0.84797062  1
  Ni  Ni17  1  0.97778861  0.98733316  0.64959677  1
  Ni  Ni18  1  0.99796170  0.99518212  0.15109315  1
  Ni  Ni19  1  0.66156027  0.33769105  0.68255092  1
  Ni  Ni20  1  0.67364496  0.33430379  0.18399104  1
  Ni  Ni21  1  0.31725066  0.66076816  0.01639503  1
  Ni  Ni22  1  0.35454509  0.67676975  0.51399214  1
  Ni  Ni23  1  0.33471638  0.67781631  0.31816386  1
  Cu  Cu24  1  0.66431848  0.63274029  0.58595184  1
  Cu  Cu25  1  0.04152659  0.37284548  0.91885698  1
  Cu  Cu26  1  0.33050469  0.95843667  0.91906063  1
  C  C27  1  0.29312212  0.99836281  0.24978311  1
  C  C28  1  0.70438339  0.70511387  0.24977264  1
  C  C29  1  0.99983929  0.29432322  0.25021146  1
  C  C30  1  0.29799473  0.30066039  0.74973563  1
  C  C31  1  0.00085475  0.70356909  0.75068509  1
  C  C32  1  0.69851015  0.99725861  0.75113109  1
  C  C33  1  0.95446960  0.33188314  0.58289426  1
  C  C34  1  0.38054952  0.04387102  0.58282348  1
  C  C35  1  0.95691255  0.62628832  0.08447179  1
  C  C36  1  0.66682152  0.03751356  0.08448984  1
  C  C37  1  0.37604747  0.33537239  0.08414053  1
  C  C38  1  0.62039364  0.66336575  0.91761349  1
  C  C39  1  0.63225431  0.96773950  0.41638406  1
  C  C40  1  0.33190574  0.36640424  0.41665461  1
  C  C41  1  0.03922911  0.66601335  0.41847927  1
  C  C42  1  0.21353206  0.02974702  0.30323686  1
  C  C43  1  0.80953924  0.78458362  0.30415167  1
  C  C44  1  0.97579579  0.19023109  0.30425395  1
  C  C45  1  0.21669077  0.19888958  0.80459647  1
  C  C46  1  0.97966576  0.78564293  0.80539028  1
  C  C47  1  0.79983403  0.02006923  0.80713783  1
  C  C48  1  0.78017313  0.97094836  0.69821388  1
  C  C49  1  0.19161161  0.21929107  0.69505992  1
  C  C50  1  0.02847836  0.80679263  0.69637920  1
  C  C51  1  0.78298936  0.80860972  0.19560582  1
  C  C52  1  0.03043837  0.21464801  0.19617274  1
  C  C53  1  0.18886114  0.97347427  0.19488362  1
  C  C54  1  0.87674299  0.35623406  0.63708751  1
  C  C55  1  0.48315354  0.11351597  0.63764776  1
  C  C56  1  0.62499889  0.50213510  0.64016908  1
  C  C57  1  0.87023530  0.52132086  0.13689860  1
  C  C58  1  0.64447400  0.12426400  0.13634118  1
  C  C59  1  0.47667868  0.35191132  0.13905727  1
  C  C60  1  0.47079696  0.31610466  0.02934606  1
  C  C61  1  0.84940257  0.53368772  0.02806716  1
  C  C62  1  0.68588013  0.14995849  0.02776170  1
  C  C63  1  0.47157736  0.15544242  0.52969102  1
  C  C64  1  0.69115532  0.52062489  0.52631596  1
  C  C65  1  0.84283780  0.30679573  0.52866765  1
  C  C66  1  0.55241502  0.69965507  0.97086616  1
  C  C67  1  0.17230205  0.44634792  0.97416769  1
  C  C68  1  0.29739253  0.83961427  0.97536363  1
  C  C69  1  0.55465254  0.86318503  0.47028470  1
  C  C70  1  0.30761136  0.44691218  0.47093636  1
  C  C71  1  0.13978771  0.68773056  0.47412592  1
  C  C72  1  0.11663601  0.63460019  0.36537043  1
  C  C73  1  0.52362196  0.89014815  0.36235958  1
  C  C74  1  0.36449889  0.47273049  0.36243674  1
  C  C75  1  0.13722369  0.50963338  0.86076000  1
  C  C76  1  0.37547807  0.86852903  0.85999920  1
  C  C77  1  0.50681895  0.63022301  0.86361421  1
  C  C78  1  0.01288853  0.81703078  0.41259829  1
  C  C79  1  0.80884342  0.98896945  0.41061018  1
  C  C80  1  0.17945720  0.18910520  0.41072442  1
  C  C81  1  0.99775706  0.17529035  0.90794376  1
  C  C82  1  0.16475870  0.98428125  0.90860864  1
  C  C83  1  0.79968996  0.81286487  0.90819960  1
  C  C84  1  0.98163372  0.17982633  0.58532187  1
  C  C85  1  0.20917593  0.03935056  0.58569431  1
  C  C86  1  0.85014025  0.81438474  0.58525052  1
  C  C87  1  0.96663447  0.79829223  0.08522076  1
  C  C88  1  0.83087671  0.03243792  0.08523877  1
  C  C89  1  0.20283717  0.17391672  0.08446092  1
  C  C90  1  0.67782139  0.15262817  0.74564248  1
  C  C91  1  0.47272020  0.31725219  0.74683690  1
  C  C92  1  0.85064895  0.52469710  0.74655344  1
  C  C93  1  0.67989374  0.52455187  0.24509780  1
  C  C94  1  0.84425176  0.31497751  0.24429445  1
  C  C95  1  0.46934776  0.16102427  0.24503236  1
  C  C96  1  0.63540078  0.50104673  0.92249253  1
  C  C97  1  0.85036356  0.36807303  0.92635694  1
  C  C98  1  0.51031297  0.15630766  0.92569854  1
  C  C99  1  0.64938771  0.14495027  0.42411330  1
  C  C100  1  0.49465959  0.34878980  0.42458764  1
  C  C101  1  0.85900767  0.50022880  0.42406660  1
  C  C102  1  0.36424628  0.49388748  0.07883038  1
  C  C103  1  0.13056483  0.64339074  0.08072383  1
  C  C104  1  0.51305545  0.86479053  0.07703648  1
  C  C105  1  0.34347817  0.86215870  0.57487720  1
  C  C106  1  0.48755247  0.64116441  0.57659290  1
  C  C107  1  0.12797627  0.49339886  0.57600911  1
  C  C108  1  0.31336972  0.84265071  0.25554006  1
  C  C109  1  0.52377843  0.68059035  0.25483765  1
  C  C110  1  0.16292084  0.47040756  0.25609742  1
  C  C111  1  0.31640210  0.47865744  0.75635963  1
  C  C112  1  0.16701722  0.69148155  0.75648227  1
  C  C113  1  0.52232183  0.83405329  0.75633499  1
