# generated using pymatgen
data_Cu2NiC4
_symmetry_space_group_name_H-M   'P 1'
_cell_length_a   5.70893523
_cell_length_b   5.70893497
_cell_length_c   3.26650815
_cell_angle_alpha   90.00000000
_cell_angle_beta   90.00000000
_cell_angle_gamma   111.25651190
_symmetry_Int_Tables_number   1
_chemical_formula_structural   Cu2NiC4
_chemical_formula_sum   'Cu2 Ni1 C4'
_cell_volume   99.21888417
_cell_formula_units_Z   1
loop_
 _symmetry_equiv_pos_site_id
 _symmetry_equiv_pos_as_xyz
  1  'x, y, z'
loop_
 _atom_site_type_symbol
 _atom_site_label
 _atom_site_symmetry_multiplicity
 _atom_site_fract_x
 _atom_site_fract_y
 _atom_site_fract_z
 _atom_site_occupancy
  Ni  Ni0  1  0.32002090  0.67997910  0.00000000  1
  Cu  Cu1  1  0.94507883  0.05492117  0.00000000  1
  Cu  Cu2  1  0.56440856  0.43559144  0.50000000  1
  C  C3  1  0.28300221  0.31927362  0.00000000  1
  C  C4  1  0.68072638  0.71699779  0.00000000  1
  C  C5  1  0.21211643  0.78788357  0.50000000  1
  C  C6  1  0.78631369  0.21368631  0.50000000  1
