# generated using pymatgen
data_CuNi2C17
_symmetry_space_group_name_H-M   'P 1'
_cell_length_a   9.00675772
_cell_length_b   9.03047509
_cell_length_c   22.18333872
_cell_angle_alpha   89.33658449
_cell_angle_beta   90.00000000
_cell_angle_gamma   119.91315834
_symmetry_Int_Tables_number   1
_chemical_formula_structural   CuNi2C17
_chemical_formula_sum   'Cu6 Ni12 C102'
_cell_volume   1563.78573175
_cell_formula_units_Z   6
loop_
 _symmetry_equiv_pos_site_id
 _symmetry_equiv_pos_as_xyz
  1  'x, y, z'
loop_
 _atom_site_type_symbol
 _atom_site_label
 _atom_site_symmetry_multiplicity
 _atom_site_fract_x
 _atom_site_fract_y
 _atom_site_fract_z
 _atom_site_occupancy
  C  C0  1  0.35957472  0.35443595  0.24486085  1
  C  C1  1  0.99684854  0.62990009  0.24342439  1
  C  C2  1  0.63305155  0.62990009  0.74342439  1
  C  C3  1  0.99486123  0.35443595  0.74486085  1
  C  C4  1  0.02624172  0.68776895  0.57819385  1
  C  C5  1  0.66351554  0.96323309  0.57675739  1
  C  C6  1  0.29971855  0.96323309  0.07675739  1
  C  C7  1  0.66152823  0.68776895  0.07819385  1
  C  C8  1  0.69290772  0.02110295  0.91152785  1
  C  C9  1  0.33018154  0.29656709  0.91009139  1
  C  C10  1  0.96638455  0.29656709  0.41009139  1
  C  C11  1  0.32819423  0.02110295  0.41152785  1
  C  C12  1  0.97762338  0.98118911  0.49352600  1
  C  C13  1  0.00356573  0.98118911  0.99352600  1
  C  C14  1  0.64429038  0.31452211  0.82685900  1
  C  C15  1  0.67023273  0.31452211  0.32685900  1
  C  C16  1  0.31095638  0.64785611  0.16019300  1
  C  C17  1  0.33689873  0.64785611  0.66019300  1
  C  C18  1  0.00481701  0.01435750  0.64951212  1
  C  C19  1  0.00954049  0.01435750  0.14951212  1
  C  C20  1  0.67148401  0.34769050  0.98284512  1
  C  C21  1  0.67620749  0.34769050  0.48284512  1
  C  C22  1  0.33815001  0.68102450  0.31617912  1
  C  C23  1  0.34287349  0.68102450  0.81617912  1
  C  C24  1  0.98795738  0.99327791  0.34702048  1
  C  C25  1  0.00532053  0.99327791  0.84702048  1
  C  C26  1  0.65462438  0.32661091  0.68035348  1
  C  C27  1  0.67198753  0.32661091  0.18035348  1
  C  C28  1  0.32129038  0.65994491  0.01368748  1
  C  C29  1  0.33865353  0.65994491  0.51368748  1
  Ni  Ni30  1  0.30054666  0.00546898  0.25135693  1
  Ni  Ni31  1  0.99982559  0.29909512  0.25458201  1
  Ni  Ni32  1  0.29926953  0.29909512  0.75458201  1
  Ni  Ni33  1  0.70492232  0.00546898  0.75135693  1
  Ni  Ni34  1  0.96721366  0.33880198  0.58468993  1
  Ni  Ni35  1  0.66649259  0.63242812  0.58791501  1
  Ni  Ni36  1  0.96593653  0.63242812  0.08791501  1
  Ni  Ni37  1  0.37158932  0.33880198  0.08468993  1
  Ni  Ni38  1  0.63387966  0.67213598  0.91802393  1
  Ni  Ni39  1  0.33315859  0.96576212  0.92124901  1
  Ni  Ni40  1  0.63260253  0.96576212  0.42124901  1
  Ni  Ni41  1  0.03825532  0.67213598  0.41802393  1
  Cu  Cu42  1  0.70030970  0.70202323  0.24931058  1
  Cu  Cu43  1  0.00171353  0.70202323  0.74931058  1
  Cu  Cu44  1  0.36697670  0.03535623  0.58264358  1
  Cu  Cu45  1  0.66838053  0.03535623  0.08264358  1
  Cu  Cu46  1  0.03364270  0.36869023  0.91597758  1
  Cu  Cu47  1  0.33504653  0.36869023  0.41597758  1
  C  C48  1  0.21593801  0.02723580  0.30845190  1
  C  C49  1  0.80664057  0.78789087  0.30204291  1
  C  C50  1  0.98349080  0.20373752  0.31426784  1
  C  C51  1  0.22024672  0.20373752  0.81426784  1
  C  C52  1  0.98125030  0.78789087  0.80204291  1
  C  C53  1  0.81129779  0.02723580  0.80845190  1
  C  C54  1  0.79477264  0.97901388  0.69544813  1
  C  C55  1  0.18051232  0.19968957  0.70121964  1
  C  C56  1  0.01985461  0.79932591  0.69257797  1
  C  C57  1  0.77947129  0.79932591  0.19257797  1
  C  C58  1  0.01917725  0.19968957  0.20121964  1
  C  C59  1  0.18424124  0.97901388  0.19544813  1
  C  C60  1  0.88260501  0.36056880  0.64178490  1
  C  C61  1  0.47330757  0.12122387  0.63537591  1
  C  C62  1  0.65015780  0.53707052  0.64760084  1
  C  C63  1  0.88691372  0.53707052  0.14760084  1
  C  C64  1  0.64791730  0.12122387  0.13537591  1
  C  C65  1  0.47796479  0.36056880  0.14178490  1
  C  C66  1  0.46143964  0.31234688  0.02878113  1
  C  C67  1  0.84717932  0.53302257  0.03455264  1
  C  C68  1  0.68652161  0.13265891  0.02591097  1
  C  C69  1  0.44613829  0.13265891  0.52591097  1
  C  C70  1  0.68584425  0.53302257  0.53455264  1
  C  C71  1  0.85090824  0.31234688  0.52878113  1
  C  C72  1  0.54927101  0.69390280  0.97511890  1
  C  C73  1  0.13997357  0.45455787  0.96870991  1
  C  C74  1  0.31682380  0.87040452  0.98093484  1
  C  C75  1  0.55357972  0.87040452  0.48093484  1
  C  C76  1  0.31458330  0.45455787  0.46870991  1
  C  C77  1  0.14463079  0.69390280  0.47511890  1
  C  C78  1  0.12810564  0.64568088  0.36211513  1
  C  C79  1  0.51384532  0.86635657  0.36788664  1
  C  C80  1  0.35318761  0.46599291  0.35924497  1
  C  C81  1  0.11280429  0.46599291  0.85924497  1
  C  C82  1  0.35251025  0.86635657  0.86788664  1
  C  C83  1  0.51757424  0.64568088  0.86211513  1
  C  C84  1  0.02212257  0.83329227  0.41094667  1
  C  C85  1  0.81668513  0.99807796  0.41472353  1
  C  C86  1  0.18107931  0.19533232  0.41458999  1
  C  C87  1  0.01425302  0.19533232  0.91458999  1
  C  C88  1  0.18139283  0.99807796  0.91472353  1
  C  C89  1  0.81116969  0.83329227  0.91094667  1
  C  C90  1  0.97846575  0.17171155  0.58783268  1
  C  C91  1  0.19192729  0.01362058  0.58704827  1
  C  C92  1  0.83719446  0.81132388  0.58725711  1
  C  C93  1  0.97412942  0.81132388  0.08725711  1
  C  C94  1  0.82169329  0.01362058  0.08704827  1
  C  C95  1  0.19324580  0.17171155  0.08783268  1
  C  C96  1  0.68878957  0.16662527  0.74427967  1
  C  C97  1  0.48335213  0.33141096  0.74805653  1
  C  C98  1  0.84774631  0.52866532  0.74792299  1
  C  C99  1  0.68092002  0.52866532  0.24792299  1
  C  C100  1  0.84805983  0.33141096  0.24805653  1
  C  C101  1  0.47783669  0.16662527  0.24427967  1
  C  C102  1  0.64513275  0.50504455  0.92116568  1
  C  C103  1  0.85859429  0.34695358  0.92038127  1
  C  C104  1  0.50386146  0.14465688  0.92059011  1
  C  C105  1  0.64079642  0.14465688  0.42059011  1
  C  C106  1  0.48836029  0.34695358  0.42038127  1
  C  C107  1  0.85991280  0.50504455  0.42116568  1
  C  C108  1  0.35545557  0.49995927  0.07761367  1
  C  C109  1  0.15001813  0.66474496  0.08139053  1
  C  C110  1  0.51441231  0.86199932  0.08125699  1
  C  C111  1  0.34758602  0.86199932  0.58125699  1
  C  C112  1  0.51472583  0.66474496  0.58139053  1
  C  C113  1  0.14450269  0.49995927  0.57761367  1
  C  C114  1  0.31179875  0.83837855  0.25449968  1
  C  C115  1  0.52526029  0.68028758  0.25371527  1
  C  C116  1  0.17052746  0.47799088  0.25392411  1
  C  C117  1  0.30746242  0.47799088  0.75392411  1
  C  C118  1  0.15502629  0.68028758  0.75371527  1
  C  C119  1  0.52657880  0.83837855  0.75449968  1
