# generated using pymatgen
data_Cu4NiC13
_symmetry_space_group_name_H-M   'P 1'
_cell_length_a   3.82728671
_cell_length_b   7.93888507
_cell_length_c   7.94059291
_cell_angle_alpha   82.83046189
_cell_angle_beta   76.04226823
_cell_angle_gamma   76.03443131
_symmetry_Int_Tables_number   1
_chemical_formula_structural   Cu4NiC13
_chemical_formula_sum   'Cu4 Ni1 C13'
_cell_volume   226.65640658
_cell_formula_units_Z   1
loop_
 _symmetry_equiv_pos_site_id
 _symmetry_equiv_pos_as_xyz
  1  'x, y, z'
loop_
 _atom_site_type_symbol
 _atom_site_label
 _atom_site_symmetry_multiplicity
 _atom_site_fract_x
 _atom_site_fract_y
 _atom_site_fract_z
 _atom_site_occupancy
  Ni  Ni0  1  0.81347000  0.94943300  0.42508500  1
  Cu  Cu1  1  0.61044400  0.30700400  0.47240600  1
  Cu  Cu2  1  0.38736500  0.68753900  0.53860800  1
  Cu  Cu3  1  0.65697700  0.89010400  0.79624300  1
  Cu  Cu4  1  0.33692600  0.12942000  0.19764900  1
  C  C5  1  0.11687000  0.62474000  0.13980500  1
  C  C6  1  0.89055000  0.36667000  0.85289900  1
  C  C7  1  0.71023000  0.62904600  0.95083800  1
  C  C8  1  0.29420200  0.36372400  0.04830300  1
  C  C9  1  0.63782100  0.09191500  0.63255800  1
  C  C10  1  0.36660400  0.90585600  0.36233700  1
  C  C11  1  0.43571100  0.45449300  0.67482200  1
  C  C12  1  0.56100500  0.54598400  0.33257100  1
  C  C13  1  0.79981300  0.15313600  0.24813800  1
  C  C14  1  0.20422300  0.83330700  0.75866900  1
  C  C15  1  0.14300100  0.28923600  0.42530100  1
  C  C16  1  0.85888600  0.71997100  0.56317200  1
  C  C17  1  0.49732900  0.00842000  0.99726400  1
