# generated using pymatgen
data_Cu2Ni4C3
_symmetry_space_group_name_H-M   'P 1'
_cell_length_a   13.30855200
_cell_length_b   13.30855200
_cell_length_c   13.30855200
_cell_angle_alpha   90.00000000
_cell_angle_beta   90.00000000
_cell_angle_gamma   90.00000000
_symmetry_Int_Tables_number   1
_chemical_formula_structural   Cu2Ni4C3
_chemical_formula_sum   'Cu16 Ni32 C24'
_cell_volume   2357.17820862
_cell_formula_units_Z   8
loop_
 _symmetry_equiv_pos_site_id
 _symmetry_equiv_pos_as_xyz
  1  'x, y, z'
loop_
 _atom_site_type_symbol
 _atom_site_label
 _atom_site_symmetry_multiplicity
 _atom_site_fract_x
 _atom_site_fract_y
 _atom_site_fract_z
 _atom_site_occupancy
  Ni  Ni0  1  0.03396300  0.00089800  0.25605600  1
  Ni  Ni1  1  0.25605600  0.03396300  0.00089800  1
  Ni  Ni2  1  0.00089800  0.25605600  0.03396300  1
  Ni  Ni3  1  0.49910200  0.74394400  0.53396300  1
  Ni  Ni4  1  0.75605600  0.46603700  0.99910200  1
  Ni  Ni5  1  0.99910200  0.75605600  0.46603700  1
  Ni  Ni6  1  0.24394400  0.96603700  0.50089800  1
  Ni  Ni7  1  0.74394400  0.53396300  0.49910200  1
  Ni  Ni8  1  0.50089800  0.24394400  0.96603700  1
  Ni  Ni9  1  0.53396300  0.49910200  0.74394400  1
  Ni  Ni10  1  0.96603700  0.50089800  0.24394400  1
  Ni  Ni11  1  0.46603700  0.99910200  0.75605600  1
  Ni  Ni12  1  0.96603700  0.99910200  0.74394400  1
  Ni  Ni13  1  0.74394400  0.96603700  0.99910200  1
  Ni  Ni14  1  0.99910200  0.74394400  0.96603700  1
  Ni  Ni15  1  0.50089800  0.25605600  0.46603700  1
  Ni  Ni16  1  0.24394400  0.53396300  0.00089800  1
  Ni  Ni17  1  0.00089800  0.24394400  0.53396300  1
  Ni  Ni18  1  0.75605600  0.03396300  0.49910200  1
  Ni  Ni19  1  0.25605600  0.46603700  0.50089800  1
  Ni  Ni20  1  0.49910200  0.75605600  0.03396300  1
  Ni  Ni21  1  0.46603700  0.50089800  0.25605600  1
  Ni  Ni22  1  0.03396300  0.49910200  0.75605600  1
  Ni  Ni23  1  0.53396300  0.00089800  0.24394400  1
  Ni  Ni24  1  0.22143300  0.22143300  0.22143300  1
  Ni  Ni25  1  0.27856700  0.77856700  0.72143300  1
  Ni  Ni26  1  0.72143300  0.27856700  0.77856700  1
  Ni  Ni27  1  0.77856700  0.72143300  0.27856700  1
  Ni  Ni28  1  0.77856700  0.77856700  0.77856700  1
  Ni  Ni29  1  0.72143300  0.22143300  0.27856700  1
  Ni  Ni30  1  0.27856700  0.72143300  0.22143300  1
  Ni  Ni31  1  0.22143300  0.27856700  0.72143300  1
  Cu  Cu32  1  0.10828700  0.10828700  0.10828700  1
  Cu  Cu33  1  0.39171300  0.89171300  0.60828700  1
  Cu  Cu34  1  0.60828700  0.39171300  0.89171300  1
  Cu  Cu35  1  0.89171300  0.60828700  0.39171300  1
  Cu  Cu36  1  0.89171300  0.89171300  0.89171300  1
  Cu  Cu37  1  0.60828700  0.10828700  0.39171300  1
  Cu  Cu38  1  0.39171300  0.60828700  0.10828700  1
  Cu  Cu39  1  0.10828700  0.39171300  0.60828700  1
  Cu  Cu40  1  0.44656300  0.44656300  0.44656300  1
  Cu  Cu41  1  0.05343700  0.55343700  0.94656300  1
  Cu  Cu42  1  0.94656300  0.05343700  0.55343700  1
  Cu  Cu43  1  0.55343700  0.94656300  0.05343700  1
  Cu  Cu44  1  0.55343700  0.55343700  0.55343700  1
  Cu  Cu45  1  0.94656300  0.44656300  0.05343700  1
  Cu  Cu46  1  0.05343700  0.94656300  0.44656300  1
  Cu  Cu47  1  0.44656300  0.05343700  0.94656300  1
  C  C48  1  0.18611300  0.43815100  0.26212300  1
  C  C49  1  0.26212300  0.18611300  0.43815100  1
  C  C50  1  0.43815100  0.26212300  0.18611300  1
  C  C51  1  0.06184900  0.73787700  0.68611300  1
  C  C52  1  0.76212300  0.31388700  0.56184900  1
  C  C53  1  0.56184900  0.76212300  0.31388700  1
  C  C54  1  0.23787700  0.81388700  0.93815100  1
  C  C55  1  0.73787700  0.68611300  0.06184900  1
  C  C56  1  0.93815100  0.23787700  0.81388700  1
  C  C57  1  0.68611300  0.06184900  0.73787700  1
  C  C58  1  0.81388700  0.93815100  0.23787700  1
  C  C59  1  0.31388700  0.56184900  0.76212300  1
  C  C60  1  0.81388700  0.56184900  0.73787700  1
  C  C61  1  0.73787700  0.81388700  0.56184900  1
  C  C62  1  0.56184900  0.73787700  0.81388700  1
  C  C63  1  0.93815100  0.26212300  0.31388700  1
  C  C64  1  0.23787700  0.68611300  0.43815100  1
  C  C65  1  0.43815100  0.23787700  0.68611300  1
  C  C66  1  0.76212300  0.18611300  0.06184900  1
  C  C67  1  0.26212300  0.31388700  0.93815100  1
  C  C68  1  0.06184900  0.76212300  0.18611300  1
  C  C69  1  0.31388700  0.93815100  0.26212300  1
  C  C70  1  0.18611300  0.06184900  0.76212300  1
  C  C71  1  0.68611300  0.43815100  0.23787700  1
