# generated using pymatgen
data_Cu8Ni2C39
_symmetry_space_group_name_H-M   'P 1'
_cell_length_a   10.64000867
_cell_length_b   10.36087863
_cell_length_c   8.54648238
_cell_angle_alpha   92.17597197
_cell_angle_beta   87.10503928
_cell_angle_gamma   120.39363230
_symmetry_Int_Tables_number   1
_chemical_formula_structural   Cu8Ni2C39
_chemical_formula_sum   'Cu8 Ni2 C39'
_cell_volume   811.55985919
_cell_formula_units_Z   1
loop_
 _symmetry_equiv_pos_site_id
 _symmetry_equiv_pos_as_xyz
  1  'x, y, z'
loop_
 _atom_site_type_symbol
 _atom_site_label
 _atom_site_symmetry_multiplicity
 _atom_site_fract_x
 _atom_site_fract_y
 _atom_site_fract_z
 _atom_site_occupancy
  C  C0  1  0.03059900  0.66358800  0.16534700  1
  C  C1  1  0.72279400  0.98443700  0.13357400  1
  C  C2  1  0.41504000  0.12283700  0.83857700  1
  C  C3  1  0.05611000  0.01242500  0.03341800  1
  C  C4  1  0.90367200  0.31036900  0.83231900  1
  C  C5  1  0.68838200  0.59061400  0.86733000  1
  C  C6  1  0.31423300  0.42227600  0.12936100  1
  C  C7  1  0.98608400  0.99794500  0.56739600  1
  C  C8  1  0.39075700  0.93129700  0.12359900  1
  Ni  Ni9  1  0.34027200  0.69009000  0.45499800  1
  Ni  Ni10  1  0.67882200  0.34641400  0.51781800  1
  Cu  Cu11  1  0.00200500  0.33291700  0.36253800  1
  Cu  Cu12  1  0.01506000  0.68331900  0.63895600  1
  Cu  Cu13  1  0.32818900  0.03392900  0.40309400  1
  Cu  Cu14  1  0.63273900  0.30701600  0.15714000  1
  Cu  Cu15  1  0.65266300  0.99069000  0.63042700  1
  Cu  Cu16  1  0.32148400  0.65846500  0.82811300  1
  Cu  Cu17  1  0.67732300  0.67046600  0.36014700  1
  Cu  Cu18  1  0.32960200  0.34037900  0.62214000  1
  C  C19  1  0.46839200  0.81961000  0.64856900  1
  C  C20  1  0.67314700  0.49095600  0.33788200  1
  C  C21  1  0.73735500  0.99758900  0.44627000  1
  C  C22  1  0.50065000  0.65130300  0.32793200  1
  C  C23  1  0.17369900  0.49764200  0.91324500  1
  C  C24  1  0.15841100  0.52045600  0.32982500  1
  C  C25  1  0.25315300  0.97869200  0.59549700  1
  C  C26  1  0.37482100  0.87204900  0.34469100  1
  C  C27  1  0.50152500  0.34011800  0.06370200  1
  C  C28  1  0.85140800  0.49952600  0.65321400  1
  C  C29  1  0.33227600  0.52087100  0.62399000  1
  C  C30  1  0.83151000  0.33371100  0.36115200  1
  C  C31  1  0.02258900  0.27410300  0.54690500  1
  C  C32  1  0.72720000  0.73382700  0.55398600  1
  C  C33  1  0.30855600  0.80500900  0.94122000  1
  C  C34  1  0.80461700  0.42275900  0.05595400  1
  C  C35  1  0.24423300  0.99285600  0.20373400  1
  C  C36  1  0.00847600  0.75119400  0.45546100  1
  C  C37  1  0.57330500  0.11048700  0.06526800  1
  C  C38  1  0.76859900  0.00184000  0.78037600  1
  C  C39  1  0.00742800  0.21461600  0.20579700  1
  C  C40  1  0.52538800  0.19879000  0.36841000  1
  C  C41  1  0.51105300  0.37503600  0.65037200  1
  C  C42  1  0.17788100  0.66155700  0.64970900  1
  C  C43  1  0.27412600  0.22766300  0.44460000  1
  C  C44  1  0.64275200  0.16013400  0.65191400  1
  C  C45  1  0.80686300  0.79199600  0.21322200  1
  C  C46  1  0.99280700  0.78794200  0.79831900  1
  C  C47  1  0.47053400  0.66084700  0.91311600  1
  C  C48  1  0.22266400  0.22985000  0.78312600  1
