# generated using pymatgen
data_CuNi3C5
_symmetry_space_group_name_H-M   'P 1'
_cell_length_a   9.48574743
_cell_length_b   9.48574743
_cell_length_c   9.48574743
_cell_angle_alpha   126.15703282
_cell_angle_beta   126.15703282
_cell_angle_gamma   79.63019977
_symmetry_Int_Tables_number   1
_chemical_formula_structural   CuNi3C5
_chemical_formula_sum   'Cu2 Ni6 C10'
_cell_volume   537.59384720
_cell_formula_units_Z   2
loop_
 _symmetry_equiv_pos_site_id
 _symmetry_equiv_pos_as_xyz
  1  'x, y, z'
loop_
 _atom_site_type_symbol
 _atom_site_label
 _atom_site_symmetry_multiplicity
 _atom_site_fract_x
 _atom_site_fract_y
 _atom_site_fract_z
 _atom_site_occupancy
  Ni  Ni0  1  0.25000000  0.25000000  0.00000000  1
  Ni  Ni1  1  0.75000000  0.75000000  0.00000000  1
  Ni  Ni2  1  0.33551100  0.83551100  0.17102300  1
  Ni  Ni3  1  0.83551100  0.66448900  0.50000000  1
  Ni  Ni4  1  0.16448900  0.33551100  0.50000000  1
  Ni  Ni5  1  0.66448900  0.16448900  0.82897700  1
  Cu  Cu6  1  0.75000000  0.25000000  0.50000000  1
  Cu  Cu7  1  0.25000000  0.75000000  0.50000000  1
  C  C8  1  0.00000000  0.00000000  0.00000000  1
  C  C9  1  0.50000000  0.50000000  0.00000000  1
  C  C10  1  0.00874200  0.50874200  0.20564900  1
  C  C11  1  0.69690600  0.19690600  0.20564900  1
  C  C12  1  0.99125800  0.49125800  0.79435100  1
  C  C13  1  0.49125800  0.69690600  0.50000000  1
  C  C14  1  0.19690600  0.99125800  0.50000000  1
  C  C15  1  0.50874200  0.30309400  0.50000000  1
  C  C16  1  0.30309400  0.80309400  0.79435100  1
  C  C17  1  0.80309400  0.00874200  0.50000000  1
