# generated using pymatgen
data_CuNiC11
_symmetry_space_group_name_H-M   'P 1'
_cell_length_a   8.95621667
_cell_length_b   8.93041621
_cell_length_c   22.54086932
_cell_angle_alpha   90.17789729
_cell_angle_beta   90.09845831
_cell_angle_gamma   120.08110643
_symmetry_Int_Tables_number   1
_chemical_formula_structural   CuNiC11
_chemical_formula_sum   'Cu9 Ni9 C99'
_cell_volume   1560.04404270
_cell_formula_units_Z   9
loop_
 _symmetry_equiv_pos_site_id
 _symmetry_equiv_pos_as_xyz
  1  'x, y, z'
loop_
 _atom_site_type_symbol
 _atom_site_label
 _atom_site_symmetry_multiplicity
 _atom_site_fract_x
 _atom_site_fract_y
 _atom_site_fract_z
 _atom_site_occupancy
  C  C0  1  0.64039666  0.01359343  0.25299800  1
  C  C1  1  0.00165568  0.63263416  0.24352093  1
  C  C2  1  0.63099344  0.63066111  0.74450082  1
  C  C3  1  0.99776110  0.35384238  0.74646625  1
  C  C4  1  0.30598325  0.34504167  0.58590969  1
  C  C5  1  0.66853971  0.96574469  0.57862306  1
  C  C6  1  0.29713734  0.95810811  0.07988152  1
  C  C7  1  0.69148953  0.02728653  0.91191066  1
  C  C8  1  0.96313740  0.29097063  0.41378522  1
  C  C9  1  0.98393548  0.97279634  0.49608320  1
  C  C10  1  0.00779190  0.98925182  0.99642746  1
  C  C11  1  0.63508296  0.31232758  0.83013614  1
  C  C12  1  0.64017723  0.31843402  0.33128987  1
  C  C13  1  0.31631572  0.63865765  0.16272321  1
  C  C14  1  0.32709405  0.66921131  0.66343912  1
  C  C15  1  0.00291571  0.00354969  0.34941940  1
  C  C16  1  0.02020102  0.00919817  0.85061313  1
  C  C17  1  0.66246224  0.32895998  0.68335754  1
  C  C18  1  0.66915610  0.33569094  0.18341453  1
  C  C19  1  0.31942274  0.66278191  0.01716952  1
  C  C20  1  0.33725070  0.66949814  0.51656269  1
  C  C21  1  0.99558124  0.00158755  0.64982394  1
  C  C22  1  0.00548445  0.00413305  0.14975234  1
  C  C23  1  0.67160339  0.34531824  0.98258867  1
  C  C24  1  0.67080798  0.33597160  0.48304639  1
  C  C25  1  0.33691068  0.67231386  0.31593913  1
  C  C26  1  0.33818713  0.67900483  0.81609914  1
  Ni  Ni27  1  0.29716085  0.00516689  0.25061979  1
  Ni  Ni28  1  0.99853589  0.29504836  0.25225376  1
  Ni  Ni29  1  0.29910520  0.29616929  0.75009963  1
  Ni  Ni30  1  0.70608809  0.00333638  0.75262503  1
  Ni  Ni31  1  0.96624446  0.33980720  0.58472510  1
  Ni  Ni32  1  0.66578944  0.62735307  0.58524758  1
  Ni  Ni33  1  0.96392129  0.62888133  0.08652978  1
  Ni  Ni34  1  0.33097341  0.96397914  0.92072949  1
  Ni  Ni35  1  0.63363687  0.96294115  0.41840755  1
  Cu  Cu36  1  0.70757212  0.70569560  0.25074424  1
  Cu  Cu37  1  0.99852087  0.70654271  0.75099540  1
  Cu  Cu38  1  0.37235371  0.03777444  0.58352158  1
  Cu  Cu39  1  0.66658376  0.03674980  0.08314066  1
  Cu  Cu40  1  0.37658607  0.33880475  0.08397015  1
  Cu  Cu41  1  0.62748885  0.66880201  0.91690087  1
  Cu  Cu42  1  0.03903931  0.36998737  0.91663412  1
  Cu  Cu43  1  0.33262634  0.37105617  0.41789058  1
  Cu  Cu44  1  0.04146038  0.67103473  0.41711437  1
  C  C45  1  0.20441380  0.02121429  0.30433319  1
  C  C46  1  0.81506687  0.78644563  0.30348851  1
  C  C47  1  0.96834676  0.18615731  0.30831421  1
  C  C48  1  0.20814539  0.18429023  0.80321764  1
  C  C49  1  0.97329441  0.78871965  0.80343063  1
  C  C50  1  0.81530522  0.02469212  0.80809415  1
  C  C51  1  0.78861638  0.97003195  0.69615468  1
  C  C52  1  0.19002365  0.21648280  0.69202716  1
  C  C53  1  0.02583737  0.81079068  0.69697337  1
  C  C54  1  0.78608268  0.81527640  0.19739936  1
  C  C55  1  0.01992670  0.20254310  0.19729476  1
  C  C56  1  0.18557835  0.96911723  0.19299176  1
  C  C57  1  0.88006275  0.35618887  0.64096459  1
  C  C58  1  0.48085473  0.11802065  0.63631418  1
  C  C59  1  0.63743333  0.51916566  0.64136257  1
  C  C60  1  0.87978160  0.52849587  0.14332212  1
  C  C61  1  0.63999044  0.11903193  0.13626639  1
  C  C62  1  0.47802873  0.35804844  0.13727916  1
  C  C63  1  0.45593081  0.30689795  0.03064956  1
  C  C64  1  0.84917817  0.53507600  0.03155905  1
  C  C65  1  0.68755663  0.14134753  0.02900662  1
  C  C66  1  0.45167489  0.14745203  0.53030891  1
  C  C67  1  0.68425797  0.53357350  0.53024603  1
  C  C68  1  0.84974135  0.30535855  0.52870801  1
  C  C69  1  0.53844898  0.68988612  0.96838962  1
  C  C70  1  0.14660161  0.45659067  0.96844108  1
  C  C71  1  0.31533929  0.86165465  0.97727475  1
  C  C72  1  0.54440687  0.85935221  0.47417792  1
  C  C73  1  0.30767182  0.45080669  0.47201763  1
  C  C74  1  0.14648549  0.68837697  0.46914220  1
  C  C75  1  0.11747138  0.64059517  0.36210895  1
  C  C76  1  0.52486089  0.87537442  0.36116760  1
  C  C77  1  0.35294766  0.47875924  0.36515519  1
  C  C78  1  0.11613837  0.46962144  0.86131065  1
  C  C79  1  0.36287003  0.87299540  0.86624548  1
  C  C80  1  0.52593188  0.64311053  0.86113789  1
  C  C81  1  0.02060766  0.82363536  0.41087284  1
  C  C82  1  0.81751646  0.98799161  0.41315834  1
  C  C83  1  0.17474210  0.19810904  0.41186216  1
  C  C84  1  0.01100487  0.19133882  0.91245826  1
  C  C85  1  0.17132743  0.98215285  0.91265708  1
  C  C86  1  0.79908104  0.82811306  0.91174459  1
  C  C87  1  0.98263955  0.17071564  0.58758044  1
  C  C88  1  0.20007295  0.02360224  0.58908114  1
  C  C89  1  0.82843605  0.81225944  0.58811488  1
  C  C90  1  0.98694380  0.81592488  0.08771764  1
  C  C91  1  0.82279242  0.02057690  0.08826200  1
  C  C92  1  0.20185405  0.17705012  0.08763817  1
  C  C93  1  0.69366726  0.16793282  0.74495625  1
  C  C94  1  0.48475791  0.32895105  0.74467505  1
  C  C95  1  0.84291904  0.53116225  0.74510052  1
  C  C96  1  0.68861537  0.53222749  0.24359775  1
  C  C97  1  0.83717947  0.31699822  0.24518281  1
  C  C98  1  0.48175973  0.16020501  0.24356909  1
  C  C99  1  0.64729919  0.51352659  0.92147901  1
  C  C100  1  0.86226886  0.35047874  0.92168860  1
  C  C101  1  0.50355788  0.14456216  0.92340284  1
  C  C102  1  0.65493016  0.14957231  0.42081155  1
  C  C103  1  0.48836187  0.35344789  0.42185408  1
  C  C104  1  0.86751385  0.50866148  0.42119875  1
  C  C105  1  0.35674326  0.49209358  0.07611568  1
  C  C106  1  0.14767854  0.65320450  0.08039095  1
  C  C107  1  0.50962387  0.86262820  0.07741570  1
  C  C108  1  0.35517379  0.86490119  0.57637384  1
  C  C109  1  0.50489068  0.65074350  0.57887957  1
  C  C110  1  0.14980821  0.49541761  0.57705894  1
  C  C111  1  0.31546984  0.83695175  0.25522840  1
  C  C112  1  0.53421590  0.69109773  0.25588575  1
  C  C113  1  0.16047428  0.48029142  0.25626504  1
  C  C114  1  0.30992049  0.47877227  0.75525934  1
  C  C115  1  0.15094505  0.68045480  0.75625602  1
  C  C116  1  0.52520909  0.83443882  0.75563311  1
