# generated using pymatgen
data_Cu6NiC7
_symmetry_space_group_name_H-M   'P 1'
_cell_length_a   5.52959372
_cell_length_b   5.52959372
_cell_length_c   5.52959442
_cell_angle_alpha   101.57625871
_cell_angle_beta   101.57625871
_cell_angle_gamma   101.57625835
_symmetry_Int_Tables_number   1
_chemical_formula_structural   Cu6NiC7
_chemical_formula_sum   'Cu6 Ni1 C7'
_cell_volume   157.06983090
_cell_formula_units_Z   1
loop_
 _symmetry_equiv_pos_site_id
 _symmetry_equiv_pos_as_xyz
  1  'x, y, z'
loop_
 _atom_site_type_symbol
 _atom_site_label
 _atom_site_symmetry_multiplicity
 _atom_site_fract_x
 _atom_site_fract_y
 _atom_site_fract_z
 _atom_site_occupancy
  Ni  Ni0  1  0.50000000  0.50000000  0.50000000  1
  Cu  Cu1  1  0.65646200  0.00000000  0.34353800  1
  Cu  Cu2  1  0.00000000  0.34353800  0.65646200  1
  Cu  Cu3  1  0.65646200  0.34353800  0.00000000  1
  Cu  Cu4  1  0.00000000  0.65646200  0.34353800  1
  Cu  Cu5  1  0.34353800  0.00000000  0.65646200  1
  Cu  Cu6  1  0.34353800  0.65646200  0.00000000  1
  C  C7  1  0.00000000  0.00000000  0.00000000  1
  C  C8  1  0.09139500  0.71991100  0.71991100  1
  C  C9  1  0.71991100  0.09139500  0.71991100  1
  C  C10  1  0.28008900  0.28008900  0.90860500  1
  C  C11  1  0.90860500  0.28008900  0.28008900  1
  C  C12  1  0.28008900  0.90860500  0.28008900  1
  C  C13  1  0.71991100  0.71991100  0.09139500  1
