# generated using pymatgen
data_Cu3(NiC3)2
_symmetry_space_group_name_H-M   'P 1'
_cell_length_a   8.38729000
_cell_length_b   9.78145600
_cell_length_c   9.97059900
_cell_angle_alpha   90.00000000
_cell_angle_beta   90.00000000
_cell_angle_gamma   90.00000000
_symmetry_Int_Tables_number   1
_chemical_formula_structural   Cu3(NiC3)2
_chemical_formula_sum   'Cu24 Ni16 C48'
_cell_volume   817.98702560
_cell_formula_units_Z   8
loop_
 _symmetry_equiv_pos_site_id
 _symmetry_equiv_pos_as_xyz
  1  'x, y, z'
loop_
 _atom_site_type_symbol
 _atom_site_label
 _atom_site_symmetry_multiplicity
 _atom_site_fract_x
 _atom_site_fract_y
 _atom_site_fract_z
 _atom_site_occupancy
  C  C0  1  0.52585300  0.83185700  0.44569100  1
  C  C1  1  0.02585300  0.66814300  0.05430900  1
  C  C2  1  0.47414700  0.83185700  0.05430900  1
  C  C3  1  0.97414700  0.66814300  0.44569100  1
  C  C4  1  0.47414700  0.16814300  0.55430900  1
  C  C5  1  0.97414700  0.33185700  0.94569100  1
  C  C6  1  0.52585300  0.16814300  0.94569100  1
  C  C7  1  0.02585300  0.33185700  0.55430900  1
  Ni  Ni8  1  0.25000000  0.75000000  0.26530600  1
  Ni  Ni9  1  0.75000000  0.75000000  0.23469400  1
  Ni  Ni10  1  0.75000000  0.25000000  0.73469400  1
  Ni  Ni11  1  0.25000000  0.25000000  0.76530600  1
  Ni  Ni12  1  0.72514900  0.53999400  0.09598600  1
  Ni  Ni13  1  0.22514900  0.96000600  0.40401400  1
  Ni  Ni14  1  0.27485100  0.53999400  0.40401400  1
  Ni  Ni15  1  0.77485100  0.96000600  0.09598600  1
  Ni  Ni16  1  0.27485100  0.46000600  0.90401400  1
  Ni  Ni17  1  0.77485100  0.03999400  0.59598600  1
  Ni  Ni18  1  0.72514900  0.46000600  0.59598600  1
  Ni  Ni19  1  0.22514900  0.03999400  0.90401400  1
  Ni  Ni20  1  0.50000000  0.60762600  0.25000000  1
  Ni  Ni21  1  0.00000000  0.89237400  0.25000000  1
  Ni  Ni22  1  0.50000000  0.39237400  0.75000000  1
  Ni  Ni23  1  0.00000000  0.10762600  0.75000000  1
  Cu  Cu24  1  0.70865100  0.40667700  0.93794600  1
  Cu  Cu25  1  0.20865100  0.09332300  0.56205400  1
  Cu  Cu26  1  0.29134900  0.40667700  0.56205400  1
  Cu  Cu27  1  0.79134900  0.09332300  0.93794600  1
  Cu  Cu28  1  0.29134900  0.59332300  0.06205400  1
  Cu  Cu29  1  0.79134900  0.90667700  0.43794600  1
  Cu  Cu30  1  0.70865100  0.59332300  0.43794600  1
  Cu  Cu31  1  0.20865100  0.90667700  0.06205400  1
  Cu  Cu32  1  0.40594800  0.23575500  0.18302500  1
  Cu  Cu33  1  0.90594800  0.26424500  0.31697500  1
  Cu  Cu34  1  0.59405200  0.23575500  0.31697500  1
  Cu  Cu35  1  0.09405200  0.26424500  0.18302500  1
  Cu  Cu36  1  0.59405200  0.76424500  0.81697500  1
  Cu  Cu37  1  0.09405200  0.73575500  0.68302500  1
  Cu  Cu38  1  0.40594800  0.76424500  0.68302500  1
  Cu  Cu39  1  0.90594800  0.73575500  0.81697500  1
  Cu  Cu40  1  0.50152800  0.36239900  0.12477300  1
  Cu  Cu41  1  0.00152800  0.13760100  0.37522700  1
  Cu  Cu42  1  0.49847200  0.36239900  0.37522700  1
  Cu  Cu43  1  0.99847200  0.13760100  0.12477300  1
  Cu  Cu44  1  0.49847200  0.63760100  0.87522700  1
  Cu  Cu45  1  0.99847200  0.86239900  0.62477300  1
  Cu  Cu46  1  0.50152800  0.63760100  0.62477300  1
  Cu  Cu47  1  0.00152800  0.86239900  0.87522700  1
  C  C48  1  0.52720200  0.73581200  0.89148200  1
  C  C49  1  0.02720200  0.76418800  0.60851800  1
  C  C50  1  0.47279800  0.73581200  0.60851800  1
  C  C51  1  0.97279800  0.76418800  0.89148200  1
  C  C52  1  0.47279800  0.26418800  0.10851800  1
  C  C53  1  0.97279800  0.23581200  0.39148200  1
  C  C54  1  0.52720200  0.26418800  0.39148200  1
  C  C55  1  0.02720200  0.23581200  0.10851800  1
  C  C56  1  0.78776400  0.45897800  0.99416500  1
  C  C57  1  0.28776400  0.04102200  0.50583500  1
  C  C58  1  0.21223600  0.45897800  0.50583500  1
  C  C59  1  0.71223600  0.04102200  0.99416500  1
  C  C60  1  0.21223600  0.54102200  0.00583500  1
  C  C61  1  0.71223600  0.95897800  0.49416500  1
  C  C62  1  0.78776400  0.54102200  0.49416500  1
  C  C63  1  0.28776400  0.95897800  0.00583500  1
  C  C64  1  0.57479900  0.51723400  0.14704000  1
  C  C65  1  0.07479900  0.98276600  0.35296000  1
  C  C66  1  0.42520100  0.51723400  0.35296000  1
  C  C67  1  0.92520100  0.98276600  0.14704000  1
  C  C68  1  0.42520100  0.48276600  0.85296000  1
  C  C69  1  0.92520100  0.01723400  0.64704000  1
  C  C70  1  0.57479900  0.48276600  0.64704000  1
  C  C71  1  0.07479900  0.01723400  0.85296000  1
  C  C72  1  0.62301600  0.69167600  0.31867900  1
  C  C73  1  0.12301600  0.80832400  0.18132100  1
  C  C74  1  0.37698400  0.69167600  0.18132100  1
  C  C75  1  0.87698400  0.80832400  0.31867900  1
  C  C76  1  0.37698400  0.30832400  0.68132100  1
  C  C77  1  0.87698400  0.19167600  0.81867900  1
  C  C78  1  0.62301600  0.30832400  0.81867900  1
  C  C79  1  0.12301600  0.19167600  0.68132100  1
  C  C80  1  0.82081500  0.64128500  0.14604000  1
  C  C81  1  0.32081500  0.85871500  0.35396000  1
  C  C82  1  0.17918500  0.64128500  0.35396000  1
  C  C83  1  0.67918500  0.85871500  0.14604000  1
  C  C84  1  0.17918500  0.35871500  0.85396000  1
  C  C85  1  0.67918500  0.14128500  0.64604000  1
  C  C86  1  0.82081500  0.35871500  0.64604000  1
  C  C87  1  0.32081500  0.14128500  0.85396000  1
