# generated using pymatgen
data_Cu2Ni2C9
_symmetry_space_group_name_H-M   'P 1'
_cell_length_a   3.33499414
_cell_length_b   3.33450803
_cell_length_c   45.71944451
_cell_angle_alpha   89.98307974
_cell_angle_beta   90.01292022
_cell_angle_gamma   120.03515251
_symmetry_Int_Tables_number   1
_chemical_formula_structural   Cu2Ni2C9
_chemical_formula_sum   'Cu2 Ni2 C9'
_cell_volume   440.15379823
_cell_formula_units_Z   1
loop_
 _symmetry_equiv_pos_site_id
 _symmetry_equiv_pos_as_xyz
  1  'x, y, z'
loop_
 _atom_site_type_symbol
 _atom_site_label
 _atom_site_symmetry_multiplicity
 _atom_site_fract_x
 _atom_site_fract_y
 _atom_site_fract_z
 _atom_site_occupancy
  C  C0  1  0.00000000  0.00004600  0.56337300  1
  C  C1  1  0.66661700  0.33351500  0.05234700  1
  C  C2  1  0.66669300  0.33334600  0.13543200  1
  Ni  Ni3  1  0.33335600  0.66652200  0.09387500  1
  Ni  Ni4  1  0.66669300  0.33348200  0.28180700  1
  Cu  Cu5  1  0.33336900  0.66639700  0.46228300  1
  Cu  Cu6  1  0.66660800  0.33351000  0.66524200  1
  C  C7  1  0.33335100  0.66661400  0.70184100  1
  C  C8  1  0.66663600  0.33333400  0.42565400  1
  C  C9  1  0.66672300  0.33306500  0.49931900  1
  C  C10  1  0.33323300  0.66677200  0.62821500  1
  C  C11  1  0.33341500  0.66662900  0.31502300  1
  C  C12  1  0.33330800  0.66676500  0.24857500  1
