# generated using pymatgen
data_Cu6Ni2C13
_symmetry_space_group_name_H-M   'P 1'
_cell_length_a   7.88405482
_cell_length_b   7.88405482
_cell_length_c   4.03028000
_cell_angle_alpha   90.00000000
_cell_angle_beta   90.00000000
_cell_angle_gamma   120.00000691
_symmetry_Int_Tables_number   1
_chemical_formula_structural   Cu6Ni2C13
_chemical_formula_sum   'Cu6 Ni2 C13'
_cell_volume   216.95271633
_cell_formula_units_Z   1
loop_
 _symmetry_equiv_pos_site_id
 _symmetry_equiv_pos_as_xyz
  1  'x, y, z'
loop_
 _atom_site_type_symbol
 _atom_site_label
 _atom_site_symmetry_multiplicity
 _atom_site_fract_x
 _atom_site_fract_y
 _atom_site_fract_z
 _atom_site_occupancy
  C  C0  1  0.00000000  0.00000000  0.00000000  1
  C  C1  1  0.11383200  0.76568400  0.51937800  1
  C  C2  1  0.23431600  0.34814900  0.51937800  1
  C  C3  1  0.65185100  0.88616800  0.51937800  1
  C  C4  1  0.34814900  0.23431600  0.48062200  1
  C  C5  1  0.88616800  0.65185100  0.48062200  1
  C  C6  1  0.76568400  0.11383200  0.48062200  1
  C  C7  1  0.10013600  0.43614800  0.09961800  1
  C  C8  1  0.56385200  0.66398800  0.09961800  1
  C  C9  1  0.33601200  0.89986400  0.09961800  1
  C  C10  1  0.43614800  0.10013600  0.90038200  1
  C  C11  1  0.89986400  0.33601200  0.90038200  1
  C  C12  1  0.66398800  0.56385200  0.90038200  1
  Ni  Ni13  1  0.66666700  0.33333300  0.60060800  1
  Ni  Ni14  1  0.33333300  0.66666700  0.39939200  1
  Cu  Cu15  1  0.21469800  0.21469800  0.50000000  1
  Cu  Cu16  1  0.00000000  0.78530200  0.50000000  1
  Cu  Cu17  1  0.78530200  0.00000000  0.50000000  1
  Cu  Cu18  1  0.68850700  0.68850700  0.00000000  1
  Cu  Cu19  1  0.00000000  0.31149300  0.00000000  1
  Cu  Cu20  1  0.31149300  0.00000000  0.00000000  1
