# generated using pymatgen
data_Cu9Ni2C71
_symmetry_space_group_name_H-M   'P 1'
_cell_length_a   18.48523762
_cell_length_b   9.26099927
_cell_length_c   22.92035141
_cell_angle_alpha   90.11768238
_cell_angle_beta   90.12978012
_cell_angle_gamma   120.03742329
_symmetry_Int_Tables_number   1
_chemical_formula_structural   Cu9Ni2C71
_chemical_formula_sum   'Cu27 Ni6 C213'
_cell_volume   3396.77543316
_cell_formula_units_Z   3
loop_
 _symmetry_equiv_pos_site_id
 _symmetry_equiv_pos_as_xyz
  1  'x, y, z'
loop_
 _atom_site_type_symbol
 _atom_site_label
 _atom_site_symmetry_multiplicity
 _atom_site_fract_x
 _atom_site_fract_y
 _atom_site_fract_z
 _atom_site_occupancy
  C  C0  1  0.31296177  0.00422155  0.24510681  1
  C  C1  1  0.81750787  0.01836783  0.24675190  1
  C  C2  1  0.18790465  0.36458666  0.25027164  1
  C  C3  1  0.69543588  0.36627142  0.24865111  1
  C  C4  1  0.99061394  0.61796027  0.25159488  1
  C  C5  1  0.49445392  0.63381900  0.24756401  1
  C  C6  1  0.31802473  0.61558778  0.74096824  1
  C  C7  1  0.81335886  0.62234259  0.74157080  1
  C  C8  1  0.99175121  0.34875682  0.74274476  1
  C  C9  1  0.49163505  0.36721917  0.74843841  1
  C  C10  1  0.19613278  0.02892743  0.74463104  1
  C  C11  1  0.69013425  0.01178377  0.74693382  1
  C  C12  1  0.15485826  0.33782278  0.58639509  1
  C  C13  1  0.65774251  0.35709376  0.57859040  1
  C  C14  1  0.01063968  0.69236738  0.57999408  1
  C  C15  1  0.51701541  0.69315425  0.57420999  1
  C  C16  1  0.32976358  0.96600438  0.58443539  1
  C  C17  1  0.82736977  0.94983825  0.57459621  1
  C  C18  1  0.15714428  0.96135507  0.08395698  1
  C  C19  1  0.65633203  0.97307592  0.08889100  1
  C  C20  1  0.33094463  0.70387365  0.08405616  1
  C  C21  1  0.82958200  0.69362256  0.08716693  1
  C  C22  1  0.01420127  0.33470395  0.07899250  1
  C  C23  1  0.51335567  0.33138779  0.08358150  1
  C  C24  1  0.98466826  0.67035664  0.91861809  1
  C  C25  1  0.34965892  0.03796076  0.91469221  1
  C  C26  1  0.16328446  0.29277621  0.91608199  1
  C  C27  1  0.48753256  0.30390080  0.41865467  1
  C  C28  1  0.66904642  0.03247933  0.41569197  1
  C  C29  1  0.84811371  0.66967482  0.41946203  1
  C  C30  1  0.99824361  0.99615801  0.49628090  1
  C  C31  1  0.49329619  0.98503535  0.49359911  1
  C  C32  1  0.99060521  0.99946490  0.99525584  1
  C  C33  1  0.50654754  0.01314740  0.00238841  1
  C  C34  1  0.33754398  0.33673034  0.82320790  1
  C  C35  1  0.82840406  0.32244357  0.82923750  1
  C  C36  1  0.32885837  0.33469838  0.33038890  1
  C  C37  1  0.83631672  0.33019309  0.32812757  1
  C  C38  1  0.17124870  0.67634227  0.16890588  1
  C  C39  1  0.67086717  0.67812468  0.16770975  1
  C  C40  1  0.16984664  0.66240975  0.66184182  1
  C  C41  1  0.67322226  0.66719230  0.66338050  1
  C  C42  1  0.99794131  0.99616958  0.34994623  1
  C  C43  1  0.49736954  0.97904807  0.35583400  1
  C  C44  1  0.99629792  0.01468790  0.85576321  1
  C  C45  1  0.50449957  0.01026384  0.84750572  1
  C  C46  1  0.99675345  0.00832948  0.64465334  1
  C  C47  1  0.49660805  0.98979877  0.65302071  1
  C  C48  1  0.99621486  0.00262342  0.15433860  1
  C  C49  1  0.49779478  0.98699047  0.14639022  1
  C  C50  1  0.34223908  0.33046038  0.98121834  1
  C  C51  1  0.82945367  0.32307882  0.98013283  1
  C  C52  1  0.32970143  0.33564984  0.48009170  1
  C  C53  1  0.84283207  0.34723437  0.47746659  1
  C  C54  1  0.66828641  0.65652910  0.01942379  1
  C  C55  1  0.16827939  0.67941872  0.51879431  1
  C  C56  1  0.16631269  0.67949620  0.31315129  1
  C  C57  1  0.67108672  0.67666435  0.31972227  1
  C  C58  1  0.16596097  0.66876691  0.81613755  1
  C  C59  1  0.66624881  0.65339916  0.81290712  1
  Ni  Ni60  1  0.32301986  0.33199711  0.68562853  1
  Ni  Ni61  1  0.83384650  0.33566753  0.67875244  1
  Ni  Ni62  1  0.33363625  0.33006445  0.18182829  1
  Ni  Ni63  1  0.82279044  0.31413789  0.18771256  1
  Ni  Ni64  1  0.16485248  0.68102954  0.01039423  1
  Ni  Ni65  1  0.67429140  0.66328032  0.50275427  1
  Cu  Cu66  1  0.14934109  0.00752640  0.24786551  1
  Cu  Cu67  1  0.64607281  0.99606464  0.25114290  1
  Cu  Cu68  1  0.35124491  0.69875464  0.24816194  1
  Cu  Cu69  1  0.84915504  0.69740001  0.25005177  1
  Cu  Cu70  1  0.00021582  0.29913888  0.25041077  1
  Cu  Cu71  1  0.14621640  0.29368576  0.75198198  1
  Cu  Cu72  1  0.65097361  0.29502704  0.74640393  1
  Cu  Cu73  1  0.49987066  0.70246883  0.75139846  1
  Cu  Cu74  1  0.35074109  0.00052988  0.75107385  1
  Cu  Cu75  1  0.85110886  0.00332532  0.74867366  1
  Cu  Cu76  1  0.97920723  0.33758044  0.58643082  1
  Cu  Cu77  1  0.18894732  0.04442517  0.58733660  1
  Cu  Cu78  1  0.33519367  0.62783367  0.58565916  1
  Cu  Cu79  1  0.82878697  0.62298871  0.58665113  1
  Cu  Cu80  1  0.47868390  0.62170807  0.08587232  1
  Cu  Cu81  1  0.32881524  0.02942613  0.08569663  1
  Cu  Cu82  1  0.83567152  0.04276775  0.08510218  1
  Cu  Cu83  1  0.68872172  0.33272448  0.08682758  1
  Cu  Cu84  1  0.81437721  0.66334678  0.91665719  1
  Cu  Cu85  1  0.02245855  0.38245101  0.92158070  1
  Cu  Cu86  1  0.52037787  0.36754997  0.91615308  1
  Cu  Cu87  1  0.16579241  0.96415656  0.91832189  1
  Cu  Cu88  1  0.31467329  0.96529832  0.41680643  1
  Cu  Cu89  1  0.81777284  0.96743932  0.42022578  1
  Cu  Cu90  1  0.66460174  0.36892369  0.41825872  1
  Cu  Cu91  1  0.02166481  0.67424126  0.41588155  1
  Cu  Cu92  1  0.52150464  0.66118300  0.42104745  1
  C  C93  1  0.50061865  0.29149482  0.25059680  1
  C  C94  1  0.00107449  0.71031036  0.75154271  1
  C  C95  1  0.47984197  0.33305530  0.58505770  1
  C  C96  1  0.68489223  0.03874588  0.58445025  1
  C  C97  1  0.98036324  0.62708034  0.08406256  1
  C  C98  1  0.18603266  0.33346699  0.08266369  1
  C  C99  1  0.31384146  0.66671137  0.91815716  1
  C  C100  1  0.66496361  0.95663897  0.91662173  1
  C  C101  1  0.16605668  0.37503345  0.41648590  1
  C  C102  1  0.09962917  0.03228401  0.30231559  1
  C  C103  1  0.59860521  0.02206610  0.30701004  1
  C  C104  1  0.41420378  0.80085586  0.30244898  1
  C  C105  1  0.90988576  0.79551968  0.30619112  1
  C  C106  1  0.49080734  0.18862490  0.30270613  1
  C  C107  1  0.98649607  0.17035109  0.30336900  1
  C  C108  1  0.09964318  0.17496012  0.80862310  1
  C  C109  1  0.60115292  0.17253230  0.80244199  1
  C  C110  1  0.48612526  0.80328066  0.80559470  1
  C  C111  1  0.99217488  0.79394996  0.80408146  1
  C  C112  1  0.40982598  0.02119846  0.80850959  1
  C  C113  1  0.91388906  0.02810754  0.80361301  1
  C  C114  1  0.39488002  0.96459063  0.69388136  1
  C  C115  1  0.89396395  0.96396821  0.69199263  1
  C  C116  1  0.08649038  0.20574471  0.69412899  1
  C  C117  1  0.58877615  0.20744229  0.68950213  1
  C  C118  1  0.01431422  0.81231066  0.69837297  1
  C  C119  1  0.51733499  0.82464680  0.69315498  1
  C  C120  1  0.39293106  0.82135875  0.19023658  1
  C  C121  1  0.89400643  0.82303471  0.19243379  1
  C  C122  1  0.01844093  0.21433036  0.19087645  1
  C  C123  1  0.51169318  0.21148644  0.19689381  1
  C  C124  1  0.08976255  0.97133123  0.18835343  1
  C  C125  1  0.58709095  0.97030143  0.19263992  1
  C  C126  1  0.43952919  0.35119192  0.63769652  1
  C  C127  1  0.94412159  0.37534257  0.64588629  1
  C  C128  1  0.24662301  0.11431848  0.64521014  1
  C  C129  1  0.73510628  0.11553423  0.63792817  1
  C  C130  1  0.31788337  0.51983065  0.64460857  1
  C  C131  1  0.81441300  0.51042078  0.64476734  1
  C  C132  1  0.44128816  0.50819045  0.14352469  1
  C  C133  1  0.94079061  0.52893876  0.13632714  1
  C  C134  1  0.31132494  0.11392678  0.14186259  1
  C  C135  1  0.81806394  0.11817078  0.14328512  1
  C  C136  1  0.23648963  0.35701614  0.13554082  1
  C  C137  1  0.74703330  0.37793222  0.14391108  1
  C  C138  1  0.22653543  0.31093761  0.02918766  1
  C  C139  1  0.73371715  0.30092365  0.02967595  1
  C  C140  1  0.41505997  0.53345777  0.02948625  1
  C  C141  1  0.92819052  0.54826834  0.03016502  1
  C  C142  1  0.34560435  0.15182765  0.02690935  1
  C  C143  1  0.85250164  0.16719448  0.02865195  1
  C  C144  1  0.23429749  0.16744461  0.53095387  1
  C  C145  1  0.72471942  0.14202182  0.53175547  1
  C  C146  1  0.35213449  0.53653694  0.52975467  1
  C  C147  1  0.84523715  0.53434130  0.52867747  1
  C  C148  1  0.42689864  0.30577840  0.53144276  1
  C  C149  1  0.91609651  0.30032035  0.53100452  1
  C  C150  1  0.27644946  0.69373095  0.97084069  1
  C  C151  1  0.77061403  0.69225523  0.97437053  1
  C  C152  1  0.08209861  0.46127612  0.97857249  1
  C  C153  1  0.57519111  0.46074330  0.97441727  1
  C  C154  1  0.14855698  0.85318704  0.97632896  1
  C  C155  1  0.65600032  0.85876646  0.96996513  1
  C  C156  1  0.27101573  0.84936179  0.47463891  1
  C  C157  1  0.77975036  0.85308490  0.47787800  1
  C  C158  1  0.15760407  0.45632106  0.47006597  1
  C  C159  1  0.64225674  0.43874690  0.47640600  1
  C  C160  1  0.07616507  0.68812457  0.47438540  1
  C  C161  1  0.57849880  0.69751008  0.47910883  1
  C  C162  1  0.06510985  0.64467166  0.35825186  1
  C  C163  1  0.56363400  0.63237971  0.36119396  1
  C  C164  1  0.25755060  0.87315269  0.35885040  1
  C  C165  1  0.75676967  0.87711974  0.36153456  1
  C  C166  1  0.17695181  0.47652957  0.36363277  1
  C  C167  1  0.68200970  0.49181427  0.36081531  1
  C  C168  1  0.06749077  0.49772559  0.86255699  1
  C  C169  1  0.56377370  0.48039709  0.85816423  1
  C  C170  1  0.18507014  0.87576744  0.86150466  1
  C  C171  1  0.67551913  0.87720339  0.86364141  1
  C  C172  1  0.26074880  0.64313566  0.86489809  1
  C  C173  1  0.75703621  0.64146555  0.85898478  1
  C  C174  1  0.00945507  0.83729851  0.41269970  1
  C  C175  1  0.51418885  0.83146863  0.41297126  1
  C  C176  1  0.40991026  0.99575874  0.41031806  1
  C  C177  1  0.90882558  0.98070701  0.41078316  1
  C  C178  1  0.09160727  0.20711350  0.41219550  1
  C  C179  1  0.58186805  0.18316855  0.40822540  1
  C  C180  1  0.01490916  0.19763718  0.91362626  1
  C  C181  1  0.50371439  0.17404019  0.91349676  1
  C  C182  1  0.08204645  0.97971730  0.90894936  1
  C  C183  1  0.58971600  0.97571373  0.91236276  1
  C  C184  1  0.39772723  0.81670822  0.91073922  1
  C  C185  1  0.90987328  0.82376450  0.91033107  1
  C  C186  1  0.48800146  0.17754441  0.58747507  1
  C  C187  1  0.98869259  0.16715442  0.58804088  1
  C  C188  1  0.09413699  0.02012062  0.59152332  1
  C  C189  1  0.59986272  0.02762843  0.58808156  1
  C  C190  1  0.42023555  0.82034202  0.58725265  1
  C  C191  1  0.91785123  0.80801142  0.59035203  1
  C  C192  1  0.48753614  0.81014993  0.08758933  1
  C  C193  1  0.98946208  0.79939068  0.08618429  1
  C  C194  1  0.41751210  0.02434462  0.08830400  1
  C  C195  1  0.92084343  0.02013120  0.08650409  1
  C  C196  1  0.10131481  0.17559617  0.08564778  1
  C  C197  1  0.59346312  0.16750674  0.08996968  1
  C  C198  1  0.34555340  0.16863066  0.74814537  1
  C  C199  1  0.84381916  0.17083278  0.74494720  1
  C  C200  1  0.23881060  0.31565000  0.75040671  1
  C  C201  1  0.74274546  0.31402222  0.74586969  1
  C  C202  1  0.41851062  0.51917821  0.74584520  1
  C  C203  1  0.92725843  0.54213806  0.74814538  1
  C  C204  1  0.34410398  0.51667137  0.24408557  1
  C  C205  1  0.84517203  0.51990996  0.24610522  1
  C  C206  1  0.42543694  0.30885534  0.24673150  1
  C  C207  1  0.91893063  0.31978736  0.24451031  1
  C  C208  1  0.24242944  0.17074767  0.24516497  1
  C  C209  1  0.73812421  0.16011609  0.24985960  1
  C  C210  1  0.31763484  0.50987707  0.92177099  1
  C  C211  1  0.82686604  0.49985655  0.92402489  1
  C  C212  1  0.42504544  0.34462841  0.92074847  1
  C  C213  1  0.93081749  0.37063520  0.92438617  1
  C  C214  1  0.24842729  0.15504924  0.92356743  1
  C  C215  1  0.74140298  0.12656774  0.92083474  1
  C  C216  1  0.32624457  0.15284938  0.42437693  1
  C  C217  1  0.81665835  0.14333337  0.42367008  1
  C  C218  1  0.24316541  0.35985764  0.42090614  1
  C  C219  1  0.74840608  0.35047610  0.42437593  1
  C  C220  1  0.42881936  0.49030115  0.42437193  1
  C  C221  1  0.92667743  0.50958672  0.41990331  1
  C  C222  1  0.17458446  0.48045702  0.07741043  1
  C  C223  1  0.67576525  0.49744403  0.07759783  1
  C  C224  1  0.06497392  0.64522457  0.07855157  1
  C  C225  1  0.57390868  0.65297356  0.07490748  1
  C  C226  1  0.24819385  0.83883529  0.07680708  1
  C  C227  1  0.75209961  0.85564015  0.07518255  1
  C  C228  1  0.17657617  0.85445286  0.57807736  1
  C  C229  1  0.67188497  0.86774632  0.57995880  1
  C  C230  1  0.25181792  0.64835493  0.57638086  1
  C  C231  1  0.74747322  0.64978310  0.58113626  1
  C  C232  1  0.07493778  0.49706540  0.57626296  1
  C  C233  1  0.56376954  0.48250579  0.57958887  1
  C  C234  1  0.15451104  0.83330597  0.25305168  1
  C  C235  1  0.64954259  0.82029993  0.25438414  1
  C  C236  1  0.25887711  0.68328336  0.25526314  1
  C  C237  1  0.75653206  0.68388196  0.25397572  1
  C  C238  1  0.08798423  0.47929443  0.25589293  1
  C  C239  1  0.57759511  0.45996615  0.25432130  1
  C  C240  1  0.15300345  0.48001100  0.75818138  1
  C  C241  1  0.65460874  0.47693096  0.75301872  1
  C  C242  1  0.07904751  0.69544817  0.75619797  1
  C  C243  1  0.58721993  0.69726483  0.75737612  1
  C  C244  1  0.25859672  0.82746927  0.75642417  1
  C  C245  1  0.75866869  0.83464757  0.75658008  1
