# generated using pymatgen
data_Cu(NiC)5
_symmetry_space_group_name_H-M   'P 1'
_cell_length_a   7.61483900
_cell_length_b   9.24448500
_cell_length_c   13.88716700
_cell_angle_alpha   90.00000000
_cell_angle_beta   90.00000000
_cell_angle_gamma   90.00000000
_symmetry_Int_Tables_number   1
_chemical_formula_structural   Cu(NiC)5
_chemical_formula_sum   'Cu4 Ni20 C20'
_cell_volume   977.59079985
_cell_formula_units_Z   4
loop_
 _symmetry_equiv_pos_site_id
 _symmetry_equiv_pos_as_xyz
  1  'x, y, z'
loop_
 _atom_site_type_symbol
 _atom_site_label
 _atom_site_symmetry_multiplicity
 _atom_site_fract_x
 _atom_site_fract_y
 _atom_site_fract_z
 _atom_site_occupancy
  C  C0  1  0.37737400  0.49726400  0.65405500  1
  C  C1  1  0.87737400  0.99726400  0.84594500  1
  C  C2  1  0.37737400  0.00273600  0.65405500  1
  C  C3  1  0.12262600  0.49726400  0.15405500  1
  C  C4  1  0.12262600  0.00273600  0.15405500  1
  C  C5  1  0.62262600  0.99726400  0.34594500  1
  C  C6  1  0.62262600  0.50273600  0.34594500  1
  C  C7  1  0.87737400  0.50273600  0.84594500  1
  C  C8  1  0.47173700  0.66343500  0.96380000  1
  C  C9  1  0.97173700  0.33656500  0.53620000  1
  C  C10  1  0.52826300  0.16343500  0.03620000  1
  C  C11  1  0.02826300  0.83656500  0.46380000  1
  C  C12  1  0.02826300  0.66343500  0.46380000  1
  C  C13  1  0.47173700  0.83656500  0.96380000  1
  C  C14  1  0.52826300  0.33656500  0.03620000  1
  C  C15  1  0.97173700  0.16343500  0.53620000  1
  C  C16  1  0.30722500  0.25000000  0.89700800  1
  C  C17  1  0.80722500  0.75000000  0.60299200  1
  C  C18  1  0.69277500  0.75000000  0.10299200  1
  C  C19  1  0.19277500  0.25000000  0.39700800  1
  Ni  Ni20  1  0.42985900  0.75000000  0.19567200  1
  Ni  Ni21  1  0.07014100  0.75000000  0.69567200  1
  Ni  Ni22  1  0.57014100  0.25000000  0.80432800  1
  Ni  Ni23  1  0.19671100  0.50642100  0.39808300  1
  Ni  Ni24  1  0.19671100  0.99357900  0.39808300  1
  Ni  Ni25  1  0.69671100  0.00642100  0.10191700  1
  Ni  Ni26  1  0.80328900  0.49357900  0.60191700  1
  Ni  Ni27  1  0.04687600  0.25000000  0.99127400  1
  Ni  Ni28  1  0.80328900  0.00642100  0.60191700  1
  Ni  Ni29  1  0.30328900  0.99357900  0.89808300  1
  Ni  Ni30  1  0.30328900  0.50642100  0.89808300  1
  Ni  Ni31  1  0.69671100  0.49357900  0.10191700  1
  Ni  Ni32  1  0.36391000  0.25000000  0.25700600  1
  Ni  Ni33  1  0.86391000  0.75000000  0.24299400  1
  Ni  Ni34  1  0.63609000  0.75000000  0.74299400  1
  Ni  Ni35  1  0.13609000  0.25000000  0.75700600  1
  Ni  Ni36  1  0.45312400  0.25000000  0.49127400  1
  Ni  Ni37  1  0.95312400  0.75000000  0.00872600  1
  Ni  Ni38  1  0.54687600  0.75000000  0.50872600  1
  Ni  Ni39  1  0.92985900  0.25000000  0.30432800  1
  Cu  Cu40  1  0.45290300  0.25000000  0.02616600  1
  Cu  Cu41  1  0.54709700  0.75000000  0.97383400  1
  Cu  Cu42  1  0.04709700  0.25000000  0.52616600  1
  Cu  Cu43  1  0.95290300  0.75000000  0.47383400  1
