# generated using pymatgen
data_Cu2NiC10
_symmetry_space_group_name_H-M   'P 1'
_cell_length_a   5.89913615
_cell_length_b   6.04921365
_cell_length_c   5.89913615
_cell_angle_alpha   75.96046310
_cell_angle_beta   114.67967023
_cell_angle_gamma   71.00936880
_symmetry_Int_Tables_number   1
_chemical_formula_structural   Cu2NiC10
_chemical_formula_sum   'Cu2 Ni1 C10'
_cell_volume   162.37897568
_cell_formula_units_Z   1
loop_
 _symmetry_equiv_pos_site_id
 _symmetry_equiv_pos_as_xyz
  1  'x, y, z'
loop_
 _atom_site_type_symbol
 _atom_site_label
 _atom_site_symmetry_multiplicity
 _atom_site_fract_x
 _atom_site_fract_y
 _atom_site_fract_z
 _atom_site_occupancy
  Ni  Ni0  1  0.25991505  0.03036573  0.70971922  1
  C  C1  1  0.24141006  0.45816653  0.30042341  1
  C  C2  1  0.92034231  0.07109539  0.00856230  1
  Cu  Cu3  1  0.77277006  0.67517516  0.55205478  1
  Cu  Cu4  1  0.52887674  0.45657535  0.01454891  1
  C  C5  1  0.46849890  0.26037815  0.73565000  1
  C  C6  1  0.09606636  0.66442935  0.86715296  1
  C  C7  1  0.53807643  0.72625064  0.73567193  1
  C  C8  1  0.97300301  0.28734466  0.73965333  1
  C  C9  1  0.52719835  0.17249227  0.30030937  1
  C  C10  1  0.95145519  0.72529927  0.32324654  1
  C  C11  1  0.46841869  0.66442935  0.23950430  1
  C  C12  1  0.00397085  0.26037815  0.27112195  1
