# generated using pymatgen
data_Cu2NiC10
_symmetry_space_group_name_H-M   'P 1'
_cell_length_a   3.69410500
_cell_length_b   6.88428759
_cell_length_c   6.81218278
_cell_angle_alpha   109.38829458
_cell_angle_beta   90.00000000
_cell_angle_gamma   105.56311157
_symmetry_Int_Tables_number   1
_chemical_formula_structural   Cu2NiC10
_chemical_formula_sum   'Cu2 Ni1 C10'
_cell_volume   156.66837551
_cell_formula_units_Z   1
loop_
 _symmetry_equiv_pos_site_id
 _symmetry_equiv_pos_as_xyz
  1  'x, y, z'
loop_
 _atom_site_type_symbol
 _atom_site_label
 _atom_site_symmetry_multiplicity
 _atom_site_fract_x
 _atom_site_fract_y
 _atom_site_fract_z
 _atom_site_occupancy
  Ni  Ni0  1  0.49956400  0.00000000  0.50000000  1
  C  C1  1  0.10736100  0.21869900  0.21493200  1
  C  C2  1  0.88866200  0.78130100  0.78506800  1
  Cu  Cu3  1  0.18786500  0.37932700  0.80519200  1
  Cu  Cu4  1  0.80853900  0.62067300  0.19480800  1
  C  C5  1  0.90042500  0.80326800  0.48517500  1
  C  C6  1  0.09715700  0.19673200  0.51482500  1
  C  C7  1  0.94187600  0.88871200  0.11619200  1
  C  C8  1  0.05316400  0.11128800  0.88380800  1
  C  C9  1  0.26298100  0.52963200  0.14709900  1
  C  C10  1  0.73334800  0.47036800  0.85290100  1
  C  C11  1  0.33204900  0.66791700  0.73558700  1
  C  C12  1  0.66413200  0.33208300  0.26441300  1
