# generated using pymatgen
data_Cu3Ni6C23
_symmetry_space_group_name_H-M   'P 1'
_cell_length_a   10.31288899
_cell_length_b   10.31288899
_cell_length_c   10.31288953
_cell_angle_alpha   65.03761222
_cell_angle_beta   65.03761222
_cell_angle_gamma   65.03761506
_symmetry_Int_Tables_number   1
_chemical_formula_structural   Cu3Ni6C23
_chemical_formula_sum   'Cu6 Ni12 C46'
_cell_volume   860.86961256
_cell_formula_units_Z   2
loop_
 _symmetry_equiv_pos_site_id
 _symmetry_equiv_pos_as_xyz
  1  'x, y, z'
loop_
 _atom_site_type_symbol
 _atom_site_label
 _atom_site_symmetry_multiplicity
 _atom_site_fract_x
 _atom_site_fract_y
 _atom_site_fract_z
 _atom_site_occupancy
  C  C0  1  0.00000000  0.00000000  0.00000000  1
  C  C1  1  0.77346100  0.44447700  0.24332100  1
  C  C2  1  0.44447700  0.24332100  0.77346100  1
  C  C3  1  0.24332100  0.77346100  0.44447700  1
  C  C4  1  0.22653900  0.55552300  0.75667900  1
  C  C5  1  0.55552300  0.75667900  0.22653900  1
  C  C6  1  0.75667900  0.22653900  0.55552300  1
  C  C7  1  0.96843000  0.34973300  0.16885700  1
  C  C8  1  0.34973300  0.16885700  0.96843000  1
  C  C9  1  0.16885700  0.96843000  0.34973300  1
  C  C10  1  0.03157000  0.65026700  0.83114300  1
  C  C11  1  0.65026700  0.83114300  0.03157000  1
  C  C12  1  0.83114300  0.03157000  0.65026700  1
  C  C13  1  0.85840200  0.48733600  0.04175000  1
  C  C14  1  0.48733600  0.04175000  0.85840200  1
  C  C15  1  0.04175000  0.85840200  0.48733600  1
  C  C16  1  0.70726200  0.89881100  0.41435400  1
  C  C17  1  0.14159800  0.51266400  0.95825000  1
  C  C18  1  0.95825000  0.14159800  0.51266400  1
  C  C19  1  0.58564600  0.29273800  0.10118900  1
  C  C20  1  0.29273800  0.10118900  0.58564600  1
  C  C21  1  0.10118900  0.58564600  0.29273800  1
  C  C22  1  0.41435400  0.70726200  0.89881100  1
  C  C23  1  0.99825400  0.34376900  0.54467500  1
  C  C24  1  0.54467500  0.99825400  0.34376900  1
  C  C25  1  0.34376900  0.54467500  0.99825400  1
  C  C26  1  0.00174600  0.65623100  0.45532500  1
  C  C27  1  0.45532500  0.00174600  0.65623100  1
  C  C28  1  0.65623100  0.45532500  0.00174600  1
  C  C29  1  0.79963700  0.44357800  0.58535800  1
  C  C30  1  0.58535800  0.79963700  0.44357800  1
  C  C31  1  0.44357800  0.58535800  0.79963700  1
  C  C32  1  0.20036300  0.55642200  0.41464200  1
  C  C33  1  0.41464200  0.20036300  0.55642200  1
  C  C34  1  0.55642200  0.41464200  0.20036300  1
  C  C35  1  0.89881100  0.41435400  0.70726200  1
  C  C36  1  0.51266400  0.95825000  0.14159800  1
  Ni  Ni37  1  0.63267100  0.36663800  0.10778300  1
  Ni  Ni38  1  0.36663800  0.10778300  0.63267100  1
  Ni  Ni39  1  0.10778300  0.63267100  0.36663800  1
  Ni  Ni40  1  0.36732900  0.63336200  0.89221700  1
  Ni  Ni41  1  0.84981100  0.14238400  0.59980000  1
  Ni  Ni42  1  0.59980000  0.84981100  0.14238400  1
  Ni  Ni43  1  0.14238400  0.59980000  0.84981100  1
  Ni  Ni44  1  0.15018900  0.85761600  0.40020000  1
  Ni  Ni45  1  0.89221700  0.36732900  0.63336200  1
  Ni  Ni46  1  0.85761600  0.40020000  0.15018900  1
  Ni  Ni47  1  0.63336200  0.89221700  0.36732900  1
  Ni  Ni48  1  0.40020000  0.15018900  0.85761600  1
  Cu  Cu49  1  0.80347000  0.25472400  0.15483900  1
  Cu  Cu50  1  0.25472400  0.15483900  0.80347000  1
  Cu  Cu51  1  0.15483900  0.80347000  0.25472400  1
  Cu  Cu52  1  0.19653000  0.74527600  0.84516100  1
  Cu  Cu53  1  0.74527600  0.84516100  0.19653000  1
  Cu  Cu54  1  0.84516100  0.19653000  0.74527600  1
  C  C55  1  0.50000000  0.50000000  0.50000000  1
  C  C56  1  0.75164800  0.75164800  0.75164800  1
  C  C57  1  0.24835300  0.24835300  0.24835300  1
  C  C58  1  0.91616600  0.21087500  0.01043800  1
  C  C59  1  0.21087500  0.01043800  0.91616600  1
  C  C60  1  0.98956200  0.08383400  0.78912500  1
  C  C61  1  0.08383400  0.78912500  0.98956200  1
  C  C62  1  0.78912500  0.98956200  0.08383400  1
  C  C63  1  0.01043800  0.91616600  0.21087500  1
