# generated using pymatgen
data_Cu3Ni3C
_symmetry_space_group_name_H-M   'P 1'
_cell_length_a   7.05809931
_cell_length_b   7.05809931
_cell_length_c   7.05809983
_cell_angle_alpha   92.84620366
_cell_angle_beta   92.84620366
_cell_angle_gamma   92.84620247
_symmetry_Int_Tables_number   1
_chemical_formula_structural   Cu3Ni3C
_chemical_formula_sum   'Cu12 Ni12 C4'
_cell_volume   350.26566074
_cell_formula_units_Z   4
loop_
 _symmetry_equiv_pos_site_id
 _symmetry_equiv_pos_as_xyz
  1  'x, y, z'
loop_
 _atom_site_type_symbol
 _atom_site_label
 _atom_site_symmetry_multiplicity
 _atom_site_fract_x
 _atom_site_fract_y
 _atom_site_fract_z
 _atom_site_occupancy
  C  C0  1  0.00000000  0.50000000  0.50000000  1
  C  C1  1  0.50000000  0.00000000  0.50000000  1
  C  C2  1  0.50000000  0.50000000  0.00000000  1
  Ni  Ni3  1  0.12132700  0.83992600  0.12132700  1
  Ni  Ni4  1  0.87867300  0.16007400  0.87867300  1
  Ni  Ni5  1  0.16007400  0.87867300  0.87867300  1
  Ni  Ni6  1  0.87867300  0.87867300  0.16007400  1
  Ni  Ni7  1  0.05797300  0.05797300  0.23155100  1
  Ni  Ni8  1  0.23155100  0.05797300  0.05797300  1
  Ni  Ni9  1  0.05797300  0.23155100  0.05797300  1
  Ni  Ni10  1  0.94202700  0.76844900  0.94202700  1
  Ni  Ni11  1  0.94202700  0.94202700  0.76844900  1
  Ni  Ni12  1  0.76844900  0.94202700  0.94202700  1
  Ni  Ni13  1  0.12132700  0.12132700  0.83992600  1
  Ni  Ni14  1  0.83992600  0.12132700  0.12132700  1
  Cu  Cu15  1  0.79095400  0.79095400  0.27227300  1
  Cu  Cu16  1  0.27227300  0.79095400  0.79095400  1
  Cu  Cu17  1  0.79095400  0.27227300  0.79095400  1
  Cu  Cu18  1  0.20904600  0.72772700  0.20904600  1
  Cu  Cu19  1  0.90067600  0.90067600  0.60413800  1
  Cu  Cu20  1  0.60413800  0.90067600  0.90067600  1
  Cu  Cu21  1  0.90067600  0.60413800  0.90067600  1
  Cu  Cu22  1  0.09932400  0.39586200  0.09932400  1
  Cu  Cu23  1  0.09932400  0.09932400  0.39586200  1
  Cu  Cu24  1  0.39586200  0.09932400  0.09932400  1
  Cu  Cu25  1  0.20904600  0.20904600  0.72772700  1
  Cu  Cu26  1  0.72772700  0.20904600  0.20904600  1
  C  C27  1  0.50000000  0.50000000  0.50000000  1
