# generated using pymatgen
data_Cu(NiC7)5
_symmetry_space_group_name_H-M   'P 1'
_cell_length_a   9.27169435
_cell_length_b   9.27737113
_cell_length_c   22.86084488
_cell_angle_alpha   89.90509788
_cell_angle_beta   90.06224492
_cell_angle_gamma   120.05489881
_symmetry_Int_Tables_number   1
_chemical_formula_structural   Cu(NiC7)5
_chemical_formula_sum   'Cu3 Ni15 C105'
_cell_volume   1702.02452766
_cell_formula_units_Z   3
loop_
 _symmetry_equiv_pos_site_id
 _symmetry_equiv_pos_as_xyz
  1  'x, y, z'
loop_
 _atom_site_type_symbol
 _atom_site_label
 _atom_site_symmetry_multiplicity
 _atom_site_fract_x
 _atom_site_fract_y
 _atom_site_fract_z
 _atom_site_occupancy
  C  C0  1  0.63716655  0.00184512  0.25140844  1
  C  C1  1  0.36309478  0.36381546  0.24772900  1
  C  C2  1  0.00063465  0.63338200  0.25059841  1
  C  C3  1  0.63339641  0.63238321  0.74900245  1
  C  C4  1  0.99875273  0.36514047  0.75025663  1
  C  C5  1  0.36769821  0.00293276  0.75073474  1
  C  C6  1  0.30096910  0.33229706  0.58402592  1
  C  C7  1  0.03202104  0.70137224  0.58300615  1
  C  C8  1  0.66912801  0.96683430  0.58370551  1
  C  C9  1  0.29339942  0.96820822  0.08033234  1
  C  C10  1  0.03932344  0.33718535  0.08632196  1
  C  C11  1  0.97307773  0.67022925  0.91753069  1
  C  C12  1  0.32855941  0.29306017  0.91901640  1
  C  C13  1  0.32994203  0.03032010  0.41674782  1
  C  C14  1  0.70461196  0.66913521  0.41887308  1
  C  C15  1  0.99505249  0.00794505  0.49887510  1
  C  C16  1  0.98196409  0.99027809  0.00013783  1
  C  C17  1  0.66800943  0.31273133  0.83428112  1
  C  C18  1  0.68637827  0.33029276  0.33520219  1
  C  C19  1  0.34453732  0.66053095  0.16545496  1
  C  C20  1  0.33497075  0.66585523  0.66683083  1
  C  C21  1  0.99719593  0.00195728  0.35218352  1
  C  C22  1  0.99911737  0.00338455  0.85264837  1
  C  C23  1  0.00041677  0.99912092  0.64833122  1
  C  C24  1  0.99811714  0.99410274  0.14746351  1
  C  C25  1  0.66744710  0.33371110  0.68521257  1
  C  C26  1  0.66757867  0.34068111  0.18514628  1
  C  C27  1  0.66604052  0.33190433  0.98085298  1
  C  C28  1  0.67482691  0.33233708  0.48082765  1
  C  C29  1  0.33367815  0.66489277  0.01893402  1
  C  C30  1  0.33197455  0.66878468  0.51816821  1
  C  C31  1  0.32742444  0.66657527  0.31461203  1
  C  C32  1  0.33191632  0.67118024  0.81514505  1
  Ni  Ni33  1  0.29647135  0.00082444  0.25060581  1
  Ni  Ni34  1  0.70538236  0.70605204  0.25204697  1
  Ni  Ni35  1  0.99954918  0.29280317  0.24695288  1
  Ni  Ni36  1  0.29642266  0.29621403  0.75052883  1
  Ni  Ni37  1  0.99904524  0.70395935  0.75112755  1
  Ni  Ni38  1  0.70515657  0.99947254  0.74846951  1
  Ni  Ni39  1  0.96370642  0.33254664  0.58541084  1
  Ni  Ni40  1  0.37215940  0.03956830  0.58214034  1
  Ni  Ni41  1  0.66595231  0.62777917  0.58254259  1
  Ni  Ni42  1  0.96444913  0.63135684  0.08167438  1
  Ni  Ni43  1  0.36815874  0.33359719  0.08342602  1
  Ni  Ni44  1  0.03636751  0.37012130  0.91675887  1
  Ni  Ni45  1  0.33290216  0.96507394  0.91706091  1
  Ni  Ni46  1  0.62920205  0.96303974  0.41627119  1
  Ni  Ni47  1  0.03337376  0.66824047  0.41599315  1
  Cu  Cu48  1  0.66612828  0.04204841  0.08483543  1
  Cu  Cu49  1  0.62595477  0.66527908  0.91610478  1
  Cu  Cu50  1  0.33446261  0.37255824  0.41701447  1
  C  C51  1  0.20919550  0.03052631  0.30841140  1
  C  C52  1  0.82052567  0.78800471  0.31095640  1
  C  C53  1  0.96856815  0.16653118  0.30206549  1
  C  C54  1  0.20602242  0.17711609  0.80802320  1
  C  C55  1  0.97328257  0.79424806  0.80862035  1
  C  C56  1  0.83181792  0.02944957  0.80307598  1
  C  C57  1  0.78707516  0.97036489  0.68881875  1
  C  C58  1  0.17929098  0.20901311  0.69231904  1
  C  C59  1  0.02753983  0.82007318  0.69276361  1
  C  C60  1  0.79881234  0.83286411  0.19701361  1
  C  C61  1  0.03040054  0.21190461  0.18760401  1
  C  C62  1  0.17698344  0.97217360  0.19310672  1
  C  C63  1  0.88266687  0.36483061  0.64458630  1
  C  C64  1  0.48888384  0.12703563  0.64029737  1
  C  C65  1  0.63925804  0.51261163  0.64111065  1
  C  C66  1  0.87478526  0.51402119  0.13975994  1
  C  C67  1  0.64236394  0.12110283  0.14144536  1
  C  C68  1  0.47691817  0.34687064  0.14238877  1
  C  C69  1  0.46241810  0.30931140  0.02632959  1
  C  C70  1  0.85367573  0.53505026  0.02363156  1
  C  C71  1  0.68852677  0.15771723  0.03177973  1
  C  C72  1  0.46033106  0.15673255  0.52451194  1
  C  C73  1  0.69195919  0.53673039  0.52525602  1
  C  C74  1  0.83695224  0.30263728  0.53047748  1
  C  C75  1  0.53341234  0.68250028  0.96926292  1
  C  C76  1  0.15501402  0.46444487  0.97424537  1
  C  C77  1  0.31544915  0.85021242  0.97452911  1
  C  C78  1  0.53828087  0.84767772  0.47475024  1
  C  C79  1  0.31774193  0.45907613  0.47282973  1
  C  C80  1  0.14821649  0.68484555  0.47369089  1
  C  C81  1  0.12450879  0.64860328  0.35718120  1
  C  C82  1  0.51475830  0.86662796  0.35831064  1
  C  C83  1  0.35019688  0.47848007  0.36208637  1
  C  C84  1  0.13008758  0.48502675  0.85846346  1
  C  C85  1  0.35304115  0.87448141  0.85800255  1
  C  C86  1  0.52457480  0.64487166  0.85934780  1
  C  C87  1  0.02874649  0.84420430  0.41490892  1
  C  C88  1  0.81174909  0.97452568  0.41353149  1
  C  C89  1  0.18137689  0.19355987  0.41370319  1
  C  C90  1  0.02717841  0.18869153  0.91405069  1
  C  C91  1  0.15744227  0.97147605  0.91512214  1
  C  C92  1  0.80580547  0.81642467  0.91360853  1
  C  C93  1  0.98225441  0.16572764  0.58719683  1
  C  C94  1  0.18585106  0.01944733  0.58668777  1
  C  C95  1  0.83391138  0.81343222  0.58635542  1
  C  C96  1  0.99095633  0.82024748  0.08474497  1
  C  C97  1  0.82834591  0.03201566  0.08749791  1
  C  C98  1  0.18104052  0.16464776  0.08535511  1
  C  C99  1  0.68406869  0.16505364  0.74639449  1
  C  C100  1  0.48074557  0.31154571  0.74639332  1
  C  C101  1  0.83194518  0.51841994  0.74712056  1
  C  C102  1  0.69026118  0.52195797  0.24519856  1
  C  C103  1  0.83326252  0.31302403  0.24458313  1
  C  C104  1  0.48389319  0.16491015  0.24526953  1
  C  C105  1  0.63721949  0.50283706  0.92125305  1
  C  C106  1  0.85650980  0.36472140  0.92017495  1
  C  C107  1  0.49069906  0.15712576  0.91976271  1
  C  C108  1  0.63066413  0.14099226  0.41902114  1
  C  C109  1  0.49625260  0.36122942  0.41961477  1
  C  C110  1  0.84187692  0.51020301  0.41851393  1
  C  C111  1  0.34474953  0.49779495  0.08092044  1
  C  C112  1  0.15222343  0.65042405  0.07890255  1
  C  C113  1  0.50712234  0.87045840  0.07810336  1
  C  C114  1  0.35363865  0.85317213  0.57806482  1
  C  C115  1  0.49719790  0.64391956  0.57875403  1
  C  C116  1  0.14944924  0.49801006  0.57857468  1
  C  C117  1  0.31273299  0.83162844  0.25401177  1
  C  C118  1  0.51680544  0.67960989  0.25581164  1
  C  C119  1  0.16746624  0.47724642  0.25404270  1
  C  C120  1  0.31790156  0.48273898  0.75553141  1
  C  C121  1  0.16765080  0.68645892  0.75434026  1
  C  C122  1  0.52087007  0.83144019  0.75459720  1
