# generated using pymatgen
data_Cu2Ni5C32
_symmetry_space_group_name_H-M   'P 1'
_cell_length_a   18.49155489
_cell_length_b   9.22775831
_cell_length_c   22.99081782
_cell_angle_alpha   90.02170085
_cell_angle_beta   89.29582036
_cell_angle_gamma   119.97958795
_symmetry_Int_Tables_number   1
_chemical_formula_structural   Cu2Ni5C32
_chemical_formula_sum   'Cu12 Ni30 C192'
_cell_volume   3397.82942046
_cell_formula_units_Z   6
loop_
 _symmetry_equiv_pos_site_id
 _symmetry_equiv_pos_as_xyz
  1  'x, y, z'
loop_
 _atom_site_type_symbol
 _atom_site_label
 _atom_site_symmetry_multiplicity
 _atom_site_fract_x
 _atom_site_fract_y
 _atom_site_fract_z
 _atom_site_occupancy
  Ni  Ni0  1  0.19085699  0.36954263  0.24193046  1
  Ni  Ni1  1  0.69210464  0.37587259  0.24168335  1
  Ni  Ni2  1  0.98727588  0.64723540  0.25784063  1
  Ni  Ni3  1  0.49003835  0.63990918  0.26381835  1
  Ni  Ni4  1  0.32785629  0.66031077  0.74554121  1
  Ni  Ni5  1  0.82361673  0.65430465  0.74410748  1
  Ni  Ni6  1  0.98882949  0.33497477  0.75512777  1
  Ni  Ni7  1  0.18643663  0.00271033  0.73830828  1
  Ni  Ni8  1  0.68939887  0.00671371  0.73870072  1
  Ni  Ni9  1  0.52239302  0.70692089  0.56884916  1
  Ni  Ni10  1  0.32307834  0.97536351  0.59075312  1
  Ni  Ni11  1  0.82225743  0.96779344  0.59052441  1
  Ni  Ni12  1  0.15501708  0.98452951  0.07992293  1
  Ni  Ni13  1  0.65556735  0.98495878  0.07940590  1
  Ni  Ni14  1  0.32488435  0.67633586  0.09235857  1
  Ni  Ni15  1  0.82488872  0.67719220  0.09355957  1
  Ni  Ni16  1  0.65521843  -0.00167433  0.42499992  1
  Ni  Ni17  1  0.35883878  0.67242913  0.40606773  1
  Ni  Ni18  1  0.01999813  -0.00020370  0.50158466  1
  Ni  Ni19  1  0.51204835  0.00837792  0.49867855  1
  Ni  Ni20  1  0.00957102  0.03931846  0.00102456  1
  Ni  Ni21  1  0.50988950  0.04007372  0.00008290  1
  Ni  Ni22  1  0.34882197  0.30611884  0.83306343  1
  Ni  Ni23  1  0.83449700  0.30559229  0.83635783  1
  Ni  Ni24  1  0.34087354  0.33946076  0.33667627  1
  Ni  Ni25  1  0.84125507  0.36284494  0.33409905  1
  Ni  Ni26  1  0.17028355  0.64413053  0.16560059  1
  Ni  Ni27  1  0.67403111  0.64897929  0.16832184  1
  Ni  Ni28  1  0.16390818  0.68410787  0.65918444  1
  Ni  Ni29  1  0.66349755  0.66671849  0.66159128  1
  Cu  Cu30  1  0.99553432  0.99180463  0.35270486  1
  Cu  Cu31  1  0.49799508  0.00052059  0.35037970  1
  Cu  Cu32  1  0.99848650  0.00355330  0.85353739  1
  Cu  Cu33  1  0.49793904  0.00614671  0.85316876  1
  Cu  Cu34  1  0.33324925  0.32387384  0.68320418  1
  Cu  Cu35  1  0.83176732  0.32891884  0.67927255  1
  Cu  Cu36  1  0.33388536  0.33365107  0.18254453  1
  Cu  Cu37  1  0.83416663  0.33390296  0.18251672  1
  Cu  Cu38  1  0.16265215  0.65209687  0.01564169  1
  Cu  Cu39  1  0.66267717  0.65219313  0.01608392  1
  Cu  Cu40  1  0.16089085  0.66597211  0.51801992  1
  Cu  Cu41  1  0.66628845  0.66365447  0.51368184  1
  C  C42  1  0.00046516  0.99850134  0.64605393  1
  C  C43  1  0.50064265  0.00873246  0.64952531  1
  C  C44  1  0.99374552  0.00135573  0.15044577  1
  C  C45  1  0.49493458  0.00225321  0.14999672  1
  C  C46  1  0.32502455  0.32819176  0.98374251  1
  C  C47  1  0.82465108  0.32766394  0.98392376  1
  C  C48  1  0.32786280  0.32306694  0.48207505  1
  C  C49  1  0.82675763  0.32625882  0.48712666  1
  C  C50  1  0.17415208  0.67393521  0.31439742  1
  C  C51  1  0.66954925  0.67128554  0.31889433  1
  C  C52  1  0.17530120  0.67856939  0.81815793  1
  C  C53  1  0.66965827  0.67166828  0.81734162  1
  C  C54  1  0.34869243  0.70074797  0.25114894  1
  C  C55  1  0.84805259  0.70285259  0.24873202  1
  C  C56  1  0.34881288  0.99394948  0.74994335  1
  C  C57  1  0.85032712  0.99639466  0.74839056  1
  C  C58  1  0.18029360  0.03507549  0.58712976  1
  C  C59  1  0.67769983  0.02869695  0.58659019  1
  C  C60  1  0.17854288  0.32355800  0.08835976  1
  C  C61  1  0.67879936  0.32407924  0.08824020  1
  C  C62  1  0.51318699  0.65834303  0.41802787  1
  C  C63  1  0.14488102  0.98833917  0.24823999  1
  C  C64  1  0.64598406  0.98863831  0.24839896  1
  C  C65  1  0.00562279  0.30574563  0.25140284  1
  C  C66  1  0.50547085  0.30647885  0.24997832  1
  C  C67  1  0.14612158  0.30407411  0.75014426  1
  C  C68  1  0.64760958  0.30637190  0.75030467  1
  C  C69  1  0.00449986  0.70779664  0.75122523  1
  C  C70  1  0.50541584  0.71140944  0.75036518  1
  C  C71  1  0.48016494  0.32468362  0.58138830  1
  C  C72  1  0.97962714  0.32153573  0.58445420  1
  C  C73  1  0.33761771  0.63847287  0.58414631  1
  C  C74  1  0.83821900  0.64028243  0.58464475  1
  C  C75  1  0.48007191  0.63858648  0.08268006  1
  C  C76  1  0.98043768  0.63862654  0.08249571  1
  C  C77  1  0.33665407  0.03858417  0.08047151  1
  C  C78  1  0.83708932  0.03953708  0.08024364  1
  C  C79  1  0.31543730  0.65350783  0.91752942  1
  C  C80  1  0.81384328  0.65205549  0.91647227  1
  C  C81  1  0.01190558  0.37240469  0.91445280  1
  C  C82  1  0.51312561  0.37416631  0.91688449  1
  C  C83  1  0.17217448  0.97275279  0.91820005  1
  C  C84  1  0.67148419  0.97161447  0.91786933  1
  C  C85  1  0.31142687  0.96663553  0.41780577  1
  C  C86  1  0.81503126  0.97745330  0.41930406  1
  C  C87  1  0.17000460  0.37473056  0.41583994  1
  C  C88  1  0.67488949  0.37013378  0.41530557  1
  C  C89  1  0.01297329  0.65253412  0.41484309  1
  C  C90  1  0.10805666  0.02334628  0.29934701  1
  C  C91  1  0.61001595  0.01624535  0.30167662  1
  C  C92  1  0.40147595  0.78226001  0.30924305  1
  C  C93  1  0.91407082  0.79612617  0.29944679  1
  C  C94  1  0.49704820  0.21519173  0.30336757  1
  C  C95  1  0.99785830  0.21262618  0.30453307  1
  C  C96  1  0.11483978  0.19630276  0.80181964  1
  C  C97  1  0.61313955  0.20210412  0.80231897  1
  C  C98  1  0.49774979  0.79280802  0.80245927  1
  C  C99  1  0.99429794  0.78326910  0.80414407  1
  C  C100  1  0.40041927  -0.00726086  0.80451740  1
  C  C101  1  0.91402516  0.02989380  0.80018958  1
  C  C102  1  0.39203159  0.96748095  0.68916629  1
  C  C103  1  0.88975468  0.95977047  0.68818350  1
  C  C104  1  0.09275109  0.21709224  0.69907515  1
  C  C105  1  0.59694479  0.22028265  0.69830024  1
  C  C106  1  0.01661893  0.81568088  0.69944180  1
  C  C107  1  0.51740642  0.81740265  0.69716289  1
  C  C108  1  0.39652997  0.81495859  0.19189043  1
  C  C109  1  0.89164600  0.80968159  0.18619522  1
  C  C110  1  0.01405034  0.21631724  0.19915260  1
  C  C111  1  0.51181595  0.21400531  0.19811845  1
  C  C112  1  0.09372410  0.96764295  0.19530732  1
  C  C113  1  0.59320910  0.97394362  0.19698527  1
  C  C114  1  0.44554575  0.35488239  0.63460032  1
  C  C115  1  0.94900239  0.34467031  0.64125389  1
  C  C116  1  0.22897106  0.10699991  0.64810431  1
  C  C117  1  0.73009926  0.10784448  0.64523018  1
  C  C118  1  0.33059212  0.55121358  0.63911023  1
  C  C119  1  0.83285021  0.56113477  0.64119302  1
  C  C120  1  0.44953663  0.54873646  0.13809299  1
  C  C121  1  0.95013678  0.55025679  0.13831226  1
  C  C122  1  0.32839359  0.11455134  0.13381611  1
  C  C123  1  0.82880281  0.11509671  0.13373158  1
  C  C124  1  0.22907835  0.34639618  0.14829479  1
  C  C125  1  0.72947417  0.34554590  0.14768842  1
  C  C126  1  0.23510218  0.29938919  0.03416320  1
  C  C127  1  0.73450426  0.29877607  0.03364849  1
  C  C128  1  0.42642679  0.53863155  0.03377637  1
  C  C129  1  0.92653223  0.53732569  0.03392808  1
  C  C130  1  0.34634943  0.14304871  0.02859868  1
  C  C131  1  0.84616501  0.14408852  0.02846514  1
  C  C132  1  0.23801411  0.16181274  0.53261006  1
  C  C133  1  0.73176140  0.15004379  0.52876299  1
  C  C134  1  0.34570986  0.54696122  0.53313669  1
  C  C135  1  0.84250917  0.53850169  0.53584657  1
  C  C136  1  0.42745855  0.30766208  0.53070962  1
  C  C137  1  0.92283478  0.31298964  0.53691819  1
  C  C138  1  0.27541718  0.67059987  0.97042609  1
  C  C139  1  0.77445480  0.66854184  0.96973021  1
  C  C140  1  0.05965858  0.46231437  0.96530749  1
  C  C141  1  0.55659098  0.45398155  0.97032560  1
  C  C142  1  0.16538501  0.88286199  0.97237877  1
  C  C143  1  0.66537175  0.88222075  0.97203243  1
  C  C144  1  0.27540308  0.87343493  0.47176493  1
  C  C145  1  0.78159666  0.89010448  0.47467945  1
  C  C146  1  0.16284045  0.45634178  0.46715452  1
  C  C147  1  0.66744282  0.44950880  0.46759898  1
  C  C148  1  0.06194459  0.66094740  0.46473434  1
  C  C149  1  0.56749119  0.68692590  0.47656319  1
  C  C150  1  0.05436928  0.64275437  0.35897551  1
  C  C151  1  0.56725718  0.64880635  0.35976138  1
  C  C152  1  0.25821289  0.87067100  0.36695724  1
  C  C153  1  0.75926358  0.87845837  0.37024345  1
  C  C154  1  0.17709507  0.47602742  0.36184842  1
  C  C155  1  0.68029044  0.46706538  0.36162945  1
  C  C156  1  0.05562549  0.46588677  0.85948879  1
  C  C157  1  0.56148043  0.47708181  0.86480911  1
  C  C158  1  0.17697651  0.87699026  0.86645174  1
  C  C159  1  0.67663275  0.87722444  0.86598578  1
  C  C160  1  0.26390019  0.64159723  0.86489617  1
  C  C161  1  0.76278478  0.64082510  0.86399781  1
  C  C162  1  0.00406441  0.80362763  0.41459585  1
  C  C163  1  0.50528318  0.82938498  0.41562440  1
  C  C164  1  0.39569116  0.98890989  0.41143347  1
  C  C165  1  0.90085894  0.01136265  0.41147835  1
  C  C166  1  0.09871295  0.20312339  0.41141320  1
  C  C167  1  0.60338023  0.19663799  0.41213629  1
  C  C168  1  0.00351323  0.20434798  0.91508057  1
  C  C169  1  0.50416742  0.20609602  0.91476628  1
  C  C170  1  0.09990023  0.99755648  0.91342096  1
  C  C171  1  0.59953839  0.99706309  0.91337562  1
  C  C172  1  0.40037018  0.79590706  0.91311929  1
  C  C173  1  0.89872891  0.79532760  0.91173702  1
  C  C174  1  0.47974970  0.16094941  0.58575822  1
  C  C175  1  0.97589214  0.15466228  0.58407780  1
  C  C176  1  0.08736100  0.02076736  0.58965678  1
  C  C177  1  0.58380043  0.00937813  0.58843549  1
  C  C178  1  0.41705014  0.80634712  0.58439196  1
  C  C179  1  0.91559775  0.80902355  0.58186010  1
  C  C180  1  0.47747971  0.79959343  0.08418668  1
  C  C181  1  0.97858474  0.80023043  0.08329834  1
  C  C182  1  0.41057619  0.01289656  0.08277403  1
  C  C183  1  0.91151183  0.01588074  0.08211048  1
  C  C184  1  0.08785476  0.14719392  0.08916668  1
  C  C185  1  0.58802905  0.14718861  0.08892059  1
  C  C186  1  0.32920895  0.14833560  0.75109374  1
  C  C187  1  0.83588876  0.15872260  0.74773682  1
  C  C188  1  0.23464691  0.35295443  0.74127313  1
  C  C189  1  0.73547536  0.34309782  0.74325023  1
  C  C190  1  0.42924946  0.54702555  0.74454598  1
  C  C191  1  0.92961094  0.53925748  0.74471121  1
  C  C192  1  0.33780821  0.51216681  0.24947802  1
  C  C193  1  0.83725914  0.51317277  0.24819885  1
  C  C194  1  0.43491983  0.33779761  0.24486004  1
  C  C195  1  0.93487620  0.33557319  0.24598149  1
  C  C196  1  0.23133922  0.12375113  0.24192519  1
  C  C197  1  0.73161878  0.12867793  0.24222345  1
  C  C198  1  0.31835123  0.49417835  0.91966056  1
  C  C199  1  0.81759973  0.49313129  0.91856246  1
  C  C200  1  0.42911447  0.36046443  0.91708646  1
  C  C201  1  0.92766518  0.35780409  0.91645031  1
  C  C202  1  0.25157912  0.13909110  0.91810215  1
  C  C203  1  0.75106787  0.13853095  0.91788948  1
  C  C204  1  0.31599185  0.13275300  0.41827818  1
  C  C205  1  0.81410778  0.14041568  0.41972798  1
  C  C206  1  0.25056579  0.37054206  0.41713793  1
  C  C207  1  0.75308368  0.35684165  0.41744172  1
  C  C208  1  0.41824936  0.49316916  0.42129205  1
  C  C209  1  0.92822687  0.49808470  0.41835572  1
  C  C210  1  0.17580188  0.49710366  0.08143419  1
  C  C211  1  0.67620817  0.49770283  0.08164822  1
  C  C212  1  0.06888462  0.68363927  0.07482727  1
  C  C213  1  0.56869123  0.68533872  0.07484782  1
  C  C214  1  0.26007718  0.87058281  0.07577218  1
  C  C215  1  0.76069266  0.87150330  0.07548055  1
  C  C216  1  0.17447318  0.85216535  0.58138909  1
  C  C217  1  0.66905992  0.84223772  0.58260282  1
  C  C218  1  0.26626562  0.66689668  0.57868878  1
  C  C219  1  0.76513122  0.66398730  0.57932801  1
  C  C220  1  0.06527929  0.45569737  0.57629657  1
  C  C221  1  0.56634775  0.46286624  0.57516215  1
  C  C222  1  0.14273970  0.82306255  0.25522353  1
  C  C223  1  0.64570466  0.82576937  0.25182942  1
  C  C224  1  0.25258636  0.67811151  0.25506594  1
  C  C225  1  0.75352108  0.68032423  0.25670203  1
  C  C226  1  0.08469350  0.47330437  0.25240218  1
  C  C227  1  0.58522970  0.47232187  0.25032605  1
  C  C228  1  0.14253962  0.46297055  0.75777894  1
  C  C229  1  0.65199672  0.47301206  0.75577246  1
  C  C230  1  0.08058623  0.68891085  0.75464882  1
  C  C231  1  0.58232223  0.69540901  0.75369104  1
  C  C232  1  0.25199457  0.81341807  0.75524589  1
  C  C233  1  0.75541946  0.82156705  0.75878882  1
