# generated using pymatgen
data_Cu3NiC14
_symmetry_space_group_name_H-M   'P 1'
_cell_length_a   3.92290640
_cell_length_b   3.92265808
_cell_length_c   16.00460418
_cell_angle_alpha   96.96938964
_cell_angle_beta   96.97840603
_cell_angle_gamma   89.99627648
_symmetry_Int_Tables_number   1
_chemical_formula_structural   Cu3NiC14
_chemical_formula_sum   'Cu3 Ni1 C14'
_cell_volume   242.62472505
_cell_formula_units_Z   1
loop_
 _symmetry_equiv_pos_site_id
 _symmetry_equiv_pos_as_xyz
  1  'x, y, z'
loop_
 _atom_site_type_symbol
 _atom_site_label
 _atom_site_symmetry_multiplicity
 _atom_site_fract_x
 _atom_site_fract_y
 _atom_site_fract_z
 _atom_site_occupancy
  C  C0  1  0.67918400  0.68026300  0.36175500  1
  C  C1  1  0.31987600  0.32109700  0.63828000  1
  C  C2  1  0.55768900  0.55807400  0.11627200  1
  C  C3  1  0.44165500  0.44211500  0.88363200  1
  Ni  Ni4  1  0.75169800  0.24847500  0.50004300  1
  Cu  Cu5  1  0.87647600  0.87682000  0.75248900  1
  Cu  Cu6  1  0.12322200  0.12353600  0.24745300  1
  Cu  Cu7  1  0.99958200  0.00005500  0.99986700  1
  C  C8  1  0.77992300  0.77765700  0.55792500  1
  C  C9  1  0.22260900  0.22046000  0.44228700  1
  C  C10  1  0.86766700  0.36801100  0.73473200  1
  C  C11  1  0.36923100  0.86958900  0.73781100  1
  C  C12  1  0.13056600  0.63084200  0.26222300  1
  C  C13  1  0.63207500  0.13248700  0.26526700  1
  C  C14  1  0.93925300  0.93973100  0.87854800  1
  C  C15  1  0.49970900  0.00019400  0.00013600  1
  C  C16  1  0.06007700  0.06056300  0.12145200  1
  C  C17  1  0.99951100  0.50003300  0.99982800  1
