# generated using pymatgen
data_Cu2(NiC5)3
_symmetry_space_group_name_H-M   'P 1'
_cell_length_a   16.23164503
_cell_length_b   9.30829624
_cell_length_c   9.42660017
_cell_angle_alpha   90.00000000
_cell_angle_beta   125.10901873
_cell_angle_gamma   90.00000000
_symmetry_Int_Tables_number   1
_chemical_formula_structural   Cu2(NiC5)3
_chemical_formula_sum   'Cu8 Ni12 C60'
_cell_volume   1165.12508301
_cell_formula_units_Z   4
loop_
 _symmetry_equiv_pos_site_id
 _symmetry_equiv_pos_as_xyz
  1  'x, y, z'
loop_
 _atom_site_type_symbol
 _atom_site_label
 _atom_site_symmetry_multiplicity
 _atom_site_fract_x
 _atom_site_fract_y
 _atom_site_fract_z
 _atom_site_occupancy
  Ni  Ni0  1  0.24252493  0.77448550  0.99678222  1
  Ni  Ni1  1  0.74252493  0.72551450  0.49678222  1
  Ni  Ni2  1  0.74252493  0.27448550  0.99678222  1
  Ni  Ni3  1  0.24252493  0.22551450  0.49678222  1
  Ni  Ni4  1  0.50184129  0.09932267  0.74372917  1
  Ni  Ni5  1  0.50184129  0.90067733  0.24372917  1
  Ni  Ni6  1  0.00184129  0.59932267  0.74372917  1
  Ni  Ni7  1  0.00184129  0.40067733  0.24372917  1
  Ni  Ni8  1  0.81079632  0.93141029  0.19820827  1
  Ni  Ni9  1  0.81079632  0.06858971  0.69820827  1
  Ni  Ni10  1  0.31079632  0.43141029  0.19820827  1
  Ni  Ni11  1  0.31079632  0.56858971  0.69820827  1
  Cu  Cu12  1  0.10372906  0.76182860  0.55274006  1
  Cu  Cu13  1  0.89845129  0.75025234  0.94393572  1
  Cu  Cu14  1  0.89845129  0.24974766  0.44393572  1
  Cu  Cu15  1  0.10372906  0.23817140  0.05274006  1
  Cu  Cu16  1  0.60372906  0.26182860  0.55274006  1
  Cu  Cu17  1  0.39845129  0.25025234  0.94393572  1
  Cu  Cu18  1  0.39845129  0.74974766  0.44393572  1
  Cu  Cu19  1  0.60372906  0.73817140  0.05274006  1
  C  C20  1  0.99613892  0.94331504  0.74155006  1
  C  C21  1  0.99613892  0.05668496  0.24155006  1
  C  C22  1  0.49613892  0.44331504  0.74155006  1
  C  C23  1  0.49613892  0.55668496  0.24155006  1
  C  C24  1  0.35599533  0.89795129  0.76166896  1
  C  C25  1  0.65283328  0.90503402  0.74934765  1
  C  C26  1  0.65283328  0.09496598  0.24934765  1
  C  C27  1  0.35599533  0.10204871  0.26166896  1
  C  C28  1  0.85599533  0.39795129  0.76166896  1
  C  C29  1  0.15283328  0.40503402  0.74934765  1
  C  C30  1  0.15283328  0.59496598  0.24934765  1
  C  C31  1  0.85599533  0.60204871  0.26166896  1
  C  C32  1  0.15882066  0.57254539  0.74906062  1
  C  C33  1  0.84625319  0.56401627  0.74906939  1
  C  C34  1  0.84625319  0.43598373  0.24906939  1
  C  C35  1  0.15882066  0.42745461  0.24906062  1
  C  C36  1  0.65882066  0.07254539  0.74906062  1
  C  C37  1  0.34625319  0.06401627  0.74906939  1
  C  C38  1  0.34625319  0.93598373  0.24906939  1
  C  C39  1  0.65882066  0.92745461  0.24906062  1
  C  C40  1  0.43596542  0.53681560  0.57603380  1
  C  C41  1  0.55210725  0.54185037  0.90160158  1
  C  C42  1  0.55210725  0.45814963  0.40160158  1
  C  C43  1  0.43596542  0.46318440  0.07603380  1
  C  C44  1  0.93596542  0.03681560  0.57603380  1
  C  C45  1  0.05210725  0.04185037  0.90160158  1
  C  C46  1  0.05210725  0.95814963  0.40160158  1
  C  C47  1  0.93596542  0.96318440  0.07603380  1
  C  C48  1  0.26725226  0.82540040  0.75284757  1
  C  C49  1  0.74092954  0.84399956  0.74716609  1
  C  C50  1  0.74092954  0.15600044  0.24716609  1
  C  C51  1  0.26725226  0.17459960  0.25284757  1
  C  C52  1  0.76725226  0.32540040  0.75284757  1
  C  C53  1  0.24092954  0.34399956  0.74716609  1
  C  C54  1  0.24092954  0.65600044  0.24716609  1
  C  C55  1  0.76725226  0.67459960  0.25284757  1
  C  C56  1  0.35927724  0.84547753  0.60917641  1
  C  C57  1  0.66016845  0.86393151  0.91671070  1
  C  C58  1  0.66016845  0.13606849  0.41671070  1
  C  C59  1  0.35927724  0.15452247  0.10917641  1
  C  C60  1  0.85927724  0.34547753  0.60917641  1
  C  C61  1  0.16016845  0.36393151  0.91671070  1
  C  C62  1  0.16016845  0.63606849  0.41671070  1
  C  C63  1  0.85927724  0.65452247  0.10917641  1
  C  C64  1  0.45528709  0.85237109  0.93374134  1
  C  C65  1  0.55162730  0.85062658  0.58801542  1
  C  C66  1  0.55162730  0.14937342  0.08801542  1
  C  C67  1  0.45528709  0.14762891  0.43374134  1
  C  C68  1  0.95528709  0.35237109  0.93374134  1
  C  C69  1  0.05162730  0.35062658  0.58801542  1
  C  C70  1  0.05162730  0.64937342  0.08801542  1
  C  C71  1  0.95528709  0.64762891  0.43374134  1
  C  C72  1  0.07281576  0.84092702  0.74566218  1
  C  C73  1  0.91718542  0.84874225  0.74295278  1
  C  C74  1  0.91718542  0.15125775  0.24295278  1
  C  C75  1  0.07281576  0.15907298  0.24566218  1
  C  C76  1  0.57281576  0.34092702  0.74566218  1
  C  C77  1  0.41718542  0.34874225  0.74295278  1
  C  C78  1  0.41718542  0.65125775  0.24295278  1
  C  C79  1  0.57281576  0.65907298  0.24566218  1
