# generated using pymatgen
data_Cu4Ni9C47
_symmetry_space_group_name_H-M   'P 1'
_cell_length_a   15.98082573
_cell_length_b   27.74500830
_cell_length_c   9.18898054
_cell_angle_alpha   90.05397929
_cell_angle_beta   125.25847882
_cell_angle_gamma   89.93903929
_symmetry_Int_Tables_number   1
_chemical_formula_structural   Cu4Ni9C47
_chemical_formula_sum   'Cu16 Ni36 C188'
_cell_volume   3326.88028722
_cell_formula_units_Z   4
loop_
 _symmetry_equiv_pos_site_id
 _symmetry_equiv_pos_as_xyz
  1  'x, y, z'
loop_
 _atom_site_type_symbol
 _atom_site_label
 _atom_site_symmetry_multiplicity
 _atom_site_fract_x
 _atom_site_fract_y
 _atom_site_fract_z
 _atom_site_occupancy
  Ni  Ni0  1  0.26325093  0.25164815  0.01440805  1
  Ni  Ni1  1  0.25421706  0.58145294  0.01010899  1
  Ni  Ni2  1  0.25105724  0.91579038  0.01330094  1
  Ni  Ni3  1  0.75668544  0.24939465  0.50707929  1
  Ni  Ni4  1  0.77158022  0.60390249  0.52409753  1
  Ni  Ni5  1  0.74689674  0.90296978  0.51185624  1
  Ni  Ni6  1  0.75421706  0.08145294  0.01010899  1
  Ni  Ni7  1  0.75105724  0.41579038  0.01330094  1
  Ni  Ni8  1  0.76325093  0.75164815  0.01440805  1
  Ni  Ni9  1  0.27158022  0.10390249  0.52409753  1
  Ni  Ni10  1  0.24689674  0.40296978  0.51185624  1
  Ni  Ni11  1  0.25668544  0.74939465  0.50707929  1
  Ni  Ni12  1  0.50472380  0.03957168  0.77262771  1
  Ni  Ni13  1  0.50841167  0.37504126  0.78060286  1
  Ni  Ni14  1  0.50469970  0.69878349  0.78728084  1
  Ni  Ni15  1  0.50542854  0.30188505  0.27109832  1
  Ni  Ni16  1  0.49520776  0.63630225  0.26102189  1
  Ni  Ni17  1  0.50063956  0.97223221  0.27293512  1
  Ni  Ni18  1  0.00469970  0.19878349  0.78728084  1
  Ni  Ni19  1  0.00472380  0.53957168  0.77262771  1
  Ni  Ni20  1  0.00841167  0.87504126  0.78060286  1
  Ni  Ni21  1  0.99520776  0.13630225  0.26102189  1
  Ni  Ni22  1  0.00063956  0.47223221  0.27293512  1
  Ni  Ni23  1  0.00542854  0.80188505  0.27109832  1
  Ni  Ni24  1  0.83342369  0.97629811  0.23997988  1
  Ni  Ni25  1  0.17728752  0.63426744  0.26337803  1
  Ni  Ni26  1  0.18857501  0.96977953  0.30736250  1
  Ni  Ni27  1  0.17991259  0.68884867  0.74623975  1
  Ni  Ni28  1  0.80749557  0.02093038  0.74364205  1
  Ni  Ni29  1  0.80775236  0.35656147  0.72244440  1
  Ni  Ni30  1  0.33342369  0.47629811  0.23997988  1
  Ni  Ni31  1  0.67728752  0.13426744  0.26337803  1
  Ni  Ni32  1  0.68857501  0.46977953  0.30736250  1
  Ni  Ni33  1  0.67991259  0.18884867  0.74623975  1
  Ni  Ni34  1  0.30749557  0.52093038  0.74364205  1
  Ni  Ni35  1  0.30775236  0.85656147  0.72244440  1
  Cu  Cu36  1  0.08871045  0.58418070  0.54682496  1
  Cu  Cu37  1  0.09469930  0.92208594  0.55880802  1
  Cu  Cu38  1  0.89565627  0.25095479  0.94970443  1
  Cu  Cu39  1  0.89695269  0.58219920  0.95686061  1
  Cu  Cu40  1  0.89049080  0.91819087  0.94583856  1
  Cu  Cu41  1  0.90618390  0.07986702  0.45913717  1
  Cu  Cu42  1  0.89439649  0.41502041  0.44495959  1
  Cu  Cu43  1  0.89651721  0.74722419  0.43274411  1
  Cu  Cu44  1  0.58871045  0.08418070  0.54682496  1
  Cu  Cu45  1  0.59469930  0.42208594  0.55880802  1
  Cu  Cu46  1  0.39695269  0.08219920  0.95686061  1
  Cu  Cu47  1  0.39049080  0.41819087  0.94583856  1
  Cu  Cu48  1  0.39565627  0.75095479  0.94970443  1
  Cu  Cu49  1  0.39651721  0.24722419  0.43274411  1
  Cu  Cu50  1  0.40618390  0.57986702  0.45913717  1
  Cu  Cu51  1  0.39439649  0.91502041  0.44495959  1
  C  C52  1  0.10100775  0.25281976  0.54393193  1
  C  C53  1  0.09927888  0.08667045  0.03325429  1
  C  C54  1  0.10517633  0.40953934  0.04946965  1
  C  C55  1  0.09931386  0.74994748  0.04957402  1
  C  C56  1  0.60100775  0.75281976  0.54393193  1
  C  C57  1  0.59931386  0.24994748  0.04957402  1
  C  C58  1  0.59927888  0.58667045  0.03325429  1
  C  C59  1  0.60517633  0.90953934  0.04946965  1
  C  C60  1  0.00001628  0.31530386  0.73623321  1
  C  C61  1  0.00991992  0.65097244  0.76723085  1
  C  C62  1  0.00180358  0.98483127  0.73889039  1
  C  C63  1  0.99476714  0.02136471  0.21253033  1
  C  C64  1  0.99888662  0.35038047  0.23131896  1
  C  C65  1  0.01795337  0.68526220  0.26610548  1
  C  C66  1  0.50991992  0.15097244  0.76723085  1
  C  C67  1  0.50180358  0.48483127  0.73889039  1
  C  C68  1  0.50001628  0.81530386  0.73623321  1
  C  C69  1  0.51795337  0.18526220  0.26610548  1
  C  C70  1  0.49476714  0.52136471  0.21253033  1
  C  C71  1  0.49888662  0.85038047  0.23131896  1
  C  C72  1  0.34812088  0.29551004  0.74019671  1
  C  C73  1  0.34491465  0.63066979  0.74490334  1
  C  C74  1  0.35295512  0.95974553  0.76402543  1
  C  C75  1  0.64097815  0.30019694  0.73649076  1
  C  C76  1  0.64298494  0.64032122  0.73312897  1
  C  C77  1  0.64313479  0.96569300  0.74392811  1
  C  C78  1  0.64996085  0.02543716  0.23844053  1
  C  C79  1  0.64176298  0.36491857  0.23134307  1
  C  C80  1  0.64221665  0.69831625  0.23804230  1
  C  C81  1  0.34714386  0.03624069  0.27170067  1
  C  C82  1  0.35725224  0.37019186  0.27916648  1
  C  C83  1  0.34508082  0.70318460  0.24630932  1
  C  C84  1  0.84491465  0.13066979  0.74490334  1
  C  C85  1  0.85295512  0.45974553  0.76402543  1
  C  C86  1  0.84812088  0.79551004  0.74019671  1
  C  C87  1  0.14298494  0.14032122  0.73312897  1
  C  C88  1  0.14313479  0.46569300  0.74392811  1
  C  C89  1  0.14097815  0.80019694  0.73649076  1
  C  C90  1  0.14221665  0.19831625  0.23804230  1
  C  C91  1  0.14996085  0.52543716  0.23844053  1
  C  C92  1  0.14176298  0.86491857  0.23134307  1
  C  C93  1  0.84508082  0.20318460  0.24630932  1
  C  C94  1  0.84714386  0.53624069  0.27170067  1
  C  C95  1  0.85725224  0.87019186  0.27916648  1
  C  C96  1  0.13961748  0.19802828  0.72445895  1
  C  C97  1  0.16476231  0.51992005  0.79009169  1
  C  C98  1  0.15676852  0.85434916  0.77635364  1
  C  C99  1  0.83780228  0.18609544  0.73680271  1
  C  C100  1  0.85995416  0.51458698  0.77312411  1
  C  C101  1  0.84339117  0.84917163  0.76811422  1
  C  C102  1  0.83672054  0.15103911  0.29058432  1
  C  C103  1  0.81712070  0.48368339  0.26922606  1
  C  C104  1  0.84862580  0.81663142  0.23089638  1
  C  C105  1  0.14407348  0.14101065  0.24068434  1
  C  C106  1  0.14961552  0.46795251  0.21318250  1
  C  C107  1  0.14333899  0.80793913  0.20304297  1
  C  C108  1  0.66476231  0.01992005  0.79009169  1
  C  C109  1  0.65676852  0.35434916  0.77635364  1
  C  C110  1  0.63961748  0.69802828  0.72445895  1
  C  C111  1  0.35995416  0.01458698  0.77312411  1
  C  C112  1  0.34339117  0.34917163  0.76811422  1
  C  C113  1  0.33780228  0.68609544  0.73680271  1
  C  C114  1  0.34862580  0.31663142  0.23089638  1
  C  C115  1  0.33672054  0.65103911  0.29058432  1
  C  C116  1  0.31712070  0.98368339  0.26922606  1
  C  C117  1  0.64333899  0.30793913  0.20304297  1
  C  C118  1  0.64407348  0.64101065  0.24068434  1
  C  C119  1  0.64961552  0.96795251  0.21318250  1
  C  C120  1  0.46915925  0.18397560  0.60970203  1
  C  C121  1  0.45710318  0.50335857  0.55103274  1
  C  C122  1  0.42603040  0.84566987  0.57796361  1
  C  C123  1  0.56568915  0.18616748  0.94128696  1
  C  C124  1  0.54564497  0.53329124  0.86729764  1
  C  C125  1  0.56681314  0.84839372  0.90705985  1
  C  C126  1  0.59224225  0.16524303  0.45652712  1
  C  C127  1  0.56236682  0.48514053  0.36144222  1
  C  C128  1  0.55670475  0.80959206  0.38649990  1
  C  C129  1  0.48509481  0.14437405  0.13423184  1
  C  C130  1  0.41485532  0.49723691  0.03581610  1
  C  C131  1  0.42467077  0.82555116  0.05525739  1
  C  C132  1  0.95710318  0.00335857  0.55103274  1
  C  C133  1  0.92603040  0.34566987  0.57796361  1
  C  C134  1  0.96915925  0.68397560  0.60970203  1
  C  C135  1  0.04564497  0.03329124  0.86729764  1
  C  C136  1  0.06681314  0.34839372  0.90705985  1
  C  C137  1  0.06568915  0.68616748  0.94128696  1
  C  C138  1  0.05670475  0.30959206  0.38649990  1
  C  C139  1  0.09224225  0.66524303  0.45652712  1
  C  C140  1  0.06236682  0.98514053  0.36144222  1
  C  C141  1  0.92467077  0.32555116  0.05525739  1
  C  C142  1  0.98509481  0.64437405  0.13423184  1
  C  C143  1  0.91485532  0.99723691  0.03581610  1
  C  C144  1  0.24993761  0.27078452  0.71730795  1
  C  C145  1  0.27423699  0.60682964  0.78673324  1
  C  C146  1  0.28181118  0.93674156  0.80562223  1
  C  C147  1  0.73312521  0.27662989  0.75078532  1
  C  C148  1  0.74179553  0.62087384  0.77167705  1
  C  C149  1  0.72555427  0.94193427  0.73184464  1
  C  C150  1  0.74681970  0.04507293  0.25824158  1
  C  C151  1  0.73100175  0.38895119  0.24201207  1
  C  C152  1  0.73504539  0.71845583  0.25648469  1
  C  C153  1  0.24023630  0.06554324  0.17676660  1
  C  C154  1  0.24756158  0.38873312  0.22513717  1
  C  C155  1  0.25621146  0.73278672  0.23064407  1
  C  C156  1  0.77423699  0.10682964  0.78673324  1
  C  C157  1  0.78181118  0.43674156  0.80562223  1
  C  C158  1  0.74993761  0.77078452  0.71730795  1
  C  C159  1  0.24179553  0.12087384  0.77167705  1
  C  C160  1  0.22555427  0.44193427  0.73184464  1
  C  C161  1  0.23312521  0.77662989  0.75078532  1
  C  C162  1  0.23504539  0.21845583  0.25648469  1
  C  C163  1  0.24681970  0.54507293  0.25824158  1
  C  C164  1  0.23100175  0.88895119  0.24201207  1
  C  C165  1  0.75621146  0.23278672  0.23064407  1
  C  C166  1  0.74023630  0.56554324  0.17676660  1
  C  C167  1  0.74756158  0.88873312  0.22513717  1
  C  C168  1  0.34576919  0.28435553  0.57896836  1
  C  C169  1  0.32624892  0.60954250  0.57555522  1
  C  C170  1  0.32522119  0.94049343  0.58572129  1
  C  C171  1  0.62757694  0.27626663  0.88434099  1
  C  C172  1  0.63005675  0.62953432  0.89020704  1
  C  C173  1  0.64340179  0.94150125  0.90519150  1
  C  C174  1  0.64948629  0.03253248  0.40531787  1
  C  C175  1  0.64435858  0.36923389  0.40176521  1
  C  C176  1  0.63372620  0.71321229  0.40045403  1
  C  C177  1  0.39046437  0.04132940  0.16133427  1
  C  C178  1  0.38075450  0.40219429  0.17076757  1
  C  C179  1  0.33924520  0.70454415  0.07532307  1
  C  C180  1  0.82624892  0.10954250  0.57555522  1
  C  C181  1  0.82522119  0.44049343  0.58572129  1
  C  C182  1  0.84576919  0.78435553  0.57896836  1
  C  C183  1  0.13005675  0.12953432  0.89020704  1
  C  C184  1  0.14340179  0.44150125  0.90519150  1
  C  C185  1  0.12757694  0.77626663  0.88434099  1
  C  C186  1  0.13372620  0.21321229  0.40045403  1
  C  C187  1  0.14948629  0.53253248  0.40531787  1
  C  C188  1  0.14435858  0.86923389  0.40176521  1
  C  C189  1  0.83924520  0.20454415  0.07532307  1
  C  C190  1  0.89046437  0.54132940  0.16133427  1
  C  C191  1  0.88075450  0.90219429  0.17076757  1
  C  C192  1  0.45125181  0.27314919  0.91434790  1
  C  C193  1  0.46122186  0.61682384  0.90490003  1
  C  C194  1  0.46674101  0.93670125  0.91159052  1
  C  C195  1  0.54502387  0.28747667  0.55642086  1
  C  C196  1  0.54816555  0.62280042  0.55884584  1
  C  C197  1  0.53690906  0.95906171  0.57360977  1
  C  C198  1  0.55596854  0.04686407  0.07078812  1
  C  C199  1  0.54152796  0.38285424  0.06441785  1
  C  C200  1  0.54271146  0.71396614  0.06788437  1
  C  C201  1  0.41967368  0.05854649  0.45759547  1
  C  C202  1  0.43389997  0.38307922  0.47678266  1
  C  C203  1  0.45336094  0.72637227  0.40282530  1
  C  C204  1  0.96122186  0.11682384  0.90490003  1
  C  C205  1  0.96674101  0.43670125  0.91159052  1
  C  C206  1  0.95125181  0.77314919  0.91434790  1
  C  C207  1  0.04816555  0.12280042  0.55884584  1
  C  C208  1  0.03690906  0.45906171  0.57360977  1
  C  C209  1  0.04502387  0.78747667  0.55642086  1
  C  C210  1  0.04271146  0.21396614  0.06788437  1
  C  C211  1  0.05596854  0.54686407  0.07078812  1
  C  C212  1  0.04152796  0.88285424  0.06441785  1
  C  C213  1  0.95336094  0.22637227  0.40282530  1
  C  C214  1  0.91967368  0.55854649  0.45759547  1
  C  C215  1  0.93389997  0.88307922  0.47678266  1
  C  C216  1  0.07830599  0.28818741  0.71026086  1
  C  C217  1  0.09834413  0.61936239  0.79689934  1
  C  C218  1  0.09270382  0.95131791  0.80473245  1
  C  C219  1  0.94211025  0.27669107  0.76400463  1
  C  C220  1  0.92892052  0.61984369  0.76120055  1
  C  C221  1  0.91927524  0.96111266  0.75119390  1
  C  C222  1  0.93875973  0.05871365  0.25182841  1
  C  C223  1  0.94906858  0.38885986  0.27535455  1
  C  C224  1  0.93168645  0.71815712  0.23378698  1
  C  C225  1  0.07467533  0.05042221  0.19101918  1
  C  C226  1  0.08631926  0.37604715  0.22991228  1
  C  C227  1  0.09008013  0.72087679  0.24035922  1
  C  C228  1  0.59834413  0.11936239  0.79689934  1
  C  C229  1  0.59270382  0.45131791  0.80473245  1
  C  C230  1  0.57830599  0.78818741  0.71026086  1
  C  C231  1  0.42892052  0.11984369  0.76120055  1
  C  C232  1  0.41927524  0.46111266  0.75119390  1
  C  C233  1  0.44211025  0.77669107  0.76400463  1
  C  C234  1  0.43168645  0.21815712  0.23378698  1
  C  C235  1  0.43875973  0.55871365  0.25182841  1
  C  C236  1  0.44906858  0.88885986  0.27535455  1
  C  C237  1  0.59008013  0.22087679  0.24035922  1
  C  C238  1  0.57467533  0.55042221  0.19101918  1
  C  C239  1  0.58631926  0.87604715  0.22991228  1
