# generated using pymatgen
data_Cu3Ni
_symmetry_space_group_name_H-M   'P 1'
_cell_length_a   7.42479991
_cell_length_b   7.42479991
_cell_length_c   8.61184261
_cell_angle_alpha   64.46383517
_cell_angle_beta   64.46383517
_cell_angle_gamma   60.00000077
_symmetry_Int_Tables_number   1
_chemical_formula_structural   Cu3Ni
_chemical_formula_sum   'Cu6 Ni2'
_cell_volume   356.59098922
_cell_formula_units_Z   2
loop_
 _symmetry_equiv_pos_site_id
 _symmetry_equiv_pos_as_xyz
  1  'x, y, z'
loop_
 _atom_site_type_symbol
 _atom_site_label
 _atom_site_symmetry_multiplicity
 _atom_site_fract_x
 _atom_site_fract_y
 _atom_site_fract_z
 _atom_site_occupancy
  Ni  Ni0  1  0.18025100  0.18025100  0.45924700  1
  Ni  Ni1  1  0.81974900  0.81974900  0.54075300  1
  Cu  Cu2  1  0.43358800  0.05789100  0.73046900  1
  Cu  Cu3  1  0.77805200  0.43358800  0.73046900  1
  Cu  Cu4  1  0.05789100  0.77805200  0.73046900  1
  Cu  Cu5  1  0.56641200  0.94210900  0.26953100  1
  Cu  Cu6  1  0.22194800  0.56641200  0.26953100  1
  Cu  Cu7  1  0.94210900  0.22194800  0.26953100  1
