# generated using pymatgen
data_Cu5NiC31
_symmetry_space_group_name_H-M   'P 1'
_cell_length_a   8.82218497
_cell_length_b   8.83729314
_cell_length_c   23.02999259
_cell_angle_alpha   90.36167483
_cell_angle_beta   89.48001830
_cell_angle_gamma   119.94126548
_symmetry_Int_Tables_number   1
_chemical_formula_structural   Cu5NiC31
_chemical_formula_sum   'Cu15 Ni3 C93'
_cell_volume   1555.81436803
_cell_formula_units_Z   3
loop_
 _symmetry_equiv_pos_site_id
 _symmetry_equiv_pos_as_xyz
  1  'x, y, z'
loop_
 _atom_site_type_symbol
 _atom_site_label
 _atom_site_symmetry_multiplicity
 _atom_site_fract_x
 _atom_site_fract_y
 _atom_site_fract_z
 _atom_site_occupancy
  C  C0  1  0.36759546  0.99488627  0.74961704  1
  C  C1  1  0.66214235  0.96653005  0.58694829  1
  C  C2  1  0.67145993  0.69858542  0.08209032  1
  C  C3  1  0.02017010  0.00247222  0.50341179  1
  C  C4  1  0.01073745  0.00307926  0.00273225  1
  C  C5  1  0.67831634  0.33740551  0.83353240  1
  C  C6  1  0.66675021  0.33338885  0.33313269  1
  C  C7  1  0.31307511  0.66385473  0.16684437  1
  C  C8  1  0.33017087  0.65911325  0.66653081  1
  C  C9  1  0.00475923  0.99968360  0.65145240  1
  C  C10  1  0.00948320  0.99601732  0.15074150  1
  C  C11  1  0.31185420  0.66502852  0.01600156  1
  C  C12  1  0.32497209  0.67185049  0.51578793  1
  C  C13  1  0.33175929  0.66485309  0.31716004  1
  C  C14  1  0.34747567  0.67006753  0.81671683  1
  C  C15  1  0.00185588  0.00114172  0.35013724  1
  C  C16  1  0.99094699  0.00030174  0.85021807  1
  C  C17  1  0.66879251  0.33066530  0.68190924  1
  C  C18  1  0.67394789  0.33587084  0.18328056  1
  C  C19  1  0.67340525  0.33736544  0.98331821  1
  C  C20  1  0.65780181  0.32937022  0.48257683  1
  Ni  Ni21  1  0.70289078  0.99668533  0.74755361  1
  Ni  Ni22  1  0.36095572  0.03036579  0.58382086  1
  Ni  Ni23  1  0.96810562  0.63504521  0.08389195  1
  Cu  Cu24  1  0.29739516  0.99812150  0.24935629  1
  Cu  Cu25  1  0.70009021  0.70487773  0.24922742  1
  Cu  Cu26  1  0.00329249  0.29494821  0.24926704  1
  Cu  Cu27  1  0.29291148  0.29764196  0.74978831  1
  Cu  Cu28  1  0.00007258  0.70371507  0.75002335  1
  Cu  Cu29  1  0.96922108  0.33616448  0.58196413  1
  Cu  Cu30  1  0.66650719  0.63201646  0.58311264  1
  Cu  Cu31  1  0.66630998  0.03247817  0.08319848  1
  Cu  Cu32  1  0.36685886  0.33211699  0.08324284  1
  Cu  Cu33  1  0.62342662  0.66514999  0.91850614  1
  Cu  Cu34  1  0.04511464  0.37679630  0.91578267  1
  Cu  Cu35  1  0.33331693  0.96193588  0.91557858  1
  Cu  Cu36  1  0.62591978  0.95791556  0.41665966  1
  Cu  Cu37  1  0.33292338  0.37825843  0.41638235  1
  Cu  Cu38  1  0.03982738  0.66549310  0.41617361  1
  C  C39  1  0.22276146  0.03033225  0.30341574  1
  C  C40  1  0.81038950  0.78468864  0.30167519  1
  C  C41  1  0.97360725  0.19069631  0.30330744  1
  C  C42  1  0.22052842  0.18482836  0.80253762  1
  C  C43  1  0.97224961  0.77998681  0.80424487  1
  C  C44  1  0.81243953  0.02895153  0.80262273  1
  C  C45  1  0.78612266  0.97572612  0.69150295  1
  C  C46  1  0.18994531  0.21514310  0.69768321  1
  C  C47  1  0.03036465  0.81486359  0.69890968  1
  C  C48  1  0.78108590  0.80589284  0.19583788  1
  C  C49  1  0.02297635  0.20898507  0.19729147  1
  C  C50  1  0.19156242  0.97589529  0.19792330  1
  C  C51  1  0.89337366  0.37017708  0.63526050  1
  C  C52  1  0.47769973  0.10718244  0.63958806  1
  C  C53  1  0.64056804  0.52508394  0.63577086  1
  C  C54  1  0.88627437  0.52078387  0.13831633  1
  C  C55  1  0.63220349  0.11002772  0.13559331  1
  C  C56  1  0.48002042  0.36450408  0.13511363  1
  C  C57  1  0.44520442  0.29865844  0.03034759  1
  C  C58  1  0.84535803  0.55578138  0.03014535  1
  C  C59  1  0.69348061  0.14024393  0.03052370  1
  C  C60  1  0.44833960  0.14751331  0.53023759  1
  C  C61  1  0.69870690  0.55320614  0.53048655  1
  C  C62  1  0.85384284  0.30378026  0.53070957  1
  C  C63  1  0.54406920  0.68540056  0.97249848  1
  C  C64  1  0.14367235  0.45444471  0.96909786  1
  C  C65  1  0.31174863  0.85822705  0.96758625  1
  C  C66  1  0.55071703  0.86107878  0.47120139  1
  C  C67  1  0.31209879  0.45842793  0.46975232  1
  C  C68  1  0.14085196  0.68946161  0.46909710  1
  C  C69  1  0.11983489  0.64287308  0.36293876  1
  C  C70  1  0.52090226  0.87449437  0.36478070  1
  C  C71  1  0.35376532  0.47798631  0.36318493  1
  C  C72  1  0.12621238  0.47916229  0.86286442  1
  C  C73  1  0.35570319  0.88563041  0.86101964  1
  C  C74  1  0.52199497  0.64555274  0.86580136  1
  C  C75  1  0.01994200  0.82481647  0.41206452  1
  C  C76  1  0.80495734  0.97730210  0.41193426  1
  C  C77  1  0.17437611  0.19798534  0.41282402  1
  C  C78  1  0.02581008  0.19802322  0.91284379  1
  C  C79  1  0.17367247  0.98147368  0.91192433  1
  C  C80  1  0.80315152  0.82336321  0.91442458  1
  C  C81  1  0.97482859  0.17224757  0.58827118  1
  C  C82  1  0.18087954  0.01312510  0.59112549  1
  C  C83  1  0.82109045  0.80918927  0.58831722  1
  C  C84  1  0.97528092  0.81407828  0.09038875  1
  C  C85  1  0.82516688  0.01742802  0.08951106  1
  C  C86  1  0.19209376  0.17902662  0.09040404  1
  C  C87  1  0.67661874  0.16129286  0.74566468  1
  C  C88  1  0.47166473  0.31382837  0.74503561  1
  C  C89  1  0.84056070  0.52896242  0.74451986  1
  C  C90  1  0.68195424  0.52652890  0.24599721  1
  C  C91  1  0.84136107  0.31111230  0.24640805  1
  C  C92  1  0.47491590  0.15924024  0.24431691  1
  C  C93  1  0.64204175  0.50511019  0.92034186  1
  C  C94  1  0.86429322  0.35462227  0.91928952  1
  C  C95  1  0.49308027  0.14028921  0.92078797  1
  C  C96  1  0.64767058  0.13781678  0.41973744  1
  C  C97  1  0.49275640  0.35827348  0.41911908  1
  C  C98  1  0.86082030  0.50655675  0.42094949  1
  C  C99  1  0.36143815  0.49637519  0.07647225  1
  C  C100  1  0.14839406  0.65243441  0.07691106  1
  C  C101  1  0.51274067  0.85463649  0.07677508  1
  C  C102  1  0.35765320  0.85336346  0.57666558  1
  C  C103  1  0.50793678  0.64790382  0.57732914  1
  C  C104  1  0.14365318  0.48948651  0.57498532  1
  C  C105  1  0.31467901  0.84123498  0.25570984  1
  C  C106  1  0.52598689  0.68845726  0.25639569  1
  C  C107  1  0.15971907  0.47035483  0.25514578  1
  C  C108  1  0.30994720  0.47050345  0.75730909  1
  C  C109  1  0.15910901  0.68767405  0.75609130  1
  C  C110  1  0.51510138  0.83561900  0.75413632  1
