# generated using pymatgen
data_Cu3NiC9
_symmetry_space_group_name_H-M   'P 1'
_cell_length_a   5.99530110
_cell_length_b   5.99093711
_cell_length_c   6.07321990
_cell_angle_alpha   59.70301789
_cell_angle_beta   120.31872497
_cell_angle_gamma   121.30953397
_symmetry_Int_Tables_number   1
_chemical_formula_structural   Cu3NiC9
_chemical_formula_sum   'Cu3 Ni1 C9'
_cell_volume   151.96001712
_cell_formula_units_Z   1
loop_
 _symmetry_equiv_pos_site_id
 _symmetry_equiv_pos_as_xyz
  1  'x, y, z'
loop_
 _atom_site_type_symbol
 _atom_site_label
 _atom_site_symmetry_multiplicity
 _atom_site_fract_x
 _atom_site_fract_y
 _atom_site_fract_z
 _atom_site_occupancy
  Ni  Ni0  1  0.00000000  0.00000000  0.00000000  1
  Cu  Cu1  1  0.50000000  0.50000000  0.00000000  1
  Cu  Cu2  1  0.50000000  0.00000000  0.00000000  1
  Cu  Cu3  1  0.00000000  0.50000000  0.00000000  1
  C  C4  1  0.50000000  0.50000000  0.50000000  1
  C  C5  1  0.73806100  0.72509700  0.74531100  1
  C  C6  1  0.73594600  0.26420500  0.74622400  1
  C  C7  1  0.26247400  0.73705600  0.81503300  1
  C  C8  1  0.27539000  0.26160200  0.74534200  1
  C  C9  1  0.72461000  0.73839800  0.25465800  1
  C  C10  1  0.73752600  0.26294400  0.18496700  1
  C  C11  1  0.26405400  0.73579500  0.25377600  1
  C  C12  1  0.26193900  0.27490300  0.25468900  1
