# generated using pymatgen
data_Cu6NiC6
_symmetry_space_group_name_H-M   'P 1'
_cell_length_a   10.02898316
_cell_length_b   10.02898316
_cell_length_c   10.02898316
_cell_angle_alpha   60.00000000
_cell_angle_beta   60.00000000
_cell_angle_gamma   60.00000000
_symmetry_Int_Tables_number   1
_chemical_formula_structural   Cu6NiC6
_chemical_formula_sum   'Cu24 Ni4 C24'
_cell_volume   713.27287443
_cell_formula_units_Z   4
loop_
 _symmetry_equiv_pos_site_id
 _symmetry_equiv_pos_as_xyz
  1  'x, y, z'
loop_
 _atom_site_type_symbol
 _atom_site_label
 _atom_site_symmetry_multiplicity
 _atom_site_fract_x
 _atom_site_fract_y
 _atom_site_fract_z
 _atom_site_occupancy
  C  C0  1  0.72536900  0.72536900  0.27463100  1
  C  C1  1  0.27463100  0.72536900  0.72536900  1
  C  C2  1  0.72536900  0.27463100  0.27463100  1
  C  C3  1  0.72536900  0.27463100  0.72536900  1
  C  C4  1  0.27463100  0.27463100  0.72536900  1
  C  C5  1  0.97536900  0.52463100  0.97536900  1
  C  C6  1  0.97536900  0.52463100  0.52463100  1
  C  C7  1  0.52463100  0.97536900  0.97536900  1
  C  C8  1  0.52463100  0.97536900  0.52463100  1
  C  C9  1  0.97536900  0.97536900  0.52463100  1
  C  C10  1  0.27463100  0.72536900  0.27463100  1
  C  C11  1  0.52463100  0.52463100  0.97536900  1
  C  C12  1  0.12500000  0.62500000  0.12500000  1
  C  C13  1  0.62500000  0.12500000  0.12500000  1
  C  C14  1  0.12500000  0.12500000  0.12500000  1
  C  C15  1  0.12500000  0.12500000  0.62500000  1
  C  C16  1  0.90835800  0.90835800  0.27492600  1
  C  C17  1  0.90835800  0.90835800  0.90835800  1
  C  C18  1  0.27492600  0.90835800  0.90835800  1
  C  C19  1  0.90835800  0.27492600  0.90835800  1
  C  C20  1  0.34164200  0.34164200  0.97507400  1
  C  C21  1  0.34164200  0.34164200  0.34164200  1
  C  C22  1  0.97507400  0.34164200  0.34164200  1
  C  C23  1  0.34164200  0.97507400  0.34164200  1
  Ni  Ni24  1  0.62500000  0.12500000  0.62500000  1
  Ni  Ni25  1  0.12500000  0.62500000  0.62500000  1
  Ni  Ni26  1  0.62500000  0.62500000  0.62500000  1
  Ni  Ni27  1  0.62500000  0.62500000  0.12500000  1
  Cu  Cu28  1  0.01609600  0.94273900  0.76432300  1
  Cu  Cu29  1  0.27684200  0.76432300  0.94273900  1
  Cu  Cu30  1  0.76432300  0.94273900  0.27684200  1
  Cu  Cu31  1  0.94273900  0.01609600  0.27684200  1
  Cu  Cu32  1  0.94273900  0.76432300  0.01609600  1
  Cu  Cu33  1  0.76432300  0.01609600  0.94273900  1
  Cu  Cu34  1  0.27684200  0.94273900  0.01609600  1
  Cu  Cu35  1  0.01609600  0.76432300  0.27684200  1
  Cu  Cu36  1  0.76432300  0.27684200  0.01609600  1
  Cu  Cu37  1  0.94273900  0.27684200  0.76432300  1
  Cu  Cu38  1  0.23390400  0.48567700  0.97315800  1
  Cu  Cu39  1  0.97315800  0.30726100  0.23390400  1
  Cu  Cu40  1  0.48567700  0.23390400  0.30726100  1
  Cu  Cu41  1  0.97315800  0.23390400  0.48567700  1
  Cu  Cu42  1  0.30726100  0.48567700  0.23390400  1
  Cu  Cu43  1  0.30726100  0.23390400  0.97315800  1
  Cu  Cu44  1  0.48567700  0.30726100  0.97315800  1
  Cu  Cu45  1  0.97315800  0.48567700  0.30726100  1
  Cu  Cu46  1  0.01609600  0.27684200  0.94273900  1
  Cu  Cu47  1  0.23390400  0.30726100  0.48567700  1
  Cu  Cu48  1  0.30726100  0.97315800  0.48567700  1
  Cu  Cu49  1  0.48567700  0.97315800  0.23390400  1
  Cu  Cu50  1  0.23390400  0.97315800  0.30726100  1
  Cu  Cu51  1  0.27684200  0.01609600  0.76432300  1
