# generated using pymatgen
data_Cu2NiC
_symmetry_space_group_name_H-M   'P 1'
_cell_length_a   12.97010294
_cell_length_b   12.97010294
_cell_length_c   9.70024805
_cell_angle_alpha   79.07653468
_cell_angle_beta   79.07653468
_cell_angle_gamma   46.34282109
_symmetry_Int_Tables_number   1
_chemical_formula_structural   Cu2NiC
_chemical_formula_sum   'Cu16 Ni8 C8'
_cell_volume   1155.23510947
_cell_formula_units_Z   8
loop_
 _symmetry_equiv_pos_site_id
 _symmetry_equiv_pos_as_xyz
  1  'x, y, z'
loop_
 _atom_site_type_symbol
 _atom_site_label
 _atom_site_symmetry_multiplicity
 _atom_site_fract_x
 _atom_site_fract_y
 _atom_site_fract_z
 _atom_site_occupancy
  C  C0  1  0.46537100  0.53462900  0.75000000  1
  C  C1  1  0.53462900  0.46537100  0.25000000  1
  C  C2  1  0.00072900  0.99927100  0.75000000  1
  C  C3  1  0.99927100  0.00072900  0.25000000  1
  C  C4  1  0.12391100  0.27127600  0.17246400  1
  C  C5  1  0.72872400  0.87608900  0.32753600  1
  C  C6  1  0.87608900  0.72872400  0.82753600  1
  C  C7  1  0.27127600  0.12391100  0.67246400  1
  Ni  Ni8  1  0.51031900  0.79500900  0.95715400  1
  Ni  Ni9  1  0.80879100  0.41006100  0.84963900  1
  Ni  Ni10  1  0.58993900  0.19120900  0.65036100  1
  Ni  Ni11  1  0.19120900  0.58993900  0.15036100  1
  Ni  Ni12  1  0.41006100  0.80879100  0.34963900  1
  Ni  Ni13  1  0.20499100  0.48968100  0.54284600  1
  Ni  Ni14  1  0.48968100  0.20499100  0.04284600  1
  Ni  Ni15  1  0.79500900  0.51031900  0.45715400  1
  Cu  Cu16  1  0.19113300  0.01636100  0.44196600  1
  Cu  Cu17  1  0.98363900  0.80886700  0.05803400  1
  Cu  Cu18  1  0.80886700  0.98363900  0.55803400  1
  Cu  Cu19  1  0.91175600  0.47957200  0.65595100  1
  Cu  Cu20  1  0.01636100  0.19113300  0.94196600  1
  Cu  Cu21  1  0.47957200  0.91175600  0.15595100  1
  Cu  Cu22  1  0.08824400  0.52042800  0.34404900  1
  Cu  Cu23  1  0.52042800  0.08824400  0.84404900  1
  Cu  Cu24  1  0.77558000  0.34113600  0.50738000  1
  Cu  Cu25  1  0.65886400  0.22442000  0.99262000  1
  Cu  Cu26  1  0.22442000  0.65886400  0.49262000  1
  Cu  Cu27  1  0.34113600  0.77558000  0.00738000  1
  Cu  Cu28  1  0.55832000  0.74376000  0.53422500  1
  Cu  Cu29  1  0.25624000  0.44168000  0.96577500  1
  Cu  Cu30  1  0.44168000  0.25624000  0.46577500  1
  Cu  Cu31  1  0.74376000  0.55832000  0.03422500  1
