# generated using pymatgen
data_CuNi3C17
_symmetry_space_group_name_H-M   'P 1'
_cell_length_a   9.15383605
_cell_length_b   9.15383573
_cell_length_c   22.87647108
_cell_angle_alpha   90.00000000
_cell_angle_beta   90.00000000
_cell_angle_gamma   120.00000114
_symmetry_Int_Tables_number   1
_chemical_formula_structural   CuNi3C17
_chemical_formula_sum   'Cu6 Ni18 C102'
_cell_volume   1660.06809113
_cell_formula_units_Z   6
loop_
 _symmetry_equiv_pos_site_id
 _symmetry_equiv_pos_as_xyz
  1  'x, y, z'
loop_
 _atom_site_type_symbol
 _atom_site_label
 _atom_site_symmetry_multiplicity
 _atom_site_fract_x
 _atom_site_fract_y
 _atom_site_fract_z
 _atom_site_occupancy
  C  C0  1  0.63439292  0.00004734  0.25001608  1
  C  C1  1  0.36565443  0.36560708  0.25001608  1
  C  C2  1  0.99995266  0.63434557  0.25001608  1
  C  C3  1  0.63424349  0.63409388  0.74975557  1
  C  C4  1  0.99985039  0.36575651  0.74975557  1
  C  C5  1  0.36590612  0.00014961  0.74975557  1
  C  C6  1  0.30058251  0.33330961  0.58332045  1
  C  C7  1  0.03272810  0.69941749  0.58332045  1
  C  C8  1  0.66669039  0.96727190  0.58332045  1
  C  C9  1  0.30067243  0.96772680  0.08352444  1
  C  C10  1  0.66705537  0.69932757  0.08352444  1
  C  C11  1  0.03227320  0.33294463  0.08352444  1
  C  C12  1  0.96775716  0.66665096  0.91666614  1
  C  C13  1  0.69889280  0.03224284  0.91666614  1
  C  C14  1  0.33334904  0.30110720  0.91666614  1
  C  C15  1  0.96740433  0.30052931  0.41671306  1
  C  C16  1  0.33312397  0.03259567  0.41671306  1
  C  C17  1  0.69947069  0.66687603  0.41671306  1
  C  C18  1  0.00000000  0.00000000  0.50000446  1
  C  C19  1  0.00000000  0.00000000  0.00022891  1
  C  C20  1  0.66666700  0.33333300  0.83311002  1
  C  C21  1  0.66666700  0.33333300  0.33351242  1
  C  C22  1  0.33333300  0.66666700  0.16671137  1
  C  C23  1  0.33333300  0.66666700  0.66643802  1
  C  C24  1  0.00000000  0.00000000  0.85120230  1
  C  C25  1  0.66666700  0.33333300  0.18514812  1
  C  C26  1  0.66666700  0.33333300  0.98227859  1
  C  C27  1  0.33333300  0.66666700  0.01802494  1
  C  C28  1  0.33333300  0.66666700  0.31505143  1
  C  C29  1  0.33333300  0.66666700  0.81501428  1
  Ni  Ni30  1  0.29019242  0.99998443  0.25004360  1
  Ni  Ni31  1  0.70979201  0.70980758  0.25004360  1
  Ni  Ni32  1  0.00001557  0.29020799  0.25004360  1
  Ni  Ni33  1  0.29257304  0.29120163  0.74930780  1
  Ni  Ni34  1  0.99862860  0.70742696  0.74930780  1
  Ni  Ni35  1  0.70879837  0.00137140  0.74930780  1
  Ni  Ni36  1  0.95820288  0.33336014  0.58331559  1
  Ni  Ni37  1  0.37515826  0.04179712  0.58331559  1
  Ni  Ni38  1  0.66663986  0.62484174  0.58331559  1
  Ni  Ni39  1  0.95916283  0.62677956  0.08384151  1
  Ni  Ni40  1  0.66761773  0.04083717  0.08384151  1
  Ni  Ni41  1  0.37322044  0.33238227  0.08384151  1
  Ni  Ni42  1  0.62568556  0.66661952  0.91664078  1
  Ni  Ni43  1  0.04093296  0.37431444  0.91664078  1
  Ni  Ni44  1  0.33338048  0.95906704  0.91664078  1
  Ni  Ni45  1  0.62560184  0.95934352  0.41685036  1
  Ni  Ni46  1  0.33374067  0.37439816  0.41685036  1
  Ni  Ni47  1  0.04065648  0.66625933  0.41685036  1
  Cu  Cu48  1  0.00000000  0.00000000  0.35135525  1
  Cu  Cu49  1  0.00000000  0.00000000  0.64857897  1
  Cu  Cu50  1  0.00000000  0.00000000  0.14887586  1
  Cu  Cu51  1  0.66666700  0.33333300  0.68436706  1
  Cu  Cu52  1  0.66666700  0.33333300  0.48227502  1
  Cu  Cu53  1  0.33333300  0.66666700  0.51778753  1
  C  C54  1  0.21044781  0.03914752  0.30791939  1
  C  C55  1  0.82869972  0.78955219  0.30791939  1
  C  C56  1  0.96085248  0.17130028  0.30791939  1
  C  C57  1  0.20756135  0.17141740  0.80664997  1
  C  C58  1  0.96385604  0.79243865  0.80664997  1
  C  C59  1  0.82858260  0.03614396  0.80664997  1
  C  C60  1  0.78952060  0.96114572  0.69196660  1
  C  C61  1  0.17162512  0.21047940  0.69196660  1
  C  C62  1  0.03885428  0.82837488  0.69196660  1
  C  C63  1  0.78932244  0.82855925  0.19211369  1
  C  C64  1  0.03923681  0.21067756  0.19211369  1
  C  C65  1  0.17144075  0.96076319  0.19211369  1
  C  C66  1  0.87817299  0.37267792  0.64110254  1
  C  C67  1  0.49450594  0.12182701  0.64110254  1
  C  C68  1  0.62732208  0.50549406  0.64110254  1
  C  C69  1  0.87314958  0.50462742  0.14046638  1
  C  C70  1  0.63147884  0.12685042  0.14046638  1
  C  C71  1  0.49537258  0.36852116  0.14046638  1
  C  C72  1  0.45903741  0.29752984  0.02669464  1
  C  C73  1  0.83849343  0.54096259  0.02669464  1
  C  C74  1  0.70247016  0.16150657  0.02669464  1
  C  C75  1  0.45530607  0.16127192  0.52556403  1
  C  C76  1  0.70596685  0.54469393  0.52556403  1
  C  C77  1  0.83872808  0.29403315  0.52556403  1
  C  C78  1  0.53988969  0.70194701  0.97358336  1
  C  C79  1  0.16205632  0.46011031  0.97358336  1
  C  C80  1  0.29805299  0.83794368  0.97358336  1
  C  C81  1  0.54469578  0.83902345  0.47443008  1
  C  C82  1  0.29432667  0.45530422  0.47443008  1
  C  C83  1  0.16097655  0.70567333  0.47443008  1
  C  C84  1  0.12594764  0.63069410  0.35983639  1
  C  C85  1  0.50474546  0.87405236  0.35983639  1
  C  C86  1  0.36930590  0.49525454  0.35983639  1
  C  C87  1  0.12691338  0.49547545  0.85971360  1
  C  C88  1  0.36856107  0.87308662  0.85971360  1
  C  C89  1  0.50452455  0.63143893  0.85971360  1
  C  C90  1  0.02341092  0.83627351  0.41050577  1
  C  C91  1  0.81286259  0.97658908  0.41050577  1
  C  C92  1  0.16372649  0.18713741  0.41050577  1
  C  C93  1  0.02330094  0.18807569  0.90999775  1
  C  C94  1  0.16477475  0.97669906  0.90999775  1
  C  C95  1  0.81192431  0.83522525  0.90999775  1
  C  C96  1  0.97635278  0.16378621  0.58947183  1
  C  C97  1  0.18743343  0.02364722  0.58947183  1
  C  C98  1  0.83621379  0.81256657  0.58947183  1
  C  C99  1  0.97624959  0.81387477  0.08951931  1
  C  C100  1  0.83762518  0.02375041  0.08951931  1
  C  C101  1  0.18612523  0.16237482  0.08951931  1
  C  C102  1  0.69068297  0.17105404  0.74377797  1
  C  C103  1  0.48037207  0.30931703  0.74377797  1
  C  C104  1  0.82894596  0.51962793  0.74377797  1
  C  C105  1  0.69046729  0.52262073  0.24354526  1
  C  C106  1  0.83215444  0.30953271  0.24354526  1
  C  C107  1  0.47737927  0.16784556  0.24354526  1
  C  C108  1  0.64338212  0.49810092  0.92334575  1
  C  C109  1  0.85471980  0.35661788  0.92334575  1
  C  C110  1  0.50189908  0.14528020  0.92334575  1
  C  C111  1  0.64292778  0.14669789  0.42286715  1
  C  C112  1  0.50377111  0.35707222  0.42286715  1
  C  C113  1  0.85330211  0.49622889  0.42286715  1
  C  C114  1  0.35629765  0.50118290  0.07678664  1
  C  C115  1  0.14488424  0.64370235  0.07678664  1
  C  C116  1  0.49881710  0.85511576  0.07678664  1
  C  C117  1  0.35699744  0.85396077  0.57712770  1
  C  C118  1  0.49696233  0.64300256  0.57712770  1
  C  C119  1  0.14603923  0.50303767  0.57712770  1
  C  C120  1  0.30950971  0.83193940  0.25653565  1
  C  C121  1  0.52242869  0.69049029  0.25653565  1
  C  C122  1  0.16806060  0.47757131  0.25653565  1
  C  C123  1  0.31016499  0.47738650  0.75649498  1
  C  C124  1  0.16722051  0.68983501  0.75649498  1
  C  C125  1  0.52261350  0.83277949  0.75649498  1
