# generated using pymatgen
data_CuNiC5
_symmetry_space_group_name_H-M   'P 1'
_cell_length_a   3.19266500
_cell_length_b   5.04980402
_cell_length_c   5.83142236
_cell_angle_alpha   88.82934337
_cell_angle_beta   90.00000000
_cell_angle_gamma   90.00000000
_symmetry_Int_Tables_number   1
_chemical_formula_structural   CuNiC5
_chemical_formula_sum   'Cu1 Ni1 C5'
_cell_volume   93.99650726
_cell_formula_units_Z   1
loop_
 _symmetry_equiv_pos_site_id
 _symmetry_equiv_pos_as_xyz
  1  'x, y, z'
loop_
 _atom_site_type_symbol
 _atom_site_label
 _atom_site_symmetry_multiplicity
 _atom_site_fract_x
 _atom_site_fract_y
 _atom_site_fract_z
 _atom_site_occupancy
  C  C0  1  0.00000000  0.05909200  0.57924900  1
  Ni  Ni1  1  0.00000000  0.05858600  0.07881900  1
  Cu  Cu2  1  0.50000000  0.53365600  0.50827200  1
  C  C3  1  0.00000000  0.34545500  0.32184200  1
  C  C4  1  0.50000000  0.89335700  0.29136000  1
  C  C5  1  0.50000000  0.21412500  0.73430900  1
  C  C6  1  0.00000000  0.68739600  0.68059400  1
