# generated using pymatgen
data_Cu2Ni5C32
_symmetry_space_group_name_H-M   'P 1'
_cell_length_a   9.34639123
_cell_length_b   9.34576583
_cell_length_c   23.55035596
_cell_angle_alpha   90.06118729
_cell_angle_beta   90.16903382
_cell_angle_gamma   120.07870178
_symmetry_Int_Tables_number   1
_chemical_formula_structural   Cu2Ni5C32
_chemical_formula_sum   'Cu6 Ni15 C96'
_cell_volume   1780.07468357
_cell_formula_units_Z   3
loop_
 _symmetry_equiv_pos_site_id
 _symmetry_equiv_pos_as_xyz
  1  'x, y, z'
loop_
 _atom_site_type_symbol
 _atom_site_label
 _atom_site_symmetry_multiplicity
 _atom_site_fract_x
 _atom_site_fract_y
 _atom_site_fract_z
 _atom_site_occupancy
  Ni  Ni0  1  0.64469086  0.01848701  0.25395111  1
  Ni  Ni1  1  0.00253886  0.63135366  0.24036583  1
  Ni  Ni2  1  0.63070395  0.63447167  0.74185496  1
  Ni  Ni3  1  0.99354489  0.34666885  0.74476991  1
  Ni  Ni4  1  0.30837388  0.34940856  0.58704807  1
  Ni  Ni5  1  0.67007938  0.96523082  0.57590670  1
  Ni  Ni6  1  0.29768559  0.95610844  0.07836332  1
  Ni  Ni7  1  0.69060272  0.02594551  0.90915210  1
  Ni  Ni8  1  0.96213430  0.28886127  0.41132043  1
  Ni  Ni9  1  0.97214114  0.96642618  0.49560258  1
  Ni  Ni10  1  0.01233273  0.98243702  0.99560792  1
  Ni  Ni11  1  0.62122734  0.30152248  0.82822002  1
  Ni  Ni12  1  0.63298647  0.30729565  0.33045019  1
  Ni  Ni13  1  0.30512289  0.63304305  0.16264063  1
  Ni  Ni14  1  0.32566699  0.66399247  0.66242591  1
  Cu  Cu15  1  0.00638254  0.00290180  0.34906085  1
  Cu  Cu16  1  0.02073155  0.00695135  0.85049712  1
  Cu  Cu17  1  0.66446548  0.33008075  0.68232597  1
  Cu  Cu18  1  0.66858218  0.33751511  0.18170610  1
  Cu  Cu19  1  0.32227054  0.66005501  0.01649080  1
  Cu  Cu20  1  0.33588056  0.67125138  0.51496036  1
  C  C21  1  0.99820250  0.99977406  0.65137520  1
  C  C22  1  0.00543070  0.00636087  0.15108250  1
  C  C23  1  0.67593099  0.34911722  0.98420035  1
  C  C24  1  0.67162814  0.33819444  0.48460734  1
  C  C25  1  0.33898148  0.67221559  0.31760180  1
  C  C26  1  0.33543031  0.67763178  0.81780702  1
  C  C27  1  0.30121605  0.99595042  0.24914038  1
  C  C28  1  0.99885970  0.30275671  0.25324808  1
  C  C29  1  0.30242915  0.30876485  0.74845046  1
  C  C30  1  0.70196279  0.99828783  0.75329406  1
  C  C31  1  0.96971961  0.33072739  0.58505485  1
  C  C32  1  0.66542170  0.63584003  0.58603230  1
  C  C33  1  0.97264838  0.64231764  0.08771940  1
  C  C34  1  0.34150666  0.97343128  0.92240131  1
  C  C35  1  0.64123020  0.97574522  0.41829912  1
  C  C36  1  0.70275691  0.70496759  0.25040643  1
  C  C37  1  0.99898013  0.69846368  0.75055660  1
  C  C38  1  0.36716870  0.03639132  0.58310389  1
  C  C39  1  0.66792076  0.03454279  0.08286564  1
  C  C40  1  0.36740577  0.33090269  0.08345392  1
  C  C41  1  0.63141958  0.66845868  0.91600713  1
  C  C42  1  0.02744908  0.36316157  0.91520545  1
  C  C43  1  0.33413116  0.36754240  0.41886189  1
  C  C44  1  0.03230783  0.66297747  0.41599368  1
  C  C45  1  0.21178218  0.00929097  0.30070312  1
  C  C46  1  0.80200657  0.78332648  0.30127452  1
  C  C47  1  0.97685811  0.20523283  0.30820555  1
  C  C48  1  0.21175003  0.20084424  0.79887014  1
  C  C49  1  0.98166372  0.77948674  0.80096261  1
  C  C50  1  0.80111694  0.01286314  0.80716480  1
  C  C51  1  0.78946331  0.97461366  0.70000545  1
  C  C52  1  0.20421774  0.22652449  0.69208204  1
  C  C53  1  0.02089514  0.79832433  0.69895611  1
  C  C54  1  0.78376004  0.80941265  0.19954549  1
  C  C55  1  0.01297082  0.20744314  0.20141481  1
  C  C56  1  0.19758390  0.97409516  0.19398674  1
  C  C57  1  0.88945830  0.34460476  0.63978411  1
  C  C58  1  0.46651691  0.11393485  0.63409971  1
  C  C59  1  0.64574852  0.54030268  0.64124817  1
  C  C60  1  0.89437476  0.55500814  0.14380895  1
  C  C61  1  0.64871337  0.11491836  0.13410532  1
  C  C62  1  0.46073841  0.34669354  0.13514041  1
  C  C63  1  0.45331622  0.31203846  0.03290707  1
  C  C64  1  0.86187577  0.54276116  0.03637711  1
  C  C65  1  0.68487316  0.13626161  0.03150365  1
  C  C66  1  0.44934460  0.14108470  0.53239924  1
  C  C67  1  0.67604784  0.53818178  0.53438811  1
  C  C68  1  0.85845689  0.30993561  0.53216890  1
  C  C69  1  0.54190717  0.68120404  0.96496849  1
  C  C70  1  0.12900335  0.44788984  0.96462798  1
  C  C71  1  0.32957964  0.88160921  0.97775728  1
  C  C72  1  0.55547721  0.88169054  0.47259724  1
  C  C73  1  0.31862760  0.44535796  0.47123271  1
  C  C74  1  0.13086458  0.67749568  0.46601905  1
  C  C75  1  0.11320540  0.64425340  0.36364360  1
  C  C76  1  0.53794246  0.88421231  0.36395624  1
  C  C77  1  0.34920958  0.47166426  0.36880300  1
  C  C78  1  0.10644832  0.45641779  0.86212004  1
  C  C79  1  0.36050048  0.87606099  0.87100300  1
  C  C80  1  0.53519858  0.64773721  0.86249918  1
  C  C81  1  0.00791433  0.80637117  0.41239800  1
  C  C82  1  0.81822262  0.00018639  0.41597695  1
  C  C83  1  0.18148337  0.20372671  0.41390200  1
  C  C84  1  0.99768132  0.19132931  0.91299536  1
  C  C85  1  0.19035230  0.99519898  0.91669428  1
  C  C86  1  0.79444850  0.82323226  0.91308982  1
  C  C87  1  0.97992675  0.16634358  0.58621649  1
  C  C88  1  0.20189812  0.02454963  0.58711790  1
  C  C89  1  0.82164662  0.81337572  0.58638222  1
  C  C90  1  0.99430979  0.82087494  0.08571616  1
  C  C91  1  0.81798395  0.01824131  0.08682452  1
  C  C92  1  0.20214152  0.17284664  0.08539632  1
  C  C93  1  0.69146237  0.15723445  0.74768134  1
  C  C94  1  0.48315066  0.34536596  0.74691997  1
  C  C95  1  0.84866697  0.53195984  0.74585702  1
  C  C96  1  0.68409520  0.53914948  0.24473483  1
  C  C97  1  0.84295303  0.32211534  0.24735343  1
  C  C98  1  0.48033017  0.14302721  0.24587393  1
  C  C99  1  0.65352070  0.52142121  0.92026481  1
  C  C100  1  0.85927096  0.34828866  0.91928646  1
  C  C101  1  0.50889916  0.14459021  0.92195137  1
  C  C102  1  0.66129907  0.15409525  0.41856939  1
  C  C103  1  0.48357158  0.34938516  0.42047884  1
  C  C104  1  0.86772429  0.50472454  0.41921794  1
  C  C105  1  0.34361668  0.47451568  0.07819371  1
  C  C106  1  0.14908105  0.66533355  0.08360191  1
  C  C107  1  0.51681840  0.86920379  0.07827699  1
  C  C108  1  0.35027986  0.87106055  0.57753543  1
  C  C109  1  0.51033331  0.65726380  0.58110894  1
  C  C110  1  0.14756937  0.47792539  0.57966433  1
  C  C111  1  0.31377239  0.83265543  0.25292258  1
  C  C112  1  0.53686005  0.69337618  0.25448214  1
  C  C113  1  0.15449130  0.48073081  0.25494573  1
  C  C114  1  0.30655758  0.48032547  0.75254044  1
  C  C115  1  0.14553870  0.67342959  0.75444686  1
  C  C116  1  0.52781423  0.83667055  0.75489493  1
