# generated using pymatgen
data_Cu6NiC14
_symmetry_space_group_name_H-M   'P 1'
_cell_length_a   13.07792500
_cell_length_b   13.07792500
_cell_length_c   13.07792500
_cell_angle_alpha   90.00000000
_cell_angle_beta   90.00000000
_cell_angle_gamma   90.00000000
_symmetry_Int_Tables_number   1
_chemical_formula_structural   Cu6NiC14
_chemical_formula_sum   'Cu24 Ni4 C56'
_cell_volume   2236.74526810
_cell_formula_units_Z   4
loop_
 _symmetry_equiv_pos_site_id
 _symmetry_equiv_pos_as_xyz
  1  'x, y, z'
loop_
 _atom_site_type_symbol
 _atom_site_label
 _atom_site_symmetry_multiplicity
 _atom_site_fract_x
 _atom_site_fract_y
 _atom_site_fract_z
 _atom_site_occupancy
  Ni  Ni0  1  0.75000000  0.75000000  0.75000000  1
  Ni  Ni1  1  0.25000000  0.25000000  0.75000000  1
  Ni  Ni2  1  0.75000000  0.25000000  0.25000000  1
  Ni  Ni3  1  0.25000000  0.75000000  0.25000000  1
  Cu  Cu4  1  0.38665500  0.22527500  0.28053600  1
  Cu  Cu5  1  0.28053600  0.38665500  0.22527500  1
  Cu  Cu6  1  0.22527500  0.28053600  0.38665500  1
  Cu  Cu7  1  0.77472500  0.71946400  0.38665500  1
  Cu  Cu8  1  0.28053600  0.61334500  0.77472500  1
  Cu  Cu9  1  0.77472500  0.28053600  0.61334500  1
  Cu  Cu10  1  0.71946400  0.61334500  0.22527500  1
  Cu  Cu11  1  0.71946400  0.38665500  0.77472500  1
  Cu  Cu12  1  0.22527500  0.71946400  0.61334500  1
  Cu  Cu13  1  0.38665500  0.77472500  0.71946400  1
  Cu  Cu14  1  0.61334500  0.22527500  0.71946400  1
  Cu  Cu15  1  0.61334500  0.77472500  0.28053600  1
  Cu  Cu16  1  0.11334500  0.27472500  0.21946400  1
  Cu  Cu17  1  0.21946400  0.11334500  0.27472500  1
  Cu  Cu18  1  0.27472500  0.21946400  0.11334500  1
  Cu  Cu19  1  0.72527500  0.78053600  0.11334500  1
  Cu  Cu20  1  0.21946400  0.88665500  0.72527500  1
  Cu  Cu21  1  0.72527500  0.21946400  0.88665500  1
  Cu  Cu22  1  0.78053600  0.88665500  0.27472500  1
  Cu  Cu23  1  0.78053600  0.11334500  0.72527500  1
  Cu  Cu24  1  0.27472500  0.78053600  0.88665500  1
  Cu  Cu25  1  0.11334500  0.72527500  0.78053600  1
  Cu  Cu26  1  0.88665500  0.27472500  0.78053600  1
  Cu  Cu27  1  0.88665500  0.72527500  0.21946400  1
  C  C28  1  0.38488400  0.38488400  0.38488400  1
  C  C29  1  0.61511600  0.61511600  0.38488400  1
  C  C30  1  0.38488400  0.61511600  0.61511600  1
  C  C31  1  0.61511600  0.38488400  0.61511600  1
  C  C32  1  0.11511600  0.11511600  0.11511600  1
  C  C33  1  0.88488400  0.88488400  0.11511600  1
  C  C34  1  0.11511600  0.88488400  0.88488400  1
  C  C35  1  0.88488400  0.11511600  0.88488400  1
  C  C36  1  0.37401500  0.06884600  0.17388500  1
  C  C37  1  0.17388500  0.37401500  0.06884600  1
  C  C38  1  0.06884600  0.17388500  0.37401500  1
  C  C39  1  0.93115400  0.82611500  0.37401500  1
  C  C40  1  0.17388500  0.62598500  0.93115400  1
  C  C41  1  0.93115400  0.17388500  0.62598500  1
  C  C42  1  0.82611500  0.62598500  0.06884600  1
  C  C43  1  0.82611500  0.37401500  0.93115400  1
  C  C44  1  0.06884600  0.82611500  0.62598500  1
  C  C45  1  0.37401500  0.93115400  0.82611500  1
  C  C46  1  0.62598500  0.06884600  0.82611500  1
  C  C47  1  0.62598500  0.93115400  0.17388500  1
  C  C48  1  0.12598500  0.43115400  0.32611500  1
  C  C49  1  0.32611500  0.12598500  0.43115400  1
  C  C50  1  0.43115400  0.32611500  0.12598500  1
  C  C51  1  0.56884600  0.67388500  0.12598500  1
  C  C52  1  0.32611500  0.87401500  0.56884600  1
  C  C53  1  0.56884600  0.32611500  0.87401500  1
  C  C54  1  0.67388500  0.87401500  0.43115400  1
  C  C55  1  0.67388500  0.12598500  0.56884600  1
  C  C56  1  0.43115400  0.67388500  0.87401500  1
  C  C57  1  0.12598500  0.56884600  0.67388500  1
  C  C58  1  0.87401500  0.43115400  0.67388500  1
  C  C59  1  0.87401500  0.56884600  0.32611500  1
  C  C60  1  0.56595200  0.18726700  0.32856900  1
  C  C61  1  0.32856900  0.56595200  0.18726700  1
  C  C62  1  0.18726700  0.32856900  0.56595200  1
  C  C63  1  0.81273300  0.67143100  0.56595200  1
  C  C64  1  0.32856900  0.43404800  0.81273300  1
  C  C65  1  0.81273300  0.32856900  0.43404800  1
  C  C66  1  0.67143100  0.43404800  0.18726700  1
  C  C67  1  0.67143100  0.56595200  0.81273300  1
  C  C68  1  0.18726700  0.67143100  0.43404800  1
  C  C69  1  0.56595200  0.81273300  0.67143100  1
  C  C70  1  0.43404800  0.18726700  0.67143100  1
  C  C71  1  0.43404800  0.81273300  0.32856900  1
  C  C72  1  0.93404800  0.31273300  0.17143100  1
  C  C73  1  0.17143100  0.93404800  0.31273300  1
  C  C74  1  0.31273300  0.17143100  0.93404800  1
  C  C75  1  0.68726700  0.82856900  0.93404800  1
  C  C76  1  0.17143100  0.06595200  0.68726700  1
  C  C77  1  0.68726700  0.17143100  0.06595200  1
  C  C78  1  0.82856900  0.06595200  0.31273300  1
  C  C79  1  0.82856900  0.93404800  0.68726700  1
  C  C80  1  0.31273300  0.82856900  0.06595200  1
  C  C81  1  0.93404800  0.68726700  0.82856900  1
  C  C82  1  0.06595200  0.31273300  0.82856900  1
  C  C83  1  0.06595200  0.68726700  0.17143100  1
