# generated using pymatgen
data_Cu6NiC18
_symmetry_space_group_name_H-M   'P 1'
_cell_length_a   8.50977381
_cell_length_b   7.71854794
_cell_length_c   9.37179598
_cell_angle_alpha   76.14005730
_cell_angle_beta   102.25716531
_cell_angle_gamma   152.82325563
_symmetry_Int_Tables_number   1
_chemical_formula_structural   Cu6NiC18
_chemical_formula_sum   'Cu6 Ni1 C18'
_cell_volume   272.96643869
_cell_formula_units_Z   1
loop_
 _symmetry_equiv_pos_site_id
 _symmetry_equiv_pos_as_xyz
  1  'x, y, z'
loop_
 _atom_site_type_symbol
 _atom_site_label
 _atom_site_symmetry_multiplicity
 _atom_site_fract_x
 _atom_site_fract_y
 _atom_site_fract_z
 _atom_site_occupancy
  Ni  Ni0  1  0.30668800  0.39987400  0.42669300  1
  Cu  Cu1  1  0.77535500  0.23976900  0.78155600  1
  Cu  Cu2  1  0.28091300  0.81259900  0.21018400  1
  Cu  Cu3  1  0.78866900  0.13985700  0.49286500  1
  Cu  Cu4  1  0.26753500  0.93566300  0.51092100  1
  Cu  Cu5  1  0.80301900  0.06227700  0.17231000  1
  Cu  Cu6  1  0.25050000  0.99862300  0.81764200  1
  C  C7  1  0.63176300  0.54669100  0.15813500  1
  C  C8  1  0.01490300  0.89973200  0.21665700  1
  C  C9  1  0.04643800  0.03903100  0.95892900  1
  C  C10  1  0.02291300  0.12102700  0.78982200  1
  C  C11  1  0.79206900  0.13307300  0.97057100  1
  C  C12  1  0.26769800  0.92062300  0.02367600  1
  C  C13  1  0.80498100  0.06337100  0.68837500  1
  C  C14  1  0.26322200  0.00546800  0.30626800  1
  C  C15  1  0.80223300  0.94802600  0.40532300  1
  C  C16  1  0.26586300  0.13263100  0.57659500  1
  C  C17  1  0.84787200  0.82641700  0.15065400  1
  C  C18  1  0.15301200  0.15098200  0.86172900  1
  C  C19  1  0.75378400  0.47195200  0.79819600  1
  C  C20  1  0.30159200  0.55374100  0.20166400  1
  C  C21  1  0.77066100  0.36769600  0.53196000  1
  C  C22  1  0.28790900  0.66560800  0.45760100  1
  C  C23  1  0.78301900  0.26958800  0.24820200  1
  C  C24  1  0.27218100  0.79125400  0.73799500  1
