# generated using pymatgen
data_Cu2NiC16
_symmetry_space_group_name_H-M   'P 1'
_cell_length_a   5.38211886
_cell_length_b   6.40868460
_cell_length_c   7.13903681
_cell_angle_alpha   90.57273938
_cell_angle_beta   90.02577655
_cell_angle_gamma   94.79178194
_symmetry_Int_Tables_number   1
_chemical_formula_structural   Cu2NiC16
_chemical_formula_sum   'Cu2 Ni1 C16'
_cell_volume   245.36870010
_cell_formula_units_Z   1
loop_
 _symmetry_equiv_pos_site_id
 _symmetry_equiv_pos_as_xyz
  1  'x, y, z'
loop_
 _atom_site_type_symbol
 _atom_site_label
 _atom_site_symmetry_multiplicity
 _atom_site_fract_x
 _atom_site_fract_y
 _atom_site_fract_z
 _atom_site_occupancy
  C  C0  1  0.98405000  0.88438100  0.74941900  1
  C  C1  1  0.51176000  0.65457700  0.24802500  1
  Ni  Ni2  1  0.01587200  0.06977300  0.26999200  1
  C  C3  1  0.50258300  0.10254300  0.49267600  1
  C  C4  1  0.03301700  0.43350400  0.98100300  1
  Cu  Cu5  1  0.54211700  0.10511200  0.00280300  1
  Cu  Cu6  1  0.08152700  0.44253100  0.51412400  1
  C  C7  1  0.11029600  0.39665200  0.25977800  1
  C  C8  1  0.17577800  0.21045400  0.94265300  1
  C  C9  1  0.16784700  0.15152000  0.54386600  1
  C  C10  1  0.20573500  0.67416100  0.99506300  1
  C  C11  1  0.22695800  0.70413200  0.50795000  1
  C  C12  1  0.38036000  0.02166000  0.24451800  1
  C  C13  1  0.54572700  0.03708700  0.74955700  1
  C  C14  1  0.64699500  0.33398400  0.45760400  1
  C  C15  1  0.70270200  0.38103200  0.05077600  1
  C  C16  1  0.74079600  0.91376400  0.45123900  1
  C  C17  1  0.78983000  0.92346000  0.06397600  1
  C  C18  1  0.93111300  0.48675600  0.74324700  1
