# generated using pymatgen
data_CuNiC9
_symmetry_space_group_name_H-M   'P 1'
_cell_length_a   6.64878732
_cell_length_b   5.77515737
_cell_length_c   6.64878345
_cell_angle_alpha   64.25888405
_cell_angle_beta   51.61054377
_cell_angle_gamma   64.25887173
_symmetry_Int_Tables_number   1
_chemical_formula_structural   CuNiC9
_chemical_formula_sum   'Cu1 Ni1 C9'
_cell_volume   175.28083572
_cell_formula_units_Z   1
loop_
 _symmetry_equiv_pos_site_id
 _symmetry_equiv_pos_as_xyz
  1  'x, y, z'
loop_
 _atom_site_type_symbol
 _atom_site_label
 _atom_site_symmetry_multiplicity
 _atom_site_fract_x
 _atom_site_fract_y
 _atom_site_fract_z
 _atom_site_occupancy
  C  C0  1  0.81084500  0.68915600  0.81084500  1
  C  C1  1  0.18915500  0.31084400  0.18915400  1
  Ni  Ni2  1  0.50000000  0.00000000  0.50000000  1
  Cu  Cu3  1  0.50000000  0.50000000  0.50000000  1
  C  C4  1  0.00000000  0.00000000  0.00000000  1
  C  C5  1  0.26179400  0.74881900  0.73820900  1
  C  C6  1  0.73820600  0.25118200  0.26179000  1
  C  C7  1  0.73821000  0.74881800  0.26179500  1
  C  C8  1  0.80227300  0.19772100  0.80227200  1
  C  C9  1  0.26179100  0.25118100  0.73820500  1
  C  C10  1  0.19772700  0.80227900  0.19772700  1
