# generated using pymatgen
data_Cu(NiC)2
_symmetry_space_group_name_H-M   'P 1'
_cell_length_a   3.28288900
_cell_length_b   3.28303332
_cell_length_c   36.44070021
_cell_angle_alpha   89.93183212
_cell_angle_beta   90.00000000
_cell_angle_gamma   119.99851557
_symmetry_Int_Tables_number   1
_chemical_formula_structural   Cu(NiC)2
_chemical_formula_sum   'Cu2 Ni4 C4'
_cell_volume   340.13781780
_cell_formula_units_Z   2
loop_
 _symmetry_equiv_pos_site_id
 _symmetry_equiv_pos_as_xyz
  1  'x, y, z'
loop_
 _atom_site_type_symbol
 _atom_site_label
 _atom_site_symmetry_multiplicity
 _atom_site_fract_x
 _atom_site_fract_y
 _atom_site_fract_z
 _atom_site_occupancy
  C  C0  1  0.99947800  0.99895700  0.24091100  1
  C  C1  1  0.33328900  0.66657800  0.10806600  1
  C  C2  1  0.33327000  0.66654100  0.57827900  1
  C  C3  1  0.66692400  0.33384600  0.35327500  1
  Ni  Ni4  1  0.66715400  0.33430700  0.06180200  1
  Ni  Ni5  1  0.66705700  0.33411300  0.53187800  1
  Ni  Ni6  1  0.66609300  0.33218600  0.15471700  1
  Ni  Ni7  1  0.66612600  0.33225200  0.62465000  1
  Cu  Cu8  1  0.33334700  0.66669700  0.39504500  1
  Cu  Cu9  1  0.33386200  0.66772600  0.31082500  1
