# generated using pymatgen
data_Cu4NiC14
_symmetry_space_group_name_H-M   'P 1'
_cell_length_a   6.18068077
_cell_length_b   6.41539886
_cell_length_c   9.67320146
_cell_angle_alpha   111.83879425
_cell_angle_beta   111.60007404
_cell_angle_gamma   90.47126131
_symmetry_Int_Tables_number   1
_chemical_formula_structural   Cu4NiC14
_chemical_formula_sum   'Cu4 Ni1 C14'
_cell_volume   326.31273800
_cell_formula_units_Z   1
loop_
 _symmetry_equiv_pos_site_id
 _symmetry_equiv_pos_as_xyz
  1  'x, y, z'
loop_
 _atom_site_type_symbol
 _atom_site_label
 _atom_site_symmetry_multiplicity
 _atom_site_fract_x
 _atom_site_fract_y
 _atom_site_fract_z
 _atom_site_occupancy
  C  C0  1  0.57823297  0.08050522  0.25033328  1
  C  C1  1  0.36928531  0.94881615  0.77552931  1
  C  C2  1  0.04857062  0.56217077  0.24699990  1
  C  C3  1  0.95436025  0.40071639  0.76332580  1
  Ni  Ni4  1  0.43681694  0.47389742  0.10068574  1
  Cu  Cu5  1  0.01455872  0.96358461  0.01679143  1
  Cu  Cu6  1  0.55792542  0.55274509  0.87780752  1
  Cu  Cu7  1  0.23246942  0.16685727  0.48793893  1
  Cu  Cu8  1  0.74362419  0.81260401  0.52416563  1
  C  C9  1  0.21835501  0.19239162  0.00700541  1
  C  C10  1  0.22954138  0.70105527  0.06316376  1
  C  C11  1  0.65505444  0.36063314  0.98653872  1
  C  C12  1  0.70037621  0.86001635  0.00626184  1
  C  C13  1  0.12996644  0.18523417  0.28985213  1
  C  C14  1  0.87988533  0.77623530  0.71736792  1
  C  C15  1  0.64471230  0.54950914  0.32846461  1
  C  C16  1  0.30558418  0.45847601  0.66698227  1
  C  C17  1  0.98463975  0.00092551  0.50772060  1
  C  C18  1  0.49820910  0.00571055  0.52592120  1
