# generated using pymatgen
data_Cu2NiC9
_symmetry_space_group_name_H-M   'P 1'
_cell_length_a   5.85527800
_cell_length_b   5.85646055
_cell_length_c   5.91142202
_cell_angle_alpha   90.00215860
_cell_angle_beta   89.99947094
_cell_angle_gamma   119.99754670
_symmetry_Int_Tables_number   1
_chemical_formula_structural   Cu2NiC9
_chemical_formula_sum   'Cu2 Ni1 C9'
_cell_volume   175.55616062
_cell_formula_units_Z   1
loop_
 _symmetry_equiv_pos_site_id
 _symmetry_equiv_pos_as_xyz
  1  'x, y, z'
loop_
 _atom_site_type_symbol
 _atom_site_label
 _atom_site_symmetry_multiplicity
 _atom_site_fract_x
 _atom_site_fract_y
 _atom_site_fract_z
 _atom_site_occupancy
  C  C0  1  0.00001800  0.99997900  0.50001100  1
  Ni  Ni1  1  0.99999800  0.99997600  0.00004100  1
  Cu  Cu2  1  0.33329800  0.66658700  0.32168500  1
  Cu  Cu3  1  0.66668000  0.33340600  0.67825200  1
  C  C4  1  0.66687900  0.33343100  0.38173200  1
  C  C5  1  0.33348200  0.66657300  0.61825300  1
  C  C6  1  0.84196700  0.15696100  0.74715400  1
  C  C7  1  0.15690300  0.31499200  0.25280800  1
  C  C8  1  0.68498400  0.84202900  0.25288900  1
  C  C9  1  0.15797200  0.84287100  0.25276700  1
  C  C10  1  0.84289600  0.68513000  0.74720900  1
  C  C11  1  0.31492200  0.15806700  0.74719800  1
