# generated using pymatgen
data_Cu3Ni5C31
_symmetry_space_group_name_H-M   'P 1'
_cell_length_a   9.31996134
_cell_length_b   9.32885125
_cell_length_c   23.70031464
_cell_angle_alpha   90.49204925
_cell_angle_beta   89.96632961
_cell_angle_gamma   119.95282770
_symmetry_Int_Tables_number   1
_chemical_formula_structural   Cu3Ni5C31
_chemical_formula_sum   'Cu9 Ni15 C93'
_cell_volume   1785.30856234
_cell_formula_units_Z   3
loop_
 _symmetry_equiv_pos_site_id
 _symmetry_equiv_pos_as_xyz
  1  'x, y, z'
loop_
 _atom_site_type_symbol
 _atom_site_label
 _atom_site_symmetry_multiplicity
 _atom_site_fract_x
 _atom_site_fract_y
 _atom_site_fract_z
 _atom_site_occupancy
  Ni  Ni0  1  0.65141127  0.01174319  0.25719515  1
  Ni  Ni1  1  0.00045513  0.61952976  0.24731185  1
  Ni  Ni2  1  0.62787137  0.63627367  0.74549045  1
  Ni  Ni3  1  0.37021621  0.01441831  0.75829328  1
  Ni  Ni4  1  0.66658670  0.94862162  0.58441616  1
  Ni  Ni5  1  0.97756869  0.68718585  0.92236271  1
  Ni  Ni6  1  0.68666126  0.01120138  0.91186200  1
  Ni  Ni7  1  0.95881765  0.30215750  0.40984376  1
  Ni  Ni8  1  0.70739620  0.68684069  0.42533457  1
  Ni  Ni9  1  0.99484465  0.96981214  0.50138295  1
  Ni  Ni10  1  0.00694186  0.97885131  0.99815672  1
  Ni  Ni11  1  0.64259337  0.31584427  0.83157255  1
  Ni  Ni12  1  0.67129728  0.31867242  0.33495193  1
  Ni  Ni13  1  0.29716664  0.63343791  0.16053867  1
  Ni  Ni14  1  0.33676986  0.63780145  0.66874449  1
  Cu  Cu15  1  0.99849348  0.00302583  0.35175280  1
  Cu  Cu16  1  0.00978467  0.01339495  0.85000461  1
  Cu  Cu17  1  0.99547880  0.00143091  0.65179557  1
  Cu  Cu18  1  0.00332388  0.00412650  0.14287589  1
  Cu  Cu19  1  0.66307140  0.33831414  0.68543422  1
  Cu  Cu20  1  0.67898235  0.34010444  0.18040304  1
  Cu  Cu21  1  0.33253237  0.67515455  0.01806181  1
  Cu  Cu22  1  0.33705790  0.67364756  0.51656062  1
  Cu  Cu23  1  0.32160333  0.66249309  0.32041861  1
  C  C24  1  0.66096940  0.34514491  0.97974508  1
  C  C25  1  0.67335147  0.34253602  0.48255632  1
  C  C26  1  0.35483505  0.67230252  0.81697295  1
  C  C27  1  0.00155167  0.29963330  0.25046587  1
  C  C28  1  0.29636122  0.30331608  0.74984857  1
  C  C29  1  0.69728486  0.99912626  0.75194533  1
  C  C30  1  0.66850984  0.63403559  0.58325881  1
  C  C31  1  0.96402404  0.62992580  0.08234477  1
  C  C32  1  0.63001939  0.66613587  0.91788788  1
  C  C33  1  0.33769431  0.96375001  0.91624489  1
  C  C34  1  0.63164235  0.97134051  0.41679691  1
  C  C35  1  0.02887333  0.66409536  0.41786395  1
  C  C36  1  0.29648042  -0.00014851  0.24955782  1
  C  C37  1  0.70346514  0.70489054  0.24962496  1
  C  C38  1  0.00768208  0.70490598  0.75195841  1
  C  C39  1  0.95651460  0.33284441  0.58123995  1
  C  C40  1  0.37693024  0.04577472  0.58141095  1
  C  C41  1  0.66732788  0.04261452  0.08134800  1
  C  C42  1  0.37687421  0.33382123  0.08157390  1
  C  C43  1  0.03669717  0.37806792  0.91732329  1
  C  C44  1  0.34059928  0.37076077  0.41832754  1
  C  C45  1  0.21854515  0.01902890  0.30113218  1
  C  C46  1  0.80506007  0.77846989  0.30178553  1
  C  C47  1  0.97663658  0.19577015  0.30915064  1
  C  C48  1  0.21875067  0.17781662  0.80238388  1
  C  C49  1  0.97607842  0.77850493  0.80274051  1
  C  C50  1  0.80227635  0.01818139  0.80863878  1
  C  C51  1  0.77475510  0.95924445  0.69514720  1
  C  C52  1  0.18889473  0.21579938  0.69287362  1
  C  C53  1  0.03607635  0.81109918  0.70196295  1
  C  C54  1  0.78913709  0.80886130  0.20066057  1
  C  C55  1  0.01177916  0.19439467  0.19712468  1
  C  C56  1  0.19198091  0.97488163  0.19965326  1
  C  C57  1  0.87649734  0.35039218  0.63196724  1
  C  C58  1  0.47283757  0.11874336  0.63400706  1
  C  C59  1  0.65779113  0.53369873  0.64021711  1
  C  C60  1  0.87787522  0.53277723  0.14151523  1
  C  C61  1  0.64768919  0.11786300  0.13459677  1
  C  C62  1  0.47062627  0.34715354  0.13353986  1
  C  C63  1  0.46623706  0.31640991  0.03126216  1
  C  C64  1  0.83946878  0.51721261  0.02776196  1
  C  C65  1  0.67878929  0.14459306  0.03194139  1
  C  C66  1  0.46975258  0.14994662  0.53233433  1
  C  C67  1  0.67544913  0.52417030  0.52714088  1
  C  C68  1  0.85095605  0.31515384  0.52993039  1
  C  C69  1  0.53909676  0.69338552  0.97059753  1
  C  C70  1  0.13487279  0.45045973  0.96826656  1
  C  C71  1  0.30131018  0.84155328  0.96878295  1
  C  C72  1  0.54871942  0.84711508  0.47007421  1
  C  C73  1  0.31031522  0.44725274  0.46798797  1
  C  C74  1  0.14329117  0.67982749  0.47079805  1
  C  C75  1  0.09774345  0.62034815  0.35994303  1
  C  C76  1  0.52961176  0.89035904  0.35770371  1
  C  C77  1  0.37318179  0.47569238  0.36783048  1
  C  C78  1  0.11704310  0.48217057  0.86703524  1
  C  C79  1  0.36480023  0.87124455  0.85918426  1
  C  C80  1  0.51674159  0.64089468  0.85990907  1
  C  C81  1  0.99466201  0.81846958  0.41210075  1
  C  C82  1  0.82154166  0.99846996  0.41306425  1
  C  C83  1  0.19305341  0.20580982  0.41058838  1
  C  C84  1  0.00566068  0.20673392  0.91110683  1
  C  C85  1  0.17239336  0.97977000  0.91063603  1
  C  C86  1  0.81613799  0.82608221  0.91158916  1
  C  C87  1  0.96173111  0.17592093  0.58279261  1
  C  C88  1  0.21094675  0.02834086  0.58371880  1
  C  C89  1  0.83412675  0.82124331  0.58128811  1
  C  C90  1  0.97533062  0.81140017  0.08287319  1
  C  C91  1  0.82044462  0.03160705  0.08435133  1
  C  C92  1  0.21210656  0.18174809  0.08289070  1
  C  C93  1  0.66009511  0.15165106  0.74507912  1
  C  C94  1  0.48901802  0.33684518  0.74608741  1
  C  C95  1  0.85867353  0.53988824  0.74416926  1
  C  C96  1  0.68366564  0.53685001  0.24439648  1
  C  C97  1  0.82711331  0.31258403  0.24776855  1
  C  C98  1  0.46555612  0.14574284  0.24445466  1
  C  C99  1  0.65268023  0.49884353  0.92426824  1
  C  C100  1  0.86775887  0.36466228  0.92285937  1
  C  C101  1  0.51646835  0.14238717  0.92613147  1
  C  C102  1  0.65470643  0.15806526  0.42812256  1
  C  C103  1  0.49106117  0.35478537  0.42605970  1
  C  C104  1  0.83948715  0.49369990  0.42657031  1
  C  C105  1  0.36089489  0.48163897  0.07715173  1
  C  C106  1  0.14378491  0.64106322  0.08029771  1
  C  C107  1  0.52126238  0.87485139  0.07841405  1
  C  C108  1  0.36494303  0.88087255  0.57634002  1
  C  C109  1  0.50455037  0.65808293  0.58013532  1
  C  C110  1  0.12292814  0.47696169  0.57570437  1
  C  C111  1  0.31388994  0.84836741  0.25391836  1
  C  C112  1  0.54057608  0.69550183  0.25515704  1
  C  C113  1  0.16055268  0.49066505  0.25201179  1
  C  C114  1  0.31493813  0.48888104  0.75980481  1
  C  C115  1  0.15803065  0.69052943  0.75923892  1
  C  C116  1  0.50864648  0.82565733  0.75821785  1
