# generated using pymatgen
data_Cu2Ni2C9
_symmetry_space_group_name_H-M   'P 1'
_cell_length_a   3.38932600
_cell_length_b   3.38937558
_cell_length_c   46.48050620
_cell_angle_alpha   89.97679739
_cell_angle_beta   89.99999384
_cell_angle_gamma   119.99955258
_symmetry_Int_Tables_number   1
_chemical_formula_structural   Cu2Ni2C9
_chemical_formula_sum   'Cu2 Ni2 C9'
_cell_volume   462.41980901
_cell_formula_units_Z   1
loop_
 _symmetry_equiv_pos_site_id
 _symmetry_equiv_pos_as_xyz
  1  'x, y, z'
loop_
 _atom_site_type_symbol
 _atom_site_label
 _atom_site_symmetry_multiplicity
 _atom_site_fract_x
 _atom_site_fract_y
 _atom_site_fract_z
 _atom_site_occupancy
  C  C0  1  0.00010800  0.00021600  0.19170400  1
  C  C1  1  0.33317600  0.66635300  0.69799600  1
  C  C2  1  0.66667400  0.33334600  0.04745000  1
  C  C3  1  0.66643900  0.33287700  0.12858400  1
  C  C4  1  0.33342700  0.66685300  0.61722300  1
  C  C5  1  0.33323400  0.66646700  0.08774900  1
  C  C6  1  0.66664000  0.33328100  0.65759700  1
  C  C7  1  0.33336000  0.66672000  0.46957100  1
  C  C8  1  0.66672600  0.33345100  0.29057600  1
  Ni  Ni9  1  0.66679800  0.33359400  0.43383600  1
  Ni  Ni10  1  0.66659300  0.33318500  0.50523700  1
  Cu  Cu11  1  0.33332400  0.66664800  0.32286200  1
  Cu  Cu12  1  0.33350300  0.66700700  0.25801400  1
