# generated using pymatgen
data_Cu7NiC7
_symmetry_space_group_name_H-M   'P 1'
_cell_length_a   7.89848418
_cell_length_b   7.89848418
_cell_length_c   5.69737200
_cell_angle_alpha   90.00000000
_cell_angle_beta   90.00000000
_cell_angle_gamma   120.00000148
_symmetry_Int_Tables_number   1
_chemical_formula_structural   Cu7NiC7
_chemical_formula_sum   'Cu14 Ni2 C14'
_cell_volume   307.81707501
_cell_formula_units_Z   2
loop_
 _symmetry_equiv_pos_site_id
 _symmetry_equiv_pos_as_xyz
  1  'x, y, z'
loop_
 _atom_site_type_symbol
 _atom_site_label
 _atom_site_symmetry_multiplicity
 _atom_site_fract_x
 _atom_site_fract_y
 _atom_site_fract_z
 _atom_site_occupancy
  C  C0  1  0.00000000  0.00000000  0.70656500  1
  C  C1  1  0.00000000  0.00000000  0.20656500  1
  C  C2  1  0.73825700  0.67422200  0.94865900  1
  C  C3  1  0.26174300  0.93596400  0.44865900  1
  C  C4  1  0.32577800  0.06403600  0.94865900  1
  C  C5  1  0.93596400  0.26174300  0.94865900  1
  C  C6  1  0.06403600  0.73825700  0.44865900  1
  C  C7  1  0.26174300  0.32577800  0.44865900  1
  C  C8  1  0.67422200  0.93596400  0.44865900  1
  C  C9  1  0.73825700  0.06403600  0.94865900  1
  C  C10  1  0.67422200  0.73825700  0.44865900  1
  C  C11  1  0.06403600  0.32577800  0.44865900  1
  C  C12  1  0.93596400  0.67422200  0.94865900  1
  C  C13  1  0.32577800  0.26174300  0.94865900  1
  Ni  Ni14  1  0.33333300  0.66666700  0.00225000  1
  Ni  Ni15  1  0.66666700  0.33333300  0.50225000  1
  Cu  Cu16  1  0.88056100  0.76112300  0.95374400  1
  Cu  Cu17  1  0.55290800  0.10581600  0.40214900  1
  Cu  Cu18  1  0.76112300  0.88056100  0.45374400  1
  Cu  Cu19  1  0.88056100  0.11943900  0.95374400  1
  Cu  Cu20  1  0.11943900  0.88056100  0.45374400  1
  Cu  Cu21  1  0.55290800  0.44709200  0.40214900  1
  Cu  Cu22  1  0.10581600  0.55290800  0.90214900  1
  Cu  Cu23  1  0.44709200  0.89418400  0.90214900  1
  Cu  Cu24  1  0.11943900  0.23887700  0.45374400  1
  Cu  Cu25  1  0.89418400  0.44709200  0.40214900  1
  Cu  Cu26  1  0.44709200  0.55290800  0.90214900  1
  Cu  Cu27  1  0.66666700  0.33333300  0.79085100  1
  Cu  Cu28  1  0.33333300  0.66666700  0.29085100  1
  Cu  Cu29  1  0.23887700  0.11943900  0.95374400  1
