# generated using pymatgen
data_Cu5NiC33
_symmetry_space_group_name_H-M   'P 1'
_cell_length_a   9.19091253
_cell_length_b   9.15604181
_cell_length_c   22.95735880
_cell_angle_alpha   89.95015248
_cell_angle_beta   90.11717811
_cell_angle_gamma   119.94682450
_symmetry_Int_Tables_number   1
_chemical_formula_structural   Cu5NiC33
_chemical_formula_sum   'Cu15 Ni3 C99'
_cell_volume   1673.98089906
_cell_formula_units_Z   3
loop_
 _symmetry_equiv_pos_site_id
 _symmetry_equiv_pos_as_xyz
  1  'x, y, z'
loop_
 _atom_site_type_symbol
 _atom_site_label
 _atom_site_symmetry_multiplicity
 _atom_site_fract_x
 _atom_site_fract_y
 _atom_site_fract_z
 _atom_site_occupancy
  C  C0  1  0.64630021  0.01445839  0.24161122  1
  C  C1  1  0.36906505  0.35431544  0.24142056  1
  C  C2  1  0.98704478  0.63448173  0.24210585  1
  C  C3  1  0.63340347  0.62471014  0.74620166  1
  C  C4  1  0.98991452  0.36610141  0.74681847  1
  C  C5  1  0.38093115  0.01217176  0.74200256  1
  C  C6  1  0.65877897  0.97620259  0.58422953  1
  C  C7  1  0.33103156  0.30444864  0.92431224  1
  C  C8  1  0.32562842  0.03245370  0.41312475  1
  C  C9  1  0.99910918  0.00040842  0.49407078  1
  C  C10  1  0.98103968  0.98684237  0.00368307  1
  C  C11  1  0.68122134  0.33673929  0.84033236  1
  C  C12  1  0.68171436  0.34730637  0.33115440  1
  C  C13  1  0.33347466  0.66797508  0.15732122  1
  C  C14  1  0.32020600  0.66190629  0.66041838  1
  C  C15  1  0.99066870  0.99908983  0.35506053  1
  C  C16  1  0.66574607  0.33465991  0.67973686  1
  C  C17  1  0.66816691  0.33397876  0.17426523  1
  C  C18  1  0.99223228  0.99388013  0.85813770  1
  C  C19  1  0.00978315  0.00087260  0.64340676  1
  C  C20  1  0.99981335  0.00124728  0.14557067  1
  C  C21  1  0.67673437  0.33712174  0.98442693  1
  C  C22  1  0.66705173  0.33875277  0.48380817  1
  C  C23  1  0.33474644  0.66531848  0.01654440  1
  C  C24  1  0.32761386  0.65954602  0.51842046  1
  C  C25  1  0.33307853  0.66333492  0.31585507  1
  C  C26  1  0.33176446  0.66535774  0.81870865  1
  Ni  Ni27  1  0.36773709  0.03190932  0.58437669  1
  Ni  Ni28  1  0.62661276  0.66109479  0.91655798  1
  Ni  Ni29  1  0.03485879  0.37326365  0.91530317  1
  Cu  Cu30  1  0.29392333  0.99655057  0.25316112  1
  Cu  Cu31  1  0.70260542  0.70597878  0.25032954  1
  Cu  Cu32  1  0.00376575  0.29859105  0.25018432  1
  Cu  Cu33  1  0.28633562  0.29292523  0.75220396  1
  Cu  Cu34  1  0.00737595  0.71434047  0.75092905  1
  Cu  Cu35  1  0.70793230  0.99484480  0.74967365  1
  Cu  Cu36  1  0.96518420  0.33260727  0.58597130  1
  Cu  Cu37  1  0.66713878  0.63584166  0.58572044  1
  Cu  Cu38  1  0.97269438  0.63927955  0.08517115  1
  Cu  Cu39  1  0.66608393  0.02859996  0.08560708  1
  Cu  Cu40  1  0.36128242  0.33148957  0.08335785  1
  Cu  Cu41  1  0.33750337  0.96358976  0.91611639  1
  Cu  Cu42  1  0.62252251  0.96382780  0.41935802  1
  Cu  Cu43  1  0.34344628  0.37495965  0.41704782  1
  Cu  Cu44  1  0.03673835  0.65795361  0.41670475  1
  C  C45  1  0.22355064  0.02111472  0.31001448  1
  C  C46  1  0.80785471  0.78006176  0.30457545  1
  C  C47  1  0.97548022  0.19375459  0.30433698  1
  C  C48  1  0.19936403  0.19006285  0.80710284  1
  C  C49  1  0.99427261  0.80748404  0.80445152  1
  C  C50  1  0.81858289  0.00576263  0.80231165  1
  C  C51  1  0.78904318  0.97480687  0.69320291  1
  C  C52  1  0.17579926  0.20015035  0.69800803  1
  C  C53  1  0.02315802  0.82064764  0.69584117  1
  C  C54  1  0.79221722  0.82258090  0.19656097  1
  C  C55  1  0.02825126  0.20808910  0.19615452  1
  C  C56  1  0.17316033  0.97319321  0.20096741  1
  C  C57  1  0.90851542  0.36531302  0.64428911  1
  C  C58  1  0.47247746  0.09363490  0.64422866  1
  C  C59  1  0.64003173  0.54809313  0.64410456  1
  C  C60  1  0.91246817  0.55127663  0.14355962  1
  C  C61  1  0.64256862  0.08986548  0.14447046  1
  C  C62  1  0.45200467  0.35589035  0.14107376  1
  C  C63  1  0.45768785  0.31186476  0.03069556  1
  C  C64  1  0.84730317  0.53458100  0.03508766  1
  C  C65  1  0.68566180  0.15347826  0.03578751  1
  C  C66  1  0.47195358  0.15868412  0.52922312  1
  C  C67  1  0.69027179  0.53740879  0.53490907  1
  C  C68  1  0.84011455  0.30975238  0.53605774  1
  C  C69  1  0.53027296  0.69000970  0.96994626  1
  C  C70  1  0.16544890  0.47103641  0.96761165  1
  C  C71  1  0.30975577  0.84845627  0.96788288  1
  C  C72  1  0.52321463  0.85769893  0.47279173  1
  C  C73  1  0.33451828  0.47520167  0.46911802  1
  C  C74  1  0.14911414  0.66590748  0.46833454  1
  C  C75  1  0.12357993  0.64182006  0.35974478  1
  C  C76  1  0.51281096  0.87134675  0.36367266  1
  C  C77  1  0.35393243  0.47455351  0.35984980  1
  C  C78  1  0.11910370  0.48443312  0.85473173  1
  C  C79  1  0.36030389  0.88215060  0.85913061  1
  C  C80  1  0.51127130  0.63468511  0.85679525  1
  C  C81  1  0.03363756  0.82271659  0.41765759  1
  C  C82  1  0.79560443  0.98412264  0.41978740  1
  C  C83  1  0.19399521  0.19651715  0.41815987  1
  C  C84  1  0.02847010  0.19072452  0.91001635  1
  C  C85  1  0.18235270  0.98805630  0.90989195  1
  C  C86  1  0.81492726  0.82376761  0.91088804  1
  C  C87  1  0.96558082  0.16185407  0.58742686  1
  C  C88  1  0.18246204  0.01847922  0.58712686  1
  C  C89  1  0.82529484  0.81635006  0.58670010  1
  C  C90  1  0.98285238  0.81476119  0.08666153  1
  C  C91  1  0.82972506  0.01562714  0.08639319  1
  C  C92  1  0.18412224  0.16812281  0.08608713  1
  C  C93  1  0.69204241  0.15425297  0.75041709  1
  C  C94  1  0.46322742  0.31533875  0.74879708  1
  C  C95  1  0.85166894  0.53763973  0.74920058  1
  C  C96  1  0.66890640  0.52504363  0.24283822  1
  C  C97  1  0.85668637  0.33214036  0.24351390  1
  C  C98  1  0.47244565  0.14587630  0.24463291  1
  C  C99  1  0.63144822  0.48575386  0.92376161  1
  C  C100  1  0.84857686  0.34839947  0.92411864  1
  C  C101  1  0.49201157  0.14110521  0.92288257  1
  C  C102  1  0.62654585  0.13691523  0.42159704  1
  C  C103  1  0.50832847  0.36480336  0.42035616  1
  C  C104  1  0.86154653  0.49949300  0.42179803  1
  C  C105  1  0.33640916  0.48601610  0.07436285  1
  C  C106  1  0.14896195  0.66481033  0.07291866  1
  C  C107  1  0.51220173  0.85263039  0.07428993  1
  C  C108  1  0.34411919  0.84315814  0.57362324  1
  C  C109  1  0.51570997  0.66416682  0.57491703  1
  C  C110  1  0.14530410  0.47699753  0.57390161  1
  C  C111  1  0.30274140  0.82760434  0.25508726  1
  C  C112  1  0.52672492  0.69957392  0.25519006  1
  C  C113  1  0.17344993  0.47469451  0.25416403  1
  C  C114  1  0.29808562  0.47050017  0.75323258  1
  C  C115  1  0.17253589  0.70389767  0.75286461  1
  C  C116  1  0.52950530  0.83327555  0.75425701  1
