# generated using pymatgen
data_Cu4Ni2C11
_symmetry_space_group_name_H-M   'P 1'
_cell_length_a   8.12577600
_cell_length_b   7.07771100
_cell_length_c   20.04244580
_cell_angle_alpha   73.09845222
_cell_angle_beta   90.00000000
_cell_angle_gamma   90.00000000
_symmetry_Int_Tables_number   1
_chemical_formula_structural   Cu4Ni2C11
_chemical_formula_sum   'Cu16 Ni8 C44'
_cell_volume   1102.88989392
_cell_formula_units_Z   4
loop_
 _symmetry_equiv_pos_site_id
 _symmetry_equiv_pos_as_xyz
  1  'x, y, z'
loop_
 _atom_site_type_symbol
 _atom_site_label
 _atom_site_symmetry_multiplicity
 _atom_site_fract_x
 _atom_site_fract_y
 _atom_site_fract_z
 _atom_site_occupancy
  Ni  Ni0  1  0.38832600  0.34073900  0.58342700  1
  Ni  Ni1  1  0.88832600  0.65926100  0.91657300  1
  Ni  Ni2  1  0.61167400  0.65926100  0.41657300  1
  Ni  Ni3  1  0.11167400  0.34073900  0.08342700  1
  Ni  Ni4  1  0.38244400  0.85016100  0.07814500  1
  Ni  Ni5  1  0.88244400  0.14983900  0.42185500  1
  Ni  Ni6  1  0.61755600  0.14983900  0.92185500  1
  Ni  Ni7  1  0.11755600  0.85016100  0.57814500  1
  Cu  Cu8  1  0.35317300  0.18506000  0.42925500  1
  Cu  Cu9  1  0.85317300  0.81494000  0.07074500  1
  Cu  Cu10  1  0.64682700  0.81494000  0.57074500  1
  Cu  Cu11  1  0.14682700  0.18506000  0.92925500  1
  Cu  Cu12  1  0.41185900  0.51469600  0.73960400  1
  Cu  Cu13  1  0.91185900  0.48530400  0.76039600  1
  Cu  Cu14  1  0.58814100  0.48530400  0.26039600  1
  Cu  Cu15  1  0.08814100  0.51469600  0.23960400  1
  Cu  Cu16  1  0.37635900  0.66688000  0.92657400  1
  Cu  Cu17  1  0.87635900  0.33312000  0.57342600  1
  Cu  Cu18  1  0.62364100  0.33312000  0.07342600  1
  Cu  Cu19  1  0.12364100  0.66688000  0.42657400  1
  Cu  Cu20  1  0.33931700  0.96445600  0.25286500  1
  Cu  Cu21  1  0.83931700  0.03554400  0.24713500  1
  Cu  Cu22  1  0.66068300  0.03554400  0.74713500  1
  Cu  Cu23  1  0.16068300  0.96445600  0.75286500  1
  C  C24  1  0.27419200  0.53309400  0.66155200  1
  C  C25  1  0.77419200  0.46690600  0.83844800  1
  C  C26  1  0.72580800  0.46690600  0.33844800  1
  C  C27  1  0.22580800  0.53309400  0.16155200  1
  C  C28  1  0.39833900  0.37487500  0.31195100  1
  C  C29  1  0.89833900  0.62512500  0.18804900  1
  C  C30  1  0.60166100  0.62512500  0.68804900  1
  C  C31  1  0.10166100  0.37487500  0.81195100  1
  C  C32  1  0.47624600  0.37021100  0.46398200  1
  C  C33  1  0.97624600  0.62978900  0.03601800  1
  C  C34  1  0.52375400  0.62978900  0.53601800  1
  C  C35  1  0.02375400  0.37021100  0.96398200  1
  C  C36  1  0.33420300  0.76765200  0.39220400  1
  C  C37  1  0.83420300  0.23234800  0.10779600  1
  C  C38  1  0.66579700  0.23234800  0.60779600  1
  C  C39  1  0.16579700  0.76765200  0.89220400  1
  C  C40  1  0.47313000  0.20819200  0.73296300  1
  C  C41  1  0.42171300  0.90688300  0.95808600  1
  C  C42  1  0.57828700  0.09311700  0.04191400  1
  C  C43  1  0.07828700  0.90688300  0.45808600  1
  C  C44  1  0.34373800  0.78988300  0.75223000  1
  C  C45  1  0.84373800  0.21011700  0.74777000  1
  C  C46  1  0.65626200  0.21011700  0.24777000  1
  C  C47  1  0.15626200  0.78988300  0.25223000  1
  C  C48  1  0.17225000  0.53909400  0.52303900  1
  C  C49  1  0.67225000  0.46090600  0.97696100  1
  C  C50  1  0.82775000  0.46090600  0.47696100  1
  C  C51  1  0.32775000  0.53909400  0.02303900  1
  C  C52  1  0.17609800  0.05846100  0.03222800  1
  C  C53  1  0.67609800  0.94153900  0.46777200  1
  C  C54  1  0.82390200  0.94153900  0.96777200  1
  C  C55  1  0.32390200  0.05846100  0.53222800  1
  C  C56  1  0.15211000  0.32942300  0.41537500  1
  C  C57  1  0.65211000  0.67057700  0.08462500  1
  C  C58  1  0.84789000  0.67057700  0.58462500  1
  C  C59  1  0.34789000  0.32942300  0.91537500  1
  C  C60  1  0.14522800  0.06076800  0.65397300  1
  C  C61  1  0.64522800  0.93923200  0.84602700  1
  C  C62  1  0.85477200  0.93923200  0.34602700  1
  C  C63  1  0.35477200  0.06076800  0.15397300  1
  C  C64  1  0.02687000  0.20819200  0.23296300  1
  C  C65  1  0.52687000  0.79180800  0.26703700  1
  C  C66  1  0.97313000  0.79180800  0.76703700  1
  C  C67  1  0.92171300  0.09311700  0.54191400  1
