# generated using pymatgen
data_Cu4NiC13
_symmetry_space_group_name_H-M   'P 1'
_cell_length_a   5.37381302
_cell_length_b   6.47275483
_cell_length_c   7.77507801
_cell_angle_alpha   107.05831916
_cell_angle_beta   114.50745601
_cell_angle_gamma   95.08040750
_symmetry_Int_Tables_number   1
_chemical_formula_structural   Cu4NiC13
_chemical_formula_sum   'Cu4 Ni1 C13'
_cell_volume   228.27851576
_cell_formula_units_Z   1
loop_
 _symmetry_equiv_pos_site_id
 _symmetry_equiv_pos_as_xyz
  1  'x, y, z'
loop_
 _atom_site_type_symbol
 _atom_site_label
 _atom_site_symmetry_multiplicity
 _atom_site_fract_x
 _atom_site_fract_y
 _atom_site_fract_z
 _atom_site_occupancy
  Ni  Ni0  1  0.95817894  0.04894536  0.26291469  1
  Cu  Cu1  1  0.08768387  0.73623374  0.94887386  1
  Cu  Cu2  1  0.92542821  0.24864401  0.91067249  1
  Cu  Cu3  1  0.63930142  0.62205855  0.28522389  1
  Cu  Cu4  1  0.37224434  0.38748718  0.77436731  1
  C  C5  1  0.34827497  0.81492046  0.60743658  1
  C  C6  1  0.61965986  0.19047896  0.42134578  1
  C  C7  1  0.76893165  0.51087621  0.93507423  1
  C  C8  1  0.28858450  0.46702136  0.00781439  1
  C  C9  1  0.01296698  0.03474087  0.02957822  1
  C  C10  1  0.91638847  0.20514426  0.64014208  1
  C  C11  1  0.05670987  0.80640104  0.39352243  1
  C  C12  1  0.34844471  0.25768302  0.47161411  1
  C  C13  1  0.25092854  0.66398066  0.73071091  1
  C  C14  1  0.76700032  0.33722009  0.32152974  1
  C  C15  1  0.48184533  0.09117747  0.77894224  1
  C  C16  1  0.55280272  0.92804196  0.24303201  1
  C  C17  1  0.60462432  0.72186380  0.55720504  1
