# generated using pymatgen
data_Cu4Ni3C2
_symmetry_space_group_name_H-M   'P 1'
_cell_length_a   8.38919694
_cell_length_b   8.38919694
_cell_length_c   8.38919694
_cell_angle_alpha   136.51890179
_cell_angle_beta   112.03962723
_cell_angle_gamma   84.21192750
_symmetry_Int_Tables_number   1
_chemical_formula_structural   Cu4Ni3C2
_chemical_formula_sum   'Cu8 Ni6 C4'
_cell_volume   362.73120546
_cell_formula_units_Z   2
loop_
 _symmetry_equiv_pos_site_id
 _symmetry_equiv_pos_as_xyz
  1  'x, y, z'
loop_
 _atom_site_type_symbol
 _atom_site_label
 _atom_site_symmetry_multiplicity
 _atom_site_fract_x
 _atom_site_fract_y
 _atom_site_fract_z
 _atom_site_occupancy
  C  C0  1  0.09451000  0.89081400  0.20369600  1
  C  C1  1  0.90549000  0.10918600  0.79630400  1
  C  C2  1  0.31288300  0.60918600  0.70369600  1
  C  C3  1  0.68711700  0.39081400  0.29630400  1
  Ni  Ni4  1  0.50000000  0.75000000  0.25000000  1
  Ni  Ni5  1  0.50000000  0.25000000  0.75000000  1
  Ni  Ni6  1  0.27916700  0.02916700  0.75000000  1
  Ni  Ni7  1  0.72083300  0.47083300  0.75000000  1
  Ni  Ni8  1  0.27916700  0.52916700  0.25000000  1
  Ni  Ni9  1  0.72083300  0.97083300  0.25000000  1
  Cu  Cu10  1  0.48926700  0.12152700  0.36774000  1
  Cu  Cu11  1  0.51073300  0.87847300  0.63226000  1
  Cu  Cu12  1  0.24621300  0.37847300  0.86774000  1
  Cu  Cu13  1  0.75378700  0.62152700  0.13226000  1
  Cu  Cu14  1  0.97271500  0.34042700  0.63228800  1
  Cu  Cu15  1  0.02728500  0.65957300  0.36771200  1
  Cu  Cu16  1  0.70813900  0.84042700  0.86771200  1
  Cu  Cu17  1  0.29186100  0.15957300  0.13228800  1
