# generated using pymatgen
data_Cu5NiC14
_symmetry_space_group_name_H-M   'P 1'
_cell_length_a   5.18549267
_cell_length_b   5.50759510
_cell_length_c   8.22801581
_cell_angle_alpha   112.78179138
_cell_angle_beta   103.17648492
_cell_angle_gamma   98.39435566
_symmetry_Int_Tables_number   1
_chemical_formula_structural   Cu5NiC14
_chemical_formula_sum   'Cu5 Ni1 C14'
_cell_volume   203.64370679
_cell_formula_units_Z   1
loop_
 _symmetry_equiv_pos_site_id
 _symmetry_equiv_pos_as_xyz
  1  'x, y, z'
loop_
 _atom_site_type_symbol
 _atom_site_label
 _atom_site_symmetry_multiplicity
 _atom_site_fract_x
 _atom_site_fract_y
 _atom_site_fract_z
 _atom_site_occupancy
  C  C0  1  0.77720547  0.70708207  0.71083289  1
  C  C1  1  0.57161308  0.29565321  0.29791161  1
  C  C2  1  0.38475491  0.90238414  0.91100596  1
  C  C3  1  0.98397783  0.10213667  0.10378473  1
  Ni  Ni4  1  0.17361349  0.49657917  0.50733134  1
  Cu  Cu5  1  0.81803271  0.11441589  0.60186667  1
  Cu  Cu6  1  0.41637328  0.30912325  0.79831958  1
  Cu  Cu7  1  0.61805017  0.70526506  0.20402365  1
  Cu  Cu8  1  0.21443553  0.90827857  0.40493361  1
  Cu  Cu9  1  0.02094012  0.51089212  0.00375018  1
  C  C10  1  0.91439928  0.07621009  0.37390207  1
  C  C11  1  0.71519633  0.67055242  0.96988977  1
  C  C12  1  0.96686604  0.55242688  0.27628447  1
  C  C13  1  0.75928689  0.16195221  0.83855081  1
  C  C14  1  0.45801268  0.26802252  0.53983578  1
  C  C15  1  0.51614229  0.75925075  0.45248466  1
  C  C16  1  0.27725760  0.86344461  0.17225202  1
  C  C17  1  0.09049671  0.46900689  0.73608322  1
  C  C18  1  0.32251430  0.34523829  0.03672623  1
  C  C19  1  0.15083128  0.91750218  0.62504576  1
