# generated using pymatgen
data_CuNi6C67
_symmetry_space_group_name_H-M   'P 1'
_cell_length_a   17.50800938
_cell_length_b   8.74028305
_cell_length_c   22.13721130
_cell_angle_alpha   90.01337319
_cell_angle_beta   89.98175027
_cell_angle_gamma   119.95678688
_symmetry_Int_Tables_number   1
_chemical_formula_structural   CuNi6C67
_chemical_formula_sum   'Cu3 Ni18 C201'
_cell_volume   2934.97720716
_cell_formula_units_Z   3
loop_
 _symmetry_equiv_pos_site_id
 _symmetry_equiv_pos_as_xyz
  1  'x, y, z'
loop_
 _atom_site_type_symbol
 _atom_site_label
 _atom_site_symmetry_multiplicity
 _atom_site_fract_x
 _atom_site_fract_y
 _atom_site_fract_z
 _atom_site_occupancy
  Ni  Ni0  1  0.68787040  0.37482880  0.24635454  1
  Ni  Ni1  1  0.99828960  0.62795919  0.24701272  1
  Ni  Ni2  1  0.99523914  0.36718293  0.74397809  1
  Ni  Ni3  1  0.49533158  0.36722775  0.74409693  1
  Ni  Ni4  1  0.18983723  0.00487275  0.74363934  1
  Ni  Ni5  1  0.68994023  0.00520643  0.74370573  1
  Ni  Ni6  1  0.00020598  0.99966935  0.49856958  1
  Ni  Ni7  1  0.50102355  0.00137446  0.49834988  1
  Ni  Ni8  1  0.00089301  0.00057312  0.00086931  1
  Ni  Ni9  1  0.50005014  0.00103093  0.00108502  1
  Ni  Ni10  1  0.33256930  0.34900306  0.83518554  1
  Ni  Ni11  1  0.83262965  0.34856489  0.83640384  1
  Ni  Ni12  1  0.33314758  0.33339814  0.33487736  1
  Ni  Ni13  1  0.83291364  0.31552045  0.33580682  1
  Ni  Ni14  1  0.17359702  0.66711579  0.16530171  1
  Ni  Ni15  1  0.66928277  0.68864498  0.16441334  1
  Ni  Ni16  1  0.17599928  0.66292700  0.65916250  1
  Ni  Ni17  1  0.67596305  0.66344166  0.65928771  1
  Cu  Cu18  1  0.33283114  0.34344909  0.68129956  1
  Cu  Cu19  1  0.83266294  0.34315242  0.68131313  1
  Cu  Cu20  1  0.83276331  0.32149635  0.18317166  1
  C  C21  1  0.00405655  0.00512225  0.35624661  1
  C  C22  1  0.49533621  0.99592318  0.35563027  1
  C  C23  1  0.99934378  0.99864326  0.85869505  1
  C  C24  1  0.49983322  0.99875391  0.85817113  1
  C  C25  1  0.99846938  0.99721474  0.64239053  1
  C  C26  1  0.49857035  0.99680698  0.64237927  1
  C  C27  1  0.99913923  0.00335360  0.14504049  1
  C  C28  1  0.49967056  0.99785819  0.14481661  1
  C  C29  1  0.33345006  0.33515362  0.18720573  1
  C  C30  1  0.33322536  0.33194475  0.98015342  1
  C  C31  1  0.83383808  0.33239329  0.98478024  1
  C  C32  1  0.33369188  0.33381781  0.48416333  1
  C  C33  1  0.83335857  0.33417233  0.48363638  1
  C  C34  1  0.16849490  0.66922864  0.02060841  1
  C  C35  1  0.66378139  0.66189692  0.01868068  1
  C  C36  1  0.16571226  0.66734896  0.51557988  1
  C  C37  1  0.66590552  0.66704385  0.51493941  1
  C  C38  1  0.17182375  0.66674852  0.31255947  1
  C  C39  1  0.66483031  0.67255506  0.31434818  1
  C  C40  1  0.16890256  0.66527763  0.81519496  1
  C  C41  1  0.66969134  0.66605486  0.81506093  1
  C  C42  1  0.14476259  0.00127891  0.24969600  1
  C  C43  1  0.63724461  0.98933897  0.25229241  1
  C  C44  1  0.35675069  0.71361803  0.24982997  1
  C  C45  1  0.85586211  0.72537197  0.25181971  1
  C  C46  1  0.00633030  0.29129032  0.25282309  1
  C  C47  1  0.49794849  0.28432302  0.24995222  1
  C  C48  1  0.13911728  0.28654031  0.75305827  1
  C  C49  1  0.63930810  0.28697471  0.75280625  1
  C  C50  1  0.00323075  0.71942722  0.75343492  1
  C  C51  1  0.50330030  0.71909093  0.75326207  1
  C  C52  1  0.35570575  0.98522890  0.75215889  1
  C  C53  1  0.85582619  0.98562441  0.75221905  1
  C  C54  1  0.48520285  0.33594034  0.58401366  1
  C  C55  1  0.98470447  0.33612946  0.58399684  1
  C  C56  1  0.18323052  0.03120111  0.58441597  1
  C  C57  1  0.68354011  0.03094261  0.58430681  1
  C  C58  1  0.33148470  0.63473183  0.58134182  1
  C  C59  1  0.83138995  0.63448805  0.58127691  1
  C  C60  1  0.47623703  0.61993325  0.08319036  1
  C  C61  1  0.98434385  0.63481695  0.08441511  1
  C  C62  1  0.33350780  0.04728943  0.08379343  1
  C  C63  1  0.83220400  0.02841760  0.08151308  1
  C  C64  1  0.19071656  0.33581708  0.08368954  1
  C  C65  1  0.68227030  0.33075944  0.08425880  1
  C  C66  1  0.31132286  0.66487988  0.91868485  1
  C  C67  1  0.81022369  0.66103306  0.91805827  1
  C  C68  1  0.02193489  0.38039658  0.91805895  1
  C  C69  1  0.51947352  0.37792494  0.91525664  1
  C  C70  1  0.16927249  0.95813872  0.91645903  1
  C  C71  1  0.66837243  0.95874863  0.91722147  1
  C  C72  1  0.30995731  0.95980953  0.41548491  1
  C  C73  1  0.81220838  0.96042669  0.41549155  1
  C  C74  1  0.16984126  0.37828299  0.41639978  1
  C  C75  1  0.66785548  0.37630432  0.41344835  1
  C  C76  1  0.02062208  0.66054548  0.41298488  1
  C  C77  1  0.51850004  0.66292317  0.41623119  1
  C  C78  1  0.10215479  0.02167208  0.30798477  1
  C  C79  1  0.58531320  0.00308419  0.30678281  1
  C  C80  1  0.40928721  0.79711387  0.30800433  1
  C  C81  1  0.91480709  0.82517791  0.30659856  1
  C  C82  1  0.48392508  0.16984455  0.30670220  1
  C  C83  1  0.00409497  0.18551404  0.30923335  1
  C  C84  1  0.08854009  0.17986254  0.81002503  1
  C  C85  1  0.58861745  0.18026463  0.80974821  1
  C  C86  1  0.50083154  0.81835631  0.81050355  1
  C  C87  1  0.00105199  0.81902760  0.81066262  1
  C  C88  1  0.40975944  0.99726698  0.80899377  1
  C  C89  1  0.90990467  0.99770742  0.80912362  1
  C  C90  1  0.40143821  0.97398920  0.69370212  1
  C  C91  1  0.90143268  0.97391396  0.69379636  1
  C  C92  1  0.08428755  0.19739772  0.69530766  1
  C  C93  1  0.58429774  0.19710957  0.69515039  1
  C  C94  1  0.01224442  0.82792520  0.69555644  1
  C  C95  1  0.51186437  0.82747774  0.69544940  1
  C  C96  1  0.40149780  0.82954733  0.19362280  1
  C  C97  1  0.90170817  0.82899238  0.19293093  1
  C  C98  1  0.01010843  0.19637998  0.19411639  1
  C  C99  1  0.51421060  0.19588629  0.19418005  1
  C  C100  1  0.08345004  0.97096262  0.19468903  1
  C  C101  1  0.58591721  0.97582555  0.19303928  1
  C  C102  1  0.45883177  0.37441565  0.64481380  1
  C  C103  1  0.95839541  0.37398286  0.64489676  1
  C  C104  1  0.22916189  0.08217954  0.64508562  1
  C  C105  1  0.72932935  0.08205719  0.64501806  1
  C  C106  1  0.30783676  0.53722525  0.64040562  1
  C  C107  1  0.80808969  0.53747463  0.64036391  1
  C  C108  1  0.43171320  0.50371309  0.13949730  1
  C  C109  1  0.95836892  0.54379814  0.14506938  1
  C  C110  1  0.31987026  0.13737132  0.13970619  1
  C  C111  1  0.80872421  0.07951830  0.14042749  1
  C  C112  1  0.24912263  0.36327221  0.13982660  1
  C  C113  1  0.72776080  0.37181070  0.14495519  1
  C  C114  1  0.23449981  0.30661939  0.02710212  1
  C  C115  1  0.73787644  0.30865588  0.03301590  1
  C  C116  1  0.41870010  0.52983971  0.02647559  1
  C  C117  1  0.91826935  0.52442848  0.03295241  1
  C  C118  1  0.34703053  0.16253603  0.02682117  1
  C  C119  1  0.84547590  0.15840280  0.02850211  1
  C  C120  1  0.23787867  0.16585025  0.53333377  1
  C  C121  1  0.73805634  0.16624067  0.53322137  1
  C  C122  1  0.34546439  0.53127376  0.52871149  1
  C  C123  1  0.84558401  0.53161024  0.52850481  1
  C  C124  1  0.41838282  0.31296725  0.53289282  1
  C  C125  1  0.91823819  0.31337091  0.53268826  1
  C  C126  1  0.26803114  0.69241669  0.97462446  1
  C  C127  1  0.76313910  0.68583384  0.97168314  1
  C  C128  1  0.08399972  0.47317271  0.97188438  1
  C  C129  1  0.57807726  0.47226313  0.96954503  1
  C  C130  1  0.15958755  0.84057008  0.97064552  1
  C  C131  1  0.65255424  0.83664601  0.97129898  1
  C  C132  1  0.26507777  0.84215684  0.46995793  1
  C  C133  1  0.76637494  0.84236387  0.46983774  1
  C  C134  1  0.15572982  0.46831362  0.47090076  1
  C  C135  1  0.65411531  0.47145797  0.46705185  1
  C  C136  1  0.08095219  0.68869487  0.46713970  1
  C  C137  1  0.57800509  0.69228864  0.47072204  1
  C  C138  1  0.06362517  0.63703760  0.35435729  1
  C  C139  1  0.56546258  0.63860299  0.35967325  1
  C  C140  1  0.25341232  0.86855927  0.35800563  1
  C  C141  1  0.75259104  0.86700869  0.35878932  1
  C  C142  1  0.18141488  0.49441385  0.35930726  1
  C  C143  1  0.68064386  0.48693298  0.35468001  1
  C  C144  1  0.06532502  0.49150371  0.85929048  1
  C  C145  1  0.56327885  0.48856467  0.85684009  1
  C  C146  1  0.18080070  0.87188518  0.85759260  1
  C  C147  1  0.68049797  0.87056007  0.85864206  1
  C  C148  1  0.25247952  0.64112660  0.86196081  1
  C  C149  1  0.75281929  0.63854161  0.86021699  1
  C  C150  1  0.01181352  0.82853890  0.40817461  1
  C  C151  1  0.50787520  0.82789036  0.41062748  1
  C  C152  1  0.40226558  0.97708737  0.40977875  1
  C  C153  1  0.90496088  0.98102156  0.40926838  1
  C  C154  1  0.08708417  0.19189821  0.41157277  1
  C  C155  1  0.58382838  0.19135080  0.40774728  1
  C  C156  1  0.01079290  0.19323973  0.91300866  1
  C  C157  1  0.50932490  0.19168533  0.91196311  1
  C  C158  1  0.08614333  0.97742400  0.91300681  1
  C  C159  1  0.58590469  0.98080231  0.91214753  1
  C  C160  1  0.40392556  0.82928100  0.91293106  1
  C  C161  1  0.90282415  0.82709046  0.91241496  1
  C  C162  1  0.48841964  0.16108354  0.58616823  1
  C  C163  1  0.98846153  0.16165874  0.58622011  1
  C  C164  1  0.09253584  0.02399666  0.58761253  1
  C  C165  1  0.59274321  0.02353462  0.58751266  1
  C  C166  1  0.41937599  0.81500339  0.58601610  1
  C  C167  1  0.91912500  0.81502299  0.58614790  1
  C  C168  1  0.48265555  0.80246984  0.08985211  1
  C  C169  1  0.99136424  0.81873640  0.08532772  1
  C  C170  1  0.41656408  0.02963340  0.09082589  1
  C  C171  1  0.91967263  0.02292766  0.08510360  1
  C  C172  1  0.09866314  0.17116586  0.09149435  1
  C  C173  1  0.59149580  0.15590587  0.08566659  1
  C  C174  1  0.34580025  0.14950804  0.75213206  1
  C  C175  1  0.84590532  0.14974427  0.75219917  1
  C  C176  1  0.22832683  0.29853448  0.75354909  1
  C  C177  1  0.72837946  0.29866296  0.75346894  1
  C  C178  1  0.42482293  0.53365914  0.75407313  1
  C  C179  1  0.92490491  0.53387526  0.75412850  1
  C  C180  1  0.34725446  0.52850608  0.24292362  1
  C  C181  1  0.84651977  0.54196116  0.25210303  1
  C  C182  1  0.41641476  0.30642228  0.24265165  1
  C  C183  1  0.92697049  0.31736158  0.25476730  1
  C  C184  1  0.23647053  0.16713547  0.24223448  1
  C  C185  1  0.72666976  0.15574303  0.25409856  1
  C  C186  1  0.31861380  0.49684923  0.92299639  1
  C  C187  1  0.81916038  0.49533894  0.92384071  1
  C  C188  1  0.42765268  0.36080260  0.92145318  1
  C  C189  1  0.93089460  0.36558878  0.92480571  1
  C  C190  1  0.25202226  0.14264663  0.92231057  1
  C  C191  1  0.75154021  0.14174551  0.92406890  1
  C  C192  1  0.31963874  0.14372049  0.42283842  1
  C  C193  1  0.82025884  0.14325409  0.42311404  1
  C  C194  1  0.25229803  0.35958070  0.42285849  1
  C  C195  1  0.74984420  0.35619253  0.42263723  1
  C  C196  1  0.42789899  0.49495224  0.42297011  1
  C  C197  1  0.92882577  0.49601242  0.42216864  1
  C  C198  1  0.18165542  0.50221921  0.07692812  1
  C  C199  1  0.66622842  0.48447286  0.06835454  1
  C  C200  1  0.07622357  0.65753250  0.06893487  1
  C  C201  1  0.56916366  0.64367296  0.07689104  1
  C  C202  1  0.25123280  0.86281460  0.07714714  1
  C  C203  1  0.75405440  0.84184660  0.06721134  1
  C  C204  1  0.16648584  0.84548901  0.56866354  1
  C  C205  1  0.66757061  0.84573816  0.56863234  1
  C  C206  1  0.25611435  0.67115367  0.56666273  1
  C  C207  1  0.75561320  0.66952202  0.56633622  1
  C  C208  1  0.07739847  0.49064679  0.56925697  1
  C  C209  1  0.57800143  0.48933664  0.56882729  1
  C  C210  1  0.15183647  0.83062907  0.25380332  1
  C  C211  1  0.64339230  0.81864490  0.25637303  1
  C  C212  1  0.26454571  0.69744375  0.25491992  1
  C  C213  1  0.76256343  0.70562955  0.25528930  1
  C  C214  1  0.09178901  0.47707482  0.25388526  1
  C  C215  1  0.58367993  0.46677102  0.25593988  1
  C  C216  1  0.14543164  0.47087517  0.75653778  1
  C  C217  1  0.64554350  0.47118412  0.75607595  1
  C  C218  1  0.08993418  0.70674907  0.75565802  1
  C  C219  1  0.59021731  0.70753666  0.75534618  1
  C  C220  1  0.26250466  0.81743445  0.75559781  1
  C  C221  1  0.76249074  0.81816543  0.75539725  1
