# generated using pymatgen
data_Cu(NiC7)5
_symmetry_space_group_name_H-M   'P 1'
_cell_length_a   9.11727619
_cell_length_b   9.12871034
_cell_length_c   22.65326648
_cell_angle_alpha   89.98594019
_cell_angle_beta   89.91122890
_cell_angle_gamma   120.06011907
_symmetry_Int_Tables_number   1
_chemical_formula_structural   Cu(NiC7)5
_chemical_formula_sum   'Cu3 Ni15 C105'
_cell_volume   1631.81817175
_cell_formula_units_Z   3
loop_
 _symmetry_equiv_pos_site_id
 _symmetry_equiv_pos_as_xyz
  1  'x, y, z'
loop_
 _atom_site_type_symbol
 _atom_site_label
 _atom_site_symmetry_multiplicity
 _atom_site_fract_x
 _atom_site_fract_y
 _atom_site_fract_z
 _atom_site_occupancy
  C  C0  1  0.63535721  0.99975192  0.25119366  1
  C  C1  1  0.36498650  0.36431858  0.24809219  1
  C  C2  1  0.00052998  0.63389401  0.25045193  1
  C  C3  1  0.63539569  0.63465548  0.74924020  1
  C  C4  1  0.99961189  0.36574781  0.75059899  1
  C  C5  1  0.36591356  0.00026597  0.75086620  1
  C  C6  1  0.30181682  0.33255709  0.58384046  1
  C  C7  1  0.03265140  0.69991724  0.58285627  1
  C  C8  1  0.66696082  0.96734401  0.58310411  1
  C  C9  1  0.29559153  0.96701769  0.08172213  1
  C  C10  1  0.03767480  0.33714465  0.08416781  1
  C  C11  1  0.97098904  0.66832521  0.91727823  1
  C  C12  1  0.33062994  0.29605129  0.91847802  1
  C  C13  1  0.33149982  0.02913077  0.41667240  1
  C  C14  1  0.70327985  0.66847907  0.41800269  1
  C  C15  1  0.99658308  0.00325286  0.49948527  1
  C  C16  1  0.99137722  0.99553877  0.00016589  1
  C  C17  1  0.66778508  0.32282930  0.83420757  1
  C  C18  1  0.67767300  0.33241948  0.33375714  1
  C  C19  1  0.33803559  0.66357617  0.16593446  1
  C  C20  1  0.33360116  0.66739072  0.66676731  1
  C  C21  1  0.99671407  0.00132174  0.35193721  1
  C  C22  1  0.99933750  0.00313196  0.85300262  1
  C  C23  1  0.99955626  0.99956901  0.64862699  1
  C  C24  1  0.99839534  0.99520076  0.14764665  1
  C  C25  1  0.66712896  0.33377422  0.68494500  1
  C  C26  1  0.67466303  0.33206758  0.48054373  1
  Ni  Ni27  1  0.29492257  0.00083987  0.25002748  1
  Ni  Ni28  1  0.70602642  0.70646099  0.25092608  1
  Ni  Ni29  1  0.99955216  0.29268497  0.24854065  1
  Ni  Ni30  1  0.29379113  0.29506144  0.75103024  1
  Ni  Ni31  1  0.00036828  0.70661563  0.75116575  1
  Ni  Ni32  1  0.70555869  0.99847350  0.75040084  1
  Ni  Ni33  1  0.96232913  0.33401227  0.58358369  1
  Ni  Ni34  1  0.37368081  0.04021360  0.58224939  1
  Ni  Ni35  1  0.66492752  0.62593314  0.58210602  1
  Ni  Ni36  1  0.95787106  0.62598660  0.08189654  1
  Ni  Ni37  1  0.37661202  0.33768613  0.08272056  1
  Ni  Ni38  1  0.03795968  0.37257789  0.91747860  1
  Ni  Ni39  1  0.33764246  0.96100911  0.91755715  1
  Ni  Ni40  1  0.62597475  0.95917391  0.41636182  1
  Ni  Ni41  1  0.03991962  0.66579263  0.41601712  1
  C  C42  1  0.66769985  0.33810700  0.18467533  1
  C  C43  1  0.66678771  0.33003726  0.98130426  1
  C  C44  1  0.33286997  0.66370301  0.01868357  1
  C  C45  1  0.33344465  0.66901811  0.51816546  1
  C  C46  1  0.32980774  0.66719334  0.31459068  1
  C  C47  1  0.33142338  0.66946408  0.81563627  1
  Cu  Cu48  1  0.66573972  0.04070523  0.08345417  1
  Cu  Cu49  1  0.62333492  0.66722949  0.91726563  1
  Cu  Cu50  1  0.33203658  0.37507043  0.41691648  1
  C  C51  1  0.21058214  0.03648061  0.30793421  1
  C  C52  1  0.82534654  0.79040760  0.30914871  1
  C  C53  1  0.96434144  0.16794018  0.30468439  1
  C  C54  1  0.20694128  0.17342041  0.80849941  1
  C  C55  1  0.96705119  0.79296880  0.80881464  1
  C  C56  1  0.83217077  0.03326538  0.80563730  1
  C  C57  1  0.78804769  0.96375157  0.69137202  1
  C  C58  1  0.17337746  0.21047627  0.69297224  1
  C  C59  1  0.03414991  0.82666893  0.69305043  1
  C  C60  1  0.79514773  0.83275357  0.19514049  1
  C  C61  1  0.03423857  0.21008398  0.18998434  1
  C  C62  1  0.17345626  0.96735644  0.19254727  1
  C  C63  1  0.87984682  0.37102077  0.64197153  1
  C  C64  1  0.49379179  0.12652306  0.64027322  1
  C  C65  1  0.63142213  0.50691746  0.64054222  1
  C  C66  1  0.88031323  0.50365585  0.14057692  1
  C  C67  1  0.62881411  0.11549838  0.13978711  1
  C  C68  1  0.48715544  0.36409529  0.14273962  1
  C  C69  1  0.45643962  0.29448261  0.02468372  1
  C  C70  1  0.84448281  0.54076059  0.02285865  1
  C  C71  1  0.70325739  0.15821474  0.02955997  1
  C  C72  1  0.45911032  0.16025845  0.52451846  1
  C  C73  1  0.69767750  0.53876562  0.52463289  1
  C  C74  1  0.83596705  0.29855282  0.52799280  1
  C  C75  1  0.54192917  0.69734156  0.97144838  1
  C  C76  1  0.16048174  0.45330787  0.97536019  1
  C  C77  1  0.30079506  0.84112332  0.97599907  1
  C  C78  1  0.54611761  0.83750102  0.47508114  1
  C  C79  1  0.30303318  0.45369170  0.47309059  1
  C  C80  1  0.15976290  0.70413795  0.47477531  1
  C  C81  1  0.12065669  0.63230177  0.35658739  1
  C  C82  1  0.50605121  0.87554623  0.35774497  1
  C  C83  1  0.36669671  0.48813554  0.36140019  1
  C  C84  1  0.12024253  0.49273834  0.85846042  1
  C  C85  1  0.36934570  0.88035077  0.85762260  1
  C  C86  1  0.51311954  0.63186141  0.86070910  1
  C  C87  1  0.02823511  0.84026084  0.41145033  1
  C  C88  1  0.81084439  0.97210218  0.41126247  1
  C  C89  1  0.17729675  0.19581367  0.41099109  1
  C  C90  1  0.02595221  0.18853335  0.91184196  1
  C  C91  1  0.16322239  0.97355796  0.91255272  1
  C  C92  1  0.80373895  0.82062820  0.91138804  1
  C  C93  1  0.98042999  0.16546358  0.58862796  1
  C  C94  1  0.18594317  0.02104807  0.58854080  1
  C  C95  1  0.83399408  0.81346146  0.58826294  1
  C  C96  1  0.98416439  0.81615532  0.08780862  1
  C  C97  1  0.82707885  0.02799697  0.08977017  1
  C  C98  1  0.18607700  0.16772667  0.08803318  1
  C  C99  1  0.68593585  0.16643989  0.74472514  1
  C  C100  1  0.48055525  0.31246007  0.74496155  1
  C  C101  1  0.83132280  0.51943295  0.74509317  1
  C  C102  1  0.69016290  0.51933492  0.24563012  1
  C  C103  1  0.82823061  0.30969031  0.24380106  1
  C  C104  1  0.48426267  0.16993462  0.24384175  1
  C  C105  1  0.63830960  0.50405811  0.92196489  1
  C  C106  1  0.85464084  0.36638119  0.92226699  1
  C  C107  1  0.49998855  0.15527927  0.92174787  1
  C  C108  1  0.63178628  0.14063951  0.42163933  1
  C  C109  1  0.49359966  0.35957026  0.42204186  1
  C  C110  1  0.84711472  0.50466213  0.42086802  1
  C  C111  1  0.35331067  0.50476000  0.07822362  1
  C  C112  1  0.14980055  0.64625689  0.07850425  1
  C  C113  1  0.50291586  0.86606052  0.07666648  1
  C  C114  1  0.35711838  0.85227089  0.57867072  1
  C  C115  1  0.49233397  0.64049145  0.57772437  1
  C  C116  1  0.15023516  0.50378046  0.57715712  1
  C  C117  1  0.31146349  0.82959844  0.25366968  1
  C  C118  1  0.51612364  0.68484069  0.25646784  1
  C  C119  1  0.17159542  0.47990894  0.25500531  1
  C  C120  1  0.31282384  0.48344461  0.75704974  1
  C  C121  1  0.17178779  0.69004107  0.75453739  1
  C  C122  1  0.51889000  0.82586766  0.75600365  1
