# generated using pymatgen
data_CuNiC11
_symmetry_space_group_name_H-M   'P 1'
_cell_length_a   5.83284033
_cell_length_b   6.68736890
_cell_length_c   5.40941229
_cell_angle_alpha   91.08840364
_cell_angle_beta   89.86771231
_cell_angle_gamma   92.90242056
_symmetry_Int_Tables_number   1
_chemical_formula_structural   CuNiC11
_chemical_formula_sum   'Cu1 Ni1 C11'
_cell_volume   210.69257517
_cell_formula_units_Z   1
loop_
 _symmetry_equiv_pos_site_id
 _symmetry_equiv_pos_as_xyz
  1  'x, y, z'
loop_
 _atom_site_type_symbol
 _atom_site_label
 _atom_site_symmetry_multiplicity
 _atom_site_fract_x
 _atom_site_fract_y
 _atom_site_fract_z
 _atom_site_occupancy
  Ni  Ni0  1  0.41299300  0.12946900  0.49184700  1
  C  C1  1  0.08862800  0.12391700  0.99804400  1
  C  C2  1  0.41538800  0.63813200  0.50812800  1
  C  C3  1  0.59169900  0.39200200  0.00479800  1
  Cu  Cu4  1  0.91009900  0.84617400  0.48708600  1
  C  C5  1  0.11642300  0.06867200  0.31489100  1
  C  C6  1  0.12301500  0.63300200  0.45703700  1
  C  C7  1  0.36653800  0.18508300  0.85731500  1
  C  C8  1  0.50094600  0.60692000  0.82893000  1
  C  C9  1  0.51219900  0.39560300  0.35055300  1
  C  C10  1  0.57826100  0.87855600  0.43766500  1
  C  C11  1  0.89989500  0.31521200  0.96269700  1
  C  C12  1  0.97349800  0.92058800  0.84940900  1
