# generated using pymatgen
data_Cu2NiC10
_symmetry_space_group_name_H-M   'P 1'
_cell_length_a   5.48467470
_cell_length_b   5.48467470
_cell_length_c   7.19715492
_cell_angle_alpha   87.08728826
_cell_angle_beta   87.08728826
_cell_angle_gamma   68.88980797
_symmetry_Int_Tables_number   1
_chemical_formula_structural   Cu2NiC10
_chemical_formula_sum   'Cu2 Ni1 C10'
_cell_volume   201.58897144
_cell_formula_units_Z   1
loop_
 _symmetry_equiv_pos_site_id
 _symmetry_equiv_pos_as_xyz
  1  'x, y, z'
loop_
 _atom_site_type_symbol
 _atom_site_label
 _atom_site_symmetry_multiplicity
 _atom_site_fract_x
 _atom_site_fract_y
 _atom_site_fract_z
 _atom_site_occupancy
  C  C0  1  0.00000000  0.00000000  0.00000000  1
  C  C1  1  0.00000000  0.00000000  0.50000000  1
  Ni  Ni2  1  0.50000000  0.50000000  0.50000000  1
  Cu  Cu3  1  0.64485700  0.64485700  0.77242400  1
  Cu  Cu4  1  0.35514300  0.35514300  0.22757600  1
  C  C5  1  0.25683100  0.68114900  0.26093900  1
  C  C6  1  0.31885100  0.74316900  0.73906100  1
  C  C7  1  0.74040400  0.74040400  0.56380600  1
  C  C8  1  0.25019500  0.25019500  0.05529100  1
  C  C9  1  0.25959600  0.25959600  0.43619400  1
  C  C10  1  0.74980500  0.74980500  0.94470900  1
  C  C11  1  0.68114900  0.25683100  0.26093900  1
  C  C12  1  0.74316900  0.31885100  0.73906100  1
