# generated using pymatgen
data_Cu6NiC12
_symmetry_space_group_name_H-M   'P 1'
_cell_length_a   8.14386950
_cell_length_b   5.69274532
_cell_length_c   5.89934844
_cell_angle_alpha   67.83375147
_cell_angle_beta   63.97165505
_cell_angle_gamma   65.90884239
_symmetry_Int_Tables_number   1
_chemical_formula_structural   Cu6NiC12
_chemical_formula_sum   'Cu6 Ni1 C12'
_cell_volume   217.70848046
_cell_formula_units_Z   1
loop_
 _symmetry_equiv_pos_site_id
 _symmetry_equiv_pos_as_xyz
  1  'x, y, z'
loop_
 _atom_site_type_symbol
 _atom_site_label
 _atom_site_symmetry_multiplicity
 _atom_site_fract_x
 _atom_site_fract_y
 _atom_site_fract_z
 _atom_site_occupancy
  Ni  Ni0  1  0.83706059  0.66134028  0.15159152  1
  Cu  Cu1  1  0.80074535  0.65050348  0.65846804  1
  Cu  Cu2  1  0.64922752  0.30590914  0.34612567  1
  Cu  Cu3  1  0.34652698  0.66153071  0.65759750  1
  Cu  Cu4  1  0.19890746  0.35403402  0.35338605  1
  Cu  Cu5  1  0.48206862  0.00738441  0.00157647  1
  Cu  Cu6  1  0.99346104  0.04556919  0.00961246  1
  C  C7  1  0.65394444  0.01938825  0.64364966  1
  C  C8  1  0.33827697  0.37437542  0.98120048  1
  C  C9  1  0.63687594  0.55308433  0.51776335  1
  C  C10  1  0.92515833  0.25671352  0.22394833  1
  C  C11  1  0.73036158  0.07786681  0.11670711  1
  C  C12  1  0.37751690  0.43405401  0.45938247  1
  C  C13  1  0.33291759  0.97982582  0.36578640  1
  C  C14  1  0.65480129  0.63475185  0.02799888  1
  C  C15  1  0.99981373  0.32161190  0.70161062  1
  C  C16  1  0.99641951  0.70230308  0.30689825  1
  C  C17  1  0.27997042  0.91528903  0.88895805  1
  C  C18  1  0.03446372  0.78255774  0.81392770  1
