# generated using pymatgen
data_Cu24Ni6C7
_symmetry_space_group_name_H-M   'P 1'
_cell_length_a   8.76655411
_cell_length_b   8.77593659
_cell_length_c   22.60080163
_cell_angle_alpha   90.23975008
_cell_angle_beta   89.82896731
_cell_angle_gamma   120.18034705
_symmetry_Int_Tables_number   1
_chemical_formula_structural   Cu24Ni6C7
_chemical_formula_sum   'Cu72 Ni18 C21'
_cell_volume   1503.07526494
_cell_formula_units_Z   3
loop_
 _symmetry_equiv_pos_site_id
 _symmetry_equiv_pos_as_xyz
  1  'x, y, z'
loop_
 _atom_site_type_symbol
 _atom_site_label
 _atom_site_symmetry_multiplicity
 _atom_site_fract_x
 _atom_site_fract_y
 _atom_site_fract_z
 _atom_site_occupancy
  C  C0  1  0.36191482  0.36245602  0.25391370  1
  C  C1  1  0.30338143  0.97178071  0.08851572  1
  C  C2  1  0.97131970  0.30425103  0.41964447  1
  C  C3  1  0.00064631  0.98361786  0.50165621  1
  C  C4  1  0.98466267  0.00059115  0.00241331  1
  C  C5  1  0.66690011  0.33362761  0.83105824  1
  C  C6  1  0.66767338  0.33422352  0.33667860  1
  C  C7  1  0.33406438  0.66724392  0.17067192  1
  C  C8  1  0.33437761  0.66780666  0.65075849  1
  C  C9  1  0.33326462  0.66678685  0.81373677  1
  C  C10  1  0.99596962  0.98587734  0.34960797  1
  C  C11  1  0.99939240  -0.00053642  0.84822510  1
  C  C12  1  0.00008853  0.00057908  0.64547598  1
  C  C13  1  0.98746069  0.99670195  0.15428224  1
  C  C14  1  0.66653367  0.33481117  0.67174266  1
  C  C15  1  0.68051368  0.33691146  0.18261994  1
  C  C16  1  0.67098248  0.33597720  0.98606274  1
  C  C17  1  0.65792548  0.33412289  0.48742204  1
  C  C18  1  0.33419470  0.65773755  0.01840232  1
  C  C19  1  0.33780008  0.67183330  0.51548653  1
  C  C20  1  0.33632818  0.67853640  0.32143864  1
  Ni  Ni21  1  0.29782299  0.99841260  0.24751491  1
  Ni  Ni22  1  0.70006111  0.70042296  0.24960277  1
  Ni  Ni23  1  -0.00052083  0.29804862  0.25146136  1
  Ni  Ni24  1  0.29692969  0.29155495  0.75184943  1
  Ni  Ni25  1  0.99485549  0.70261472  0.75189874  1
  Ni  Ni26  1  0.70897545  0.00610752  0.75183819  1
  Ni  Ni27  1  0.96714032  0.33401822  0.58232049  1
  Ni  Ni28  1  0.36791933  0.03361033  0.58407312  1
  Ni  Ni29  1  0.66548763  0.63186418  0.58390607  1
  Ni  Ni30  1  0.96417207  0.63206578  0.08201256  1
  Ni  Ni31  1  0.66882708  0.03795086  0.08178575  1
  Ni  Ni32  1  0.36971921  0.33375579  0.08401236  1
  Ni  Ni33  1  0.62799336  0.66817259  0.91699122  1
  Ni  Ni34  1  0.03928754  0.37123781  0.91711386  1
  Ni  Ni35  1  0.33192464  0.96125550  0.91820865  1
  Ni  Ni36  1  0.63221434  0.96594716  0.41696128  1
  Ni  Ni37  1  0.33507072  0.36917452  0.41470585  1
  Ni  Ni38  1  0.03648164  0.66684625  0.41739178  1
  Cu  Cu39  1  0.20822772  0.02672048  0.29851874  1
  Cu  Cu40  1  0.80474215  0.78418891  0.30271997  1
  Cu  Cu41  1  0.97988604  0.19745297  0.30629159  1
  Cu  Cu42  1  0.21591787  0.19130714  0.80605692  1
  Cu  Cu43  1  0.97496140  0.78304117  0.80628146  1
  Cu  Cu44  1  0.80906808  0.02579080  0.80604354  1
  Cu  Cu45  1  0.77684103  0.96462723  0.69887876  1
  Cu  Cu46  1  0.18753738  0.22225084  0.69898579  1
  Cu  Cu47  1  0.03659117  0.81178840  0.69915317  1
  Cu  Cu48  1  0.77849992  0.80009634  0.19484802  1
  Cu  Cu49  1  0.02891037  0.21432356  0.19864470  1
  Cu  Cu50  1  0.19997870  0.97728494  0.19102439  1
  Cu  Cu51  1  0.88436064  0.35648743  0.63692160  1
  Cu  Cu52  1  0.46865490  0.11159878  0.63975844  1
  Cu  Cu53  1  0.64187328  0.53161421  0.63955898  1
  Cu  Cu54  1  0.88102913  0.52750283  0.13521172  1
  Cu  Cu55  1  0.63854253  0.12125996  0.13428678  1
  Cu  Cu56  1  0.47034434  0.35307884  0.13888143  1
  Cu  Cu57  1  0.45429996  0.30570374  0.03092429  1
  Cu  Cu58  1  0.86315324  0.55240953  0.02724339  1
  Cu  Cu59  1  0.69201742  0.14010916  0.02685007  1
  Cu  Cu60  1  0.45427653  0.14004102  0.53140363  1
  Cu  Cu61  1  0.68788296  0.54625265  0.53125591  1
  Cu  Cu62  1  0.86448388  0.31438425  0.52798690  1
  Cu  Cu63  1  0.54522185  0.68990900  0.97004958  1
  Cu  Cu64  1  0.14319384  0.45522863  0.97001729  1
  Cu  Cu65  1  0.31255651  0.86150927  0.97227559  1
  Cu  Cu66  1  0.54823416  0.86068603  0.46980534  1
  Cu  Cu67  1  0.30735677  0.45867928  0.46570324  1
  Cu  Cu68  1  0.14230165  0.68862950  0.47046723  1
  Cu  Cu69  1  0.11443958  0.63567415  0.36322677  1
  Cu  Cu70  1  0.53218601  0.88791405  0.36203966  1
  Cu  Cu71  1  0.35632080  0.46671914  0.35826923  1
  Cu  Cu72  1  0.14116648  0.48609137  0.86325504  1
  Cu  Cu73  1  0.34517125  0.85562242  0.86517547  1
  Cu  Cu74  1  0.51262610  0.65440159  0.86323973  1
  Cu  Cu75  1  0.01774565  0.82457203  0.41205244  1
  Cu  Cu76  1  0.81426529  0.99001589  0.41292010  1
  Cu  Cu77  1  0.16984193  0.19157782  0.41124081  1
  Cu  Cu78  1  0.02343789  0.19797611  0.90933496  1
  Cu  Cu79  1  0.17376833  0.97517995  0.90951695  1
  Cu  Cu80  1  0.80157973  0.82623364  0.90925601  1
  Cu  Cu81  1  0.98186035  0.17285393  0.58700328  1
  Cu  Cu82  1  0.19046035  0.01708991  0.58786624  1
  Cu  Cu83  1  0.82690539  0.80945393  0.58777157  1
  Cu  Cu84  1  0.98826534  0.81345469  0.08661620  1
  Cu  Cu85  1  0.82478440  0.01735872  0.08781238  1
  Cu  Cu86  1  0.19116622  0.16972774  0.08739352  1
  Cu  Cu87  1  0.67610347  0.15317073  0.74619295  1
  Cu  Cu88  1  0.47761620  0.32500766  0.74602489  1
  Cu  Cu89  1  0.84721097  0.52174885  0.74598722  1
  Cu  Cu90  1  0.67627649  0.51873829  0.24572380  1
  Cu  Cu91  1  0.84138935  0.31587255  0.24556775  1
  Cu  Cu92  1  0.47506380  0.16380076  0.24435230  1
  Cu  Cu93  1  0.63282487  0.50308534  0.91588777  1
  Cu  Cu94  1  0.86844419  0.36521248  0.91606201  1
  Cu  Cu95  1  0.49717484  0.13235654  0.91612683  1
  Cu  Cu96  1  0.65643976  0.14778272  0.42170966  1
  Cu  Cu97  1  0.49174621  0.34942669  0.42113254  1
  Cu  Cu98  1  0.85815661  0.50311065  0.42222441  1
  Cu  Cu99  1  0.35084899  0.49097116  0.07883173  1
  Cu  Cu100  1  0.14643243  0.65617991  0.07850817  1
  Cu  Cu101  1  0.50312550  0.86078141  0.07773083  1
  Cu  Cu102  1  0.34887456  0.85635536  0.57910231  1
  Cu  Cu103  1  0.50634383  0.64913531  0.57871108  1
  Cu  Cu104  1  0.14503867  0.49302489  0.57846963  1
  Cu  Cu105  1  0.31701957  0.84205965  0.25404258  1
  Cu  Cu106  1  0.51835257  0.67652943  0.25427891  1
  Cu  Cu107  1  0.16340786  0.47628925  0.25489360  1
  Cu  Cu108  1  0.31536682  0.47750308  0.76149759  1
  Cu  Cu109  1  0.16254069  0.68461133  0.76181768  1
  Cu  Cu110  1  0.52220897  0.83807439  0.76162293  1
