# generated using pymatgen
data_Cu3Ni5C31
_symmetry_space_group_name_H-M   'P 1'
_cell_length_a   9.10159341
_cell_length_b   9.13083841
_cell_length_c   22.84495155
_cell_angle_alpha   90.21730930
_cell_angle_beta   90.18734713
_cell_angle_gamma   120.12444412
_symmetry_Int_Tables_number   1
_chemical_formula_structural   Cu3Ni5C31
_chemical_formula_sum   'Cu9 Ni15 C93'
_cell_volume   1642.07165504
_cell_formula_units_Z   3
loop_
 _symmetry_equiv_pos_site_id
 _symmetry_equiv_pos_as_xyz
  1  'x, y, z'
loop_
 _atom_site_type_symbol
 _atom_site_label
 _atom_site_symmetry_multiplicity
 _atom_site_fract_x
 _atom_site_fract_y
 _atom_site_fract_z
 _atom_site_occupancy
  Ni  Ni0  1  0.64712278  0.00673254  0.25738953  1
  Ni  Ni1  1  0.00206661  0.62187665  0.24756557  1
  Ni  Ni2  1  0.63051429  0.63680465  0.74239317  1
  Ni  Ni3  1  0.37129677  0.01490280  0.75739014  1
  Ni  Ni4  1  0.66732746  0.95243231  0.58646116  1
  Ni  Ni5  1  0.97536308  0.68766677  0.92305609  1
  Ni  Ni6  1  0.68891209  0.01163774  0.91002376  1
  Ni  Ni7  1  0.96188500  0.30201361  0.40683974  1
  Ni  Ni8  1  0.70980675  0.68917691  0.42443254  1
  Ni  Ni9  1  0.00317626  0.96771971  0.50280345  1
  Ni  Ni10  1  0.01059941  0.98172009  0.99915190  1
  Ni  Ni11  1  0.64047657  0.31514904  0.83026002  1
  Ni  Ni12  1  0.66111623  0.31451337  0.33238089  1
  Ni  Ni13  1  0.30067579  0.62832838  0.15937817  1
  Ni  Ni14  1  0.32784875  0.62858589  0.66449222  1
  C  C15  1  0.66264772  0.34417230  0.98150831  1
  C  C16  1  0.67155515  0.34170968  0.48141689  1
  C  C17  1  0.34798905  0.66761641  0.81420887  1
  Cu  Cu18  1  0.99507706  0.00159218  0.35287483  1
  Cu  Cu19  1  0.00793183  0.01261791  0.85118274  1
  Cu  Cu20  1  0.99172308  0.99917924  0.65074023  1
  Cu  Cu21  1  0.00309232  0.00463894  0.14515115  1
  Cu  Cu22  1  0.66011084  0.33906880  0.68629629  1
  Cu  Cu23  1  0.68526489  0.34286230  0.18173170  1
  Cu  Cu24  1  0.33402831  0.68062849  0.01851805  1
  Cu  Cu25  1  0.34076233  0.67672154  0.51653924  1
  Cu  Cu26  1  0.32052781  0.66316924  0.31669253  1
  C  C27  1  0.00349806  0.29570669  0.25017920  1
  C  C28  1  0.28919754  0.29134840  0.74784763  1
  C  C29  1  0.70674526  0.00750351  0.75046663  1
  C  C30  1  0.66597499  0.63617189  0.58489587  1
  C  C31  1  0.97368690  0.63853136  0.08519535  1
  C  C32  1  0.63195491  0.67147829  0.91878683  1
  C  C33  1  0.33168159  0.96209180  0.91591619  1
  C  C34  1  0.62634021  0.96208256  0.41454493  1
  C  C35  1  0.04200507  0.67240849  0.41630129  1
  C  C36  1  0.29271806  0.00132463  0.25003074  1
  C  C37  1  0.70574744  0.70502202  0.24957942  1
  C  C38  1  0.99961792  0.70691016  0.75073791  1
  C  C39  1  0.96152056  0.33504923  0.58371008  1
  C  C40  1  0.37197708  0.03961502  0.58377705  1
  C  C41  1  0.66745735  0.03890753  0.08445601  1
  C  C42  1  0.37327380  0.33405383  0.08570086  1
  C  C43  1  0.04080227  0.37516434  0.91901420  1
  C  C44  1  0.33320691  0.37545076  0.41673111  1
  C  C45  1  0.21151961  0.01891484  0.30312359  1
  C  C46  1  0.80866236  0.77970826  0.30423854  1
  C  C47  1  0.97551698  0.18637780  0.31073669  1
  C  C48  1  0.20684706  0.16890705  0.80421381  1
  C  C49  1  0.97286838  0.78159865  0.80456214  1
  C  C50  1  0.81132797  0.02069008  0.80997405  1
  C  C51  1  0.78765851  0.96728282  0.69247336  1
  C  C52  1  0.17981989  0.19505063  0.68987497  1
  C  C53  1  0.02555818  0.81487794  0.69929629  1
  C  C54  1  0.79463588  0.81295642  0.19924998  1
  C  C55  1  0.01233671  0.18640442  0.19555585  1
  C  C56  1  0.18644915  0.97566332  0.19758351  1
  C  C57  1  0.87195211  0.34954514  0.63446418  1
  C  C58  1  0.47427621  0.12006194  0.63729772  1
  C  C59  1  0.65659306  0.52751235  0.64255904  1
  C  C60  1  0.87640361  0.52589151  0.14421492  1
  C  C61  1  0.65041684  0.12389281  0.13768406  1
  C  C62  1  0.47645306  0.34617232  0.13737811  1
  C  C63  1  0.45585344  0.31325230  0.03171631  1
  C  C64  1  0.85135699  0.53382933  0.02775549  1
  C  C65  1  0.68105960  0.14076621  0.03151016  1
  C  C66  1  0.46455506  0.14501768  0.53191197  1
  C  C67  1  0.67567204  0.53321432  0.52567821  1
  C  C68  1  0.85773782  0.31375512  0.52886380  1
  C  C69  1  0.52735679  0.69073730  0.97191649  1
  C  C70  1  0.14258405  0.45603866  0.97171428  1
  C  C71  1  0.29468637  0.83261800  0.96991203  1
  C  C72  1  0.54252042  0.84142987  0.47173540  1
  C  C73  1  0.30856270  0.45296557  0.46939713  1
  C  C74  1  0.15598268  0.68230884  0.47197045  1
  C  C75  1  0.11359615  0.62822068  0.35674456  1
  C  C76  1  0.51927479  0.87173080  0.35481179  1
  C  C77  1  0.36292806  0.48222728  0.36452847  1
  C  C78  1  0.11853043  0.48034723  0.86590735  1
  C  C79  1  0.35932562  0.87492707  0.85600859  1
  C  C80  1  0.52335372  0.64233432  0.85710901  1
  C  C81  1  0.00956495  0.83180856  0.41086782  1
  C  C82  1  0.82086789  0.98934016  0.41084421  1
  C  C83  1  0.18177959  0.20506917  0.40999166  1
  C  C84  1  0.01618855  0.20316724  0.91323086  1
  C  C85  1  0.16522444  0.98261613  0.91072773  1
  C  C86  1  0.82011340  0.84069647  0.91457380  1
  C  C87  1  0.96979226  0.17577765  0.58568784  1
  C  C88  1  0.20234610  0.02046379  0.58540442  1
  C  C89  1  0.83610178  0.82664311  0.58368754  1
  C  C90  1  0.98619997  0.82348172  0.08870134  1
  C  C91  1  0.82351681  0.02657244  0.08743509  1
  C  C92  1  0.20269116  0.18040124  0.08788538  1
  C  C93  1  0.67380083  0.16659210  0.74336940  1
  C  C94  1  0.48692910  0.32633847  0.74438066  1
  C  C95  1  0.84663658  0.53675433  0.74400655  1
  C  C96  1  0.68570448  0.53324977  0.24421737  1
  C  C97  1  0.82547685  0.31044421  0.24600119  1
  C  C98  1  0.46690851  0.15145764  0.24491667  1
  C  C99  1  0.66139204  0.50614333  0.92234585  1
  C  C100  1  0.86842425  0.35726792  0.92336194  1
  C  C101  1  0.51472065  0.14078860  0.92425466  1
  C  C102  1  0.65216613  0.15393952  0.42214739  1
  C  C103  1  0.48736840  0.35777621  0.42208143  1
  C  C104  1  0.84605717  0.50086355  0.42297264  1
  C  C105  1  0.36022682  0.48767727  0.08128217  1
  C  C106  1  0.15661044  0.64854977  0.08085291  1
  C  C107  1  0.51598612  0.86949820  0.08135282  1
  C  C108  1  0.36297012  0.87268663  0.57860689  1
  C  C109  1  0.49709546  0.65876892  0.58125232  1
  C  C110  1  0.13146433  0.48472230  0.57879820  1
  C  C111  1  0.31098127  0.84657756  0.25363560  1
  C  C112  1  0.53755424  0.69372358  0.25407312  1
  C  C113  1  0.16643370  0.49071067  0.25223722  1
  C  C114  1  0.31004619  0.48136949  0.75312046  1
  C  C115  1  0.15288899  0.69012796  0.75559799  1
  C  C116  1  0.51193301  0.83274840  0.75367509  1
