# generated using pymatgen
data_Cu4Ni4C5
_symmetry_space_group_name_H-M   'P 1'
_cell_length_a   5.33499679
_cell_length_b   5.88325194
_cell_length_c   5.52614151
_cell_angle_alpha   100.83195374
_cell_angle_beta   102.96818122
_cell_angle_gamma   79.50501195
_symmetry_Int_Tables_number   1
_chemical_formula_structural   Cu4Ni4C5
_chemical_formula_sum   'Cu4 Ni4 C5'
_cell_volume   164.22932386
_cell_formula_units_Z   1
loop_
 _symmetry_equiv_pos_site_id
 _symmetry_equiv_pos_as_xyz
  1  'x, y, z'
loop_
 _atom_site_type_symbol
 _atom_site_label
 _atom_site_symmetry_multiplicity
 _atom_site_fract_x
 _atom_site_fract_y
 _atom_site_fract_z
 _atom_site_occupancy
  C  C0  1  0.42472133  0.15004713  0.20997516  1
  C  C1  1  0.05866854  0.83698704  0.65395933  1
  C  C2  1  0.94048104  0.12743226  0.22184294  1
  C  C3  1  0.83502686  0.44208984  0.82934529  1
  C  C4  1  0.47575440  0.64679753  0.27501276  1
  Ni  Ni5  1  0.09317841  0.12970214  0.94916428  1
  Ni  Ni6  1  0.24194589  0.93761148  0.38864558  1
  Ni  Ni7  1  0.64905068  0.35604102  0.10149202  1
  Ni  Ni8  1  0.73809536  0.66350637  0.56918090  1
  Cu  Cu9  1  0.24744255  0.43109539  0.39932681  1
  Cu  Cu10  1  0.19197183  0.62073713  0.94813813  1
  Cu  Cu11  1  0.75392107  0.15006783  0.50375824  1
  Cu  Cu12  1  0.65529404  0.86502785  0.08765655  1
