# generated using pymatgen
data_Cu2Ni7C32
_symmetry_space_group_name_H-M   'P 1'
_cell_length_a   18.29708259
_cell_length_b   9.14606268
_cell_length_c   22.29537108
_cell_angle_alpha   89.93057829
_cell_angle_beta   88.94987712
_cell_angle_gamma   119.96462939
_symmetry_Int_Tables_number   1
_chemical_formula_structural   Cu2Ni7C32
_chemical_formula_sum   'Cu12 Ni42 C192'
_cell_volume   3231.55827724
_cell_formula_units_Z   6
loop_
 _symmetry_equiv_pos_site_id
 _symmetry_equiv_pos_as_xyz
  1  'x, y, z'
loop_
 _atom_site_type_symbol
 _atom_site_label
 _atom_site_symmetry_multiplicity
 _atom_site_fract_x
 _atom_site_fract_y
 _atom_site_fract_z
 _atom_site_occupancy
  Ni  Ni0  1  0.80877810  0.99272366  0.25358193  1
  Ni  Ni1  1  0.17827169  0.34557052  0.25822360  1
  Ni  Ni2  1  0.69195389  0.36453001  0.25215966  1
  Ni  Ni3  1  0.99679576  0.63476131  0.24658367  1
  Ni  Ni4  1  0.49439757  0.63076009  0.25021662  1
  Ni  Ni5  1  0.31137700  0.62459704  0.73593969  1
  Ni  Ni6  1  0.99433123  0.35762360  0.74316324  1
  Ni  Ni7  1  0.50164911  0.36572886  0.74127952  1
  Ni  Ni8  1  0.19043241  0.01607253  0.74486486  1
  Ni  Ni9  1  0.68021000  0.01166434  0.75126222  1
  Ni  Ni10  1  0.14888980  0.32928610  0.58461122  1
  Ni  Ni11  1  0.66788428  0.34672526  0.57414510  1
  Ni  Ni12  1  0.33977897  0.99136706  0.57656745  1
  Ni  Ni13  1  0.83826624  0.99170552  0.57962495  1
  Ni  Ni14  1  0.16499798  0.98799016  0.08158526  1
  Ni  Ni15  1  0.64859220  0.96771482  0.09284558  1
  Ni  Ni16  1  0.33617380  0.68111534  0.08965478  1
  Ni  Ni17  1  0.83774230  0.68870963  0.08407178  1
  Ni  Ni18  1  0.48338710  0.67451634  0.92542749  1
  Ni  Ni19  1  0.96858947  0.66712714  0.92353134  1
  Ni  Ni20  1  0.35665762  0.04431586  0.91489740  1
  Ni  Ni21  1  0.85236651  0.04156721  0.91164500  1
  Ni  Ni22  1  0.16503932  0.28415319  0.91455336  1
  Ni  Ni23  1  0.67261138  0.28095603  0.90877641  1
  Ni  Ni24  1  0.47218747  0.27786761  0.42520072  1
  Ni  Ni25  1  0.97236556  0.27040057  0.42671732  1
  Ni  Ni26  1  0.17073626  0.06628291  0.40793085  1
  Ni  Ni27  1  0.67186272  0.03663261  0.41115867  1
  Ni  Ni28  1  0.35405317  0.66568992  0.41157053  1
  Ni  Ni29  1  0.85129199  0.67677260  0.41964106  1
  Ni  Ni30  1  0.99343400  0.99024407  0.50123180  1
  Ni  Ni31  1  0.50222969  0.99318503  0.50291740  1
  Ni  Ni32  1  0.99732180  0.00304061  0.00457048  1
  Ni  Ni33  1  0.50257197  0.00815412  0.00598206  1
  Ni  Ni34  1  0.32537785  0.31772256  0.81852453  1
  Ni  Ni35  1  0.82125254  0.33634865  0.82710519  1
  Ni  Ni36  1  0.32352650  0.30983233  0.33042367  1
  Ni  Ni37  1  0.82356876  0.31243931  0.32856361  1
  Ni  Ni38  1  0.16251810  0.66489909  0.17122277  1
  Ni  Ni39  1  0.66343671  0.66155875  0.16772113  1
  Ni  Ni40  1  0.16282638  0.66498647  0.66481161  1
  Ni  Ni41  1  0.66291621  0.66142262  0.66825265  1
  Cu  Cu42  1  0.00200414  0.00257553  0.35223980  1
  Cu  Cu43  1  0.49149905  0.98862026  0.34846843  1
  Cu  Cu44  1  0.99106604  0.99570107  0.84720039  1
  Cu  Cu45  1  0.50860474  0.01052775  0.84715685  1
  Cu  Cu46  1  0.34112175  0.33612961  0.67283692  1
  Cu  Cu47  1  0.83900580  0.34031669  0.17532164  1
  Cu  Cu48  1  0.33230981  0.32152917  0.99735915  1
  Cu  Cu49  1  0.83025310  0.33422341  0.98439766  1
  Cu  Cu50  1  0.33042935  0.32895744  0.48406764  1
  Cu  Cu51  1  0.83032661  0.33461857  0.49269051  1
  Cu  Cu52  1  0.66905355  0.67448919  0.30918509  1
  Cu  Cu53  1  0.16889581  0.66451176  0.80621567  1
  C  C54  1  0.16173322  -0.00101457  0.25138937  1
  C  C55  1  0.64285058  0.00044948  0.24698336  1
  C  C56  1  0.34672241  0.67674432  0.24977425  1
  C  C57  1  0.85614639  0.70784743  0.24747571  1
  C  C58  1  0.14392647  0.28428802  0.74822454  1
  C  C59  1  0.66368135  0.32981054  0.75162505  1
  C  C60  1  0.35764325  0.00228146  0.74861049  1
  C  C61  1  0.84779304  0.01938517  0.75014397  1
  C  C62  1  0.49705304  0.34925304  0.58036465  1
  C  C63  1  0.98463351  0.34107019  0.58453782  1
  C  C64  1  0.67425682  0.02936771  0.58796562  1
  C  C65  1  0.84434445  0.64918217  0.58347026  1
  C  C66  1  0.48388981  0.62989560  0.08285884  1
  C  C67  1  0.99310475  0.64775079  0.08134511  1
  C  C68  1  0.34347869  0.03685116  0.08126228  1
  C  C69  1  0.17508949  0.31977679  0.08529510  1
  C  C70  1  0.80607278  0.66512429  0.92097746  1
  C  C71  1  0.66612716  0.94374795  0.91389899  1
  C  C72  1  0.30610791  0.94861894  0.42149687  1
  C  C73  1  0.81140509  0.96153163  0.41979593  1
  C  C74  1  0.16695508  0.39049364  0.41422889  1
  C  C75  1  0.98642393  0.01211601  0.65283155  1
  C  C76  1  0.51972301  0.07323460  0.65274828  1
  C  C77  1  0.01826168  0.97151433  0.15373663  1
  C  C78  1  0.48539273  0.96200722  0.15350253  1
  C  C79  1  0.82721473  0.32531703  0.67510781  1
  C  C80  1  0.32704575  0.32845542  0.17558113  1
  C  C81  1  0.17388915  0.66515511  0.03439088  1
  C  C82  1  0.65939669  0.66926091  0.01633531  1
  C  C83  1  0.15776932  0.64951781  0.51483365  1
  C  C84  1  0.68179272  0.69513341  0.53468850  1
  C  C85  1  0.19137608  0.69512056  0.31233006  1
  C  C86  1  0.69229341  0.69145540  0.81118409  1
  C  C87  1  0.00344523  0.29929840  0.25093709  1
  C  C88  1  0.49078230  0.28342819  0.24520321  1
  C  C89  1  0.99293608  0.69841386  0.74756797  1
  C  C90  1  0.50210687  0.70174123  0.75349673  1
  C  C91  1  0.17103527  0.00840770  0.58280853  1
  C  C92  1  0.32940320  0.65132441  0.58067273  1
  C  C93  1  0.82774944  0.00787086  0.07857170  1
  C  C94  1  0.67090084  0.33530753  0.08106866  1
  C  C95  1  0.30940435  0.66297116  0.92255906  1
  C  C96  1  0.02827699  0.38372956  0.92326890  1
  C  C97  1  0.52491662  0.38576812  0.91689282  1
  C  C98  1  0.16839980  0.95881489  0.91879506  1
  C  C99  1  0.66549101  0.37022828  0.41774694  1
  C  C100  1  0.02742081  0.66493448  0.41594165  1
  C  C101  1  0.52319991  0.66944210  0.42068946  1
  C  C102  1  0.12911144  0.05544670  0.30895355  1
  C  C103  1  0.61058598  0.03714367  0.30973557  1
  C  C104  1  0.39913866  0.74018003  0.30987082  1
  C  C105  1  0.90445948  0.78350736  0.30870936  1
  C  C106  1  0.48015476  0.20394622  0.30483642  1
  C  C107  1  0.99682322  0.22140668  0.30988459  1
  C  C108  1  0.11380398  0.19154890  0.81313800  1
  C  C109  1  0.63164217  0.21083888  0.81025130  1
  C  C110  1  0.49342939  0.76311209  0.81350967  1
  C  C111  1  0.98490899  0.75938238  0.80782015  1
  C  C112  1  0.39895814  0.01403183  0.81304442  1
  C  C113  1  0.89824498  0.05893451  0.81127443  1
  C  C114  1  0.42074389  0.99193679  0.69141337  1
  C  C115  1  0.89496445  0.98716258  0.69267511  1
  C  C116  1  0.07926423  0.15577629  0.69332237  1
  C  C117  1  0.59517658  0.24786586  0.69590172  1
  C  C118  1  -0.00186371  0.81235561  0.69897189  1
  C  C119  1  0.51381807  0.82302022  0.70627650  1
  C  C120  1  0.39222988  0.80109032  0.19068964  1
  C  C121  1  0.91725359  0.84454833  0.18772211  1
  C  C122  1  0.01655458  0.20447862  0.20232206  1
  C  C123  1  0.49553661  0.17942112  0.19614546  1
  C  C124  1  0.09633871  0.94675290  0.19337943  1
  C  C125  1  0.58021335  0.00239654  0.18932041  1
  C  C126  1  0.46735397  0.38488673  0.64364938  1
  C  C127  1  0.93340746  0.36251232  0.64294665  1
  C  C128  1  0.22593816  0.08849947  0.63511214  1
  C  C129  1  0.74794163  0.12783444  0.63924596  1
  C  C130  1  0.32103240  0.55201412  0.63537185  1
  C  C131  1  0.82081976  0.49108806  0.63119361  1
  C  C132  1  0.43023456  0.50043537  0.13936016  1
  C  C133  1  0.96286824  0.55060848  0.14387404  1
  C  C134  1  0.31723238  0.14654694  0.12722878  1
  C  C135  1  0.81820735  0.08960307  0.13247121  1
  C  C136  1  0.24964550  0.36970096  0.13562173  1
  C  C137  1  0.72603670  0.36210966  0.13266854  1
  C  C138  1  0.19871295  0.26322376  0.02320550  1
  C  C139  1  0.70955831  0.30933989  0.02584754  1
  C  C140  1  0.43204928  0.57827319  0.02193107  1
  C  C141  1  0.93086294  0.57555929  0.02540766  1
  C  C142  1  0.36076495  0.11419664  0.01488294  1
  C  C143  1  0.83198464  0.10250069  0.02399427  1
  C  C144  1  0.21110169  0.11500917  0.52853628  1
  C  C145  1  0.69682250  0.13766824  0.52716286  1
  C  C146  1  0.33323438  0.56121425  0.52713486  1
  C  C147  1  0.86072703  0.60233096  0.51763376  1
  C  C148  1  0.43066904  0.29043308  0.52660283  1
  C  C149  1  0.93106648  0.28701396  0.52506124  1
  C  C150  1  0.26513945  0.67515059  0.97959339  1
  C  C151  1  0.74904034  0.66726787  0.98055414  1
  C  C152  1  0.08310521  0.48031918  0.97422866  1
  C  C153  1  0.57167146  0.47158255  0.97260028  1
  C  C154  1  0.17030022  0.86590468  0.97306390  1
  C  C155  1  0.65495582  0.83303193  0.97652204  1
  C  C156  1  0.24948723  0.83244982  0.48178174  1
  C  C157  1  0.75658768  0.83701383  0.48221334  1
  C  C158  1  0.15779006  0.47879947  0.47776868  1
  C  C159  1  0.66539853  0.46455024  0.47129603  1
  C  C160  1  0.07368297  0.67250100  0.47256456  1
  C  C161  1  0.57546766  0.67457241  0.47064837  1
  C  C162  1  0.07094999  0.65445628  0.36134634  1
  C  C163  1  0.55627458  0.65311950  0.36179201  1
  C  C164  1  0.25494366  0.86062632  0.35904532  1
  C  C165  1  0.76084672  0.87961601  0.35955911  1
  C  C166  1  0.17048340  0.50544535  0.35353299  1
  C  C167  1  0.66504411  0.45432122  0.36125868  1
  C  C168  1  0.06417279  0.46835622  0.86585731  1
  C  C169  1  0.56824739  0.47834320  0.86178886  1
  C  C170  1  0.17130761  0.87567321  0.86328173  1
  C  C171  1  0.66837283  0.83369481  0.85371308  1
  C  C172  1  0.26260137  0.65475646  0.86982494  1
  C  C173  1  0.75467196  0.65077264  0.85870959  1
  C  C174  1  0.02353343  0.82276502  0.41784940  1
  C  C175  1  0.51659518  0.82603894  0.42283032  1
  C  C176  1  0.39641027  0.95719965  0.42560633  1
  C  C177  1  0.90108275  0.96675282  0.42687225  1
  C  C178  1  0.08480328  0.20520082  0.41890452  1
  C  C179  1  0.58777349  0.19970419  0.42187614  1
  C  C180  1  0.01938904  0.21215046  0.92549980  1
  C  C181  1  0.51688924  0.21529590  0.91931031  1
  C  C182  1  0.08932374  0.96863778  0.92270630  1
  C  C183  1  0.58274776  0.96382289  0.91831495  1
  C  C184  1  0.39447303  0.81635695  0.92340995  1
  C  C185  1  0.89679235  0.83762185  0.92444895  1
  C  C186  1  0.51022089  0.17724560  0.58720729  1
  C  C187  1  0.00197017  0.17830549  0.59736652  1
  C  C188  1  0.08776511  0.99487929  0.58999310  1
  C  C189  1  0.58095944  0.00125983  0.61176671  1
  C  C190  1  0.40271261  0.82201095  0.58135840  1
  C  C191  1  0.92292412  0.84350630  0.59979624  1
  C  C192  1  0.49907141  0.82480097  0.09570124  1
  C  C193  1  0.00866194  0.84625915  0.08711246  1
  C  C194  1  0.42140545  0.00045089  0.09846996  1
  C  C195  1  0.90104393  0.98341259  0.07986141  1
  C  C196  1  0.08230927  0.16053290  0.10790379  1
  C  C197  1  0.58704725  0.18424144  0.08800780  1
  C  C198  1  0.34716706  0.16733041  0.74256535  1
  C  C199  1  0.83685714  0.18618284  0.73730621  1
  C  C200  1  0.23982637  0.31969870  0.73785191  1
  C  C201  1  0.75221879  0.33621565  0.73296856  1
  C  C202  1  0.42313760  0.53604991  0.74635637  1
  C  C203  1  0.92113391  0.52426593  0.74242258  1
  C  C204  1  0.33598869  0.48816042  0.23619530  1
  C  C205  1  0.84487179  0.52120699  0.24264538  1
  C  C206  1  0.41858823  0.31471240  0.23874797  1
  C  C207  1  0.92393246  0.30491825  0.24419163  1
  C  C208  1  0.25156257  0.16824637  0.23193760  1
  C  C209  1  0.73871781  0.15464296  0.23744822  1
  C  C210  1  0.31669074  0.50844970  0.92440882  1
  C  C211  1  0.81490943  0.49788618  0.91711330  1
  C  C212  1  0.43952116  0.36907452  0.91846672  1
  C  C213  1  0.94288569  0.36410945  0.92847049  1
  C  C214  1  0.24424471  0.13324403  0.91671207  1
  C  C215  1  0.75252655  0.12456332  0.91122722  1
  C  C216  1  0.31405093  0.13253247  0.41800724  1
  C  C217  1  0.82008201  0.14699105  0.42286783  1
  C  C218  1  0.25380140  0.38375341  0.41141311  1
  C  C219  1  0.74312358  0.35503483  0.41529702  1
  C  C220  1  0.43624637  0.52072515  0.42512565  1
  C  C221  1  0.94223973  0.51493170  0.41811862  1
  C  C222  1  0.17405036  0.50233995  0.08079225  1
  C  C223  1  0.66549852  0.49351135  0.07725010  1
  C  C224  1  0.09254158  0.68413264  0.07125440  1
  C  C225  1  0.58230185  0.65560926  0.07682654  1
  C  C226  1  0.25540369  0.83849024  0.08068011  1
  C  C227  1  0.74677465  0.83465308  0.07918511  1
  C  C228  1  0.16478566  0.83966129  0.57803883  1
  C  C229  1  0.67174694  0.84517296  0.58480501  1
  C  C230  1  0.24879728  0.66158221  0.58106479  1
  C  C231  1  0.75615055  0.66790804  0.58552159  1
  C  C232  1  0.08356198  0.51185970  0.57725637  1
  C  C233  1  0.59578065  0.50796394  0.56813973  1
  C  C234  1  0.16125797  0.81447373  0.25929818  1
  C  C235  1  0.63691278  0.81821256  0.23845829  1
  C  C236  1  0.25160573  0.65974141  0.25221870  1
  C  C237  1  0.76621170  0.69902040  0.23697398  1
  C  C238  1  0.07704761  0.47535174  0.24854105  1
  C  C239  1  0.57112811  0.44903246  0.24266528  1
  C  C240  1  0.14054417  0.45840484  0.74002852  1
  C  C241  1  0.66223816  0.51198463  0.75913932  1
  C  C242  1  0.07374206  0.69322806  0.74447802  1
  C  C243  1  0.57642825  0.67553487  0.75117636  1
  C  C244  1  0.26786853  0.83060608  0.73790450  1
  C  C245  1  0.75216821  0.84691501  0.75195994  1
