# generated using pymatgen
data_Cu12Ni2C13
_symmetry_space_group_name_H-M   'P 1'
_cell_length_a   10.54614500
_cell_length_b   10.54614500
_cell_length_c   10.54614500
_cell_angle_alpha   90.00000000
_cell_angle_beta   90.00000000
_cell_angle_gamma   90.00000000
_symmetry_Int_Tables_number   1
_chemical_formula_structural   Cu12Ni2C13
_chemical_formula_sum   'Cu48 Ni8 C52'
_cell_volume   1172.95463188
_cell_formula_units_Z   4
loop_
 _symmetry_equiv_pos_site_id
 _symmetry_equiv_pos_as_xyz
  1  'x, y, z'
loop_
 _atom_site_type_symbol
 _atom_site_label
 _atom_site_symmetry_multiplicity
 _atom_site_fract_x
 _atom_site_fract_y
 _atom_site_fract_z
 _atom_site_occupancy
  C  C0  1  0.00000000  0.00000000  0.00000000  1
  C  C1  1  0.50000000  0.00000000  0.50000000  1
  C  C2  1  0.50000000  0.50000000  0.00000000  1
  C  C3  1  0.00000000  0.50000000  0.50000000  1
  C  C4  1  0.25880300  0.03058400  0.42610600  1
  C  C5  1  0.75880300  0.46941600  0.57389400  1
  C  C6  1  0.74119700  0.53058400  0.07389400  1
  C  C7  1  0.46941600  0.57389400  0.75880300  1
  C  C8  1  0.07389400  0.74119700  0.53058400  1
  C  C9  1  0.57389400  0.75880300  0.46941600  1
  C  C10  1  0.03058400  0.42610600  0.25880300  1
  C  C11  1  0.42610600  0.25880300  0.03058400  1
  C  C12  1  0.53058400  0.07389400  0.74119700  1
  C  C13  1  0.96941600  0.92610600  0.24119700  1
  C  C14  1  0.92610600  0.24119700  0.96941600  1
  C  C15  1  0.24119700  0.96941600  0.92610600  1
  C  C16  1  0.25880300  0.46941600  0.92610600  1
  C  C17  1  0.53058400  0.42610600  0.24119700  1
  C  C18  1  0.92610600  0.25880300  0.46941600  1
  C  C19  1  0.42610600  0.24119700  0.53058400  1
  C  C20  1  0.96941600  0.57389400  0.74119700  1
  C  C21  1  0.57389400  0.74119700  0.96941600  1
  C  C22  1  0.46941600  0.92610600  0.25880300  1
  C  C23  1  0.03058400  0.07389400  0.75880300  1
  C  C24  1  0.07389400  0.75880300  0.03058400  1
  C  C25  1  0.75880300  0.03058400  0.07389400  1
  C  C26  1  0.57888500  0.03169900  0.25471600  1
  C  C27  1  0.07888500  0.46830100  0.74528400  1
  C  C28  1  0.42111500  0.53169900  0.24528400  1
  C  C29  1  0.46830100  0.74528400  0.07888500  1
  C  C30  1  0.24528400  0.42111500  0.53169900  1
  C  C31  1  0.74528400  0.07888500  0.46830100  1
  C  C32  1  0.03169900  0.25471600  0.57888500  1
  C  C33  1  0.25471600  0.57888500  0.03169900  1
  C  C34  1  0.53169900  0.24528400  0.42111500  1
  C  C35  1  0.96830100  0.75471600  0.92111500  1
  C  C36  1  0.75471600  0.92111500  0.96830100  1
  C  C37  1  0.92111500  0.96830100  0.75471600  1
  C  C38  1  0.42111500  0.96830100  0.74528400  1
  C  C39  1  0.92111500  0.53169900  0.25471600  1
  C  C40  1  0.57888500  0.46830100  0.75471600  1
  C  C41  1  0.53169900  0.25471600  0.92111500  1
  C  C42  1  0.75471600  0.57888500  0.46830100  1
  C  C43  1  0.25471600  0.92111500  0.53169900  1
  C  C44  1  0.96830100  0.74528400  0.42111500  1
  C  C45  1  0.74528400  0.42111500  0.96830100  1
  C  C46  1  0.46830100  0.75471600  0.57888500  1
  C  C47  1  0.03169900  0.24528400  0.07888500  1
  C  C48  1  0.24528400  0.07888500  0.03169900  1
  C  C49  1  0.07888500  0.03169900  0.24528400  1
  C  C50  1  0.74119700  0.96941600  0.57389400  1
  C  C51  1  0.24119700  0.53058400  0.42610600  1
  Ni  Ni52  1  0.24761300  0.74761300  0.75238700  1
  Ni  Ni53  1  0.75238700  0.24761300  0.74761300  1
  Ni  Ni54  1  0.74761300  0.75238700  0.24761300  1
  Ni  Ni55  1  0.25238700  0.25238700  0.25238700  1
  Ni  Ni56  1  0.74761300  0.74761300  0.74761300  1
  Ni  Ni57  1  0.75238700  0.25238700  0.24761300  1
  Ni  Ni58  1  0.24761300  0.75238700  0.25238700  1
  Ni  Ni59  1  0.25238700  0.24761300  0.75238700  1
  Cu  Cu60  1  0.95981500  0.03585900  0.80785900  1
  Cu  Cu61  1  0.80785900  0.95981500  0.03585900  1
  Cu  Cu62  1  0.03585900  0.80785900  0.95981500  1
  Cu  Cu63  1  0.46414100  0.19214100  0.45981500  1
  Cu  Cu64  1  0.30785900  0.54018500  0.96414100  1
  Cu  Cu65  1  0.96414100  0.30785900  0.54018500  1
  Cu  Cu66  1  0.95981500  0.46414100  0.30785900  1
  Cu  Cu67  1  0.19214100  0.45981500  0.46414100  1
  Cu  Cu68  1  0.53585900  0.69214100  0.04018500  1
  Cu  Cu69  1  0.45981500  0.46414100  0.19214100  1
  Cu  Cu70  1  0.04018500  0.53585900  0.69214100  1
  Cu  Cu71  1  0.54018500  0.96414100  0.30785900  1
  Cu  Cu72  1  0.54018500  0.53585900  0.80785900  1
  Cu  Cu73  1  0.46414100  0.30785900  0.95981500  1
  Cu  Cu74  1  0.80785900  0.54018500  0.53585900  1
  Cu  Cu75  1  0.30785900  0.95981500  0.46414100  1
  Cu  Cu76  1  0.03585900  0.69214100  0.45981500  1
  Cu  Cu77  1  0.69214100  0.45981500  0.03585900  1
  Cu  Cu78  1  0.53585900  0.80785900  0.54018500  1
  Cu  Cu79  1  0.96414100  0.19214100  0.04018500  1
  Cu  Cu80  1  0.19214100  0.04018500  0.96414100  1
  Cu  Cu81  1  0.04018500  0.96414100  0.19214100  1
  Cu  Cu82  1  0.67098600  0.13973000  0.16735900  1
  Cu  Cu83  1  0.17098600  0.36027000  0.83264100  1
  Cu  Cu84  1  0.32901400  0.63973000  0.33264100  1
  Cu  Cu85  1  0.36027000  0.83264100  0.17098600  1
  Cu  Cu86  1  0.33264100  0.32901400  0.63973000  1
  Cu  Cu87  1  0.83264100  0.17098600  0.36027000  1
  Cu  Cu88  1  0.13973000  0.16735900  0.67098600  1
  Cu  Cu89  1  0.16735900  0.67098600  0.13973000  1
  Cu  Cu90  1  0.63973000  0.33264100  0.32901400  1
  Cu  Cu91  1  0.86027000  0.66735900  0.82901400  1
  Cu  Cu92  1  0.66735900  0.82901400  0.86027000  1
  Cu  Cu93  1  0.82901400  0.86027000  0.66735900  1
  Cu  Cu94  1  0.32901400  0.86027000  0.83264100  1
  Cu  Cu95  1  0.82901400  0.63973000  0.16735900  1
  Cu  Cu96  1  0.67098600  0.36027000  0.66735900  1
  Cu  Cu97  1  0.63973000  0.16735900  0.82901400  1
  Cu  Cu98  1  0.66735900  0.67098600  0.36027000  1
  Cu  Cu99  1  0.16735900  0.82901400  0.63973000  1
  Cu  Cu100  1  0.86027000  0.83264100  0.32901400  1
  Cu  Cu101  1  0.83264100  0.32901400  0.86027000  1
  Cu  Cu102  1  0.36027000  0.66735900  0.67098600  1
  Cu  Cu103  1  0.13973000  0.33264100  0.17098600  1
  Cu  Cu104  1  0.33264100  0.17098600  0.13973000  1
  Cu  Cu105  1  0.17098600  0.13973000  0.33264100  1
  Cu  Cu106  1  0.45981500  0.03585900  0.69214100  1
  Cu  Cu107  1  0.69214100  0.04018500  0.53585900  1
