# generated using pymatgen
data_Cu(NiC7)5
_symmetry_space_group_name_H-M   'P 1'
_cell_length_a   9.35736494
_cell_length_b   9.39992838
_cell_length_c   23.03040948
_cell_angle_alpha   90.45812529
_cell_angle_beta   89.57356971
_cell_angle_gamma   120.01471584
_symmetry_Int_Tables_number   1
_chemical_formula_structural   Cu(NiC7)5
_chemical_formula_sum   'Cu3 Ni15 C105'
_cell_volume   1753.99628178
_cell_formula_units_Z   3
loop_
 _symmetry_equiv_pos_site_id
 _symmetry_equiv_pos_as_xyz
  1  'x, y, z'
loop_
 _atom_site_type_symbol
 _atom_site_label
 _atom_site_symmetry_multiplicity
 _atom_site_fract_x
 _atom_site_fract_y
 _atom_site_fract_z
 _atom_site_occupancy
  C  C0  1  0.63824608  0.98979607  0.25211328  1
  C  C1  1  0.00679983  0.62879445  0.25535973  1
  C  C2  1  0.62364486  0.63894938  0.74922012  1
  C  C3  1  0.01723657  0.37685860  0.75215306  1
  C  C4  1  0.36034155  0.98525234  0.75260965  1
  C  C5  1  0.30070975  0.33420639  0.58702776  1
  C  C6  1  0.03261246  0.69897210  0.58274134  1
  C  C7  1  0.66907356  0.96400512  0.58463292  1
  C  C8  1  0.29757150  0.96422570  0.08122953  1
  C  C9  1  0.66471389  0.69638759  0.08633285  1
  C  C10  1  0.03569858  0.33736638  0.08486506  1
  C  C11  1  0.98651821  0.67127535  0.91689427  1
  C  C12  1  0.33046470  0.29867560  0.92023349  1
  C  C13  1  0.96593948  0.30645129  0.41345952  1
  C  C14  1  0.70373404  0.67480784  0.41985538  1
  C  C15  1  0.00342243  0.99032667  0.51102278  1
  C  C16  1  0.99928989  0.00612727  0.00996709  1
  C  C17  1  0.66697440  0.31003982  0.83234834  1
  C  C18  1  0.66123979  0.32833468  0.33213700  1
  C  C19  1  0.33445181  0.64365978  0.16911387  1
  C  C20  1  0.33378394  0.66700712  0.66624771  1
  C  C21  1  0.00618038  -0.00003230  0.35128415  1
  C  C22  1  0.99431261  0.00475704  0.85113121  1
  C  C23  1  0.66670693  0.33373102  0.67581437  1
  C  C24  1  0.66429149  0.33737690  0.17810136  1
  C  C25  1  0.66885938  0.31910945  0.98474058  1
  C  C26  1  0.66124906  0.32098478  0.48484089  1
  C  C27  1  -0.00011539  0.99977088  0.65590532  1
  C  C28  1  0.98574716  0.00710852  0.15381649  1
  C  C29  1  0.32734856  0.67351182  0.01510467  1
  C  C30  1  0.33352876  0.68350741  0.51408020  1
  C  C31  1  0.33508424  0.66500700  0.31819936  1
  C  C32  1  0.32583068  0.67329753  0.81688089  1
  Ni  Ni33  1  0.69288284  0.70369764  0.24944530  1
  Ni  Ni34  1  0.00959373  0.30988192  0.24975794  1
  Ni  Ni35  1  0.29948312  0.30827275  0.74910047  1
  Ni  Ni36  1  0.00648570  0.70162906  0.74906471  1
  Ni  Ni37  1  0.69106794  0.99070579  0.74588641  1
  Ni  Ni38  1  0.98984371  0.33298687  0.58233791  1
  Ni  Ni39  1  0.34357170  0.01326989  0.58665630  1
  Ni  Ni40  1  0.66542653  0.65275458  0.58163593  1
  Ni  Ni41  1  0.98430102  0.65424281  0.08260955  1
  Ni  Ni42  1  0.66498266  0.01091561  0.08659464  1
  Ni  Ni43  1  0.34636704  0.33282056  0.07940835  1
  Ni  Ni44  1  0.05596799  0.39116279  0.91626423  1
  Ni  Ni45  1  0.33392638  0.95498435  0.91581009  1
  Ni  Ni46  1  0.61721313  0.95087437  0.41467763  1
  Ni  Ni47  1  0.04497260  0.66174925  0.41640086  1
  Cu  Cu48  1  0.30069533  0.98784031  0.24597481  1
  Cu  Cu49  1  0.61571817  0.66135321  0.91731369  1
  Cu  Cu50  1  0.33672456  0.39135242  0.41807982  1
  C  C51  1  0.22354235  0.00784515  0.29936902  1
  C  C52  1  0.79663390  0.78128944  0.30543472  1
  C  C53  1  0.98758996  0.20925633  0.30591179  1
  C  C54  1  0.22571403  0.20703864  0.80532311  1
  C  C55  1  0.98008840  0.77510967  0.80591686  1
  C  C56  1  0.80027223  0.02096717  0.79943050  1
  C  C57  1  0.77751334  0.97490504  0.69067005  1
  C  C58  1  0.19189896  0.21633166  0.69590900  1
  C  C59  1  0.01969088  0.80745539  0.69615794  1
  C  C60  1  0.78660539  0.81152257  0.19599715  1
  C  C61  1  0.02017403  0.21844303  0.19508504  1
  C  C62  1  0.20800538  0.98468464  0.19392570  1
  C  C63  1  0.91079652  0.36617478  0.63674826  1
  C  C64  1  0.44877997  0.08410000  0.64227920  1
  C  C65  1  0.63313321  0.54245793  0.63598950  1
  C  C66  1  0.90379069  0.54059268  0.13611509  1
  C  C67  1  0.63032222  0.08353251  0.14207395  1
  C  C68  1  0.46915838  0.36653112  0.12964648  1
  C  C69  1  0.42252071  0.29972695  0.02381967  1
  C  C70  1  0.86938136  0.57021222  0.02925322  1
  C  C71  1  0.70265742  0.13588781  0.03677529  1
  C  C72  1  0.43468845  0.13803098  0.53686588  1
  C  C73  1  0.69357730  0.56475009  0.52843844  1
  C  C74  1  0.87166955  0.30089409  0.52989882  1
  C  C75  1  0.53166370  0.66736343  0.97046112  1
  C  C76  1  0.14948490  0.47828053  0.97168716  1
  C  C77  1  0.33245084  0.86584797  0.97169475  1
  C  C78  1  0.53371086  0.85840708  0.47093350  1
  C  C79  1  0.33115284  0.47214788  0.47242027  1
  C  C80  1  0.13273061  0.66332135  0.47252209  1
  C  C81  1  0.13142335  0.65339163  0.35985802  1
  C  C82  1  0.52641781  0.86520539  0.35841559  1
  C  C83  1  0.34385298  0.48192756  0.36546177  1
  C  C84  1  0.14005663  0.48118828  0.85918301  1
  C  C85  1  0.34201016  0.87140192  0.85892821  1
  C  C86  1  0.53076970  0.65923019  0.86318938  1
  C  C87  1  0.01265703  0.81024275  0.41778492  1
  C  C88  1  0.79558774  0.96969440  0.41607864  1
  C  C89  1  0.18509615  0.22382111  0.41797568  1
  C  C90  1  0.03776592  0.21660643  0.91783171  1
  C  C91  1  0.17020318  0.96531273  0.91805072  1
  C  C92  1  0.79035114  0.80180910  0.91901381  1
  C  C93  1  0.00234333  0.17527885  0.58860104  1
  C  C94  1  0.17052608  0.99696262  0.59155386  1
  C  C95  1  0.82532921  0.82193853  0.58772466  1
  C  C96  1  0.99867000  0.82533958  0.09046457  1
  C  C97  1  0.82303140  0.99622289  0.09092742  1
  C  C98  1  0.17572761  0.17533573  0.08907621  1
  C  C99  1  0.66515044  0.14326769  0.74476320  1
  C  C100  1  0.47801846  0.33307119  0.74564878  1
  C  C101  1  0.85379225  0.52299305  0.74583145  1
  C  C102  1  0.67985496  0.53155850  0.24613614  1
  C  C103  1  0.84705661  0.32260029  0.24802761  1
  C  C104  1  0.47487133  0.12922316  0.24647767  1
  C  C105  1  0.62775100  0.50553636  0.91643390  1
  C  C106  1  0.88077752  0.37723977  0.91569894  1
  C  C107  1  0.47986129  0.13811519  0.91429857  1
  C  C108  1  0.65033534  0.13219903  0.41402741  1
  C  C109  1  0.48815449  0.37351790  0.41669023  1
  C  C110  1  0.86643581  0.50180056  0.41496859  1
  C  C111  1  0.32921303  0.48810306  0.07528976  1
  C  C112  1  0.15687899  0.67081271  0.07628551  1
  C  C113  1  0.51180948  0.84027002  0.07566363  1
  C  C114  1  0.32915216  0.84339829  0.57667622  1
  C  C115  1  0.51058649  0.67087139  0.57537988  1
  C  C116  1  0.16176211  0.48783984  0.57478477  1
  C  C117  1  0.30612604  0.83206548  0.24842456  1
  C  C118  1  0.52322193  0.69496261  0.25317783  1
  C  C119  1  0.15952907  0.48682923  0.25285240  1
  C  C120  1  0.31425497  0.48121949  0.75262441  1
  C  C121  1  0.16662044  0.68853460  0.75128187  1
  C  C122  1  0.51958665  0.83057502  0.75186702  1
