# generated using pymatgen
data_Cu3NiC31
_symmetry_space_group_name_H-M   'P 1'
_cell_length_a   8.35267482
_cell_length_b   8.35267457
_cell_length_c   21.80671981
_cell_angle_alpha   90.00000000
_cell_angle_beta   90.00000000
_cell_angle_gamma   120.00000097
_symmetry_Int_Tables_number   1
_chemical_formula_structural   Cu3NiC31
_chemical_formula_sum   'Cu9 Ni3 C93'
_cell_volume   1317.56517199
_cell_formula_units_Z   3
loop_
 _symmetry_equiv_pos_site_id
 _symmetry_equiv_pos_as_xyz
  1  'x, y, z'
loop_
 _atom_site_type_symbol
 _atom_site_label
 _atom_site_symmetry_multiplicity
 _atom_site_fract_x
 _atom_site_fract_y
 _atom_site_fract_z
 _atom_site_occupancy
  C  C0  1  -0.00000000  -0.00000000  0.99886029  1
  C  C1  1  0.66666700  0.33333300  0.83441397  1
  C  C2  1  0.66666700  0.33333300  0.33320060  1
  Ni  Ni3  1  -0.00000000  -0.00000000  0.35550237  1
  Ni  Ni4  1  -0.00000000  -0.00000000  0.85258223  1
  Ni  Ni5  1  0.66666700  0.33333300  0.98055311  1
  Cu  Cu6  1  -0.00000000  -0.00000000  0.64616305  1
  Cu  Cu7  1  -0.00000000  -0.00000000  0.14971107  1
  Cu  Cu8  1  0.66666700  0.33333300  0.68419496  1
  Cu  Cu9  1  0.66666700  0.33333300  0.18365633  1
  Cu  Cu10  1  0.66666700  0.33333300  0.48133785  1
  Cu  Cu11  1  0.33333300  0.66666700  0.02199087  1
  Cu  Cu12  1  0.33333300  0.66666700  0.52164712  1
  Cu  Cu13  1  0.33333300  0.66666700  0.31221816  1
  Cu  Cu14  1  0.33333300  0.66666700  0.81115320  1
  C  C15  1  0.29342432  0.00007789  0.24956812  1
  C  C16  1  0.70665358  0.70657568  0.24956812  1
  C  C17  1  0.99992211  0.29334642  0.24956812  1
  C  C18  1  0.29283043  0.29271408  0.74869904  1
  C  C19  1  0.99988365  0.70716957  0.74869904  1
  C  C20  1  0.70728592  0.00011635  0.74869904  1
  C  C21  1  0.95616114  0.33277230  0.58321123  1
  C  C22  1  0.37661216  0.04383886  0.58321123  1
  C  C23  1  0.66722770  0.62338784  0.58321123  1
  C  C24  1  0.96030900  0.62738476  0.08418149  1
  C  C25  1  0.66707677  0.03969100  0.08418149  1
  C  C26  1  0.37261524  0.33292323  0.08418149  1
  C  C27  1  0.61557763  0.66671704  0.91664305  1
  C  C28  1  0.05113841  0.38442237  0.91664305  1
  C  C29  1  0.33328296  0.94886159  0.91664305  1
  C  C30  1  0.61612823  0.95343733  0.41805579  1
  C  C31  1  0.33730810  0.38387177  0.41805579  1
  C  C32  1  0.04656267  0.66269190  0.41805579  1
  C  C33  1  0.21921324  0.04030189  0.30422003  1
  C  C34  1  0.82108866  0.78078676  0.30422003  1
  C  C35  1  0.95969811  0.17891134  0.30422003  1
  C  C36  1  0.22017074  0.17952509  0.80378504  1
  C  C37  1  0.95935435  0.77982926  0.80378504  1
  C  C38  1  0.82047491  0.04064565  0.80378504  1
  C  C39  1  0.79226727  0.96733479  0.69386974  1
  C  C40  1  0.17506752  0.20773273  0.69386974  1
  C  C41  1  0.03266521  0.82493248  0.69386974  1
  C  C42  1  0.79115902  0.82402981  0.19444145  1
  C  C43  1  0.03287079  0.20884098  0.19444145  1
  C  C44  1  0.17597019  0.96712921  0.19444145  1
  C  C45  1  0.87309169  0.36906091  0.63788475  1
  C  C46  1  0.49597022  0.12690831  0.63788475  1
  C  C47  1  0.63093909  0.50402978  0.63788475  1
  C  C48  1  0.87515402  0.50925295  0.13892276  1
  C  C49  1  0.63409993  0.12484598  0.13892276  1
  C  C50  1  0.49074705  0.36590007  0.13892276  1
  C  C51  1  0.44631649  0.29260631  0.02924422  1
  C  C52  1  0.84629082  0.55368351  0.02924422  1
  C  C53  1  0.70739369  0.15370918  0.02924422  1
  C  C54  1  0.45972948  0.16307803  0.52840178  1
  C  C55  1  0.70334954  0.54027052  0.52840178  1
  C  C56  1  0.83692197  0.29665046  0.52840178  1
  C  C57  1  0.53101290  0.69368363  0.97277631  1
  C  C58  1  0.16266974  0.46898710  0.97277631  1
  C  C59  1  0.30631637  0.83733026  0.97277631  1
  C  C60  1  0.53012393  0.83975009  0.47308324  1
  C  C61  1  0.30962517  0.46987607  0.47308324  1
  C  C62  1  0.16024991  0.69037483  0.47308324  1
  C  C63  1  0.12619562  0.62625606  0.36206752  1
  C  C64  1  0.50005945  0.87380438  0.36206752  1
  C  C65  1  0.37374394  0.49994055  0.36206752  1
  C  C66  1  0.13572399  0.49604984  0.86053402  1
  C  C67  1  0.36032485  0.86427601  0.86053402  1
  C  C68  1  0.50395016  0.63967515  0.86053402  1
  C  C69  1  0.02655890  0.82425496  0.41117335  1
  C  C70  1  0.79769606  0.97344110  0.41117335  1
  C  C71  1  0.17574504  0.20230394  0.41117335  1
  C  C72  1  0.03457878  0.20106616  0.91227407  1
  C  C73  1  0.16648739  0.96542122  0.91227407  1
  C  C74  1  0.79893384  0.83351261  0.91227407  1
  C  C75  1  0.97388630  0.16780484  0.59287320  1
  C  C76  1  0.19391854  0.02611370  0.59287320  1
  C  C77  1  0.83219516  0.80608146  0.59287320  1
  C  C78  1  0.98149638  0.81416633  0.09411219  1
  C  C79  1  0.83266995  0.01850362  0.09411219  1
  C  C80  1  0.18583367  0.16733005  0.09411219  1
  C  C81  1  0.68557675  0.16593489  0.73896889  1
  C  C82  1  0.48035913  0.31442325  0.73896889  1
  C  C83  1  0.83406511  0.51964087  0.73896889  1
  C  C84  1  0.68500818  0.51945799  0.23943562  1
  C  C85  1  0.83445080  0.31499182  0.23943562  1
  C  C86  1  0.48054201  0.16554920  0.23943562  1
  C  C87  1  0.63207939  0.49984748  0.92104176  1
  C  C88  1  0.86776909  0.36792061  0.92104176  1
  C  C89  1  0.50015252  0.13223091  0.92104176  1
  C  C90  1  0.63195426  0.13991050  0.42538918  1
  C  C91  1  0.50795724  0.36804574  0.42538918  1
  C  C92  1  0.86008950  0.49204276  0.42538918  1
  C  C93  1  0.35460414  0.49852275  0.07619599  1
  C  C94  1  0.14391761  0.64539586  0.07619599  1
  C  C95  1  0.50147725  0.85608239  0.07619599  1
  C  C96  1  0.35854650  0.86099961  0.57409332  1
  C  C97  1  0.50245212  0.64145350  0.57409332  1
  C  C98  1  0.13900039  0.49754788  0.57409332  1
  C  C99  1  0.31119630  0.83416381  0.25776061  1
  C  C100  1  0.52296651  0.68880370  0.25776061  1
  C  C101  1  0.16583619  0.47703349  0.25776061  1
  C  C102  1  0.31171347  0.47693001  0.75691918  1
  C  C103  1  0.16521553  0.68828653  0.75691918  1
  C  C104  1  0.52306999  0.83478447  0.75691918  1
