# generated using pymatgen
data_Cu3NiC14
_symmetry_space_group_name_H-M   'P 1'
_cell_length_a   8.83615032
_cell_length_b   8.83615004
_cell_length_c   23.16448968
_cell_angle_alpha   90.00000000
_cell_angle_beta   90.00000000
_cell_angle_gamma   120.00000107
_symmetry_Int_Tables_number   1
_chemical_formula_structural   Cu3NiC14
_chemical_formula_sum   'Cu18 Ni6 C84'
_cell_volume   1566.31656502
_cell_formula_units_Z   6
loop_
 _symmetry_equiv_pos_site_id
 _symmetry_equiv_pos_as_xyz
  1  'x, y, z'
loop_
 _atom_site_type_symbol
 _atom_site_label
 _atom_site_symmetry_multiplicity
 _atom_site_fract_x
 _atom_site_fract_y
 _atom_site_fract_z
 _atom_site_occupancy
  C  C0  1  -0.00000000  -0.00000000  0.49696202  1
  C  C1  1  -0.00000000  -0.00000000  0.99696202  1
  C  C2  1  0.66666700  0.33333300  0.83029502  1
  C  C3  1  0.66666700  0.33333300  0.33029502  1
  C  C4  1  0.33333300  0.66666700  0.16362902  1
  C  C5  1  0.33333300  0.66666700  0.66362902  1
  C  C6  1  -0.00000000  -0.00000000  0.64547791  1
  C  C7  1  -0.00000000  -0.00000000  0.14547791  1
  C  C8  1  0.66666700  0.33333300  0.97881091  1
  C  C9  1  0.66666700  0.33333300  0.47881091  1
  C  C10  1  0.33333300  0.66666700  0.31214491  1
  C  C11  1  0.33333300  0.66666700  0.81214491  1
  Ni  Ni12  1  -0.00000000  -0.00000000  0.35182306  1
  Ni  Ni13  1  -0.00000000  -0.00000000  0.85182306  1
  Ni  Ni14  1  0.66666700  0.33333300  0.68515606  1
  Ni  Ni15  1  0.66666700  0.33333300  0.18515606  1
  Ni  Ni16  1  0.33333300  0.66666700  0.01849006  1
  Ni  Ni17  1  0.33333300  0.66666700  0.51849006  1
  Cu  Cu18  1  0.29026959  0.00116552  0.25057486  1
  Cu  Cu19  1  0.71089593  0.70973041  0.25057486  1
  Cu  Cu20  1  0.99883448  0.28910407  0.25057486  1
  Cu  Cu21  1  0.29026959  0.28910407  0.75057486  1
  Cu  Cu22  1  0.99883448  0.70973041  0.75057486  1
  Cu  Cu23  1  0.71089593  0.00116552  0.75057486  1
  Cu  Cu24  1  0.95693659  0.33449852  0.58390786  1
  Cu  Cu25  1  0.37756293  0.04306341  0.58390786  1
  Cu  Cu26  1  0.66550148  0.62243707  0.58390786  1
  Cu  Cu27  1  0.95693659  0.62243707  0.08390786  1
  Cu  Cu28  1  0.66550148  0.04306341  0.08390786  1
  Cu  Cu29  1  0.37756293  0.33449852  0.08390786  1
  Cu  Cu30  1  0.62360259  0.66783252  0.91724186  1
  Cu  Cu31  1  0.04422893  0.37639741  0.91724186  1
  Cu  Cu32  1  0.33216748  0.95577107  0.91724186  1
  Cu  Cu33  1  0.62360259  0.95577107  0.41724186  1
  Cu  Cu34  1  0.33216748  0.37639741  0.41724186  1
  Cu  Cu35  1  0.04422893  0.66783252  0.41724186  1
  C  C36  1  0.21282685  0.02839871  0.30463372  1
  C  C37  1  0.81557186  0.78717315  0.30463372  1
  C  C38  1  0.97160129  0.18442814  0.30463372  1
  C  C39  1  0.21282685  0.18442814  0.80463372  1
  C  C40  1  0.97160129  0.78717315  0.80463372  1
  C  C41  1  0.81557186  0.02839871  0.80463372  1
  C  C42  1  0.79973394  0.97014169  0.69578771  1
  C  C43  1  0.17040775  0.20026606  0.69578771  1
  C  C44  1  0.02985831  0.82959225  0.69578771  1
  C  C45  1  0.79973394  0.82959225  0.19578771  1
  C  C46  1  0.02985831  0.20026606  0.19578771  1
  C  C47  1  0.17040775  0.97014169  0.19578771  1
  C  C48  1  0.87949385  0.36173171  0.63796672  1
  C  C49  1  0.48223886  0.12050615  0.63796672  1
  C  C50  1  0.63826829  0.51776114  0.63796672  1
  C  C51  1  0.87949385  0.51776114  0.13796672  1
  C  C52  1  0.63826829  0.12050615  0.13796672  1
  C  C53  1  0.48223886  0.36173171  0.13796672  1
  C  C54  1  0.46640094  0.30347469  0.02912071  1
  C  C55  1  0.83707475  0.53359906  0.02912071  1
  C  C56  1  0.69652531  0.16292525  0.02912071  1
  C  C57  1  0.46640094  0.16292525  0.52912071  1
  C  C58  1  0.69652531  0.53359906  0.52912071  1
  C  C59  1  0.83707475  0.30347469  0.52912071  1
  C  C60  1  0.54615985  0.69506571  0.97130072  1
  C  C61  1  0.14890486  0.45384015  0.97130072  1
  C  C62  1  0.30493429  0.85109514  0.97130072  1
  C  C63  1  0.54615985  0.85109514  0.47130072  1
  C  C64  1  0.30493429  0.45384015  0.47130072  1
  C  C65  1  0.14890486  0.69506571  0.47130072  1
  C  C66  1  0.13306694  0.63680869  0.36245471  1
  C  C67  1  0.50374075  0.86693306  0.36245471  1
  C  C68  1  0.36319131  0.49625925  0.36245471  1
  C  C69  1  0.13306694  0.49625925  0.86245471  1
  C  C70  1  0.36319131  0.86693306  0.86245471  1
  C  C71  1  0.50374075  0.63680869  0.86245471  1
  C  C72  1  0.01591188  0.82270409  0.41016571  1
  C  C73  1  0.80679221  0.98408812  0.41016571  1
  C  C74  1  0.17729591  0.19320779  0.41016571  1
  C  C75  1  0.01591188  0.19320779  0.91016571  1
  C  C76  1  0.17729591  0.98408812  0.91016571  1
  C  C77  1  0.80679221  0.82270409  0.91016571  1
  C  C78  1  0.96956660  0.16216934  0.59075033  1
  C  C79  1  0.19260274  0.03043340  0.59075033  1
  C  C80  1  0.83783066  0.80739726  0.59075033  1
  C  C81  1  0.96956660  0.80739726  0.09075033  1
  C  C82  1  0.83783066  0.03043340  0.09075033  1
  C  C83  1  0.19260274  0.16216934  0.09075033  1
  C  C84  1  0.68257888  0.15603709  0.74349871  1
  C  C85  1  0.47345921  0.31742112  0.74349871  1
  C  C86  1  0.84396291  0.52654079  0.74349871  1
  C  C87  1  0.68257888  0.52654079  0.24349871  1
  C  C88  1  0.84396291  0.31742112  0.24349871  1
  C  C89  1  0.47345921  0.15603709  0.24349871  1
  C  C90  1  0.63623360  0.49550234  0.92408333  1
  C  C91  1  0.85926974  0.36376640  0.92408333  1
  C  C92  1  0.50449766  0.14073026  0.92408333  1
  C  C93  1  0.63623360  0.14073026  0.42408333  1
  C  C94  1  0.50449766  0.36376640  0.42408333  1
  C  C95  1  0.85926974  0.49550234  0.42408333  1
  C  C96  1  0.34924488  0.48937109  0.07683271  1
  C  C97  1  0.14012521  0.65075512  0.07683271  1
  C  C98  1  0.51062891  0.85987479  0.07683271  1
  C  C99  1  0.34924488  0.85987479  0.57683271  1
  C  C100  1  0.51062891  0.65075512  0.57683271  1
  C  C101  1  0.14012521  0.48937109  0.57683271  1
  C  C102  1  0.30289960  0.82883634  0.25741733  1
  C  C103  1  0.52593574  0.69710040  0.25741733  1
  C  C104  1  0.17116366  0.47406426  0.25741733  1
  C  C105  1  0.30289960  0.47406426  0.75741733  1
  C  C106  1  0.17116366  0.69710040  0.75741733  1
  C  C107  1  0.52593574  0.82883634  0.75741733  1
