# generated using pymatgen
data_Cu2Ni3C13
_symmetry_space_group_name_H-M   'P 1'
_cell_length_a   5.37138760
_cell_length_b   5.37138760
_cell_length_c   7.37757500
_cell_angle_alpha   90.00000000
_cell_angle_beta   90.00000000
_cell_angle_gamma   119.99999508
_symmetry_Int_Tables_number   1
_chemical_formula_structural   Cu2Ni3C13
_chemical_formula_sum   'Cu2 Ni3 C13'
_cell_volume   184.33901859
_cell_formula_units_Z   1
loop_
 _symmetry_equiv_pos_site_id
 _symmetry_equiv_pos_as_xyz
  1  'x, y, z'
loop_
 _atom_site_type_symbol
 _atom_site_label
 _atom_site_symmetry_multiplicity
 _atom_site_fract_x
 _atom_site_fract_y
 _atom_site_fract_z
 _atom_site_occupancy
  Ni  Ni0  1  0.33141900  0.00000000  0.45884200  1
  Ni  Ni1  1  0.00000000  0.33141900  0.45884200  1
  Ni  Ni2  1  0.66858100  0.66858100  0.45884200  1
  Cu  Cu3  1  0.33333300  0.66666700  0.07719400  1
  Cu  Cu4  1  0.66666700  0.33333300  0.07719400  1
  C  C5  1  0.00000000  0.00000000  0.17696300  1
  C  C6  1  0.34948100  0.34948100  0.72280200  1
  C  C7  1  0.00000000  0.65051900  0.72280200  1
  C  C8  1  0.65051900  0.00000000  0.72280200  1
  C  C9  1  0.00000000  0.00000000  0.30806300  1
  C  C10  1  0.33333300  0.66666700  0.29537300  1
  C  C11  1  0.66666700  0.33333300  0.29537300  1
  C  C12  1  0.51140900  0.00000000  0.99411500  1
  C  C13  1  0.00000000  0.51140900  0.99411500  1
  C  C14  1  0.48859100  0.48859100  0.99411500  1
  C  C15  1  0.66464700  0.00000000  0.59148800  1
  C  C16  1  0.00000000  0.66464700  0.59148800  1
  C  C17  1  0.33535300  0.33535300  0.59148800  1
