# generated using pymatgen
data_Cu4Ni4C5
_symmetry_space_group_name_H-M   'P 1'
_cell_length_a   5.56089293
_cell_length_b   5.82711807
_cell_length_c   5.87915290
_cell_angle_alpha   108.73900009
_cell_angle_beta   90.37738346
_cell_angle_gamma   90.36421149
_symmetry_Int_Tables_number   1
_chemical_formula_structural   Cu4Ni4C5
_chemical_formula_sum   'Cu4 Ni4 C5'
_cell_volume   180.39833761
_cell_formula_units_Z   1
loop_
 _symmetry_equiv_pos_site_id
 _symmetry_equiv_pos_as_xyz
  1  'x, y, z'
loop_
 _atom_site_type_symbol
 _atom_site_label
 _atom_site_symmetry_multiplicity
 _atom_site_fract_x
 _atom_site_fract_y
 _atom_site_fract_z
 _atom_site_occupancy
  C  C0  1  0.53287600  0.99813200  0.01146800  1
  C  C1  1  0.51477900  0.74377600  0.25504700  1
  C  C2  1  0.01316600  0.26519000  0.28618000  1
  C  C3  1  0.52761700  0.24249400  0.75885800  1
  C  C4  1  0.02886200  0.71861100  0.72528000  1
  Ni  Ni5  1  0.13068900  0.85043600  0.14717900  1
  Ni  Ni6  1  0.67924300  0.13284500  0.41166600  1
  Ni  Ni7  1  0.91757500  0.13541200  0.86200200  1
  Ni  Ni8  1  0.37124800  0.84584500  0.60924000  1
  Cu  Cu9  1  0.88219400  0.64864600  0.34047700  1
  Cu  Cu10  1  0.37327300  0.37730100  0.17737100  1
  Cu  Cu11  1  0.16174600  0.33619000  0.66991300  1
  Cu  Cu12  1  0.66435100  0.60988200  0.82865200  1
