# generated using pymatgen
data_Cu2Ni2C35
_symmetry_space_group_name_H-M   'P 1'
_cell_length_a   17.96855439
_cell_length_b   9.03508873
_cell_length_c   22.55468605
_cell_angle_alpha   89.91690638
_cell_angle_beta   89.96309828
_cell_angle_gamma   120.08405938
_symmetry_Int_Tables_number   1
_chemical_formula_structural   Cu2Ni2C35
_chemical_formula_sum   'Cu12 Ni12 C210'
_cell_volume   3168.42542001
_cell_formula_units_Z   6
loop_
 _symmetry_equiv_pos_site_id
 _symmetry_equiv_pos_as_xyz
  1  'x, y, z'
loop_
 _atom_site_type_symbol
 _atom_site_label
 _atom_site_symmetry_multiplicity
 _atom_site_fract_x
 _atom_site_fract_y
 _atom_site_fract_z
 _atom_site_occupancy
  C  C0  1  0.32108589  0.02054816  0.25186610  1
  C  C1  1  0.82024917  0.02291481  0.24614923  1
  C  C2  1  0.17781573  0.34440515  0.25267557  1
  C  C3  1  0.67872418  0.34706861  0.25269854  1
  C  C4  1  0.82218913  0.62348497  0.75136355  1
  C  C5  1  0.49718791  0.36906967  0.74151246  1
  C  C6  1  0.17777970  0.00783463  0.75278387  1
  C  C7  1  0.67647210  0.00900614  0.75251977  1
  C  C8  1  0.65477552  0.94899000  0.07766874  1
  C  C9  1  0.83063648  0.70207317  0.07355556  1
  C  C10  1  0.01031131  0.34081336  0.08550163  1
  C  C11  1  0.49044500  0.69658288  0.91220794  1
  C  C12  1  0.98870201  0.69391121  0.91359739  1
  C  C13  1  0.16248445  0.29164770  0.90813996  1
  C  C14  1  0.49112530  0.28533988  0.41480136  1
  C  C15  1  0.99089232  0.28471176  0.41466774  1
  C  C16  1  0.16292652  0.03366264  0.40990269  1
  C  C17  1  0.66289715  0.03388046  0.40990813  1
  C  C18  1  0.99261131  0.00350906  0.49555959  1
  C  C19  1  0.49268046  0.00334096  0.49527057  1
  C  C20  1  0.99550812  0.98206454  0.99135199  1
  C  C21  1  0.49450117  0.99275220  0.98977284  1
  C  C22  1  0.33130062  0.34753239  0.82287310  1
  C  C23  1  0.83216096  0.33888408  0.82756339  1
  C  C24  1  0.33665205  0.33643150  0.32569504  1
  C  C25  1  0.83668551  0.33668881  0.32521571  1
  C  C26  1  0.15684085  0.67690916  0.16117117  1
  C  C27  1  0.65298043  0.66516436  0.15942542  1
  C  C28  1  0.15518114  0.63749497  0.66002497  1
  C  C29  1  0.65743924  0.64975197  0.65740964  1
  Ni  Ni30  1  0.00260639  0.01252610  0.35197872  1
  Ni  Ni31  1  0.50194465  0.01315530  0.35234556  1
  Ni  Ni32  1  0.00170138  0.99065819  0.85177468  1
  Ni  Ni33  1  0.50433096  0.99373292  0.85266330  1
  Ni  Ni34  1  0.33814627  0.35434491  0.68540117  1
  Ni  Ni35  1  0.84105580  0.34669412  0.68561178  1
  Ni  Ni36  1  0.33919486  0.33251275  0.18564716  1
  Ni  Ni37  1  0.84007820  0.32875408  0.18495173  1
  Ni  Ni38  1  0.17010390  0.68686387  0.01901059  1
  Ni  Ni39  1  0.66840027  0.67797500  0.01853006  1
  Ni  Ni40  1  0.16787714  0.65368795  0.52024850  1
  Ni  Ni41  1  0.66755645  0.65313631  0.52001053  1
  Cu  Cu42  1  0.00841898  0.01661184  0.64697517  1
  Cu  Cu43  1  0.50603449  0.01188928  0.64649985  1
  Cu  Cu44  1  0.00721602  0.00329289  0.14537474  1
  Cu  Cu45  1  0.50373054  0.99813878  0.14788805  1
  Cu  Cu46  1  0.33666198  0.34424546  0.97690822  1
  Cu  Cu47  1  0.83524106  0.33505098  0.97852027  1
  Cu  Cu48  1  0.33401199  0.32497978  0.48025643  1
  Cu  Cu49  1  0.83402287  0.32406891  0.48027581  1
  Cu  Cu50  1  0.16629333  0.66588155  0.31445107  1
  Cu  Cu51  1  0.66729048  0.66701485  0.31372924  1
  Cu  Cu52  1  0.17028558  0.66850440  0.81194197  1
  Cu  Cu53  1  0.67008890  0.67423742  0.81496245  1
  C  C54  1  0.14806825  0.00046483  0.25349938  1
  C  C55  1  0.64780913  0.00175704  0.25419100  1
  C  C56  1  0.99889418  0.29546169  0.25222878  1
  C  C57  1  0.49809652  0.29457349  0.25217363  1
  C  C58  1  0.14974463  0.29582909  0.75441114  1
  C  C59  1  0.64840783  0.29455509  0.75300918  1
  C  C60  1  0.99837927  0.70294840  0.75171082  1
  C  C61  1  0.49602517  0.70264081  0.75303028  1
  C  C62  1  0.48327160  0.34124525  0.58805864  1
  C  C63  1  0.98422524  0.34219717  0.58684161  1
  C  C64  1  0.48005232  0.62203700  0.08648726  1
  C  C65  1  0.98297949  0.62423104  0.08470287  1
  C  C66  1  0.83173974  0.03616816  0.08685879  1
  C  C67  1  0.31268846  0.68096110  0.92116223  1
  C  C68  1  0.81455260  0.67317157  0.92116160  1
  C  C69  1  0.16626618  0.95783477  0.91885556  1
  C  C70  1  0.66629238  0.96512038  0.92080137  1
  C  C71  1  0.31297812  0.94640698  0.42089892  1
  C  C72  1  0.81300742  0.94620552  0.42085714  1
  C  C73  1  0.16723728  0.37366153  0.41985064  1
  C  C74  1  0.66727714  0.37387888  0.41982592  1
  C  C75  1  0.35613433  0.70997913  0.25130245  1
  C  C76  1  0.85667252  0.71069270  0.25049109  1
  C  C77  1  0.35635226  0.99741696  0.75066533  1
  C  C78  1  0.85710597  0.00333544  0.75068839  1
  C  C79  1  0.18850135  0.03989196  0.58466529  1
  C  C80  1  0.68807518  0.03983797  0.58496577  1
  C  C81  1  0.33383233  0.62466300  0.58412305  1
  C  C82  1  0.83374202  0.62527208  0.58490461  1
  C  C83  1  0.33327711  0.04206803  0.08519687  1
  C  C84  1  0.19039652  0.33688515  0.08433716  1
  C  C85  1  0.68702709  0.33260414  0.08471252  1
  C  C86  1  0.02189151  0.37595849  0.91757831  1
  C  C87  1  0.52307040  0.37441255  0.91779513  1
  C  C88  1  0.02103862  0.66716576  0.41834036  1
  C  C89  1  0.52129368  0.66713878  0.41819373  1
  C  C90  1  0.10469192  0.02402174  0.31144571  1
  C  C91  1  0.60059423  0.01910350  0.31086558  1
  C  C92  1  0.40688654  0.78788443  0.30372081  1
  C  C93  1  0.90770514  0.78960850  0.30282922  1
  C  C94  1  0.48362300  0.17952054  0.30961472  1
  C  C95  1  0.98521659  0.17900964  0.30897918  1
  C  C96  1  0.10415850  0.18410611  0.81176966  1
  C  C97  1  0.59795210  0.17310670  0.80618821  1
  C  C98  1  0.48644683  0.78687525  0.81182459  1
  C  C99  1  0.98331554  0.78785671  0.80929076  1
  C  C100  1  0.40770698  0.02437335  0.80300383  1
  C  C101  1  0.90691452  0.02599055  0.80366212  1
  C  C102  1  0.39666776  0.97132968  0.69612736  1
  C  C103  1  0.89646551  0.97118851  0.69689197  1
  C  C104  1  0.08368963  0.19859493  0.69392282  1
  C  C105  1  0.58226127  0.20014596  0.69198970  1
  C  C106  1  0.01511201  0.84077409  0.69384113  1
  C  C107  1  0.51391121  0.83814643  0.69456148  1
  C  C108  1  0.39661898  0.82096365  0.19699886  1
  C  C109  1  0.89551670  0.81917526  0.19553258  1
  C  C110  1  0.01707058  0.19906744  0.19232412  1
  C  C111  1  0.51400932  0.18945658  0.19421674  1
  C  C112  1  0.08351888  0.97048279  0.19417210  1
  C  C113  1  0.58415744  0.97044742  0.19274020  1
  C  C114  1  0.43200226  0.34292717  0.64517562  1
  C  C115  1  0.92831704  0.34348925  0.64001050  1
  C  C116  1  0.23814342  0.12484773  0.63740690  1
  C  C117  1  0.73677207  0.12381393  0.63805431  1
  C  C118  1  0.32191231  0.52188540  0.63684797  1
  C  C119  1  0.82162491  0.52521761  0.63910085  1
  C  C120  1  0.42744451  0.51175964  0.14096813  1
  C  C121  1  0.93067970  0.50802221  0.13915570  1
  C  C122  1  0.32123119  0.11745157  0.13940735  1
  C  C123  1  0.81225157  0.11648559  0.14360098  1
  C  C124  1  0.23792201  0.35086922  0.13783142  1
  C  C125  1  0.73635256  0.35646058  0.13902393  1
  C  C126  1  0.23041907  0.30943056  0.02976083  1
  C  C127  1  0.72850903  0.30055768  0.03203974  1
  C  C128  1  0.41924865  0.52607010  0.02477418  1
  C  C129  1  0.92006322  0.53794955  0.02342043  1
  C  C130  1  0.34509063  0.15293240  0.03217674  1
  C  C131  1  0.84931447  0.17341244  0.02957683  1
  C  C132  1  0.22945882  0.15193827  0.52943283  1
  C  C133  1  0.72915085  0.15118870  0.52983607  1
  C  C134  1  0.34464199  0.53571326  0.53033237  1
  C  C135  1  0.84387527  0.53305269  0.53196966  1
  C  C136  1  0.41892032  0.31407725  0.52706097  1
  C  C137  1  0.92000565  0.31300203  0.52478246  1
  C  C138  1  0.26034919  0.67206189  0.97801100  1
  C  C139  1  0.76645071  0.67620440  0.97957296  1
  C  C140  1  0.07086190  0.44685274  0.97206856  1
  C  C141  1  0.57364966  0.45571857  0.97010033  1
  C  C142  1  0.14247054  0.82724522  0.97172317  1
  C  C143  1  0.64878586  0.84239691  0.97606646  1
  C  C144  1  0.25865115  0.84505382  0.47618251  1
  C  C145  1  0.75871477  0.84492515  0.47619788  1
  C  C146  1  0.14339020  0.46238928  0.47030467  1
  C  C147  1  0.64296091  0.46149306  0.47048259  1
  C  C148  1  0.07345296  0.69619017  0.47024799  1
  C  C149  1  0.57336119  0.69586656  0.47036778  1
  C  C150  1  0.06113218  0.63187778  0.36367290  1
  C  C151  1  0.56113964  0.63187040  0.36367930  1
  C  C152  1  0.25027985  0.86754482  0.35867403  1
  C  C153  1  0.74992008  0.86650716  0.35878199  1
  C  C154  1  0.18150233  0.49805452  0.35746479  1
  C  C155  1  0.68109397  0.49834919  0.35756332  1
  C  C156  1  0.06384520  0.49154597  0.86481152  1
  C  C157  1  0.56077418  0.48729674  0.86262522  1
  C  C158  1  0.18195945  0.86582624  0.85744537  1
  C  C159  1  0.68017752  0.86334578  0.85961118  1
  C  C160  1  0.24797569  0.63219230  0.86085090  1
  C  C161  1  0.75165191  0.64081698  0.85952241  1
  C  C162  1  0.00888535  0.81295632  0.40733243  1
  C  C163  1  0.50872740  0.81257590  0.40758695  1
  C  C164  1  0.40949100  0.98652018  0.41282401  1
  C  C165  1  0.90955889  0.98632963  0.41268914  1
  C  C166  1  0.08955742  0.17827918  0.41289223  1
  C  C167  1  0.58954216  0.17835244  0.41280949  1
  C  C168  1  0.00918983  0.20506018  0.90800795  1
  C  C169  1  0.50758778  0.20328469  0.90852100  1
  C  C170  1  0.08939540  0.00116335  0.91254005  1
  C  C171  1  0.58487730  0.98955876  0.91330778  1
  C  C172  1  0.40843009  0.83336311  0.91275186  1
  C  C173  1  0.90940755  0.83412320  0.91250344  1
  C  C174  1  0.48519088  0.15242818  0.58995786  1
  C  C175  1  0.98643872  0.15360116  0.59003578  1
  C  C176  1  0.10112843  0.03028083  0.58636443  1
  C  C177  1  0.60048213  0.02914950  0.58654230  1
  C  C178  1  0.41520483  0.79643790  0.58760107  1
  C  C179  1  0.91488708  0.79676065  0.58775003  1
  C  C180  1  0.48781750  0.82109087  0.09026866  1
  C  C181  1  0.98670843  0.81561932  0.09016290  1
  C  C182  1  0.41430363  0.03027212  0.08929920  1
  C  C183  1  0.92446303  0.03179477  0.09055396  1
  C  C184  1  0.10133987  0.17406044  0.08589319  1
  C  C185  1  0.60023080  0.16676915  0.08777752  1
  C  C186  1  0.34043286  0.14202484  0.74292722  1
  C  C187  1  0.83716862  0.14087276  0.74284778  1
  C  C188  1  0.23811125  0.29785050  0.74101793  1
  C  C189  1  0.74026291  0.30966275  0.74085466  1
  C  C190  1  0.42191129  0.50598407  0.74696960  1
  C  C191  1  0.91482648  0.51786142  0.74477368  1
  C  C192  1  0.33774356  0.53393840  0.24313480  1
  C  C193  1  0.83804183  0.53434920  0.24265193  1
  C  C194  1  0.41445604  0.31234697  0.24517846  1
  C  C195  1  0.91654111  0.31825212  0.24686783  1
  C  C196  1  0.24009703  0.17097503  0.24167343  1
  C  C197  1  0.73888750  0.17518616  0.24459913  1
  C  C198  1  0.31993965  0.49268219  0.92507631  1
  C  C199  1  0.82422499  0.49451851  0.92352688  1
  C  C200  1  0.43531290  0.36691494  0.92164305  1
  C  C201  1  0.93590783  0.36953430  0.91994958  1
  C  C202  1  0.25668025  0.15053196  0.92668314  1
  C  C203  1  0.75784614  0.15244892  0.92445642  1
  C  C204  1  0.32040225  0.14786817  0.42569050  1
  C  C205  1  0.81978552  0.14705483  0.42548066  1
  C  C206  1  0.25729022  0.36186526  0.42558462  1
  C  C207  1  0.75722494  0.36200878  0.42553473  1
  C  C208  1  0.43483245  0.50316565  0.42186072  1
  C  C209  1  0.93476027  0.50379541  0.42174563  1
  C  C210  1  0.17453077  0.48030661  0.07788549  1
  C  C211  1  0.67383869  0.47740591  0.07601149  1
  C  C212  1  0.07432024  0.63245061  0.07833152  1
  C  C213  1  0.57598963  0.65671938  0.07878524  1
  C  C214  1  0.25923927  0.86926884  0.07863815  1
  C  C215  1  0.75419552  0.84174275  0.08056170  1
  C  C216  1  0.17681705  0.87082543  0.57666308  1
  C  C217  1  0.67665380  0.87048242  0.57706297  1
  C  C218  1  0.26000181  0.64981465  0.57738069  1
  C  C219  1  0.75964953  0.64956358  0.57777329  1
  C  C220  1  0.07735531  0.50502794  0.57894216  1
  C  C221  1  0.57626024  0.50491021  0.57975545  1
  C  C222  1  0.16027521  0.82899043  0.25539301  1
  C  C223  1  0.65898778  0.82922183  0.25559325  1
  C  C224  1  0.26940954  0.70375240  0.25354985  1
  C  C225  1  0.76928286  0.70283553  0.25390598  1
  C  C226  1  0.09232666  0.48335499  0.25564133  1
  C  C227  1  0.59131772  0.48160341  0.25532678  1
  C  C228  1  0.15570986  0.48547596  0.75690549  1
  C  C229  1  0.65542464  0.48633914  0.75533062  1
  C  C230  1  0.09153696  0.70180986  0.75563588  1
  C  C231  1  0.59064150  0.69739954  0.75606300  1
  C  C232  1  0.26829929  0.83694712  0.75345789  1
  C  C233  1  0.76906888  0.83568545  0.75369515  1
