# generated using pymatgen
data_Cu5Ni6C67
_symmetry_space_group_name_H-M   'P 1'
_cell_length_a   17.98771564
_cell_length_b   9.02805626
_cell_length_c   22.66203730
_cell_angle_alpha   89.81884654
_cell_angle_beta   89.36225133
_cell_angle_gamma   119.85462460
_symmetry_Int_Tables_number   1
_chemical_formula_structural   Cu5Ni6C67
_chemical_formula_sum   'Cu15 Ni18 C201'
_cell_volume   3191.43068438
_cell_formula_units_Z   3
loop_
 _symmetry_equiv_pos_site_id
 _symmetry_equiv_pos_as_xyz
  1  'x, y, z'
loop_
 _atom_site_type_symbol
 _atom_site_label
 _atom_site_symmetry_multiplicity
 _atom_site_fract_x
 _atom_site_fract_y
 _atom_site_fract_z
 _atom_site_occupancy
  C  C0  1  0.31825849  0.00312728  0.24477933  1
  C  C1  1  0.19543026  0.37232703  0.24650584  1
  C  C2  1  0.68988247  0.37081099  0.24575958  1
  C  C3  1  0.99775293  0.63966642  0.24962453  1
  C  C4  1  0.31694415  0.61779186  0.75410006  1
  C  C5  1  0.81771162  0.62561342  0.74814325  1
  C  C6  1  0.99419910  0.36095959  0.75122955  1
  C  C7  1  0.49787688  0.37714873  0.74351250  1
  C  C8  1  0.18247819  0.01066241  0.74763655  1
  C  C9  1  0.68636329  0.01164893  0.74915247  1
  C  C10  1  0.64659944  0.34517567  0.57783049  1
  C  C11  1  0.32477768  0.68933589  0.07929748  1
  C  C12  1  0.82637192  0.68959959  0.08600472  1
  C  C13  1  0.16538025  0.31416950  0.92113728  1
  C  C14  1  0.99044813  0.30574175  0.41972953  1
  C  C15  1  0.16414262  0.02833176  0.41869798  1
  C  C16  1  0.66395099  0.03124528  0.41332812  1
  C  C17  1  0.84343206  0.66527293  0.41726856  1
  C  C18  1  0.00118809  0.00147929  0.49984056  1
  C  C19  1  0.49327957  0.01023823  0.49551800  1
  C  C20  1  0.00556692  0.01948619  -0.00001739  1
  C  C21  1  0.50221232  0.01951108  0.99604071  1
  C  C22  1  0.34233989  0.35466613  0.83426284  1
  C  C23  1  0.83684495  0.33321658  0.82966945  1
  C  C24  1  0.33823040  0.35866005  0.32740598  1
  C  C25  1  0.83163287  0.33223850  0.33137861  1
  C  C26  1  0.16827770  0.66479451  0.15856379  1
  C  C27  1  0.66430638  0.66511189  0.16062099  1
  C  C28  1  0.16230174  0.65911086  0.66113634  1
  C  C29  1  0.65930542  0.66488154  0.66156959  1
  C  C30  1  0.49793065  0.00019018  0.35156371  1
  C  C31  1  0.34115837  0.35622355  0.68362652  1
  C  C32  1  0.83630522  0.33702995  0.69208646  1
  C  C33  1  0.32739326  0.34593142  0.18607025  1
  C  C34  1  0.82882520  0.34197360  0.18057889  1
  C  C35  1  0.16540076  0.62925347  0.01321016  1
  C  C36  1  0.65550093  0.62915884  0.01810363  1
  C  C37  1  0.16067267  0.65265604  0.51177236  1
  C  C38  1  0.66092441  0.64686771  0.51397289  1
  Ni  Ni39  1  0.14958007  0.99802821  0.25190512  1
  Ni  Ni40  1  0.35963410  0.71283710  0.25303616  1
  Ni  Ni41  1  0.85280272  0.70740554  0.24858153  1
  Ni  Ni42  1  0.14980054  0.29656062  0.74882484  1
  Ni  Ni43  1  0.64574021  0.29140220  0.75001660  1
  Ni  Ni44  1  0.00362093  0.71263460  0.75210518  1
  Ni  Ni45  1  0.49912908  0.71373528  0.75001553  1
  Ni  Ni46  1  0.85197598  0.99604988  0.74999979  1
  Ni  Ni47  1  0.48072372  0.33645594  0.58640971  1
  Ni  Ni48  1  0.18439482  0.33171203  0.08486300  1
  Ni  Ni49  1  0.68480127  0.33372855  0.08584483  1
  Ni  Ni50  1  0.31607083  0.67388824  0.91873081  1
  Ni  Ni51  1  0.01210762  0.36082376  0.91837459  1
  Ni  Ni52  1  0.51787655  0.36858296  0.91730789  1
  Ni  Ni53  1  0.81037537  0.95521348  0.42028221  1
  Ni  Ni54  1  0.17036907  0.37442091  0.41826076  1
  Ni  Ni55  1  0.65930818  0.35908984  0.41818392  1
  Ni  Ni56  1  0.02412173  0.66859962  0.41857844  1
  Cu  Cu57  1  0.00065757  0.99495883  0.35316857  1
  Cu  Cu58  1  0.99922621  0.00628435  0.84934247  1
  Cu  Cu59  1  0.50150695  0.99969561  0.85561311  1
  Cu  Cu60  1  0.00165169  0.00139545  0.65277465  1
  Cu  Cu61  1  0.50100314  0.00766319  0.64770713  1
  Cu  Cu62  1  0.00569396  0.99851598  0.14815119  1
  Cu  Cu63  1  0.50168506  0.00464963  0.14812888  1
  Cu  Cu64  1  0.33514632  0.34084939  0.98049082  1
  Cu  Cu65  1  0.82974853  0.32480291  0.98276111  1
  Cu  Cu66  1  0.33637824  0.33832225  0.48555575  1
  Cu  Cu67  1  0.83357735  0.33492226  0.48039759  1
  Cu  Cu68  1  0.17276426  0.66753768  0.31774279  1
  Cu  Cu69  1  0.67439091  0.67406185  0.31814430  1
  Cu  Cu70  1  0.15793611  0.64629983  0.82011506  1
  Cu  Cu71  1  0.66004176  0.65960435  0.81427052  1
  C  C72  1  0.64750461  0.99399662  0.25139324  1
  C  C73  1  0.99787322  0.29157057  0.24987029  1
  C  C74  1  0.50209753  0.30002104  0.25138403  1
  C  C75  1  0.35142552  0.99652059  0.75116215  1
  C  C76  1  0.98032677  0.32995120  0.58491398  1
  C  C77  1  0.18310505  0.03382047  0.58505222  1
  C  C78  1  0.68747219  0.03820548  0.58455145  1
  C  C79  1  0.33161391  0.63378350  0.58425932  1
  C  C80  1  0.83792094  0.63244440  0.58529279  1
  C  C81  1  0.48133035  0.62764210  0.08579486  1
  C  C82  1  0.98139230  0.62610179  0.08379183  1
  C  C83  1  0.33357773  0.04346645  0.08565483  1
  C  C84  1  0.83385177  0.04082764  0.08552881  1
  C  C85  1  0.81489286  0.66812333  0.91820477  1
  C  C86  1  0.16550753  0.95576623  0.91766453  1
  C  C87  1  0.66877788  0.95769841  0.91901849  1
  C  C88  1  0.31510082  0.96409707  0.41977005  1
  C  C89  1  0.51971382  0.66323263  0.41689899  1
  C  C90  1  0.10819523  0.04339314  0.30958955  1
  C  C91  1  0.61018545  0.02423128  0.30501610  1
  C  C92  1  0.41547487  0.81459379  0.30795731  1
  C  C93  1  0.91106672  0.79465446  0.30728992  1
  C  C94  1  0.48945722  0.19517718  0.30397350  1
  C  C95  1  0.98566646  0.19277638  0.30573226  1
  C  C96  1  0.11087770  0.17895894  0.80912133  1
  C  C97  1  0.60205936  0.16114398  0.80556839  1
  C  C98  1  0.47854732  0.79968010  0.80597711  1
  C  C99  1  0.98113764  0.79556249  0.80887754  1
  C  C100  1  0.40686663  0.02841580  0.80266783  1
  C  C101  1  0.91496522  0.04493030  0.80646402  1
  C  C102  1  0.38780753  0.95841641  0.69688428  1
  C  C103  1  0.88980025  0.94117447  0.69214799  1
  C  C104  1  0.08168544  0.21804955  0.69383980  1
  C  C105  1  0.58533500  0.22011643  0.69065678  1
  C  C106  1  0.02891470  0.83786117  0.69320156  1
  C  C107  1  0.51850958  0.83535095  0.69014668  1
  C  C108  1  0.39560170  0.83596539  0.19023247  1
  C  C109  1  0.89522977  0.82529728  0.18827551  1
  C  C110  1  0.01414914  0.20975487  0.19811022  1
  C  C111  1  0.52428715  0.22684447  0.19756546  1
  C  C112  1  0.08243456  0.94782614  0.19649574  1
  C  C113  1  0.59419332  0.97042188  0.19760925  1
  C  C114  1  0.43560502  0.34834042  0.64652167  1
  C  C115  1  0.93543780  0.34380990  0.63713133  1
  C  C116  1  0.23237607  0.12003885  0.63749205  1
  C  C117  1  0.73724718  0.12426791  0.63683485  1
  C  C118  1  0.31878379  0.53174974  0.63818169  1
  C  C119  1  0.82800303  0.52380916  0.63682104  1
  C  C120  1  0.44125934  0.52128331  0.13803058  1
  C  C121  1  0.94386265  0.52771568  0.13912860  1
  C  C122  1  0.32947685  0.12671288  0.14037158  1
  C  C123  1  0.82641051  0.12742312  0.13802298  1
  C  C124  1  0.23988071  0.35957165  0.14323895  1
  C  C125  1  0.73963318  0.36444767  0.14534540  1
  C  C126  1  0.22741151  0.29741363  0.02361854  1
  C  C127  1  0.72946451  0.29765852  0.02670833  1
  C  C128  1  0.42731896  0.55406845  0.03140151  1
  C  C129  1  0.92328178  0.54243276  0.03214826  1
  C  C130  1  0.34868711  0.15210368  0.03162363  1
  C  C131  1  0.85111860  0.14749265  0.03016834  1
  C  C132  1  0.22236642  0.14056089  0.52863668  1
  C  C133  1  0.72721502  0.15218612  0.52906608  1
  C  C134  1  0.34713424  0.55338119  0.53013893  1
  C  C135  1  0.85000447  0.55293683  0.52846596  1
  C  C136  1  0.42008562  0.29949341  0.52650242  1
  C  C137  1  0.92879115  0.30629813  0.52867627  1
  C  C138  1  0.27716141  0.70609208  0.97780996  1
  C  C139  1  0.77582229  0.69353360  0.97150173  1
  C  C140  1  0.07574138  0.44623918  0.97148935  1
  C  C141  1  0.57539162  0.45295673  0.97291405  1
  C  C142  1  0.15459634  0.85049833  0.96898086  1
  C  C143  1  0.66166992  0.85496208  0.97061985  1
  C  C144  1  0.27250114  0.85817535  0.47101568  1
  C  C145  1  0.76794486  0.82746842  0.47466882  1
  C  C146  1  0.14714885  0.45263978  0.47343963  1
  C  C147  1  0.64880270  0.43849087  0.47818283  1
  C  C148  1  0.08708782  0.71952607  0.47276956  1
  C  C149  1  0.57254858  0.68879664  0.46863181  1
  C  C150  1  0.06013914  0.62231896  0.35725788  1
  C  C151  1  0.55786942  0.63272657  0.36108310  1
  C  C152  1  0.26161712  0.89412163  0.36356594  1
  C  C153  1  0.74958904  0.89111323  0.36019593  1
  C  C154  1  0.18660244  0.47998110  0.35479601  1
  C  C155  1  0.68440237  0.48501287  0.35769048  1
  C  C156  1  0.04630407  0.46597193  0.85443279  1
  C  C157  1  0.55424383  0.48306407  0.85469252  1
  C  C158  1  0.17835508  0.88300789  0.86021937  1
  C  C159  1  0.68242639  0.88701216  0.86157055  1
  C  C160  1  0.25600252  0.63635206  0.85747970  1
  C  C161  1  0.76454675  0.64605545  0.86290667  1
  C  C162  1  0.00713318  0.83082686  0.41231338  1
  C  C163  1  0.51118289  0.81634692  0.41051474  1
  C  C164  1  0.40108582  0.98780963  0.41221291  1
  C  C165  1  0.90785557  0.98439665  0.40976558  1
  C  C166  1  0.08278560  0.18266320  0.41087256  1
  C  C167  1  0.58252854  0.16399935  0.40854908  1
  C  C168  1  0.01006099  0.17278586  0.91312140  1
  C  C169  1  0.51003652  0.18050214  0.90973311  1
  C  C170  1  0.08768009  0.97831529  0.91265414  1
  C  C171  1  0.59082876  0.97456246  0.91485806  1
  C  C172  1  0.41254691  0.83635124  0.91234736  1
  C  C173  1  0.90290718  0.82063925  0.91248270  1
  C  C174  1  0.49168805  0.15762187  0.58569577  1
  C  C175  1  0.98657216  0.16787437  0.58618668  1
  C  C176  1  0.09472740  0.02205379  0.58588995  1
  C  C177  1  0.60112006  0.03132408  0.58515169  1
  C  C178  1  0.41330174  0.80544414  0.58712673  1
  C  C179  1  0.91851443  0.80466135  0.58641843  1
  C  C180  1  0.48278255  0.79899083  0.08957975  1
  C  C181  1  0.98006689  0.79505466  0.08586585  1
  C  C182  1  0.41296007  0.01917943  0.08594448  1
  C  C183  1  0.91214583  0.01658981  0.08765977  1
  C  C184  1  0.08606404  0.15380066  0.08685125  1
  C  C185  1  0.58811294  0.15492675  0.08913836  1
  C  C186  1  0.34019519  0.14610535  0.74462122  1
  C  C187  1  0.84080438  0.16135082  0.74300987  1
  C  C188  1  0.24224303  0.30921407  0.74054901  1
  C  C189  1  0.74041679  0.31446860  0.74396702  1
  C  C190  1  0.41712113  0.52243800  0.74791595  1
  C  C191  1  0.92144745  0.52413141  0.74570684  1
  C  C192  1  0.34439710  0.52160991  0.24765904  1
  C  C193  1  0.84601095  0.51885538  0.24686556  1
  C  C194  1  0.42482109  0.31137679  0.24170803  1
  C  C195  1  0.92306182  0.31489617  0.24339759  1
  C  C196  1  0.24562104  0.15867194  0.24686429  1
  C  C197  1  0.73454504  0.14456282  0.24382037  1
  C  C198  1  0.31599351  0.48812378  0.91995332  1
  C  C199  1  0.82281856  0.50926575  0.92168129  1
  C  C200  1  0.41928696  0.34275795  0.92249254  1
  C  C201  1  0.91579719  0.34340586  0.92398079  1
  C  C202  1  0.24237926  0.13273524  0.91938698  1
  C  C203  1  0.74660516  0.13503432  0.92035395  1
  C  C204  1  0.31877323  0.13606401  0.42275238  1
  C  C205  1  0.82451907  0.15062333  0.42504501  1
  C  C206  1  0.25388909  0.34064519  0.42538640  1
  C  C207  1  0.75253254  0.35260554  0.42167709  1
  C  C208  1  0.43178580  0.50508295  0.42107862  1
  C  C209  1  0.92805878  0.49532177  0.42395192  1
  C  C210  1  0.17754364  0.50527796  0.08156604  1
  C  C211  1  0.68219991  0.51170938  0.08027592  1
  C  C212  1  0.06813950  0.65768707  0.07545038  1
  C  C213  1  0.56931527  0.66090238  0.07828229  1
  C  C214  1  0.25743411  0.87355796  0.08088300  1
  C  C215  1  0.75782637  0.87069424  0.07913144  1
  C  C216  1  0.17486399  0.86474310  0.57925533  1
  C  C217  1  0.67794339  0.87059460  0.57691805  1
  C  C218  1  0.25675611  0.65641159  0.57676939  1
  C  C219  1  0.76076803  0.64755963  0.58110292  1
  C  C220  1  0.06544668  0.48240503  0.57995530  1
  C  C221  1  0.57790729  0.50134840  0.58042747  1
  C  C222  1  0.15189723  0.81721884  0.25837345  1
  C  C223  1  0.65092640  0.83037464  0.25479453  1
  C  C224  1  0.26003484  0.69556374  0.25414554  1
  C  C225  1  0.75423695  0.68130617  0.25201586  1
  C  C226  1  0.07843249  0.46405360  0.25295493  1
  C  C227  1  0.58139476  0.47509569  0.25555226  1
  C  C228  1  0.15947611  0.48883140  0.75369015  1
  C  C229  1  0.65516891  0.48214884  0.75583921  1
  C  C230  1  0.09429961  0.70593078  0.75787457  1
  C  C231  1  0.58934559  0.70724038  0.75367462  1
  C  C232  1  0.26499713  0.83908941  0.75773064  1
  C  C233  1  0.75842485  0.82220072  0.75971691  1
