# generated using pymatgen
data_Cu7NiC4
_symmetry_space_group_name_H-M   'P 1'
_cell_length_a   6.34305000
_cell_length_b   5.01287600
_cell_length_c   8.43289190
_cell_angle_alpha   86.97634661
_cell_angle_beta   90.00000000
_cell_angle_gamma   90.00000000
_symmetry_Int_Tables_number   1
_chemical_formula_structural   Cu7NiC4
_chemical_formula_sum   'Cu14 Ni2 C8'
_cell_volume   267.76672266
_cell_formula_units_Z   2
loop_
 _symmetry_equiv_pos_site_id
 _symmetry_equiv_pos_as_xyz
  1  'x, y, z'
loop_
 _atom_site_type_symbol
 _atom_site_label
 _atom_site_symmetry_multiplicity
 _atom_site_fract_x
 _atom_site_fract_y
 _atom_site_fract_z
 _atom_site_occupancy
  C  C0  1  0.00392500  0.78693100  0.76149000  1
  C  C1  1  0.99607500  0.21306900  0.23851000  1
  C  C2  1  0.50392500  0.21306900  0.23851000  1
  C  C3  1  0.49607500  0.78693100  0.76149000  1
  C  C4  1  0.75000000  0.78249700  0.34706600  1
  C  C5  1  0.25000000  0.21750300  0.65293400  1
  C  C6  1  0.25000000  0.71567100  0.42282000  1
  C  C7  1  0.75000000  0.28432900  0.57718000  1
  Ni  Ni8  1  0.75000000  0.71727900  0.05557900  1
  Ni  Ni9  1  0.25000000  0.28272100  0.94442100  1
  Cu  Cu10  1  0.75000000  0.50873800  0.15251700  1
  Cu  Cu11  1  0.75000000  0.94527800  0.12522000  1
  Cu  Cu12  1  0.25000000  0.49126200  0.84748300  1
  Cu  Cu13  1  0.94136400  0.18490800  0.67647300  1
  Cu  Cu14  1  0.55863600  0.18490800  0.67647300  1
  Cu  Cu15  1  0.75000000  0.17430100  0.40900600  1
  Cu  Cu16  1  0.25000000  0.82569900  0.59099400  1
  Cu  Cu17  1  0.44136400  0.81509200  0.32352700  1
  Cu  Cu18  1  0.05863600  0.81509200  0.32352700  1
  Cu  Cu19  1  0.25000000  0.40247300  0.44286500  1
  Cu  Cu20  1  0.75000000  0.71228500  0.90566900  1
  Cu  Cu21  1  0.25000000  0.28771500  0.09433100  1
  Cu  Cu22  1  0.75000000  0.59752700  0.55713500  1
  Cu  Cu23  1  0.25000000  0.05472200  0.87478000  1
