# generated using pymatgen
data_Cu2NiC16
_symmetry_space_group_name_H-M   'P 1'
_cell_length_a   8.18203921
_cell_length_b   8.18203921
_cell_length_c   6.64335206
_cell_angle_alpha   106.62125926
_cell_angle_beta   106.62125926
_cell_angle_gamma   79.53757546
_symmetry_Int_Tables_number   1
_chemical_formula_structural   Cu2NiC16
_chemical_formula_sum   'Cu2 Ni1 C16'
_cell_volume   405.93692016
_cell_formula_units_Z   1
loop_
 _symmetry_equiv_pos_site_id
 _symmetry_equiv_pos_as_xyz
  1  'x, y, z'
loop_
 _atom_site_type_symbol
 _atom_site_label
 _atom_site_symmetry_multiplicity
 _atom_site_fract_x
 _atom_site_fract_y
 _atom_site_fract_z
 _atom_site_occupancy
  C  C0  1  0.16775244  0.83224756  0.50000000  1
  C  C1  1  0.14171961  0.85828039  0.00000000  1
  C  C2  1  0.57246679  0.87508634  0.24620183  1
  C  C3  1  0.12491366  0.42753321  0.75379817  1
  C  C4  1  0.42753321  0.12491366  0.75379817  1
  C  C5  1  0.87508634  0.57246679  0.24620183  1
  C  C6  1  0.85828039  0.14171961  0.00000000  1
  C  C7  1  0.83224756  0.16775244  0.50000000  1
  Ni  Ni8  1  0.50000000  0.50000000  0.50000000  1
  Cu  Cu9  1  0.25676873  0.25676873  0.27334218  1
  Cu  Cu10  1  0.74323127  0.74323127  0.72665782  1
  C  C11  1  0.22561090  0.49105914  0.39275368  1
  C  C12  1  0.50894086  0.77438910  0.60724632  1
  C  C13  1  0.17931604  0.17931604  0.97576439  1
  C  C14  1  0.14168913  0.14168913  0.38345679  1
  C  C15  1  0.82068396  0.82068396  0.02423561  1
  C  C16  1  0.85831087  0.85831087  0.61654321  1
  C  C17  1  0.77438910  0.50894086  0.60724632  1
  C  C18  1  0.49105914  0.22561090  0.39275368  1
