# generated using pymatgen
data_CuNiC4
_symmetry_space_group_name_H-M   'P 1'
_cell_length_a   5.43106819
_cell_length_b   5.43106908
_cell_length_c   5.43106844
_cell_angle_alpha   103.73943735
_cell_angle_beta   103.73944293
_cell_angle_gamma   121.66731448
_symmetry_Int_Tables_number   1
_chemical_formula_structural   CuNiC4
_chemical_formula_sum   'Cu1 Ni1 C4'
_cell_volume   119.05836256
_cell_formula_units_Z   1
loop_
 _symmetry_equiv_pos_site_id
 _symmetry_equiv_pos_as_xyz
  1  'x, y, z'
loop_
 _atom_site_type_symbol
 _atom_site_label
 _atom_site_symmetry_multiplicity
 _atom_site_fract_x
 _atom_site_fract_y
 _atom_site_fract_z
 _atom_site_occupancy
  C  C0  1  0.15834800  0.65834800  0.81669500  1
  C  C1  1  0.34165200  0.15834800  0.50000000  1
  C  C2  1  0.65834800  0.84165200  0.50000000  1
  C  C3  1  0.84165200  0.34165200  0.18330500  1
  Ni  Ni4  1  0.75000000  0.75000000  0.00000000  1
  Cu  Cu5  1  0.25000000  0.25000000  0.00000000  1
