# generated using pymatgen
data_Cu2NiC13
_symmetry_space_group_name_H-M   'P 1'
_cell_length_a   12.07909154
_cell_length_b   12.07909154
_cell_length_c   9.66305100
_cell_angle_alpha   90.00000000
_cell_angle_beta   90.00000000
_cell_angle_gamma   119.99999750
_symmetry_Int_Tables_number   1
_chemical_formula_structural   Cu2NiC13
_chemical_formula_sum   'Cu6 Ni3 C39'
_cell_volume   1220.99380274
_cell_formula_units_Z   3
loop_
 _symmetry_equiv_pos_site_id
 _symmetry_equiv_pos_as_xyz
  1  'x, y, z'
loop_
 _atom_site_type_symbol
 _atom_site_label
 _atom_site_symmetry_multiplicity
 _atom_site_fract_x
 _atom_site_fract_y
 _atom_site_fract_z
 _atom_site_occupancy
  C  C0  1  0.95716500  0.29697900  0.75036400  1
  C  C1  1  0.00000000  0.68123200  0.00000000  1
  C  C2  1  0.68123200  0.00000000  0.00000000  1
  C  C3  1  0.29697900  0.95716500  0.24963600  1
  C  C4  1  0.70302100  0.66018600  0.75036400  1
  C  C5  1  0.66018600  0.70302100  0.24963600  1
  C  C6  1  0.37457100  0.37457100  0.50000000  1
  C  C7  1  0.04283500  0.33981400  0.24963600  1
  C  C8  1  0.31876800  0.31876800  0.00000000  1
  C  C9  1  0.33981400  0.04283500  0.75036400  1
  C  C10  1  0.62542900  0.00000000  0.50000000  1
  C  C11  1  0.00000000  0.62542900  0.50000000  1
  Ni  Ni12  1  0.33333300  0.66666700  0.74385700  1
  Ni  Ni13  1  0.66666700  0.33333300  0.25614300  1
  Ni  Ni14  1  0.00000000  0.00000000  0.50000000  1
  Cu  Cu15  1  0.33333300  0.66666700  0.39845700  1
  Cu  Cu16  1  0.66666700  0.33333300  0.60154300  1
  Cu  Cu17  1  0.00000000  0.00000000  0.15935700  1
  Cu  Cu18  1  0.33333300  0.66666700  0.08195300  1
  Cu  Cu19  1  0.66666700  0.33333300  0.91804700  1
  Cu  Cu20  1  0.00000000  0.00000000  0.84064300  1
  C  C21  1  0.50643500  0.68730000  0.55006700  1
  C  C22  1  0.31987000  0.82061800  0.93265600  1
  C  C23  1  0.64697500  0.16489100  0.76058100  1
  C  C24  1  0.68730000  0.50643500  0.44993300  1
  C  C25  1  0.84688700  0.84688700  0.00000000  1
  C  C26  1  0.68013000  0.50074800  0.06734400  1
  C  C27  1  0.31270000  0.81913500  0.55006700  1
  C  C28  1  0.15311300  0.00000000  0.00000000  1
  C  C29  1  0.17938200  0.49925200  0.93265600  1
  C  C30  1  0.82061800  0.31987000  0.06734400  1
  C  C31  1  0.18086500  0.49356500  0.55006700  1
  C  C32  1  0.48208500  0.83510900  0.23941900  1
  C  C33  1  0.49356500  0.18086500  0.44993300  1
  C  C34  1  0.16489100  0.64697500  0.23941900  1
  C  C35  1  0.83031000  0.98590400  0.68992800  1
  C  C36  1  0.49925200  0.17938200  0.06734400  1
  C  C37  1  0.00000000  0.15311300  0.00000000  1
  C  C38  1  0.01409600  0.84440700  0.68992800  1
  C  C39  1  0.50074800  0.68013000  0.93265600  1
  C  C40  1  0.35302500  0.51791500  0.23941900  1
  C  C41  1  0.16969000  0.15559300  0.31007200  1
  C  C42  1  0.84440700  0.01409600  0.31007200  1
  C  C43  1  0.15559300  0.16969000  0.68992800  1
  C  C44  1  0.51791500  0.35302500  0.76058100  1
  C  C45  1  0.83510900  0.48208500  0.76058100  1
  C  C46  1  0.98590400  0.83031000  0.31007200  1
  C  C47  1  0.81913500  0.31270000  0.44993300  1
