# generated using pymatgen
data_CuNiC10
_symmetry_space_group_name_H-M   'P 1'
_cell_length_a   7.47685892
_cell_length_b   7.47685892
_cell_length_c   7.47685924
_cell_angle_alpha   35.82128693
_cell_angle_beta   35.82128693
_cell_angle_gamma   35.82129135
_symmetry_Int_Tables_number   1
_chemical_formula_structural   CuNiC10
_chemical_formula_sum   'Cu1 Ni1 C10'
_cell_volume   128.01564396
_cell_formula_units_Z   1
loop_
 _symmetry_equiv_pos_site_id
 _symmetry_equiv_pos_as_xyz
  1  'x, y, z'
loop_
 _atom_site_type_symbol
 _atom_site_label
 _atom_site_symmetry_multiplicity
 _atom_site_fract_x
 _atom_site_fract_y
 _atom_site_fract_z
 _atom_site_occupancy
  Ni  Ni0  1  0.50000000  0.50000000  0.50000000  1
  Cu  Cu1  1  0.00000000  0.00000000  0.00000000  1
  C  C2  1  0.73865200  0.73865200  0.73865200  1
  C  C3  1  0.26134800  0.26134800  0.26134800  1
  C  C4  1  0.68031600  0.68031600  0.68031600  1
  C  C5  1  0.31968400  0.31968400  0.31968400  1
  C  C6  1  0.90396600  0.46821100  0.90396600  1
  C  C7  1  0.46821100  0.90396600  0.90396600  1
  C  C8  1  0.90396600  0.90396600  0.46821100  1
  C  C9  1  0.53178900  0.09603400  0.09603400  1
  C  C10  1  0.09603400  0.09603400  0.53178900  1
  C  C11  1  0.09603400  0.53178900  0.09603400  1
