# generated using pymatgen
data_Cu2NiC15
_symmetry_space_group_name_H-M   'P 1'
_cell_length_a   6.65089465
_cell_length_b   6.65089465
_cell_length_c   9.11282657
_cell_angle_alpha   68.87172234
_cell_angle_beta   68.87172234
_cell_angle_gamma   74.81440778
_symmetry_Int_Tables_number   1
_chemical_formula_structural   Cu2NiC15
_chemical_formula_sum   'Cu4 Ni2 C30'
_cell_volume   346.66502528
_cell_formula_units_Z   2
loop_
 _symmetry_equiv_pos_site_id
 _symmetry_equiv_pos_as_xyz
  1  'x, y, z'
loop_
 _atom_site_type_symbol
 _atom_site_label
 _atom_site_symmetry_multiplicity
 _atom_site_fract_x
 _atom_site_fract_y
 _atom_site_fract_z
 _atom_site_occupancy
  C  C0  1  0.13011700  0.86988300  0.75000000  1
  C  C1  1  0.86988300  0.13011700  0.25000000  1
  C  C2  1  0.50000000  0.00000000  0.00000000  1
  C  C3  1  0.00000000  0.50000000  0.50000000  1
  Ni  Ni4  1  0.53374400  0.46625600  0.75000000  1
  Ni  Ni5  1  0.46625600  0.53374400  0.25000000  1
  Cu  Cu6  1  0.70807900  0.83854300  0.68113000  1
  Cu  Cu7  1  0.16145700  0.29192100  0.81887000  1
  Cu  Cu8  1  0.29192100  0.16145700  0.31887000  1
  Cu  Cu9  1  0.83854300  0.70807900  0.18113000  1
  C  C10  1  0.00000000  0.50000000  0.00000000  1
  C  C11  1  0.50000000  0.00000000  0.50000000  1
  C  C12  1  0.67987300  0.31382200  0.56703900  1
  C  C13  1  0.68617800  0.32012700  0.93296100  1
  C  C14  1  0.31382200  0.67987300  0.06703900  1
  C  C15  1  0.32012700  0.68617800  0.43296100  1
  C  C16  1  0.03611100  0.63474500  0.04472100  1
  C  C17  1  0.36525500  0.96388900  0.45527900  1
  C  C18  1  0.43047600  0.70401800  0.09870500  1
  C  C19  1  0.29598200  0.56952400  0.40129500  1
  C  C20  1  0.56952400  0.29598200  0.90129500  1
  C  C21  1  0.70401800  0.43047600  0.59870500  1
  C  C22  1  0.52969600  0.68413700  0.75734700  1
  C  C23  1  0.31586300  0.47030400  0.74265300  1
  C  C24  1  0.47030400  0.31586300  0.24265300  1
  C  C25  1  0.68413700  0.52969600  0.25734700  1
  C  C26  1  0.72193800  0.91615600  0.81555200  1
  C  C27  1  0.08384400  0.27806200  0.68444800  1
  C  C28  1  0.27806200  0.08384400  0.18444800  1
  C  C29  1  0.91615600  0.72193800  0.31555200  1
  C  C30  1  0.93059900  0.71336400  0.60849700  1
  C  C31  1  0.28663600  0.06940100  0.89150300  1
  C  C32  1  0.06940100  0.28663600  0.39150300  1
  C  C33  1  0.71336400  0.93059900  0.10849700  1
  C  C34  1  0.63474500  0.03611100  0.54472100  1
  C  C35  1  0.96388900  0.36525500  0.95527900  1
