# generated using pymatgen
data_Cu6NiC12
_symmetry_space_group_name_H-M   'P 1'
_cell_length_a   7.89757836
_cell_length_b   5.97754406
_cell_length_c   5.63802340
_cell_angle_alpha   69.01736057
_cell_angle_beta   70.57015412
_cell_angle_gamma   68.43170253
_symmetry_Int_Tables_number   1
_chemical_formula_structural   Cu6NiC12
_chemical_formula_sum   'Cu6 Ni1 C12'
_cell_volume   224.83208718
_cell_formula_units_Z   1
loop_
 _symmetry_equiv_pos_site_id
 _symmetry_equiv_pos_as_xyz
  1  'x, y, z'
loop_
 _atom_site_type_symbol
 _atom_site_label
 _atom_site_symmetry_multiplicity
 _atom_site_fract_x
 _atom_site_fract_y
 _atom_site_fract_z
 _atom_site_occupancy
  Ni  Ni0  1  0.49580256  0.52347548  0.96306631  1
  Cu  Cu1  1  0.84433079  0.69797442  0.70413778  1
  Cu  Cu2  1  0.67596109  0.33768989  0.36948351  1
  Cu  Cu3  1  0.23479462  0.69065216  0.53190455  1
  Cu  Cu4  1  0.13889763  0.31179669  0.33870661  1
  Cu  Cu5  1  0.50008690  0.99715207  0.99501697  1
  Cu  Cu6  1  0.99742012  0.98147233  0.04735511  1
  C  C7  1  0.65425450  0.04257905  0.64923232  1
  C  C8  1  0.94641981  0.20518381  0.26026482  1
  C  C9  1  0.02420263  0.78356292  0.80665198  1
  C  C10  1  0.40144066  0.44830747  0.36417121  1
  C  C11  1  0.33046452  0.97007041  0.33343893  1
  C  C12  1  0.67287594  0.64785256  0.04574343  1
  C  C13  1  0.01939766  0.68977686  0.36144117  1
  C  C14  1  0.33635251  0.36700437  0.91331631  1
  C  C15  1  0.31528982  0.85801354  0.90433489  1
  C  C16  1  0.66624956  0.56131534  0.61032654  1
  C  C17  1  0.67469738  0.16311701  0.07007595  1
  C  C18  1  0.01748830  0.28252464  0.74323861  1
