# generated using pymatgen
data_CuNi5C31
_symmetry_space_group_name_H-M   'P 1'
_cell_length_a   8.52990019
_cell_length_b   8.51400604
_cell_length_c   21.89634202
_cell_angle_alpha   89.74289221
_cell_angle_beta   90.10290221
_cell_angle_gamma   119.96926468
_symmetry_Int_Tables_number   1
_chemical_formula_structural   CuNi5C31
_chemical_formula_sum   'Cu3 Ni15 C93'
_cell_volume   1377.55864017
_cell_formula_units_Z   3
loop_
 _symmetry_equiv_pos_site_id
 _symmetry_equiv_pos_as_xyz
  1  'x, y, z'
loop_
 _atom_site_type_symbol
 _atom_site_label
 _atom_site_symmetry_multiplicity
 _atom_site_fract_x
 _atom_site_fract_y
 _atom_site_fract_z
 _atom_site_occupancy
  C  C0  1  0.63641088  0.63665279  0.74664496  1
  C  C1  1  0.30336866  0.96890157  0.08620142  1
  C  C2  1  0.33421999  0.03167089  0.41166925  1
  C  C3  1  0.98493428  0.00029515  0.50076450  1
  C  C4  1  0.98909517  0.00023893  0.99953569  1
  C  C5  1  0.66650558  0.32123556  0.83003990  1
  C  C6  1  0.67081503  0.33735429  0.32702405  1
  C  C7  1  0.33361660  0.65995872  0.16804208  1
  C  C8  1  0.32222167  0.66222836  0.66059048  1
  C  C9  1  0.66842765  0.33434105  0.98021492  1
  C  C10  1  0.67835938  0.34291914  0.47836222  1
  C  C11  1  0.32786335  0.66610370  0.80975213  1
  C  C12  1  0.00166748  0.00146599  0.35254867  1
  C  C13  1  0.00085702  0.00190014  0.85312040  1
  C  C14  1  0.99504469  0.00140943  0.64706483  1
  C  C15  1  0.00170254  0.99875120  0.14802474  1
  C  C16  1  0.67412952  0.33746186  0.68670046  1
  C  C17  1  0.65840523  0.32644022  0.18488926  1
  C  C18  1  0.33404733  0.66248397  0.02095637  1
  C  C19  1  0.33417171  0.65758686  0.51809842  1
  C  C20  1  0.33413373  0.67265985  0.31349151  1
  Ni  Ni21  1  0.29001272  0.00003153  0.25012534  1
  Ni  Ni22  1  0.28380587  0.27081993  0.74802970  1
  Ni  Ni23  1  0.99386244  0.71890236  0.74762352  1
  Ni  Ni24  1  0.72638760  0.01552273  0.74884239  1
  Ni  Ni25  1  0.96441018  0.33647413  0.58712508  1
  Ni  Ni26  1  0.66550283  0.62961543  0.58746645  1
  Ni  Ni27  1  0.95781002  0.62220558  0.08879565  1
  Ni  Ni28  1  0.66983971  0.03770619  0.08764946  1
  Ni  Ni29  1  0.37384793  0.33940435  0.08763493  1
  Ni  Ni30  1  0.62626102  0.67917416  0.91807122  1
  Ni  Ni31  1  0.05160229  0.37257540  0.91944795  1
  Ni  Ni32  1  0.32088964  0.94879457  0.91959663  1
  Ni  Ni33  1  0.62195112  0.94034815  0.41576245  1
  Ni  Ni34  1  0.32303762  0.38296474  0.41408166  1
  Ni  Ni35  1  0.05875425  0.67448733  0.41437920  1
  Cu  Cu36  1  0.71311431  0.71276206  0.25023680  1
  Cu  Cu37  1  -0.00006752  0.28744439  0.24970160  1
  Cu  Cu38  1  0.37399252  0.04043319  0.58524822  1
  C  C39  1  0.20170268  0.02888835  0.30784121  1
  C  C40  1  0.82420349  0.79682335  0.30521161  1
  C  C41  1  0.96905472  0.17448390  0.30500841  1
  C  C42  1  0.20138474  0.16577520  0.80698547  1
  C  C43  1  0.96189487  0.79915029  0.80558147  1
  C  C44  1  0.83235778  0.03708365  0.80738041  1
  C  C45  1  0.79789869  0.96451715  0.69320153  1
  C  C46  1  0.16923241  0.19588321  0.69136738  1
  C  C47  1  0.02842086  0.83255483  0.69086017  1
  C  C48  1  0.79541531  0.82592960  0.19545524  1
  C  C49  1  0.02662269  0.20239707  0.19523567  1
  C  C50  1  0.17241955  0.97163999  0.19261723  1
  C  C51  1  0.86727599  0.36450927  0.64075090  1
  C  C52  1  0.49171673  0.13093065  0.63762243  1
  C  C53  1  0.63509385  0.50800987  0.64348604  1
  C  C54  1  0.86241183  0.49725119  0.14234576  1
  C  C55  1  0.62760124  0.12808438  0.14042663  1
  C  C56  1  0.49703481  0.36776694  0.14179914  1
  C  C57  1  0.45996433  0.29709562  0.02981612  1
  C  C58  1  0.83906404  0.53707329  0.02945446  1
  C  C59  1  0.70239736  0.15936613  0.02865903  1
  C  C60  1  0.45327731  0.14843030  0.52751160  1
  C  C61  1  0.69304714  0.53193000  0.52995973  1
  C  C62  1  0.84135186  0.30464994  0.52822141  1
  C  C63  1  0.53078175  0.69930539  0.97293306  1
  C  C64  1  0.16496102  0.46713529  0.97478601  1
  C  C65  1  0.30188617  0.83912115  0.97711279  1
  C  C66  1  0.53649295  0.83280780  0.47414268  1
  C  C67  1  0.29742764  0.46260452  0.47290865  1
  C  C68  1  0.17178637  0.70590488  0.47232064  1
  C  C69  1  0.13470604  0.63591368  0.35769454  1
  C  C70  1  0.49918030  0.86886643  0.35964765  1
  C  C71  1  0.36289372  0.50023064  0.35740909  1
  C  C72  1  0.13237495  0.49040625  0.86051195  1
  C  C73  1  0.35684535  0.86379572  0.86203905  1
  C  C74  1  0.51283034  0.64123941  0.85806827  1
  C  C75  1  0.02906095  0.83821335  0.40745912  1
  C  C76  1  0.81213311  0.96967423  0.40650743  1
  C  C77  1  0.16243287  0.18818590  0.40714707  1
  C  C78  1  0.03013319  0.18720382  0.90985239  1
  C  C79  1  0.15650775  0.96861506  0.90949956  1
  C  C80  1  0.81277640  0.84240503  0.90913408  1
  C  C81  1  0.97982249  0.16542660  0.59136226  1
  C  C82  1  0.19467227  0.02398431  0.59021197  1
  C  C83  1  0.83859479  0.81393692  0.59068244  1
  C  C84  1  0.97847880  0.81253595  0.09343902  1
  C  C85  1  0.83865324  0.02211716  0.09507111  1
  C  C86  1  0.18834697  0.16520844  0.09320697  1
  C  C87  1  0.69558528  0.17591965  0.74049133  1
  C  C88  1  0.47918219  0.30600377  0.74157682  1
  C  C89  1  0.82861077  0.52556980  0.74203929  1
  C  C90  1  0.69679393  0.53177852  0.24396755  1
  C  C91  1  0.83781426  0.30795392  0.24338481  1
  C  C92  1  0.48054616  0.17187337  0.24298708  1
  C  C93  1  0.64270310  0.50429257  0.92354064  1
  C  C94  1  0.86152230  0.35740968  0.92286428  1
  C  C95  1  0.49566684  0.13895730  0.92309500  1
  C  C96  1  0.63981111  0.13527219  0.42423668  1
  C  C97  1  0.49371331  0.35454425  0.42261081  1
  C  C98  1  0.86430875  0.50379617  0.42160651  1
  C  C99  1  0.35790637  0.50628329  0.07633289  1
  C  C100  1  0.14609511  0.64496593  0.07822081  1
  C  C101  1  0.49796561  0.85467077  0.07647845  1
  C  C102  1  0.35800137  0.86105207  0.57795621  1
  C  C103  1  0.49616351  0.64466480  0.57651186  1
  C  C104  1  0.14673009  0.50740068  0.57540687  1
  C  C105  1  0.30968443  0.82854733  0.25662835  1
  C  C106  1  0.53024852  0.69192733  0.25631596  1
  C  C107  1  0.16420831  0.46836593  0.25578717  1
  C  C108  1  0.31176106  0.47141767  0.75458975  1
  C  C109  1  0.16459385  0.69545416  0.75395286  1
  C  C110  1  0.53014802  0.83979087  0.75591667  1
