# generated using pymatgen
data_CuNiC10
_symmetry_space_group_name_H-M   'P 1'
_cell_length_a   6.29571500
_cell_length_b   8.58113163
_cell_length_c   10.35477455
_cell_angle_alpha   87.73958945
_cell_angle_beta   90.00000000
_cell_angle_gamma   90.00000000
_symmetry_Int_Tables_number   1
_chemical_formula_structural   CuNiC10
_chemical_formula_sum   'Cu4 Ni4 C40'
_cell_volume   558.97477414
_cell_formula_units_Z   4
loop_
 _symmetry_equiv_pos_site_id
 _symmetry_equiv_pos_as_xyz
  1  'x, y, z'
loop_
 _atom_site_type_symbol
 _atom_site_label
 _atom_site_symmetry_multiplicity
 _atom_site_fract_x
 _atom_site_fract_y
 _atom_site_fract_z
 _atom_site_occupancy
  C  C0  1  0.02070200  0.78663400  0.39031800  1
  C  C1  1  0.02070000  0.78663400  0.89031800  1
  C  C2  1  0.97929800  0.21336600  0.10968200  1
  C  C3  1  0.97929900  0.21336600  0.60968200  1
  C  C4  1  0.52070200  0.21336600  0.10968200  1
  C  C5  1  0.52070000  0.21336600  0.60968200  1
  C  C6  1  0.47929800  0.78663400  0.39031800  1
  C  C7  1  0.47929900  0.78663400  0.89031800  1
  C  C8  1  0.74999900  0.35176800  0.88670600  1
  C  C9  1  0.25000000  0.64823300  0.61329400  1
  C  C10  1  0.75000100  0.35178000  0.38671500  1
  C  C11  1  0.25000200  0.64822300  0.11329000  1
  Ni  Ni12  1  0.25000000  0.43203600  0.35386800  1
  Ni  Ni13  1  0.25000000  0.43203000  0.85386800  1
  Ni  Ni14  1  0.75000000  0.56796400  0.14613100  1
  Ni  Ni15  1  0.75000000  0.56796900  0.64613100  1
  Cu  Cu16  1  0.75000000  0.05489900  0.35959300  1
  Cu  Cu17  1  0.75000000  0.05489900  0.85959000  1
  Cu  Cu18  1  0.25000000  0.94510100  0.14040700  1
  Cu  Cu19  1  0.25000000  0.94510100  0.64040900  1
  C  C20  1  0.75000000  0.14072900  0.25393800  1
  C  C21  1  0.75000000  0.14073500  0.75394300  1
  C  C22  1  0.25000000  0.85927100  0.24606200  1
  C  C23  1  0.25000000  0.85926500  0.74605700  1
  C  C24  1  0.75000000  0.13525400  0.46764300  1
  C  C25  1  0.75000000  0.13525400  0.96764900  1
  C  C26  1  0.25000000  0.86474500  0.03235600  1
  C  C27  1  0.25000000  0.86474600  0.53235000  1
  C  C28  1  0.75000000  0.40152100  0.09480900  1
  C  C29  1  0.75000000  0.40151900  0.59480400  1
  C  C30  1  0.25000000  0.59847900  0.40519100  1
  C  C31  1  0.25000000  0.59848100  0.90519500  1
  C  C32  1  0.25000000  0.44496900  0.20212200  1
  C  C33  1  0.25000000  0.44497200  0.70212200  1
  C  C34  1  0.75000000  0.55503100  0.29787800  1
  C  C35  1  0.75000000  0.55502800  0.79787800  1
  C  C36  1  0.75000000  0.90723500  0.36623800  1
  C  C37  1  0.75000000  0.90723700  0.86625100  1
  C  C38  1  0.25000000  0.09276400  0.13376200  1
  C  C39  1  0.25000000  0.09276300  0.63374800  1
  C  C40  1  0.94337700  0.66450100  0.09771200  1
  C  C41  1  0.94338000  0.66449000  0.59771000  1
  C  C42  1  0.55662300  0.66450100  0.09771100  1
  C  C43  1  0.55662000  0.66449000  0.59771000  1
  C  C44  1  0.44337700  0.33549800  0.40228900  1
  C  C45  1  0.44338000  0.33550900  0.90229000  1
  C  C46  1  0.05662300  0.33549900  0.40228900  1
  C  C47  1  0.05662000  0.33550900  0.90229000  1
