# generated using pymatgen
data_Cu5NiC35
_symmetry_space_group_name_H-M   'P 1'
_cell_length_a   8.96109408
_cell_length_b   8.96351040
_cell_length_c   21.89249775
_cell_angle_alpha   90.16979700
_cell_angle_beta   89.68598368
_cell_angle_gamma   119.96921406
_symmetry_Int_Tables_number   1
_chemical_formula_structural   Cu5NiC35
_chemical_formula_sum   'Cu15 Ni3 C105'
_cell_volume   1523.32726355
_cell_formula_units_Z   3
loop_
 _symmetry_equiv_pos_site_id
 _symmetry_equiv_pos_as_xyz
  1  'x, y, z'
loop_
 _atom_site_type_symbol
 _atom_site_label
 _atom_site_symmetry_multiplicity
 _atom_site_fract_x
 _atom_site_fract_y
 _atom_site_fract_z
 _atom_site_occupancy
  C  C0  1  0.36085967  0.37039052  0.25304041  1
  C  C1  1  0.00897094  0.63807428  0.25257733  1
  C  C2  1  0.62852785  0.64125610  0.75095748  1
  C  C3  1  0.00863591  0.37190248  0.75238744  1
  C  C4  1  0.36063837  0.98680086  0.75301422  1
  C  C5  1  0.29450663  0.31871981  0.58333728  1
  C  C6  1  0.02631324  0.70620804  0.58531017  1
  C  C7  1  0.67849870  0.97085953  0.58756180  1
  C  C8  1  0.29345540  0.97375557  0.08583250  1
  C  C9  1  0.68124108  0.70582327  0.08420339  1
  C  C10  1  0.02853213  0.32380897  0.08602079  1
  C  C11  1  0.95915021  0.65561537  0.92069397  1
  C  C12  1  0.69411342  0.03611330  0.91917087  1
  C  C13  1  0.96379358  0.30541641  0.41865076  1
  C  C14  1  0.34642494  0.04080163  0.42032569  1
  C  C15  1  0.99543755  0.99056250  0.50325053  1
  C  C16  1  0.01045477  0.00425479  0.00303673  1
  C  C17  1  0.65507099  0.33371624  0.83910292  1
  C  C18  1  0.66474835  0.33417711  0.33777200  1
  C  C19  1  0.34526554  0.67918213  0.17272118  1
  C  C20  1  0.33733561  0.66957017  0.67089550  1
  C  C21  1  0.99454689  0.99497727  0.35104804  1
  C  C22  1  0.99925815  0.00597511  0.85085449  1
  C  C23  1  0.66309091  0.32172720  0.68424058  1
  C  C24  1  0.67316388  0.33160695  0.18437490  1
  C  C25  1  0.32635987  0.66379651  0.01769305  1
  C  C26  1  0.33856506  0.67397309  0.51727622  1
  C  C27  1  0.00068476  0.99782256  0.65201914  1
  C  C28  1  0.99906975  0.99510618  0.15259084  1
  C  C29  1  0.66148618  0.33750310  0.98479049  1
  C  C30  1  0.66182346  0.33778104  0.48402987  1
  C  C31  1  0.34024257  0.67223103  0.31817588  1
  C  C32  1  0.33929065  0.67086638  0.81905887  1
  Ni  Ni33  1  0.70511761  0.00062653  0.74753271  1
  Ni  Ni34  1  0.36928536  0.03613553  0.58013046  1
  Ni  Ni35  1  0.96227391  0.62896374  0.08066410  1
  Cu  Cu36  1  0.29654569  0.00180182  0.24932548  1
  Cu  Cu37  1  0.70532932  0.70538383  0.24782064  1
  Cu  Cu38  1  0.99442270  0.28855101  0.24871788  1
  Cu  Cu39  1  0.29369866  0.29195605  0.74837277  1
  Cu  Cu40  1  0.99675573  0.70488926  0.74959744  1
  Cu  Cu41  1  0.96169752  0.33675180  0.58070660  1
  Cu  Cu42  1  0.66347755  0.62243101  0.58275005  1
  Cu  Cu43  1  0.66462072  0.03998031  0.08080372  1
  Cu  Cu44  1  0.37664208  0.33635057  0.08348905  1
  Cu  Cu45  1  0.62738103  0.66696775  0.91486723  1
  Cu  Cu46  1  0.04332197  0.37089496  0.91442714  1
  Cu  Cu47  1  0.33170376  0.96261366  0.91569796  1
  Cu  Cu48  1  0.62994370  0.95838213  0.41508151  1
  Cu  Cu49  1  0.33180025  0.37267490  0.41412942  1
  Cu  Cu50  1  0.03919553  0.66761459  0.41481185  1
  C  C51  1  0.19945774  0.02910629  0.30615435  1
  C  C52  1  0.83243118  0.80587122  0.30289481  1
  C  C53  1  0.97310494  0.17264829  0.30620910  1
  C  C54  1  0.19851312  0.16576910  0.80381435  1
  C  C55  1  0.97130037  0.80047649  0.80651316  1
  C  C56  1  0.83772292  0.03423286  0.80775635  1
  C  C57  1  0.78693012  0.96689394  0.68793157  1
  C  C58  1  0.19015067  0.21841147  0.69028340  1
  C  C59  1  0.03352126  0.81309037  0.69214354  1
  C  C60  1  0.78101345  0.80461089  0.18924143  1
  C  C61  1  0.02557028  0.21187453  0.19135615  1
  C  C62  1  0.19007728  0.97288495  0.19165031  1
  C  C63  1  0.87105583  0.36696860  0.63875687  1
  C  C64  1  0.50273555  0.13389005  0.64071536  1
  C  C65  1  0.63342681  0.50628654  0.64125438  1
  C  C66  1  0.86401433  0.49496319  0.14090882  1
  C  C67  1  0.63271519  0.13471762  0.13679003  1
  C  C68  1  0.49489641  0.36665868  0.14144427  1
  C  C69  1  0.45152262  0.29495577  0.02829439  1
  C  C70  1  0.84823703  0.54749499  0.02109783  1
  C  C71  1  0.69517116  0.14559472  0.02304866  1
  C  C72  1  0.45114824  0.15145111  0.52076699  1
  C  C73  1  0.70116420  0.54453487  0.52759810  1
  C  C74  1  0.85323804  0.30751495  0.52410011  1
  C  C75  1  0.53470957  0.69499153  0.97203583  1
  C  C76  1  0.15912972  0.46663733  0.97233808  1
  C  C77  1  0.30420651  0.83721708  0.97256332  1
  C  C78  1  0.53914339  0.84272984  0.47404608  1
  C  C79  1  0.30443336  0.46551687  0.47152677  1
  C  C80  1  0.16408956  0.69926383  0.47173743  1
  C  C81  1  0.11816892  0.63824717  0.35718203  1
  C  C82  1  0.51225991  0.87713281  0.36109522  1
  C  C83  1  0.34935905  0.47314526  0.35604396  1
  C  C84  1  0.12238872  0.48043749  0.85785212  1
  C  C85  1  0.36054008  0.88414403  0.85798503  1
  C  C86  1  0.52819449  0.64730935  0.85667493  1
  C  C87  1  0.03427461  0.84052707  0.41110712  1
  C  C88  1  0.81145601  0.97175716  0.41055240  1
  C  C89  1  0.15814923  0.19005602  0.41220766  1
  C  C90  1  0.03078925  0.18965983  0.91243931  1
  C  C91  1  0.15910770  0.96531685  0.91346875  1
  C  C92  1  0.80992128  0.84054639  0.91290992  1
  C  C93  1  0.98668245  0.18076064  0.58751859  1
  C  C94  1  0.17784841  0.00776863  0.58814472  1
  C  C95  1  0.81644392  0.80625927  0.58790627  1
  C  C96  1  0.99260399  0.82143737  0.08782194  1
  C  C97  1  0.82173040  0.01754091  0.08923223  1
  C  C98  1  0.19173021  0.18529489  0.09055170  1
  C  C99  1  0.69897333  0.18486173  0.74516655  1
  C  C100  1  0.47502206  0.30421187  0.74616841  1
  C  C101  1  0.82516944  0.52756019  0.74672897  1
  C  C102  1  0.69917488  0.52528873  0.24705650  1
  C  C103  1  0.82660720  0.30365908  0.24589793  1
  C  C104  1  0.47269553  0.17433509  0.24635140  1
  C  C105  1  0.65879587  0.51471076  0.91974794  1
  C  C106  1  0.86008277  0.34328398  0.92055294  1
  C  C107  1  0.49314971  0.13822775  0.92367821  1
  C  C108  1  0.65921804  0.14175283  0.42153233  1
  C  C109  1  0.48387448  0.34144211  0.41872299  1
  C  C110  1  0.86277765  0.50811875  0.42322029  1
  C  C111  1  0.36992979  0.50875453  0.07817581  1
  C  C112  1  0.15409288  0.63744198  0.07713965  1
  C  C113  1  0.49569492  0.85891747  0.07848429  1
  C  C114  1  0.36152743  0.84531807  0.57694863  1
  C  C115  1  0.49111583  0.63021521  0.57783768  1
  C  C116  1  0.14239995  0.50628708  0.57807285  1
  C  C117  1  0.31208380  0.84043122  0.25673472  1
  C  C118  1  0.52125833  0.67212713  0.25549103  1
  C  C119  1  0.15107896  0.47186740  0.25487059  1
  C  C120  1  0.31618501  0.47195721  0.75650106  1
  C  C121  1  0.15056897  0.67515634  0.75675101  1
  C  C122  1  0.51260757  0.83809547  0.75422719  1
