# generated using pymatgen
data_CuNi11C70
_symmetry_space_group_name_H-M   'P 1'
_cell_length_a   17.91588593
_cell_length_b   8.94198322
_cell_length_c   22.25352154
_cell_angle_alpha   89.97985850
_cell_angle_beta   90.18075098
_cell_angle_gamma   120.00781500
_symmetry_Int_Tables_number   1
_chemical_formula_structural   CuNi11C70
_chemical_formula_sum   'Cu3 Ni33 C210'
_cell_volume   3087.19964219
_cell_formula_units_Z   3
loop_
 _symmetry_equiv_pos_site_id
 _symmetry_equiv_pos_as_xyz
  1  'x, y, z'
loop_
 _atom_site_type_symbol
 _atom_site_label
 _atom_site_symmetry_multiplicity
 _atom_site_fract_x
 _atom_site_fract_y
 _atom_site_fract_z
 _atom_site_occupancy
  C  C0  1  0.31936997  0.00035040  0.25002708  1
  C  C1  1  0.81919452  0.99977495  0.25002421  1
  C  C2  1  0.31848689  0.63587153  0.74949988  1
  C  C3  1  0.81616653  0.63177294  0.74970060  1
  C  C4  1  0.49891746  0.36638416  0.74952657  1
  C  C5  1  0.68402336  0.00047916  0.74960253  1
  C  C6  1  0.15122503  0.33453076  0.58216446  1
  C  C7  1  0.64883815  0.33083079  0.58497249  1
  C  C8  1  0.01868537  0.69992978  0.58359080  1
  C  C9  1  0.51511987  0.70034218  0.58419493  1
  C  C10  1  0.33246494  0.96117310  0.58357242  1
  C  C11  1  0.83374269  0.97159327  0.58437000  1
  C  C12  1  0.15131327  0.96967498  0.08311593  1
  C  C13  1  0.65011227  0.96814888  0.08339411  1
  C  C14  1  0.33279375  0.69795966  0.08416543  1
  C  C15  1  0.83292382  0.69659197  0.08463766  1
  C  C16  1  0.01687302  0.33449166  0.08442219  1
  C  C17  1  0.51577282  0.33466607  0.08431362  1
  C  C18  1  0.48266447  0.66541712  0.91645726  1
  C  C19  1  0.98557878  0.66682657  0.91548849  1
  C  C20  1  0.34920292  0.03172947  0.91624773  1
  C  C21  1  0.84871948  0.03214923  0.91560467  1
  C  C22  1  0.16799094  0.30393056  0.91778993  1
  C  C23  1  0.66464687  0.29939862  0.91529570  1
  C  C24  1  0.48224677  0.30184710  0.41655254  1
  C  C25  1  0.98538325  0.30384857  0.41567473  1
  C  C26  1  0.16774773  0.03471793  0.41796632  1
  C  C27  1  0.66534128  0.02823809  0.41665500  1
  C  C28  1  0.34823795  0.66346518  0.41682739  1
  C  C29  1  0.84942594  0.66540125  0.41536878  1
  C  C30  1  0.00074723  0.00029826  0.50004097  1
  C  C31  1  0.49976094  0.99924268  0.50109110  1
  C  C32  1  0.00071258  0.00126340  0.00013769  1
  C  C33  1  0.49995645  0.99984347  0.99886439  1
  C  C34  1  0.33223281  0.32746116  0.83323974  1
  C  C35  1  0.83678852  0.33429074  0.83202787  1
  C  C36  1  0.33650625  0.34396409  0.33377736  1
  C  C37  1  0.83690675  0.34474100  0.33251671  1
  C  C38  1  0.16475653  0.65546334  0.16755845  1
  C  C39  1  0.66437764  0.65546681  0.16763092  1
  C  C40  1  0.16452339  0.67343845  0.66624243  1
  C  C41  1  0.66671341  0.66664570  0.66652235  1
  C  C42  1  0.83932675  0.33662752  0.68878598  1
  C  C43  1  0.33883848  0.34737434  0.18817952  1
  C  C44  1  0.83873113  0.34733915  0.18849936  1
  C  C45  1  0.83296516  0.33353571  0.98294358  1
  C  C46  1  0.83399844  0.33271472  0.48281623  1
  C  C47  1  0.16696890  0.66594551  0.01687509  1
  C  C48  1  0.66588117  0.66585411  0.01747233  1
  C  C49  1  0.66472166  0.66489175  0.51747530  1
  C  C50  1  0.16644575  0.65273947  0.31323243  1
  C  C51  1  0.66354572  0.65273427  0.31216422  1
  C  C52  1  0.16645359  0.67915061  0.81320814  1
  C  C53  1  0.66507831  0.66488422  0.81241276  1
  Ni  Ni54  1  0.36062051  0.71941590  0.25022561  1
  Ni  Ni55  1  0.86028051  0.71940452  0.25060200  1
  Ni  Ni56  1  0.00161621  0.28134653  0.24984238  1
  Ni  Ni57  1  0.50084047  0.28018268  0.24970918  1
  Ni  Ni58  1  0.63959342  0.27786398  0.74965993  1
  Ni  Ni59  1  0.00298983  0.72411664  0.74978466  1
  Ni  Ni60  1  0.49535998  0.71189453  0.74764129  1
  Ni  Ni61  1  0.35772695  0.00540126  0.74733946  1
  Ni  Ni62  1  0.86197204  0.00310899  0.75016455  1
  Ni  Ni63  1  0.47481652  0.32707171  0.58371766  1
  Ni  Ni64  1  0.98547319  0.33451091  0.58351257  1
  Ni  Ni65  1  0.19051694  0.04751126  0.58383467  1
  Ni  Ni66  1  0.68256850  0.03901735  0.58603848  1
  Ni  Ni67  1  0.33281326  0.61786341  0.58404156  1
  Ni  Ni68  1  0.83469986  0.63075592  0.58533041  1
  Ni  Ni69  1  0.47788753  0.62833291  0.08243765  1
  Ni  Ni70  1  0.98224265  0.63656629  0.08507964  1
  Ni  Ni71  1  0.33356105  0.04757981  0.08348974  1
  Ni  Ni72  1  0.83418119  0.03956709  0.08625947  1
  Ni  Ni73  1  0.18716910  0.32756489  0.08343953  1
  Ni  Ni74  1  0.68265009  0.32572774  0.08615887  1
  Ni  Ni75  1  0.31634996  0.66576439  0.91510478  1
  Ni  Ni76  1  0.81555004  0.66930008  0.91522722  1
  Ni  Ni77  1  0.01954634  0.36598013  0.91383869  1
  Ni  Ni78  1  0.51517592  0.36428923  0.91624685  1
  Ni  Ni79  1  0.16689904  0.96984735  0.91712030  1
  Ni  Ni80  1  0.66320223  0.96245555  0.91432937  1
  Ni  Ni81  1  0.30990689  0.95897312  0.41866782  1
  Ni  Ni82  1  0.81429221  0.95969284  0.41408038  1
  Ni  Ni83  1  0.16722979  0.37175854  0.41970669  1
  Ni  Ni84  1  0.66337439  0.36308066  0.41507683  1
  Ni  Ni85  1  0.02390623  0.67321456  0.41653298  1
  Ni  Ni86  1  0.51590072  0.66662650  0.41569211  1
  C  C87  1  0.99323233  0.99662892  0.35520406  1
  C  C88  1  0.48972428  0.99486341  0.35588742  1
  C  C89  1  0.99357342  0.98954108  0.85476735  1
  C  C90  1  0.49755436  0.99819460  0.85088718  1
  C  C91  1  0.99651768  0.98778198  0.64528277  1
  C  C92  1  0.49830817  0.99851590  0.64773340  1
  C  C93  1  0.99474084  0.00404538  0.14533042  1
  C  C94  1  0.49275131  0.00370657  0.14432230  1
  C  C95  1  0.33793637  0.32963983  0.68160130  1
  C  C96  1  0.33300063  0.33451504  0.98196020  1
  C  C97  1  0.33246616  0.33264199  0.48255172  1
  C  C98  1  0.16714004  0.66716257  0.51840227  1
  Cu  Cu99  1  0.14212450  0.99975796  0.25020747  1
  Cu  Cu100  1  0.64195581  0.00015176  0.24999262  1
  Cu  Cu101  1  0.14477909  0.28511322  0.74928723  1
  C  C102  1  0.10386169  0.02707842  0.30526925  1
  C  C103  1  0.60390972  0.02656340  0.30502613  1
  C  C104  1  0.41847274  0.80606555  0.31117605  1
  C  C105  1  0.91906147  0.80614744  0.31151079  1
  C  C106  1  0.48333740  0.15925391  0.31025852  1
  C  C107  1  0.98417683  0.15978453  0.31028976  1
  C  C108  1  0.10590491  0.18173783  0.80441503  1
  C  C109  1  0.59704564  0.15852314  0.80988270  1
  C  C110  1  0.47854304  0.79566455  0.80841241  1
  C  C111  1  0.98416567  0.80852968  0.81003207  1
  C  C112  1  0.41803157  0.04313712  0.80820265  1
  C  C113  1  0.91903764  0.03094993  0.81105449  1
  C  C114  1  0.40105807  0.96575615  0.68887110  1
  C  C115  1  0.90394700  0.96666752  0.68990265  1
  C  C116  1  0.09121066  0.20830830  0.69431083  1
  C  C117  1  0.57929317  0.19589588  0.68947034  1
  C  C118  1  0.01671107  0.83900100  0.68877025  1
  C  C119  1  0.51700226  0.83763701  0.68917187  1
  C  C120  1  0.40355562  0.84004892  0.18960086  1
  C  C121  1  0.90365151  0.84003144  0.19015721  1
  C  C122  1  0.01629193  0.19470401  0.18881847  1
  C  C123  1  0.51564899  0.19386375  0.18887365  1
  C  C124  1  0.09026627  0.97287178  0.19498031  1
  C  C125  1  0.59033426  0.97306478  0.19474135  1
  C  C126  1  0.43591013  0.37370005  0.64293347  1
  C  C127  1  0.94100527  0.37737194  0.63900871  1
  C  C128  1  0.25499465  0.13662608  0.64157539  1
  C  C129  1  0.74698867  0.12540245  0.64297960  1
  C  C130  1  0.31290199  0.49165692  0.64367137  1
  C  C131  1  0.81508327  0.50683774  0.64299552  1
  C  C132  1  0.43724229  0.50125478  0.13940601  1
  C  C133  1  0.93774815  0.50294506  0.14000307  1
  C  C134  1  0.31413255  0.12496862  0.14313169  1
  C  C135  1  0.81432657  0.12337926  0.14394498  1
  C  C136  1  0.25002325  0.36788910  0.14030488  1
  C  C137  1  0.74903000  0.36701450  0.14100328  1
  C  C138  1  0.22997889  0.29082039  0.02325959  1
  C  C139  1  0.72270632  0.28767272  0.02553990  1
  C  C140  1  0.41523252  0.54099276  0.02317050  1
  C  C141  1  0.92124843  0.55670746  0.02531705  1
  C  C142  1  0.35332105  0.17217583  0.02398177  1
  C  C143  1  0.85455852  0.15951073  0.02627971  1
  C  C144  1  0.23102040  0.17011235  0.52404583  1
  C  C145  1  0.72447888  0.15870472  0.52607099  1
  C  C146  1  0.35293278  0.53392920  0.52465609  1
  C  C147  1  0.85467372  0.55068515  0.52564650  1
  C  C148  1  0.41351907  0.29223095  0.52434733  1
  C  C149  1  0.92258075  0.28750443  0.52483682  1
  C  C150  1  0.27542953  0.70872135  0.97383794  1
  C  C151  1  0.77513536  0.70992701  0.97433056  1
  C  C152  1  0.07845669  0.44521570  0.97460207  1
  C  C153  1  0.57855987  0.44821833  0.97444215  1
  C  C154  1  0.14378247  0.84335677  0.97533726  1
  C  C155  1  0.64526087  0.84167198  0.97388349  1
  C  C156  1  0.26749379  0.82860311  0.47692353  1
  C  C157  1  0.77387710  0.83888440  0.47379448  1
  C  C158  1  0.14566549  0.45940431  0.47740341  1
  C  C159  1  0.64303773  0.44356299  0.47484738  1
  C  C160  1  0.08505018  0.70936439  0.47714986  1
  C  C161  1  0.57776833  0.71065361  0.47503868  1
  C  C162  1  0.06672751  0.63220760  0.35998754  1
  C  C163  1  0.56172233  0.62654440  0.36034085  1
  C  C164  1  0.25217779  0.88119716  0.35837931  1
  C  C165  1  0.75228402  0.87628804  0.35619663  1
  C  C166  1  0.18925810  0.49782400  0.36198287  1
  C  C167  1  0.68587916  0.49712847  0.36015047  1
  C  C168  1  0.06548653  0.49909029  0.85911657  1
  C  C169  1  0.55822162  0.49141236  0.85841741  1
  C  C170  1  0.18887711  0.88165740  0.86116699  1
  C  C171  1  0.68441968  0.87673301  0.85709721  1
  C  C172  1  0.25308342  0.62324750  0.85719637  1
  C  C173  1  0.75337883  0.63043414  0.85729640  1
  C  C174  1  0.01496329  0.84893688  0.40916196  1
  C  C175  1  0.50982021  0.84480026  0.40759181  1
  C  C176  1  0.40655504  0.97653186  0.41282663  1
  C  C177  1  0.91080814  0.97736247  0.41057598  1
  C  C178  1  0.08037174  0.17988790  0.40889971  1
  C  C179  1  0.57641501  0.17136144  0.40611639  1
  C  C180  1  0.01283021  0.17569810  0.90676693  1
  C  C181  1  0.50869321  0.17527844  0.90857255  1
  C  C182  1  0.07993379  0.98555924  0.90632009  1
  C  C183  1  0.57574962  0.97670879  0.90799172  1
  C  C184  1  0.41103024  0.84204777  0.90781298  1
  C  C185  1  0.91132942  0.84408259  0.91060234  1
  C  C186  1  0.48452546  0.15406053  0.59003836  1
  C  C187  1  0.99381857  0.15971264  0.59369275  1
  C  C188  1  0.09369900  0.02804185  0.59175935  1
  C  C189  1  0.58680962  0.02261558  0.59118083  1
  C  C190  1  0.41899460  0.81163105  0.59076785  1
  C  C191  1  0.92298324  0.82335300  0.58935999  1
  C  C192  1  0.48792420  0.82141082  0.09165195  1
  C  C193  1  0.99094702  0.82766720  0.09421184  1
  C  C194  1  0.42078636  0.02753988  0.08775696  1
  C  C195  1  0.92213285  0.02341652  0.08969396  1
  C  C196  1  0.09067686  0.15281734  0.09065283  1
  C  C197  1  0.58716656  0.14889065  0.09291409  1
  C  C198  1  0.34941715  0.18261530  0.74101580  1
  C  C199  1  0.84558341  0.16585820  0.74754694  1
  C  C200  1  0.23271372  0.30703369  0.74472476  1
  C  C201  1  0.73621116  0.30218493  0.74655118  1
  C  C202  1  0.40781594  0.51559032  0.74177775  1
  C  C203  1  0.91398515  0.53663518  0.74669523  1
  C  C204  1  0.34700782  0.52640185  0.24794703  1
  C  C205  1  0.84696259  0.52621826  0.24801237  1
  C  C206  1  0.41134385  0.28845843  0.24705699  1
  C  C207  1  0.91177184  0.28850981  0.24703031  1
  C  C208  1  0.23020597  0.15353438  0.24596148  1
  C  C209  1  0.73049743  0.15355003  0.24579309  1
  C  C210  1  0.32354526  0.49045967  0.92460096  1
  C  C211  1  0.82486749  0.49875029  0.92079510  1
  C  C212  1  0.42111414  0.35209308  0.92486285  1
  C  C213  1  0.92513516  0.34852377  0.92112662  1
  C  C214  1  0.25467277  0.15819519  0.92490463  1
  C  C215  1  0.75010904  0.15026729  0.92105089  1
  C  C216  1  0.32194720  0.15336209  0.42646410  1
  C  C217  1  0.82491772  0.15044647  0.42060330  1
  C  C218  1  0.25384628  0.35346466  0.42664747  1
  C  C219  1  0.74987514  0.34809084  0.42121561  1
  C  C220  1  0.42118559  0.49149107  0.42473221  1
  C  C221  1  0.92799664  0.50399283  0.42293265  1
  C  C222  1  0.17641935  0.49796996  0.07731949  1
  C  C223  1  0.67417570  0.49778321  0.07920772  1
  C  C224  1  0.07600888  0.65143331  0.07898949  1
  C  C225  1  0.57313376  0.64894505  0.07698803  1
  C  C226  1  0.25030535  0.85410844  0.07720641  1
  C  C227  1  0.74937312  0.84904110  0.07940654  1
  C  C228  1  0.17990041  0.85309748  0.57622538  1
  C  C229  1  0.67485851  0.85015198  0.57920993  1
  C  C230  1  0.24670678  0.63989291  0.57632009  1
  C  C231  1  0.74921291  0.64971024  0.57903858  1
  C  C232  1  0.07991068  0.51146439  0.57513552  1
  C  C233  1  0.57034303  0.49832516  0.57876335  1
  C  C234  1  0.15360866  0.84604668  0.25451811  1
  C  C235  1  0.65352517  0.84609681  0.25419878  1
  C  C236  1  0.26723256  0.71228500  0.25354907  1
  C  C237  1  0.76649018  0.71088888  0.25369236  1
  C  C238  1  0.08466326  0.47473171  0.25301061  1
  C  C239  1  0.58371722  0.47358856  0.25219836  1
  C  C240  1  0.15543493  0.46186821  0.75384286  1
  C  C241  1  0.65019944  0.47095236  0.75328955  1
  C  C242  1  0.08568411  0.69639787  0.75307796  1
  C  C243  1  0.58095794  0.69059648  0.75278717  1
  C  C244  1  0.26533780  0.82660278  0.75302051  1
  C  C245  1  0.76510054  0.82935954  0.75351731  1
