# generated using pymatgen
data_Cu4NiC14
_symmetry_space_group_name_H-M   'P 1'
_cell_length_a   9.85163100
_cell_length_b   9.85163100
_cell_length_c   4.72747200
_cell_angle_alpha   90.00000000
_cell_angle_beta   90.00000000
_cell_angle_gamma   90.00000000
_symmetry_Int_Tables_number   1
_chemical_formula_structural   Cu4NiC14
_chemical_formula_sum   'Cu8 Ni2 C28'
_cell_volume   458.82306168
_cell_formula_units_Z   2
loop_
 _symmetry_equiv_pos_site_id
 _symmetry_equiv_pos_as_xyz
  1  'x, y, z'
loop_
 _atom_site_type_symbol
 _atom_site_label
 _atom_site_symmetry_multiplicity
 _atom_site_fract_x
 _atom_site_fract_y
 _atom_site_fract_z
 _atom_site_occupancy
  C  C0  1  0.75000000  0.25000000  0.50000000  1
  C  C1  1  0.25000000  0.25000000  0.50000000  1
  C  C2  1  0.25000000  0.75000000  0.50000000  1
  C  C3  1  0.75000000  0.75000000  0.50000000  1
  Ni  Ni4  1  0.00000000  0.00000000  0.50000000  1
  Ni  Ni5  1  0.50000000  0.50000000  0.50000000  1
  Cu  Cu6  1  0.78930500  0.50000000  0.00000000  1
  Cu  Cu7  1  0.00000000  0.28930500  0.00000000  1
  Cu  Cu8  1  0.00000000  0.71069500  0.00000000  1
  Cu  Cu9  1  0.21069500  0.50000000  0.00000000  1
  Cu  Cu10  1  0.28930500  0.00000000  0.00000000  1
  Cu  Cu11  1  0.50000000  0.78930500  0.00000000  1
  Cu  Cu12  1  0.50000000  0.21069500  0.00000000  1
  Cu  Cu13  1  0.71069500  0.00000000  0.00000000  1
  C  C14  1  0.78439300  0.07234800  0.23351000  1
  C  C15  1  0.78439300  0.92765200  0.76649000  1
  C  C16  1  0.89281500  0.60718500  0.84661100  1
  C  C17  1  0.89281500  0.39281500  0.15338900  1
  C  C18  1  0.92765200  0.21560700  0.76649000  1
  C  C19  1  0.92765200  0.78439300  0.23351000  1
  C  C20  1  0.07234800  0.78439300  0.76649000  1
  C  C21  1  0.07234800  0.21560700  0.23351000  1
  C  C22  1  0.10718500  0.39281500  0.84661100  1
  C  C23  1  0.10718500  0.60718500  0.15338900  1
  C  C24  1  0.21560700  0.92765200  0.23351000  1
  C  C25  1  0.21560700  0.07234800  0.76649000  1
  C  C26  1  0.28439300  0.42765200  0.23351000  1
  C  C27  1  0.28439300  0.57234800  0.76649000  1
  C  C28  1  0.39281500  0.89281500  0.84661100  1
  C  C29  1  0.39281500  0.10718500  0.15338900  1
  C  C30  1  0.42765200  0.28439300  0.76649000  1
  C  C31  1  0.42765200  0.71560700  0.23351000  1
  C  C32  1  0.57234800  0.28439300  0.23351000  1
  C  C33  1  0.57234800  0.71560700  0.76649000  1
  C  C34  1  0.60718500  0.10718500  0.84661100  1
  C  C35  1  0.60718500  0.89281500  0.15338900  1
  C  C36  1  0.71560700  0.57234800  0.23351000  1
  C  C37  1  0.71560700  0.42765200  0.76649000  1
