# generated using pymatgen
data_Cu3NiC2
_symmetry_space_group_name_H-M   'P 1'
_cell_length_a   6.86236900
_cell_length_b   7.23855000
_cell_length_c   8.71198300
_cell_angle_alpha   90.00000000
_cell_angle_beta   90.00000000
_cell_angle_gamma   90.00000000
_symmetry_Int_Tables_number   1
_chemical_formula_structural   Cu3NiC2
_chemical_formula_sum   'Cu12 Ni4 C8'
_cell_volume   432.75556855
_cell_formula_units_Z   4
loop_
 _symmetry_equiv_pos_site_id
 _symmetry_equiv_pos_as_xyz
  1  'x, y, z'
loop_
 _atom_site_type_symbol
 _atom_site_label
 _atom_site_symmetry_multiplicity
 _atom_site_fract_x
 _atom_site_fract_y
 _atom_site_fract_z
 _atom_site_occupancy
  C  C0  1  0.25000000  0.59989400  0.96077600  1
  C  C1  1  0.75000000  0.40010600  0.03922400  1
  C  C2  1  0.25000000  0.09989400  0.53922400  1
  C  C3  1  0.75000000  0.90010600  0.46077600  1
  C  C4  1  0.25000000  0.70864800  0.36557100  1
  C  C5  1  0.25000000  0.20864800  0.13442900  1
  C  C6  1  0.75000000  0.79135200  0.86557100  1
  C  C7  1  0.75000000  0.29135200  0.63442900  1
  Ni  Ni8  1  0.25000000  0.93547200  0.81555700  1
  Ni  Ni9  1  0.75000000  0.56452800  0.31555700  1
  Ni  Ni10  1  0.75000000  0.06452800  0.18444300  1
  Ni  Ni11  1  0.25000000  0.43547200  0.68444300  1
  Cu  Cu12  1  0.92950400  0.13869400  0.56774100  1
  Cu  Cu13  1  0.42950400  0.86130600  0.43225900  1
  Cu  Cu14  1  0.57049600  0.63869400  0.93225900  1
  Cu  Cu15  1  0.07049600  0.36130600  0.06774100  1
  Cu  Cu16  1  0.07049600  0.86130600  0.43225900  1
  Cu  Cu17  1  0.57049600  0.13869400  0.56774100  1
  Cu  Cu18  1  0.42950400  0.36130600  0.06774100  1
  Cu  Cu19  1  0.75000000  0.74920000  0.67374200  1
  Cu  Cu20  1  0.25000000  0.75080000  0.17374200  1
  Cu  Cu21  1  0.75000000  0.24920000  0.82625800  1
  Cu  Cu22  1  0.25000000  0.25080000  0.32625800  1
  Cu  Cu23  1  0.92950400  0.63869400  0.93225900  1
