# generated using pymatgen
data_CuNiC2
_symmetry_space_group_name_H-M   'P 1'
_cell_length_a   6.82371647
_cell_length_b   6.82371647
_cell_length_c   8.50114692
_cell_angle_alpha   57.14145589
_cell_angle_beta   57.14145589
_cell_angle_gamma   59.84545079
_symmetry_Int_Tables_number   1
_chemical_formula_structural   CuNiC2
_chemical_formula_sum   'Cu6 Ni6 C12'
_cell_volume   266.90756395
_cell_formula_units_Z   6
loop_
 _symmetry_equiv_pos_site_id
 _symmetry_equiv_pos_as_xyz
  1  'x, y, z'
loop_
 _atom_site_type_symbol
 _atom_site_label
 _atom_site_symmetry_multiplicity
 _atom_site_fract_x
 _atom_site_fract_y
 _atom_site_fract_z
 _atom_site_occupancy
  C  C0  1  0.18448400  0.45548400  0.26345100  1
  C  C1  1  0.88826100  0.11173900  0.25000000  1
  C  C2  1  0.45548400  0.18448400  0.76345100  1
  C  C3  1  0.81551600  0.54451600  0.73654900  1
  C  C4  1  0.54451600  0.81551600  0.23654900  1
  C  C5  1  0.11173900  0.88826100  0.75000000  1
  Ni  Ni6  1  0.74991600  0.46380400  0.24249800  1
  Ni  Ni7  1  0.46380400  0.74991600  0.74249800  1
  Ni  Ni8  1  0.66968200  0.33031800  0.75000000  1
  Ni  Ni9  1  0.33031800  0.66968200  0.25000000  1
  Ni  Ni10  1  0.53619600  0.25008400  0.25750200  1
  Ni  Ni11  1  0.25008400  0.53619600  0.75750200  1
  Cu  Cu12  1  0.54213100  0.66207500  0.24167700  1
  Cu  Cu13  1  0.26349500  0.73650500  0.75000000  1
  Cu  Cu14  1  0.73650500  0.26349500  0.25000000  1
  Cu  Cu15  1  0.45786900  0.33792500  0.75832300  1
  Cu  Cu16  1  0.66207500  0.54213100  0.74167700  1
  Cu  Cu17  1  0.33792500  0.45786900  0.25832300  1
  C  C18  1  0.53390700  0.06755400  0.26229000  1
  C  C19  1  0.93244600  0.46609300  0.23771000  1
  C  C20  1  0.46609300  0.93244600  0.73771000  1
  C  C21  1  0.06755400  0.53390700  0.76229000  1
  C  C22  1  0.14978400  0.85021600  0.25000000  1
  C  C23  1  0.85021600  0.14978400  0.75000000  1
