# generated using pymatgen
data_Cu2Ni2C9
_symmetry_space_group_name_H-M   'P 1'
_cell_length_a   5.40032150
_cell_length_b   5.40032120
_cell_length_c   6.89505097
_cell_angle_alpha   86.71392211
_cell_angle_beta   93.28608080
_cell_angle_gamma   111.50816034
_symmetry_Int_Tables_number   1
_chemical_formula_structural   Cu2Ni2C9
_chemical_formula_sum   'Cu2 Ni2 C9'
_cell_volume   186.63089670
_cell_formula_units_Z   1
loop_
 _symmetry_equiv_pos_site_id
 _symmetry_equiv_pos_as_xyz
  1  'x, y, z'
loop_
 _atom_site_type_symbol
 _atom_site_label
 _atom_site_symmetry_multiplicity
 _atom_site_fract_x
 _atom_site_fract_y
 _atom_site_fract_z
 _atom_site_occupancy
  C  C0  1  0.50000000  0.50000000  0.50000000  1
  Ni  Ni1  1  0.64808100  0.35191900  0.20902300  1
  Ni  Ni2  1  0.35191900  0.64808100  0.79097700  1
  Cu  Cu3  1  0.00000000  0.00000000  0.50000000  1
  Cu  Cu4  1  0.00000000  0.00000000  0.00000000  1
  C  C5  1  0.69708400  0.75012700  0.74405300  1
  C  C6  1  0.30291600  0.24987300  0.25594700  1
  C  C7  1  0.75012700  0.69708400  0.25594700  1
  C  C8  1  0.24987300  0.30291600  0.74405300  1
  C  C9  1  0.24318400  0.75681600  0.97507700  1
  C  C10  1  0.74748100  0.25251900  0.43489100  1
  C  C11  1  0.75681600  0.24318400  0.02492300  1
  C  C12  1  0.25251900  0.74748100  0.56510900  1
