# generated using pymatgen
data_Cu6NiC12
_symmetry_space_group_name_H-M   'P 1'
_cell_length_a   5.16245824
_cell_length_b   7.44104095
_cell_length_c   5.70147167
_cell_angle_alpha   98.77303468
_cell_angle_beta   97.50728815
_cell_angle_gamma   85.20976257
_symmetry_Int_Tables_number   1
_chemical_formula_structural   Cu6NiC12
_chemical_formula_sum   'Cu6 Ni1 C12'
_cell_volume   214.14658486
_cell_formula_units_Z   1
loop_
 _symmetry_equiv_pos_site_id
 _symmetry_equiv_pos_as_xyz
  1  'x, y, z'
loop_
 _atom_site_type_symbol
 _atom_site_label
 _atom_site_symmetry_multiplicity
 _atom_site_fract_x
 _atom_site_fract_y
 _atom_site_fract_z
 _atom_site_occupancy
  Ni  Ni0  1  0.50402153  0.49683420  0.49668374  1
  Cu  Cu1  1  0.55917932  0.68682746  0.10151936  1
  Cu  Cu2  1  0.55032223  0.01010943  0.47178544  1
  Cu  Cu3  1  0.41632600  0.29525622  0.88405252  1
  Cu  Cu4  1  -0.00022204  0.67231973  0.67702523  1
  Cu  Cu5  1  0.98662138  0.31454125  0.32843433  1
  Cu  Cu6  1  0.98625266  0.99220431  0.00669549  1
  C  C7  1  0.87212106  0.44125319  0.62635300  1
  C  C8  1  0.85682369  0.76008062  0.97773788  1
  C  C9  1  0.83666964  0.08039046  0.29243735  1
  C  C10  1  0.65098912  0.08370354  0.80272794  1
  C  C11  1  0.67333744  0.75074205  0.46776746  1
  C  C12  1  0.63530173  0.42783158  0.16172618  1
  C  C13  1  0.34743807  0.56373937  0.81681967  1
  C  C14  1  0.34677986  0.24521006  0.51558525  1
  C  C15  1  0.34633643  0.90598020  0.19214041  1
  C  C16  1  0.13071879  0.22214064  0.02572348  1
  C  C17  1  0.13066951  0.90003024  0.72598624  1
  C  C18  1  0.15642557  0.57044745  0.34546704  1
