# generated using pymatgen
data_Cu5Ni7C66
_symmetry_space_group_name_H-M   'P 1'
_cell_length_a   18.47516240
_cell_length_b   9.33079393
_cell_length_c   22.57435697
_cell_angle_alpha   89.83055885
_cell_angle_beta   90.47740485
_cell_angle_gamma   120.30311463
_symmetry_Int_Tables_number   1
_chemical_formula_structural   Cu5Ni7C66
_chemical_formula_sum   'Cu15 Ni21 C198'
_cell_volume   3359.71726952
_cell_formula_units_Z   3
loop_
 _symmetry_equiv_pos_site_id
 _symmetry_equiv_pos_as_xyz
  1  'x, y, z'
loop_
 _atom_site_type_symbol
 _atom_site_label
 _atom_site_symmetry_multiplicity
 _atom_site_fract_x
 _atom_site_fract_y
 _atom_site_fract_z
 _atom_site_occupancy
  C  C0  1  0.32452199  0.03206880  0.25202440  1
  C  C1  1  0.82125238  0.02711574  0.23941667  1
  C  C2  1  0.16770844  0.31379837  0.25769917  1
  C  C3  1  0.66929146  0.31937970  0.25766994  1
  C  C4  1  0.82914000  0.62476444  0.74939023  1
  C  C5  1  0.49996716  0.35802063  0.73669057  1
  C  C6  1  0.17276729  0.01953645  0.75722065  1
  C  C7  1  0.66519680  0.02445713  0.75865988  1
  C  C8  1  0.66573298  0.96647800  0.06887777  1
  C  C9  1  0.83440344  0.69517574  0.06929652  1
  C  C10  1  0.00435271  0.35346247  0.08664237  1
  C  C11  1  0.50042475  0.70600249  0.90876942  1
  C  C12  1  0.00077229  0.70125817  0.90955134  1
  C  C13  1  0.16384416  0.30925185  0.90348417  1
  C  C14  1  0.50523474  0.30089730  0.41148015  1
  C  C15  1  0.00452197  0.29919731  0.41196345  1
  C  C16  1  0.16457237  0.02086757  0.40428109  1
  C  C17  1  0.66326556  0.01879837  0.40291964  1
  C  C18  1  0.98545292  0.00736392  0.49777677  1
  C  C19  1  0.48673650  0.00929152  0.49814578  1
  C  C20  1  0.00014323  0.97427880  0.99133212  1
  C  C21  1  0.49210762  0.98635271  0.99158993  1
  C  C22  1  0.33848229  0.39056348  0.81933596  1
  C  C23  1  0.83434191  0.35388355  0.82867233  1
  C  C24  1  0.34742894  0.34434588  0.32317465  1
  C  C25  1  0.84733218  0.34226257  0.32287532  1
  C  C26  1  0.14457124  0.69046463  0.16758766  1
  C  C27  1  0.64060156  0.66507476  0.16280047  1
  C  C28  1  0.13571018  0.59637241  0.66762966  1
  C  C29  1  0.64926947  0.63553129  0.66213677  1
  C  C30  1  0.99749270  0.99593155  0.35292022  1
  C  C31  1  0.49543329  0.99478802  0.35384460  1
  C  C32  1  0.99672348  0.99962632  0.85141897  1
  C  C33  1  0.49896758  0.99690706  0.85319154  1
  C  C34  1  0.33701400  0.34827371  0.68231857  1
  C  C35  1  0.84001976  0.33877626  0.68338978  1
  C  C36  1  0.33908942  0.34030635  0.18257206  1
  C  C37  1  0.83526691  0.33298931  0.18483016  1
  C  C38  1  0.17225878  0.68711506  0.02059145  1
  C  C39  1  0.66536697  0.66401415  0.01766610  1
  C  C40  1  0.16631480  0.65421650  0.52318256  1
  C  C41  1  0.66584954  0.65146589  0.52270058  1
  C  C42  1  0.00943723  0.01711554  0.64837242  1
  C  C43  1  0.50657745  0.01106753  0.64728756  1
  C  C44  1  0.00764387  0.00571386  0.14567173  1
  C  C45  1  0.50540577  0.99736840  0.14966395  1
  C  C46  1  0.33588254  0.34592542  0.97719302  1
  C  C47  1  0.83864550  0.33721781  0.97887493  1
  C  C48  1  0.33446146  0.32647252  0.48077562  1
  C  C49  1  0.83411870  0.32324892  0.48038231  1
  C  C50  1  0.17086011  0.66661593  0.31366936  1
  C  C51  1  0.67116899  0.66655241  0.31305871  1
  C  C52  1  0.17454603  0.67930043  0.81156340  1
  C  C53  1  0.67204498  0.67674776  0.81598312  1
  Ni  Ni54  1  0.14678174  0.98594520  0.25479179  1
  Ni  Ni55  1  0.64647296  0.98377331  0.25645816  1
  Ni  Ni56  1  0.00896670  0.30709194  0.25278112  1
  Ni  Ni57  1  0.50651310  0.30434205  0.25342597  1
  Ni  Ni58  1  0.14855743  0.31198745  0.75569055  1
  Ni  Ni59  1  0.64830466  0.30982705  0.75260302  1
  Ni  Ni60  1  0.00709945  0.70933203  0.75301318  1
  Ni  Ni61  1  0.50694757  0.70816978  0.75361075  1
  Ni  Ni62  1  0.47855471  0.31316436  0.58993283  1
  Ni  Ni63  1  0.98014861  0.31233508  0.58709252  1
  Ni  Ni64  1  0.47949610  0.64502676  0.08564188  1
  Ni  Ni65  1  0.98139024  0.64070814  0.08442758  1
  Ni  Ni66  1  0.83871617  0.03815129  0.08736834  1
  Ni  Ni67  1  0.31098191  0.65872481  0.92178337  1
  Ni  Ni68  1  0.81386592  0.65099443  0.92252052  1
  Ni  Ni69  1  0.17081563  0.96702795  0.91754871  1
  Ni  Ni70  1  0.67511434  0.97776072  0.92101447  1
  Ni  Ni71  1  0.31136510  0.96601409  0.42142650  1
  Ni  Ni72  1  0.81081483  0.96380995  0.42140518  1
  Ni  Ni73  1  0.17240178  0.37585901  0.41817608  1
  Ni  Ni74  1  0.67269778  0.37591800  0.41797655  1
  Cu  Cu75  1  0.34588642  0.71185974  0.24703347  1
  Cu  Cu76  1  0.84662730  0.71299867  0.24619102  1
  Cu  Cu77  1  0.34798552  0.98027887  0.74644039  1
  Cu  Cu78  1  0.84584748  0.98041571  0.74731975  1
  Cu  Cu79  1  0.18101161  0.04889700  0.58337733  1
  Cu  Cu80  1  0.67934825  0.04632596  0.58403875  1
  Cu  Cu81  1  0.34973172  0.64480114  0.58169205  1
  Cu  Cu82  1  0.84842019  0.64163935  0.58487900  1
  Cu  Cu83  1  0.34844137  0.05543999  0.08574363  1
  Cu  Cu84  1  0.18075663  0.31375838  0.08259584  1
  Cu  Cu85  1  0.67965756  0.31101186  0.08463014  1
  Cu  Cu86  1  0.01825027  0.38878962  0.91754618  1
  Cu  Cu87  1  0.51284166  0.38142215  0.91341280  1
  Cu  Cu88  1  0.01622932  0.64247037  0.41557773  1
  Cu  Cu89  1  0.51655813  0.64271934  0.41589764  1
  C  C90  1  0.10669835  -0.00001711  0.31437951  1
  C  C91  1  0.59958906  0.98590006  0.31396290  1
  C  C92  1  0.39276214  0.77027397  0.30186327  1
  C  C93  1  0.89507512  0.77537989  0.30023698  1
  C  C94  1  0.50121962  0.21184276  0.31418372  1
  C  C95  1  0.00644080  0.21433639  0.31267833  1
  C  C96  1  0.10456409  0.21903084  0.81467099  1
  C  C97  1  0.60068951  0.18807068  0.80464325  1
  C  C98  1  0.49862875  0.78133220  0.81474923  1
  C  C99  1  0.00227210  0.79454425  0.81279995  1
  C  C100  1  0.39599907  0.01526236  0.80022718  1
  C  C101  1  0.89389237  0.02194201  0.80190449  1
  C  C102  1  0.39530756  0.96645770  0.69442319  1
  C  C103  1  0.89399391  0.96604752  0.69620359  1
  C  C104  1  0.08143219  0.19433410  0.69705342  1
  C  C105  1  0.58274239  0.19865963  0.69139617  1
  C  C106  1  0.01595716  0.84702922  0.69630822  1
  C  C107  1  0.51492106  0.84640599  0.69797729  1
  C  C108  1  0.39599201  0.82071248  0.19542980  1
  C  C109  1  0.89367525  0.81788193  0.19316299  1
  C  C110  1  0.01919708  0.19402906  0.19465853  1
  C  C111  1  0.51422306  0.18218097  0.19763633  1
  C  C112  1  0.08199311  0.97520718  0.19707494  1
  C  C113  1  0.58305496  0.97257332  0.19629466  1
  C  C114  1  0.43353630  0.30378882  0.65029044  1
  C  C115  1  0.93081654  0.29995501  0.64486192  1
  C  C116  1  0.22561615  0.12117280  0.63850161  1
  C  C117  1  0.72009073  0.12018283  0.64013940  1
  C  C118  1  0.33961395  0.56152521  0.63802552  1
  C  C119  1  0.83911071  0.56330731  0.64298348  1
  C  C120  1  0.43403905  0.55667161  0.14435067  1
  C  C121  1  0.92708485  0.54122839  0.13931170  1
  C  C122  1  0.33885953  0.11606430  0.14347688  1
  C  C123  1  0.81956700  0.10631369  0.14629538  1
  C  C124  1  0.22335155  0.33248089  0.13854706  1
  C  C125  1  0.71953434  0.33151830  0.14243585  1
  C  C126  1  0.23110711  0.30592636  0.03113386  1
  C  C127  1  0.73038216  0.29305641  0.03590179  1
  C  C128  1  0.41725242  0.52709065  0.02545903  1
  C  C129  1  0.92066689  0.53708532  0.02315523  1
  C  C130  1  0.35331909  0.16982535  0.03669487  1
  C  C131  1  0.85242132  0.18385350  0.03304062  1
  C  C132  1  0.22883051  0.16293333  0.53078754  1
  C  C133  1  0.72963685  0.16013700  0.53204504  1
  C  C134  1  0.35411709  0.54091361  0.53156015  1
  C  C135  1  0.85220117  0.53248087  0.53674337  1
  C  C136  1  0.41299880  0.30833538  0.53192880  1
  C  C137  1  0.91709353  0.30684484  0.52655925  1
  C  C138  1  0.25825280  0.62727546  0.97938084  1
  C  C139  1  0.76888149  0.64333433  0.98237094  1
  C  C140  1  0.05878981  0.44643898  0.97499338  1
  C  C141  1  0.55766221  0.44395841  0.96862351  1
  C  C142  1  0.13359151  0.82035437  0.96435575  1
  C  C143  1  0.66097232  0.86773869  0.97801809  1
  C  C144  1  0.25521612  0.87807615  0.47635354  1
  C  C145  1  0.75700485  0.87616854  0.47730830  1
  C  C146  1  0.13617598  0.45403951  0.46267019  1
  C  C147  1  0.63552058  0.45125630  0.46301889  1
  C  C148  1  0.06029835  0.67153505  0.47123608  1
  C  C149  1  0.56203345  0.67423235  0.47116728  1
  C  C150  1  0.06621170  0.62364923  0.36451404  1
  C  C151  1  0.56540484  0.62293520  0.36443567  1
  C  C152  1  0.25279834  0.86502547  0.35871995  1
  C  C153  1  0.75070193  0.86018297  0.35988103  1
  C  C154  1  0.18788993  0.50279429  0.35422458  1
  C  C155  1  0.68761490  0.50165198  0.35422460  1
  C  C156  1  0.06759390  0.50711804  0.86793529  1
  C  C157  1  0.56129761  0.49615015  0.86173450  1
  C  C158  1  0.18686364  0.87431618  0.85488354  1
  C  C159  1  0.68237902  0.86003749  0.86146673  1
  C  C160  1  0.25007563  0.64400762  0.86204224  1
  C  C161  1  0.74979052  0.64324391  0.86333828  1
  C  C162  1  0.99646640  0.77111771  0.40263958  1
  C  C163  1  0.49499967  0.76887639  0.40339783  1
  C  C164  1  0.40696887  0.01132428  0.41959816  1
  C  C165  1  0.90664391  0.01136948  0.41801281  1
  C  C166  1  0.10482440  0.18036820  0.41199309  1
  C  C167  1  0.60572137  0.18038811  0.41089395  1
  C  C168  1  0.00030847  0.22014340  0.90662316  1
  C  C169  1  0.48841185  0.21093918  0.90235138  1
  C  C170  1  0.10490914  0.03192142  0.91112105  1
  C  C171  1  0.59745298  0.00733686  0.91408233  1
  C  C172  1  0.40581408  0.80421048  0.91926145  1
  C  C173  1  0.90818683  0.80450117  0.91708001  1
  C  C174  1  0.47929936  0.13086766  0.58861461  1
  C  C175  1  0.98224032  0.13094864  0.58810094  1
  C  C176  1  0.09822848  0.05072554  0.58543526  1
  C  C177  1  0.59532691  0.04300702  0.58295306  1
  C  C178  1  0.43252300  0.80681131  0.58196395  1
  C  C179  1  0.93041508  0.80424707  0.58353043  1
  C  C180  1  0.48388678  0.83398255  0.08827625  1
  C  C181  1  0.98530603  0.82654704  0.08785992  1
  C  C182  1  0.43000512  0.05383998  0.08553342  1
  C  C183  1  0.93250551  0.04758829  0.09198460  1
  C  C184  1  0.09932585  0.14327101  0.08277054  1
  C  C185  1  0.59758876  0.14162978  0.08531289  1
  C  C186  1  0.32156562  0.10382559  0.73699740  1
  C  C187  1  0.81140064  0.08904139  0.73733506  1
  C  C188  1  0.23567192  0.31599719  0.74622642  1
  C  C189  1  0.74146138  0.34056993  0.74517223  1
  C  C190  1  0.43736940  0.51512213  0.74633825  1
  C  C191  1  0.92568021  0.52818201  0.74791124  1
  C  C192  1  0.31481091  0.53516401  0.23809418  1
  C  C193  1  0.81586873  0.53598108  0.23858124  1
  C  C194  1  0.42537174  0.32361606  0.24741517  1
  C  C195  1  0.92812021  0.32708566  0.24725547  1
  C  C196  1  0.23899123  0.14820384  0.24639516  1
  C  C197  1  0.73644227  0.15254595  0.25205124  1
  C  C198  1  0.31355554  0.47015050  0.92003199  1
  C  C199  1  0.81894954  0.47432123  0.92162743  1
  C  C200  1  0.43245750  0.39447024  0.91553223  1
  C  C201  1  0.93534325  0.39013989  0.91722924  1
  C  C202  1  0.26330585  0.14116962  0.93464327  1
  C  C203  1  0.76740726  0.15482075  0.92499267  1
  C  C204  1  0.31549474  0.15921824  0.42303900  1
  C  C205  1  0.81276482  0.15557464  0.42273829  1
  C  C206  1  0.26464351  0.38576124  0.43194931  1
  C  C207  1  0.76528245  0.38792518  0.43280951  1
  C  C208  1  0.43570547  0.47231736  0.41805769  1
  C  C209  1  0.93459391  0.47359540  0.41638474  1
  C  C210  1  0.15544744  0.43768420  0.07471064  1
  C  C211  1  0.65998440  0.44092762  0.07389593  1
  C  C212  1  0.07026336  0.64861236  0.08432022  1
  C  C213  1  0.57422729  0.68509971  0.08065177  1
  C  C214  1  0.27887899  0.88621493  0.07700245  1
  C  C215  1  0.76681606  0.84819381  0.07847832  1
  C  C216  1  0.16197336  0.88082963  0.57430181  1
  C  C217  1  0.66304912  0.87886125  0.57637627  1
  C  C218  1  0.28183637  0.67879919  0.57190534  1
  C  C219  1  0.77912945  0.67187619  0.57498826  1
  C  C220  1  0.07299931  0.46596251  0.58409167  1
  C  C221  1  0.57112571  0.46876187  0.58624629  1
  C  C222  1  0.15356771  0.81419654  0.25626820  1
  C  C223  1  0.65461081  0.81413246  0.25538273  1
  C  C224  1  0.26958435  0.73544497  0.24913330  1
  C  C225  1  0.76892044  0.73277655  0.24975885  1
  C  C226  1  0.10088515  0.49069413  0.25256843  1
  C  C227  1  0.59878882  0.48608696  0.25300921  1
  C  C228  1  0.15367605  0.49564298  0.75696055  1
  C  C229  1  0.64703434  0.48756010  0.75654535  1
  C  C230  1  0.09895401  0.71081349  0.75379253  1
  C  C231  1  0.60248637  0.71816946  0.75489725  1
  C  C232  1  0.26735557  0.81137125  0.74999028  1
  C  C233  1  0.76957789  0.80199997  0.75286529  1
