# generated using pymatgen
data_Cu7(NiC14)5
_symmetry_space_group_name_H-M   'P 1'
_cell_length_a   18.34899631
_cell_length_b   9.17476988
_cell_length_c   22.40462297
_cell_angle_alpha   90.06659391
_cell_angle_beta   89.99428652
_cell_angle_gamma   120.14150873
_symmetry_Int_Tables_number   1
_chemical_formula_structural   Cu7(NiC14)5
_chemical_formula_sum   'Cu21 Ni15 C210'
_cell_volume   3261.77770706
_cell_formula_units_Z   3
loop_
 _symmetry_equiv_pos_site_id
 _symmetry_equiv_pos_as_xyz
  1  'x, y, z'
loop_
 _atom_site_type_symbol
 _atom_site_label
 _atom_site_symmetry_multiplicity
 _atom_site_fract_x
 _atom_site_fract_y
 _atom_site_fract_z
 _atom_site_occupancy
  C  C0  1  0.81198942  0.00456792  0.25065109  1
  C  C1  1  0.68940533  0.35908024  0.24600451  1
  C  C2  1  0.50332789  0.64003461  0.24663099  1
  C  C3  1  0.31021677  0.61856844  0.75139761  1
  C  C4  1  0.00338082  0.37268505  0.74579031  1
  C  C5  1  0.17966697  0.00090344  0.74446635  1
  C  C6  1  0.15364523  0.33155544  0.57551299  1
  C  C7  1  0.66613852  0.35959514  0.58191113  1
  C  C8  1  0.01489559  0.69432661  0.57395988  1
  C  C9  1  0.52328029  0.68644887  0.58640241  1
  C  C10  1  0.32423145  0.98094209  0.58246453  1
  C  C11  1  0.82441444  0.95839443  0.58651606  1
  C  C12  1  0.16034939  0.96464915  0.07623291  1
  C  C13  1  0.65816442  0.98180975  0.07058477  1
  C  C14  1  0.32084810  0.68971171  0.08142707  1
  C  C15  1  0.82647088  0.67011584  0.07743164  1
  C  C16  1  0.02239159  0.36031458  0.08216578  1
  C  C17  1  0.51425215  0.33344538  0.06814087  1
  C  C18  1  0.48603511  0.66673760  0.91905445  1
  C  C19  1  0.97935285  0.66096881  0.91355808  1
  C  C20  1  0.35351118  0.04423059  0.92257071  1
  C  C21  1  0.84860752  0.04297284  0.91244735  1
  C  C22  1  0.16750228  0.29374139  0.91463259  1
  C  C23  1  0.66293256  0.28949718  0.92578695  1
  C  C24  1  0.48014776  0.30450899  0.42658766  1
  C  C25  1  0.98692664  0.30740090  0.42320733  1
  C  C26  1  0.16049727  0.03240040  0.42938981  1
  C  C27  1  0.67157915  0.04654421  0.42109453  1
  C  C28  1  0.34516025  0.65268617  0.41878937  1
  C  C29  1  0.85459019  0.66202817  0.42550018  1
  C  C30  1  0.00345847  0.98646471  0.49802191  1
  C  C31  1  0.50730024  0.01494162  0.50011706  1
  C  C32  1  0.00604089  0.99920357  0.99399569  1
  C  C33  1  0.50327371  0.01874047  0.99268287  1
  C  C34  1  0.33727094  0.33178312  0.83065446  1
  C  C35  1  0.82894664  0.33454624  0.82602881  1
  C  C36  1  0.31933945  0.32307469  0.33250834  1
  C  C37  1  0.84015790  0.34399929  0.33246626  1
  C  C38  1  0.16719656  0.67078172  0.15609423  1
  C  C39  1  0.66802269  0.66241475  0.16329438  1
  C  C40  1  0.16072007  0.67250447  0.66864398  1
  C  C41  1  0.67048262  0.66687374  0.65800815  1
  C  C42  1  0.00370429  0.98979505  0.65121177  1
  C  C43  1  0.50652001  0.01719941  0.64673193  1
  C  C44  1  0.00612807  0.99613947  0.14652934  1
  C  C45  1  0.50296635  0.00572395  0.14860535  1
  C  C46  1  0.16183948  0.65194488  0.31703437  1
  C  C47  1  0.66275319  0.67236537  0.81743760  1
  C  C48  1  0.00898879  0.00447266  0.35674754  1
  C  C49  1  0.50725062  0.00595275  0.33970299  1
  C  C50  1  0.00954214  0.99115717  0.82843397  1
  C  C51  1  0.50815496  0.01281284  0.85596480  1
  C  C52  1  0.32695712  0.31109796  0.67796146  1
  C  C53  1  0.83054663  0.34941259  0.67960683  1
  C  C54  1  0.31541875  0.30605316  0.16877581  1
  C  C55  1  0.82811283  0.34174464  0.17647927  1
  C  C56  1  0.33190853  0.31153133  0.98856219  1
  C  C57  1  0.82442225  0.33461197  0.98847557  1
  C  C58  1  0.32427026  0.31690479  0.49142186  1
  C  C59  1  0.83424103  0.35196456  0.49363961  1
  C  C60  1  0.16546952  0.66714549  0.02293536  1
  C  C61  1  0.65842713  0.64920882  0.00811239  1
  C  C62  1  0.15596131  0.66410165  0.51060721  1
  C  C63  1  0.66630543  0.66903057  0.52563894  1
  C  C64  1  0.66596120  0.68063536  0.31699273  1
  C  C65  1  0.15711562  0.65054664  0.81067119  1
  Ni  Ni66  1  0.65274700  0.00167785  0.25178377  1
  Ni  Ni67  1  0.15380067  0.30163417  0.75082274  1
  Ni  Ni68  1  0.99416896  0.68487937  0.75409797  1
  Ni  Ni69  1  0.47540572  0.33467894  0.58135684  1
  Ni  Ni70  1  0.18247519  0.02237501  0.58309704  1
  Ni  Ni71  1  0.69182255  0.04941324  0.58183629  1
  Ni  Ni72  1  0.83493479  0.63796530  0.58174658  1
  Ni  Ni73  1  0.97535304  0.61594930  0.08137919  1
  Ni  Ni74  1  0.33514481  0.03460030  0.08314000  1
  Ni  Ni75  1  0.18835010  0.33737424  0.07997599  1
  Ni  Ni76  1  0.68351666  0.34381506  0.08474912  1
  Ni  Ni77  1  0.51254958  0.36504735  0.91760631  1
  Ni  Ni78  1  0.66975406  0.96759688  0.92219709  1
  Ni  Ni79  1  0.16978929  0.37268515  0.42186318  1
  Ni  Ni80  1  0.01247415  0.66026745  0.41745224  1
  Cu  Cu81  1  0.15047540  -0.00062827  0.25240934  1
  Cu  Cu82  1  0.35157801  0.70303340  0.25221150  1
  Cu  Cu83  1  0.85418623  0.71124495  0.25322864  1
  Cu  Cu84  1  0.00107871  0.29079049  0.25179941  1
  Cu  Cu85  1  0.49825313  0.29628348  0.25287899  1
  Cu  Cu86  1  0.64883169  0.30112876  0.75306010  1
  Cu  Cu87  1  0.50146738  0.71173094  0.75181582  1
  Cu  Cu88  1  0.35633121  0.00022846  0.75330862  1
  Cu  Cu89  1  0.85045976  0.99456666  0.75209973  1
  Cu  Cu90  1  0.98187952  0.32890018  0.58476027  1
  Cu  Cu91  1  0.33616516  0.63638031  0.58503370  1
  Cu  Cu92  1  0.48088734  0.63067186  0.08748393  1
  Cu  Cu93  1  0.83565258  0.03512372  0.08633614  1
  Cu  Cu94  1  0.31227598  0.66679981  0.91536239  1
  Cu  Cu95  1  0.81502686  0.67407667  0.91624997  1
  Cu  Cu96  1  0.01791051  0.36606365  0.91779464  1
  Cu  Cu97  1  0.16572584  0.95669622  0.91578085  1
  Cu  Cu98  1  0.31795441  0.95955015  0.41308289  1
  Cu  Cu99  1  0.81345661  0.96063441  0.41503969  1
  Cu  Cu100  1  0.66236169  0.37407415  0.41233188  1
  Cu  Cu101  1  0.51817847  0.66987187  0.41512314  1
  C  C102  1  0.10750083  0.01202590  0.30596366  1
  C  C103  1  0.61242603  0.03503132  0.31207763  1
  C  C104  1  0.40089637  0.78911391  0.30719451  1
  C  C105  1  0.90182253  0.80170390  0.30670833  1
  C  C106  1  0.48639666  0.19672514  0.30800858  1
  C  C107  1  0.99405945  0.19119860  0.30566582  1
  C  C108  1  0.11289375  0.19312269  0.81237185  1
  C  C109  1  0.60504659  0.20283387  0.80662753  1
  C  C110  1  0.49433015  0.79713131  0.80585280  1
  C  C111  1  0.97956663  0.76255155  0.81580397  1
  C  C112  1  0.40489575  0.00840531  0.80669885  1
  C  C113  1  0.90071993  0.01109634  0.80699809  1
  C  C114  1  0.40096153  0.98410601  0.69833296  1
  C  C115  1  0.89394988  0.97895037  0.69803910  1
  C  C116  1  0.08834037  0.20130763  0.69445851  1
  C  C117  1  0.59488514  0.21350244  0.69803069  1
  C  C118  1  0.00755951  0.81717313  0.69823161  1
  C  C119  1  0.51051294  0.81513358  0.69694448  1
  C  C120  1  0.39540439  0.80760667  0.19843380  1
  C  C121  1  0.89813254  0.81650429  0.19847167  1
  C  C122  1  0.00970803  0.20519436  0.19694883  1
  C  C123  1  0.50491411  0.20012221  0.20035328  1
  C  C124  1  0.09754403  0.98143246  0.19748114  1
  C  C125  1  0.58674609  0.97249812  0.19562858  1
  C  C126  1  0.43258870  0.37745204  0.63648729  1
  C  C127  1  0.94139294  0.34898431  0.63824423  1
  C  C128  1  0.23953478  0.09994162  0.64277667  1
  C  C129  1  0.75420463  0.13470859  0.63753441  1
  C  C130  1  0.32399909  0.53348603  0.63849161  1
  C  C131  1  0.81283854  0.51029879  0.63647154  1
  C  C132  1  0.44050905  0.53200800  0.14181393  1
  C  C133  1  0.93424667  0.48954753  0.13756451  1
  C  C134  1  0.32083210  0.11983440  0.14177403  1
  C  C135  1  0.82333163  0.11223316  0.14029159  1
  C  C136  1  0.24867165  0.38966543  0.13841621  1
  C  C137  1  0.73817066  0.37590343  0.14554874  1
  C  C138  1  0.22456901  0.28710933  0.02149740  1
  C  C139  1  0.71825736  0.29011572  0.02654434  1
  C  C140  1  0.43165834  0.55521576  0.03275291  1
  C  C141  1  0.91802296  0.55115188  0.02037000  1
  C  C142  1  0.36249723  0.15359026  0.02355933  1
  C  C143  1  0.85247941  0.13869113  0.03229060  1
  C  C144  1  0.21845130  0.14242352  0.52390001  1
  C  C145  1  0.72348847  0.15992190  0.51946118  1
  C  C146  1  0.35345195  0.56723132  0.53046741  1
  C  C147  1  0.86118836  0.57449977  0.52085303  1
  C  C148  1  0.41965755  0.28866906  0.51929397  1
  C  C149  1  0.93313344  0.30825050  0.52920536  1
  C  C150  1  0.27324315  0.69024708  0.96999002  1
  C  C151  1  0.77597044  0.68809126  0.97257300  1
  C  C152  1  0.07045514  0.44895665  0.97132257  1
  C  C153  1  0.56961828  0.43701143  0.97758332  1
  C  C154  1  0.15965932  0.86077859  0.97086458  1
  C  C155  1  0.65642722  0.85274673  0.98151221  1
  C  C156  1  0.28202675  0.86602703  0.46920125  1
  C  C157  1  0.77094965  0.85344598  0.46750448  1
  C  C158  1  0.15843144  0.46354107  0.48091311  1
  C  C159  1  0.65549703  0.45809297  0.46660941  1
  C  C160  1  0.07027819  0.70457431  0.47700038  1
  C  C161  1  0.57148885  0.69246881  0.46782089  1
  C  C162  1  0.07005098  0.64265525  0.36162749  1
  C  C163  1  0.55722792  0.64967921  0.35934367  1
  C  C164  1  0.26138036  0.86328628  0.36140057  1
  C  C165  1  0.76396247  0.88161826  0.35905430  1
  C  C166  1  0.18229584  0.49945039  0.36351780  1
  C  C167  1  0.66857084  0.47257934  0.35726044  1
  C  C168  1  0.05860604  0.46519686  0.86281358  1
  C  C169  1  0.57009474  0.49802691  0.86249492  1
  C  C170  1  0.17235224  0.87067523  0.86168880  1
  C  C171  1  0.68214484  0.86501375  0.86440176  1
  C  C172  1  0.26138801  0.64971359  0.86124526  1
  C  C173  1  0.75934338  0.65801719  0.86418166  1
  C  C174  1  0.00086882  0.82523363  0.40946214  1
  C  C175  1  0.50776465  0.82294083  0.41249879  1
  C  C176  1  0.40329773  0.97638092  0.40659335  1
  C  C177  1  0.89928606  0.98057712  0.41151810  1
  C  C178  1  0.08305960  0.18935229  0.41442508  1
  C  C179  1  0.58291835  0.20166381  0.41166881  1
  C  C180  1  0.00676376  0.19252142  0.91480255  1
  C  C181  1  0.50058577  0.17641089  0.91006470  1
  C  C182  1  0.08842358  0.97391880  0.91543509  1
  C  C183  1  0.58319531  0.97814875  0.91451853  1
  C  C184  1  0.39922945  0.81821290  0.91180402  1
  C  C185  1  0.89864903  0.82925136  0.91211294  1
  C  C186  1  0.48321685  0.15824125  0.59237111  1
  C  C187  1  0.98854118  0.17121710  0.58862029  1
  C  C188  1  0.08817622  0.00800576  0.58984845  1
  C  C189  1  0.59355722  0.02775824  0.59224429  1
  C  C190  1  0.41577189  0.81104666  0.59242656  1
  C  C191  1  0.91671818  0.83221360  0.59102173  1
  C  C192  1  0.48725248  0.80409943  0.09121697  1
  C  C193  1  0.98372754  0.80860610  0.09346277  1
  C  C194  1  0.41663834  0.00278865  0.09297054  1
  C  C195  1  0.91478608  0.01868643  0.09368629  1
  C  C196  1  0.09228846  0.16066727  0.09193706  1
  C  C197  1  0.58752527  0.17044861  0.09282154  1
  C  C198  1  0.34768452  0.15145176  0.75011622  1
  C  C199  1  0.84166103  0.14459270  0.74864643  1
  C  C200  1  0.24776057  0.31938701  0.74426973  1
  C  C201  1  0.73067321  0.31406549  0.74827328  1
  C  C202  1  0.42566024  0.54422338  0.74768100  1
  C  C203  1  0.91717363  0.49173462  0.74507244  1
  C  C204  1  0.34718988  0.53790512  0.24894744  1
  C  C205  1  0.84584504  0.54248009  0.25046586  1
  C  C206  1  0.42844484  0.33021251  0.24710587  1
  C  C207  1  0.92559352  0.30721111  0.24795347  1
  C  C208  1  0.23390511  0.15204763  0.24763744  1
  C  C209  1  0.74723982  0.16849010  0.24441083  1
  C  C210  1  0.32007549  0.51240105  0.91873737  1
  C  C211  1  0.82164904  0.51922250  0.91426772  1
  C  C212  1  0.42236637  0.36360248  0.91802770  1
  C  C213  1  0.93322765  0.35168374  0.92134670  1
  C  C214  1  0.24272584  0.12884323  0.91623699  1
  C  C215  1  0.75575362  0.15519551  0.92188372  1
  C  C216  1  0.32497369  0.12777683  0.41187504  1
  C  C217  1  0.82144173  0.13009654  0.41902174  1
  C  C218  1  0.25567890  0.35676683  0.42109976  1
  C  C219  1  0.73779477  0.35377747  0.41276148  1
  C  C220  1  0.43321365  0.51592238  0.41908906  1
  C  C221  1  0.92234493  0.48149625  0.41769877  1
  C  C222  1  0.16875942  0.49137621  0.07450965  1
  C  C223  1  0.67323688  0.51100977  0.07819926  1
  C  C224  1  0.07294995  0.65921629  0.07639735  1
  C  C225  1  0.56767316  0.65907088  0.08459041  1
  C  C226  1  0.25109600  0.84859809  0.07727030  1
  C  C227  1  0.76258879  0.86313769  0.08059904  1
  C  C228  1  0.17302729  0.83450016  0.57702187  1
  C  C229  1  0.67080326  0.85365679  0.57701452  1
  C  C230  1  0.26351845  0.66234772  0.57906733  1
  C  C231  1  0.75176790  0.65959348  0.57575029  1
  C  C232  1  0.06853662  0.47805553  0.58189255  1
  C  C233  1  0.57307978  0.48798325  0.57629325  1
  C  C234  1  0.15767567  0.84344624  0.25378115  1
  C  C235  1  0.65703903  0.82478701  0.25303055  1
  C  C236  1  0.26630096  0.68630283  0.25397151  1
  C  C237  1  0.76786143  0.69233628  0.25233755  1
  C  C238  1  0.07993732  0.46240369  0.25365900  1
  C  C239  1  0.58063116  0.45999590  0.25312587  1
  C  C240  1  0.16270234  0.48916166  0.75217611  1
  C  C241  1  0.65576978  0.47156802  0.75442248  1
  C  C242  1  0.08627840  0.69139017  0.75337179  1
  C  C243  1  0.58001498  0.69801148  0.75404685  1
  C  C244  1  0.27151410  0.84517795  0.75249299  1
  C  C245  1  0.76555549  0.83566706  0.75455636  1
