# generated using pymatgen
data_CuNiC12
_symmetry_space_group_name_H-M   'P 1'
_cell_length_a   6.87305906
_cell_length_b   6.87745142
_cell_length_c   6.87837366
_cell_angle_alpha   60.00242797
_cell_angle_beta   59.97075926
_cell_angle_gamma   59.97253973
_symmetry_Int_Tables_number   1
_chemical_formula_structural   CuNiC12
_chemical_formula_sum   'Cu1 Ni1 C12'
_cell_volume   229.81062291
_cell_formula_units_Z   1
loop_
 _symmetry_equiv_pos_site_id
 _symmetry_equiv_pos_as_xyz
  1  'x, y, z'
loop_
 _atom_site_type_symbol
 _atom_site_label
 _atom_site_symmetry_multiplicity
 _atom_site_fract_x
 _atom_site_fract_y
 _atom_site_fract_z
 _atom_site_occupancy
  Ni  Ni0  1  0.09762897  0.13388236  0.13451383  1
  Cu  Cu1  1  0.84515201  0.88455981  0.88552672  1
  C  C2  1  0.97254359  0.50887614  0.50957070  1
  C  C3  1  0.47110401  0.50877658  0.01121124  1
  C  C4  1  0.47110047  0.50872983  0.50943013  1
  C  C5  1  0.47110809  0.01061869  0.50938655  1
  C  C6  1  0.23988855  0.27776794  0.27838144  1
  C  C7  1  0.23956332  0.27789025  0.70454685  1
  C  C8  1  0.23991144  0.70384371  0.27840217  1
  C  C9  1  0.66664486  0.27744361  0.27824625  1
  C  C10  1  0.26988164  0.74327157  0.74355660  1
  C  C11  1  0.70536090  0.74295334  0.30852505  1
  C  C12  1  0.70505615  0.30786272  0.74379895  1
  C  C13  1  0.70505602  0.74315345  0.74379250  1
