# generated using pymatgen
data_Cu4Ni4C5
_symmetry_space_group_name_H-M   'P 1'
_cell_length_a   4.05714600
_cell_length_b   6.45727097
_cell_length_c   6.74772722
_cell_angle_alpha   75.98812028
_cell_angle_beta   90.00000000
_cell_angle_gamma   71.69029299
_symmetry_Int_Tables_number   1
_chemical_formula_structural   Cu4Ni4C5
_chemical_formula_sum   'Cu4 Ni4 C5'
_cell_volume   162.27797155
_cell_formula_units_Z   1
loop_
 _symmetry_equiv_pos_site_id
 _symmetry_equiv_pos_as_xyz
  1  'x, y, z'
loop_
 _atom_site_type_symbol
 _atom_site_label
 _atom_site_symmetry_multiplicity
 _atom_site_fract_x
 _atom_site_fract_y
 _atom_site_fract_z
 _atom_site_occupancy
  C  C0  1  0.50000000  0.00000000  0.00000000  1
  C  C1  1  0.10608800  0.78782400  0.71025600  1
  C  C2  1  0.22046100  0.55907700  0.29705100  1
  C  C3  1  0.77953900  0.44092300  0.70294900  1
  C  C4  1  0.89391200  0.21217600  0.28974400  1
  Ni  Ni5  1  0.62282000  0.75436100  0.77778700  1
  Ni  Ni6  1  0.26706600  0.46586600  0.64521000  1
  Ni  Ni7  1  0.73293400  0.53413400  0.35479000  1
  Ni  Ni8  1  0.37718000  0.24563900  0.22221300  1
  Cu  Cu9  1  0.06349700  0.87300700  0.39020600  1
  Cu  Cu10  1  0.10972500  0.78054800  0.03115800  1
  Cu  Cu11  1  0.89027500  0.21945200  0.96884200  1
  Cu  Cu12  1  0.93650300  0.12699300  0.60979400  1
