# generated using pymatgen
data_Cu4NiC8
_symmetry_space_group_name_H-M   'P 1'
_cell_length_a   5.18699931
_cell_length_b   5.10256155
_cell_length_c   5.78910343
_cell_angle_alpha   89.26313981
_cell_angle_beta   92.68738192
_cell_angle_gamma   99.19167327
_symmetry_Int_Tables_number   1
_chemical_formula_structural   Cu4NiC8
_chemical_formula_sum   'Cu4 Ni1 C8'
_cell_volume   151.08409413
_cell_formula_units_Z   1
loop_
 _symmetry_equiv_pos_site_id
 _symmetry_equiv_pos_as_xyz
  1  'x, y, z'
loop_
 _atom_site_type_symbol
 _atom_site_label
 _atom_site_symmetry_multiplicity
 _atom_site_fract_x
 _atom_site_fract_y
 _atom_site_fract_z
 _atom_site_occupancy
  Ni  Ni0  1  0.00210296  0.50517397  0.99857354  1
  Cu  Cu1  1  0.00897832  0.99955555  0.99477728  1
  Cu  Cu2  1  0.00834490  0.98356654  0.48406672  1
  Cu  Cu3  1  0.55272743  0.42798127  0.25535039  1
  Cu  Cu4  1  0.44793666  0.56086111  0.72682357  1
  C  C5  1  0.13499429  0.79814984  0.23885816  1
  C  C6  1  0.15834588  0.78502396  0.75429680  1
  C  C7  1  0.30654353  0.31910448  0.98286445  1
  C  C8  1  0.31919279  0.29461228  0.50003879  1
  C  C9  1  0.68692113  0.68501632  0.98145771  1
  C  C10  1  0.67084026  0.70705161  0.49518034  1
  C  C11  1  0.83813259  0.21451941  0.22310501  1
  C  C12  1  0.85104726  0.20549664  0.73960624  1
