# generated using pymatgen
data_Cu6Ni6C7
_symmetry_space_group_name_H-M   'P 1'
_cell_length_a   5.37360420
_cell_length_b   15.27190739
_cell_length_c   3.06580687
_cell_angle_alpha   89.94808600
_cell_angle_beta   90.00564589
_cell_angle_gamma   104.97579251
_symmetry_Int_Tables_number   1
_chemical_formula_structural   Cu6Ni6C7
_chemical_formula_sum   'Cu6 Ni6 C7'
_cell_volume   243.05047245
_cell_formula_units_Z   1
loop_
 _symmetry_equiv_pos_site_id
 _symmetry_equiv_pos_as_xyz
  1  'x, y, z'
loop_
 _atom_site_type_symbol
 _atom_site_label
 _atom_site_symmetry_multiplicity
 _atom_site_fract_x
 _atom_site_fract_y
 _atom_site_fract_z
 _atom_site_occupancy
  C  C0  1  0.98703017  0.50162443  0.00990602  1
  C  C1  1  0.05723743  0.99650837  0.00391699  1
  C  C2  1  0.14022279  0.29455442  0.00487688  1
  C  C3  1  0.83432650  0.70683471  0.00937522  1
  C  C4  1  0.58592795  0.15424245  0.50355626  1
  C  C5  1  0.48579484  0.50104480  0.50969583  1
  C  C6  1  0.38170003  0.84466997  0.50512767  1
  Ni  Ni7  1  0.16330755  0.93433754  0.50456932  1
  Ni  Ni8  1  0.38116942  0.09519061  0.00380866  1
  Ni  Ni9  1  0.19575352  0.77816986  0.00503758  1
  Ni  Ni10  1  0.27891474  0.43474925  0.00967586  1
  Ni  Ni11  1  0.79240595  0.21492726  0.00332036  1
  Ni  Ni12  1  0.69365437  0.56862260  0.00961496  1
  Cu  Cu13  1  0.35303398  0.26356488  0.50498253  1
  Cu  Cu14  1  0.17778444  0.57512690  0.50933973  1
  Cu  Cu15  1  0.64028697  0.90497765  0.00543141  1
  Cu  Cu16  1  0.90395637  0.05387403  0.50360276  1
  Cu  Cu17  1  0.79629655  0.42923548  0.51046191  1
  Cu  Cu18  1  0.63730744  0.74774380  0.50870006  1
