# generated using pymatgen
data_Cu2(NiC11)3
_symmetry_space_group_name_H-M   'P 1'
_cell_length_a   8.62960453
_cell_length_b   8.62722090
_cell_length_c   21.87167641
_cell_angle_alpha   89.92343557
_cell_angle_beta   87.59791449
_cell_angle_gamma   119.67727375
_symmetry_Int_Tables_number   1
_chemical_formula_structural   Cu2(NiC11)3
_chemical_formula_sum   'Cu6 Ni9 C99'
_cell_volume   1413.04263030
_cell_formula_units_Z   3
loop_
 _symmetry_equiv_pos_site_id
 _symmetry_equiv_pos_as_xyz
  1  'x, y, z'
loop_
 _atom_site_type_symbol
 _atom_site_label
 _atom_site_symmetry_multiplicity
 _atom_site_fract_x
 _atom_site_fract_y
 _atom_site_fract_z
 _atom_site_occupancy
  C  C0  1  0.99790634  0.63932901  0.25352164  1
  C  C1  1  0.99853505  0.36423941  0.74263686  1
  C  C2  1  0.66571011  0.97317766  0.58834053  1
  C  C3  1  0.66952442  0.70101697  0.08247281  1
  C  C4  1  0.33626684  0.30096079  0.90641969  1
  C  C5  1  0.32594968  0.02996568  0.42054116  1
  C  C6  1  0.00508438  0.99904138  0.50225513  1
  C  C7  1  0.99126637  0.98687282  0.99729120  1
  C  C8  1  0.65788309  0.32692314  0.82588387  1
  C  C9  1  0.65967784  0.33870745  0.33350023  1
  C  C10  1  0.33135787  0.67413167  0.16868943  1
  C  C11  1  0.32668329  0.66635593  0.66242258  1
  C  C12  1  0.99575328  0.97485247  0.35124271  1
  C  C13  1  0.98334012  0.99004146  0.84648296  1
  C  C14  1  0.65038420  0.30525330  0.68645774  1
  C  C15  1  0.67256217  0.34166775  0.19164960  1
  C  C16  1  0.33067305  0.67305906  0.01772193  1
  C  C17  1  0.30754161  0.66843686  0.52234864  1
  Ni  Ni18  1  0.29991477  0.00940433  0.25274804  1
  Ni  Ni19  1  0.70088632  0.70740538  0.25265204  1
  Ni  Ni20  1  0.29443113  0.28283989  0.75383828  1
  Ni  Ni21  1  0.71761657  0.00229878  0.74927210  1
  Ni  Ni22  1  0.95987014  0.34198564  0.58678947  1
  Ni  Ni23  1  0.37638332  0.04670745  0.58282625  1
  Ni  Ni24  1  0.96659164  0.62352642  0.08603537  1
  Ni  Ni25  1  0.63155409  0.67653187  0.91968819  1
  Ni  Ni26  1  0.03472596  0.65872149  0.41819223  1
  Cu  Cu27  1  0.02074570  0.03660107  0.64714613  1
  Cu  Cu28  1  0.00061534  0.97040572  0.15571157  1
  Cu  Cu29  1  0.68480156  0.36380820  0.98361576  1
  Cu  Cu30  1  0.68569346  0.34013994  0.48985090  1
  Cu  Cu31  1  0.33522557  0.67781781  0.31492493  1
  Cu  Cu32  1  0.36919707  0.66470040  0.80866875  1
  C  C33  1  0.99828620  0.27510191  0.24931778  1
  C  C34  1  0.00413401  0.71615408  0.75148586  1
  C  C35  1  0.66559941  0.61947172  0.58401127  1
  C  C36  1  0.66768223  0.05538688  0.08223901  1
  C  C37  1  0.37090115  0.32724775  0.08468370  1
  C  C38  1  0.04268935  0.38134432  0.91909732  1
  C  C39  1  0.33709352  0.95329092  0.91735240  1
  C  C40  1  0.62797469  0.95339041  0.41595041  1
  C  C41  1  0.32846066  0.38430556  0.41671904  1
  C  C42  1  0.20914484  0.04301399  0.31320916  1
  C  C43  1  0.83957812  0.80481452  0.30491219  1
  C  C44  1  0.97441511  0.16974303  0.30473476  1
  C  C45  1  0.20048352  0.16476272  0.81660379  1
  C  C46  1  0.97884907  0.79805605  0.80811412  1
  C  C47  1  0.83694669  0.03554535  0.80765604  1
  C  C48  1  0.80223853  0.95670682  0.68701728  1
  C  C49  1  0.16143840  0.21068390  0.69585228  1
  C  C50  1  0.04092785  0.82804776  0.69577376  1
  C  C51  1  0.77625947  0.82957183  0.18654886  1
  C  C52  1  0.03028670  0.19450445  0.19123805  1
  C  C53  1  0.16455595  0.94908497  0.19354241  1
  C  C54  1  0.86572780  0.37247429  0.64691324  1
  C  C55  1  0.50498655  0.13401447  0.63828274  1
  C  C56  1  0.63584710  0.50633218  0.63768671  1
  C  C57  1  0.86545272  0.49763580  0.14500100  1
  C  C58  1  0.64095328  0.13856051  0.13660113  1
  C  C59  1  0.48877573  0.35779383  0.13505481  1
  C  C60  1  0.44704500  0.29240227  0.02487597  1
  C  C61  1  0.83019317  0.54845756  0.02718976  1
  C  C62  1  0.69174485  0.16397145  0.02349589  1
  C  C63  1  0.46201499  0.17391340  0.51755267  1
  C  C64  1  0.70169639  0.54460308  0.52504790  1
  C  C65  1  0.82801646  0.28457637  0.52735557  1
  C  C66  1  0.53015286  0.69352523  0.98153222  1
  C  C67  1  0.15419602  0.47084770  0.97158665  1
  C  C68  1  0.31044895  0.84396326  0.97343556  1
  C  C69  1  0.54776781  0.84238104  0.47171035  1
  C  C70  1  0.31574376  0.47638543  0.47135318  1
  C  C71  1  0.17552416  0.70549711  0.47059253  1
  C  C72  1  0.12013603  0.61985643  0.35329828  1
  C  C73  1  0.51111663  0.87421707  0.36159575  1
  C  C74  1  0.36164602  0.49517361  0.35848114  1
  C  C75  1  0.11528504  0.48793574  0.86134827  1
  C  C76  1  0.36343866  0.87095494  0.86115017  1
  C  C77  1  0.49119318  0.61653166  0.86268727  1
  C  C78  1  0.01937647  0.84026469  0.41103394  1
  C  C79  1  0.80840032  0.97863675  0.40530669  1
  C  C80  1  0.16269130  0.20802837  0.41348830  1
  C  C81  1  0.02763982  0.20352407  0.91643166  1
  C  C82  1  0.17797337  0.97608854  0.91582537  1
  C  C83  1  0.82768838  0.84667492  0.90898355  1
  C  C84  1  0.96942591  0.15316073  0.58874894  1
  C  C85  1  0.17278705  0.01651069  0.59171025  1
  C  C86  1  0.82589419  0.79778612  0.58540802  1
  C  C87  1  0.97763669  0.82494444  0.09020860  1
  C  C88  1  0.83050324  0.03771363  0.08238433  1
  C  C89  1  0.18925999  0.16954753  0.09124573  1
  C  C90  1  0.69771267  0.17855119  0.74383361  1
  C  C91  1  0.49366392  0.31953461  0.74217937  1
  C  C92  1  0.84313386  0.53964320  0.74840466  1
  C  C93  1  0.69440110  0.51728801  0.24307261  1
  C  C94  1  0.83725149  0.29471261  0.24434104  1
  C  C95  1  0.49448849  0.17527885  0.23819371  1
  C  C96  1  0.63801986  0.48210715  0.92474337  1
  C  C97  1  0.85624052  0.35625941  0.92601513  1
  C  C98  1  0.49950993  0.13489127  0.92159778  1
  C  C99  1  0.63730207  0.13076740  0.41948486  1
  C  C100  1  0.48511300  0.35567514  0.41640643  1
  C  C101  1  0.83397826  0.47747915  0.42593584  1
  C  C102  1  0.35831317  0.49280126  0.07744496  1
  C  C103  1  0.16173060  0.64477289  0.07392346  1
  C  C104  1  0.50849014  0.87273942  0.07805837  1
  C  C105  1  0.37008859  0.85656181  0.57197320  1
  C  C106  1  0.50726099  0.64051221  0.57600526  1
  C  C107  1  0.15819007  0.50730905  0.57678875  1
  C  C108  1  0.30505684  0.81953808  0.25829727  1
  C  C109  1  0.49969287  0.68070275  0.26010282  1
  C  C110  1  0.15704307  0.45730239  0.24961143  1
  C  C111  1  0.29585044  0.47886641  0.75944628  1
  C  C112  1  0.16294097  0.68896001  0.75748210  1
  C  C113  1  0.51384937  0.82570470  0.75415538  1
