# generated using pymatgen
data_Cu2NiC12
_symmetry_space_group_name_H-M   'P 1'
_cell_length_a   5.80670155
_cell_length_b   5.80670183
_cell_length_c   7.30944773
_cell_angle_alpha   90.21922044
_cell_angle_beta   89.78077882
_cell_angle_gamma   114.86355130
_symmetry_Int_Tables_number   1
_chemical_formula_structural   Cu2NiC12
_chemical_formula_sum   'Cu2 Ni1 C12'
_cell_volume   223.61226347
_cell_formula_units_Z   1
loop_
 _symmetry_equiv_pos_site_id
 _symmetry_equiv_pos_as_xyz
  1  'x, y, z'
loop_
 _atom_site_type_symbol
 _atom_site_label
 _atom_site_symmetry_multiplicity
 _atom_site_fract_x
 _atom_site_fract_y
 _atom_site_fract_z
 _atom_site_occupancy
  C  C0  1  0.50000000  0.50000000  0.00000000  1
  C  C1  1  0.50000000  0.50000000  0.50000000  1
  Ni  Ni2  1  0.00000000  0.00000000  0.00000000  1
  C  C3  1  0.83373800  0.16626200  0.75278700  1
  C  C4  1  0.16626200  0.83373800  0.24721300  1
  Cu  Cu5  1  0.16667200  0.83332800  0.70040900  1
  Cu  Cu6  1  0.83332800  0.16667200  0.29959100  1
  C  C7  1  0.81941800  0.76643800  0.22914400  1
  C  C8  1  0.23356200  0.18058200  0.22914400  1
  C  C9  1  0.27165900  0.72834100  0.44587700  1
  C  C10  1  0.22093400  0.77906600  0.01353300  1
  C  C11  1  0.72834100  0.27165900  0.55412300  1
  C  C12  1  0.77906600  0.22093400  0.98646700  1
  C  C13  1  0.18058200  0.23356200  0.77085600  1
  C  C14  1  0.76643800  0.81941800  0.77085600  1
