# generated using pymatgen
data_CuNiC11
_symmetry_space_group_name_H-M   'P 1'
_cell_length_a   9.13335655
_cell_length_b   9.17889787
_cell_length_c   22.61879562
_cell_angle_alpha   89.96897900
_cell_angle_beta   90.00146955
_cell_angle_gamma   120.03458254
_symmetry_Int_Tables_number   1
_chemical_formula_structural   CuNiC11
_chemical_formula_sum   'Cu9 Ni9 C99'
_cell_volume   1641.60826315
_cell_formula_units_Z   9
loop_
 _symmetry_equiv_pos_site_id
 _symmetry_equiv_pos_as_xyz
  1  'x, y, z'
loop_
 _atom_site_type_symbol
 _atom_site_label
 _atom_site_symmetry_multiplicity
 _atom_site_fract_x
 _atom_site_fract_y
 _atom_site_fract_z
 _atom_site_occupancy
  C  C0  1  0.64917547  0.01544222  0.23918967  1
  C  C1  1  0.98419659  0.62936318  0.23895898  1
  C  C2  1  0.64349178  0.62848260  0.73760672  1
  C  C3  1  0.36092552  0.01752217  0.74049497  1
  C  C4  1  0.32348222  0.34224837  0.59025418  1
  C  C5  1  0.96052690  0.68317254  0.91283428  1
  C  C6  1  0.71056699  0.02793931  0.91222376  1
  C  C7  1  0.95657916  0.28065760  0.41241074  1
  C  C8  1  0.70534774  0.67853508  0.41083449  1
  C  C9  1  0.01590889  0.99154638  0.49585608  1
  C  C10  1  0.01903781  0.01139210  0.99707096  1
  C  C11  1  0.66786757  0.33204746  0.82627580  1
  C  C12  1  0.62878874  0.31699915  0.32687433  1
  C  C13  1  0.33312271  0.65645944  0.16291262  1
  C  C14  1  0.30919981  0.66593669  0.66406846  1
  C  C15  1  0.01470196  0.00317387  0.35595205  1
  C  C16  1  0.01009343  0.01109413  0.85629566  1
  C  C17  1  0.67555453  0.33081499  0.67939195  1
  C  C18  1  0.66022041  0.33198961  0.17791678  1
  C  C19  1  0.99651263  0.00052458  0.64448658  1
  C  C20  1  0.00116253  0.99822604  0.14450009  1
  C  C21  1  0.66101884  0.33388219  0.98466722  1
  C  C22  1  0.66537584  0.33323557  0.48359575  1
  C  C23  1  0.34017903  0.67422365  0.02139506  1
  C  C24  1  0.33092194  0.66785779  0.52053975  1
  C  C25  1  0.32730222  0.65945158  0.31245515  1
  C  C26  1  0.33507398  0.66343514  0.81321314  1
  Ni  Ni27  1  0.96530806  0.33404743  0.58323056  1
  Ni  Ni28  1  0.36605403  0.03132455  0.58687233  1
  Ni  Ni29  1  0.66812822  0.63361855  0.58442061  1
  Ni  Ni30  1  0.96753624  0.63337166  0.08620597  1
  Ni  Ni31  1  0.67118410  0.03485184  0.08591427  1
  Ni  Ni32  1  0.61530107  0.64969800  0.91775822  1
  Ni  Ni33  1  0.34746197  0.96370985  0.91734346  1
  Ni  Ni34  1  0.34428278  0.38092197  0.41912886  1
  Ni  Ni35  1  0.03221641  0.65255904  0.41742927  1
  Cu  Cu36  1  0.29375616  0.99084147  0.25024490  1
  Cu  Cu37  1  0.70219088  0.71157221  0.25255082  1
  Cu  Cu38  1  0.00817449  0.29616436  0.25254851  1
  Cu  Cu39  1  0.29195795  0.30146057  0.74885056  1
  Cu  Cu40  1  0.00795567  0.71220895  0.75342765  1
  Cu  Cu41  1  0.69931677  0.99091320  0.75429507  1
  Cu  Cu42  1  0.36229710  0.33158760  0.08321941  1
  Cu  Cu43  1  0.03948214  0.38856675  0.91953854  1
  Cu  Cu44  1  0.60825240  0.96046280  0.41555813  1
  C  C45  1  0.21316526  0.99858281  0.30731025  1
  C  C46  1  0.79060543  0.78677929  0.31114659  1
  C  C47  1  0.98933230  0.20809008  0.31126682  1
  C  C48  1  0.20934114  0.19551869  0.80246495  1
  C  C49  1  0.99597247  0.78584695  0.81264606  1
  C  C50  1  0.78089031  0.99657398  0.81341516  1
  C  C51  1  0.80703715  0.97963577  0.70131861  1
  C  C52  1  0.18787191  0.21117643  0.69109615  1
  C  C53  1  0.02777600  0.83791491  0.70121968  1
  C  C54  1  0.81178745  0.83495603  0.19968542  1
  C  C55  1  0.02487142  0.19528790  0.19933412  1
  C  C56  1  0.17870031  0.97799390  0.19556888  1
  C  C57  1  0.91224326  0.38822112  0.64092614  1
  C  C58  1  0.45697619  0.08701712  0.64871399  1
  C  C59  1  0.60355366  0.51695063  0.64168966  1
  C  C60  1  0.90887491  0.53948282  0.14742777  1
  C  C61  1  0.62882327  0.08829486  0.14697828  1
  C  C62  1  0.46414577  0.37626533  0.13894181  1
  C  C63  1  0.46293482  0.30585793  0.02951984  1
  C  C64  1  0.82925689  0.52456267  0.03094729  1
  C  C65  1  0.69069456  0.16641720  0.03022646  1
  C  C66  1  0.47805497  0.17397552  0.53338570  1
  C  C67  1  0.69911428  0.52978208  0.52811919  1
  C  C68  1  0.83924544  0.30301833  0.52454157  1
  C  C69  1  0.49697126  0.64896076  0.97085543  1
  C  C70  1  0.14403383  0.48521072  0.97283572  1
  C  C71  1  0.34577011  0.84316332  0.97097254  1
  C  C72  1  0.50886231  0.85014790  0.46827516  1
  C  C73  1  0.35557851  0.50104112  0.47369438  1
  C  C74  1  0.15303571  0.65536620  0.47100807  1
  C  C75  1  0.13763994  0.64267407  0.35625668  1
  C  C76  1  0.50615456  0.86995423  0.35696897  1
  C  C77  1  0.36169736  0.50456996  0.35916694  1
  C  C78  1  0.13637343  0.49574631  0.86184039  1
  C  C79  1  0.36365017  0.86039896  0.85672762  1
  C  C80  1  0.50220099  0.63536994  0.85576940  1
  C  C81  1  0.99468605  0.80427657  0.42113250  1
  C  C82  1  0.78373151  0.97825132  0.41551113  1
  C  C83  1  0.16931479  0.20793158  0.42307463  1
  C  C84  1  0.00439271  0.20865906  0.91852378  1
  C  C85  1  0.17603769  0.96911300  0.92103667  1
  C  C86  1  0.79617389  0.81912050  0.92022266  1
  C  C87  1  0.97495943  0.15703694  0.59146679  1
  C  C88  1  0.18268755  0.03075032  0.58952009  1
  C  C89  1  0.84395273  0.81546069  0.59383305  1
  C  C90  1  0.98031082  0.82188211  0.09109038  1
  C  C91  1  0.85001161  0.02788588  0.09086883  1
  C  C92  1  0.19111880  0.16307155  0.08741008  1
  C  C93  1  0.65872091  0.13241409  0.74943221  1
  C  C94  1  0.47457229  0.33523587  0.74608588  1
  C  C95  1  0.85042307  0.53995484  0.74594941  1
  C  C96  1  0.67934997  0.53671931  0.24499751  1
  C  C97  1  0.85901566  0.32764746  0.24574244  1
  C  C98  1  0.47561294  0.13536258  0.24633456  1
  C  C99  1  0.63761731  0.48213460  0.92267935  1
  C  C100  1  0.86612593  0.38693821  0.92069674  1
  C  C101  1  0.52738963  0.14419332  0.92209338  1
  C  C102  1  0.62312962  0.13655083  0.41998427  1
  C  C103  1  0.52048462  0.37218555  0.42097568  1
  C  C104  1  0.85229573  0.47014870  0.42003177  1
  C  C105  1  0.32345259  0.47394212  0.06889364  1
  C  C106  1  0.15727715  0.66724967  0.07007224  1
  C  C107  1  0.52037022  0.83969159  0.07104203  1
  C  C108  1  0.32839880  0.84251330  0.57005522  1
  C  C109  1  0.51909037  0.67746111  0.56861009  1
  C  C110  1  0.16613036  0.47796833  0.56995947  1
  C  C111  1  0.29469084  0.81557388  0.24935314  1
  C  C112  1  0.52854590  0.71237734  0.25104594  1
  C  C113  1  0.17879477  0.47724305  0.25343493  1
  C  C114  1  0.29766006  0.47832556  0.75253065  1
  C  C115  1  0.17929731  0.70644510  0.75210231  1
  C  C116  1  0.52314634  0.81334502  0.75113352  1
