# generated using pymatgen
data_Cu4NiC12
_symmetry_space_group_name_H-M   'P 1'
_cell_length_a   3.94110800
_cell_length_b   5.45161165
_cell_length_c   11.02071700
_cell_angle_alpha   90.00000000
_cell_angle_beta   90.00000000
_cell_angle_gamma   111.19230556
_symmetry_Int_Tables_number   1
_chemical_formula_structural   Cu4NiC12
_chemical_formula_sum   'Cu4 Ni1 C12'
_cell_volume   220.77123448
_cell_formula_units_Z   1
loop_
 _symmetry_equiv_pos_site_id
 _symmetry_equiv_pos_as_xyz
  1  'x, y, z'
loop_
 _atom_site_type_symbol
 _atom_site_label
 _atom_site_symmetry_multiplicity
 _atom_site_fract_x
 _atom_site_fract_y
 _atom_site_fract_z
 _atom_site_occupancy
  Ni  Ni0  1  0.58154700  0.16259400  0.75000000  1
  Cu  Cu1  1  0.23267700  0.46507700  0.59192600  1
  Cu  Cu2  1  0.77682200  0.55359000  0.40656700  1
  Cu  Cu3  1  0.77682200  0.55359000  0.09343300  1
  Cu  Cu4  1  0.23267700  0.46507700  0.90807400  1
  C  C5  1  0.89908200  0.79770000  0.75000000  1
  C  C6  1  0.08060700  0.16166100  0.25000000  1
  C  C7  1  0.67458200  0.34928800  0.25000000  1
  C  C8  1  0.36656300  0.73268400  0.75000000  1
  C  C9  1  0.23481900  0.46963400  0.08332100  1
  C  C10  1  0.75238000  0.50446400  0.89675500  1
  C  C11  1  0.75238000  0.50446400  0.60324500  1
  C  C12  1  0.23481900  0.46963400  0.41667800  1
  C  C13  1  0.06403000  0.12802000  0.63790300  1
  C  C14  1  0.94165700  0.88350300  0.37886800  1
  C  C15  1  0.06403000  0.12802000  0.86209700  1
  C  C16  1  0.94165700  0.88350300  0.12113300  1
