# generated using pymatgen
data_Cu5(NiC2)2
_symmetry_space_group_name_H-M   'P 1'
_cell_length_a   5.74144600
_cell_length_b   11.10364400
_cell_length_c   14.80672777
_cell_angle_alpha   81.47133835
_cell_angle_beta   90.00000000
_cell_angle_gamma   90.00000000
_symmetry_Int_Tables_number   1
_chemical_formula_structural   Cu5(NiC2)2
_chemical_formula_sum   'Cu20 Ni8 C16'
_cell_volume   933.50497927
_cell_formula_units_Z   4
loop_
 _symmetry_equiv_pos_site_id
 _symmetry_equiv_pos_as_xyz
  1  'x, y, z'
loop_
 _atom_site_type_symbol
 _atom_site_label
 _atom_site_symmetry_multiplicity
 _atom_site_fract_x
 _atom_site_fract_y
 _atom_site_fract_z
 _atom_site_occupancy
  C  C0  1  0.27212200  0.78903600  0.15162300  1
  C  C1  1  0.77212200  0.21096400  0.84837700  1
  C  C2  1  0.77228500  0.64784700  0.30247600  1
  C  C3  1  0.27228500  0.35215300  0.69752400  1
  C  C4  1  0.21191800  0.73346400  0.88172800  1
  C  C5  1  0.71191800  0.26653600  0.11827200  1
  C  C6  1  0.66007500  0.59652200  0.04138600  1
  C  C7  1  0.16007500  0.40347800  0.95861400  1
  C  C8  1  0.18093900  0.43618600  0.21898500  1
  C  C9  1  0.68093900  0.56381400  0.78101500  1
  C  C10  1  0.74708300  0.27310300  0.37278300  1
  C  C11  1  0.24708300  0.72689700  0.62721700  1
  C  C12  1  0.25960700  0.07779300  0.54258700  1
  C  C13  1  0.75960700  0.92220700  0.45741300  1
  C  C14  1  0.75529100  0.90524000  0.70631400  1
  C  C15  1  0.25529100  0.09476000  0.29368600  1
  Ni  Ni16  1  0.26626800  0.78617200  0.37952800  1
  Ni  Ni17  1  0.76626800  0.21382800  0.62047200  1
  Ni  Ni18  1  0.79042800  0.62431300  0.55049100  1
  Ni  Ni19  1  0.29042800  0.37568700  0.44950900  1
  Ni  Ni20  1  0.76577400  0.94808900  0.22790900  1
  Ni  Ni21  1  0.78925100  0.87534600  0.93774700  1
  Ni  Ni22  1  0.28925100  0.12465400  0.06225300  1
  Ni  Ni23  1  0.26577400  0.05191100  0.77209100  1
  Cu  Cu24  1  0.31497700  0.70490300  0.03255600  1
  Cu  Cu25  1  0.81497700  0.29509700  0.96744400  1
  Cu  Cu26  1  0.01750600  0.65320000  0.19263000  1
  Cu  Cu27  1  0.51750600  0.34680000  0.80737000  1
  Cu  Cu28  1  0.51854200  0.64746800  0.19669600  1
  Cu  Cu29  1  0.01854200  0.35253200  0.80330400  1
  Cu  Cu30  1  0.82817800  0.45919100  0.29719700  1
  Cu  Cu31  1  0.32817800  0.54080900  0.70280300  1
  Cu  Cu32  1  0.97269200  0.42391700  0.09540900  1
  Cu  Cu33  1  0.47269200  0.57608300  0.90459100  1
  Cu  Cu34  1  0.47110700  0.42389900  0.08774600  1
  Cu  Cu35  1  0.97110700  0.57610100  0.91225400  1
  Cu  Cu36  1  0.00208200  0.92188300  0.57938200  1
  Cu  Cu37  1  0.50208200  0.07811700  0.42061800  1
  Cu  Cu38  1  0.51706000  0.91898100  0.57996500  1
  Cu  Cu39  1  0.01706000  0.08101900  0.42003500  1
  Cu  Cu40  1  0.49238300  0.25540200  0.26358400  1
  Cu  Cu41  1  0.50233200  0.75159600  0.74162600  1
  Cu  Cu42  1  0.00233200  0.24840400  0.25837400  1
  Cu  Cu43  1  0.99238300  0.74459800  0.73641600  1
