# generated using pymatgen
data_CuNiC9
_symmetry_space_group_name_H-M   'P 1'
_cell_length_a   3.94575946
_cell_length_b   3.94575946
_cell_length_c   10.30894883
_cell_angle_alpha   78.37656109
_cell_angle_beta   78.37656109
_cell_angle_gamma   89.88288090
_symmetry_Int_Tables_number   1
_chemical_formula_structural   CuNiC9
_chemical_formula_sum   'Cu1 Ni1 C9'
_cell_volume   153.86056633
_cell_formula_units_Z   1
loop_
 _symmetry_equiv_pos_site_id
 _symmetry_equiv_pos_as_xyz
  1  'x, y, z'
loop_
 _atom_site_type_symbol
 _atom_site_label
 _atom_site_symmetry_multiplicity
 _atom_site_fract_x
 _atom_site_fract_y
 _atom_site_fract_z
 _atom_site_occupancy
  Ni  Ni0  1  0.81898550  0.81898550  0.45874444  1
  Cu  Cu1  1  0.05348312  0.05348312  0.07132785  1
  C  C2  1  0.20995213  0.20995213  0.67430253  1
  C  C3  1  0.64649297  0.64649297  0.79947169  1
  C  C4  1  0.43517083  0.43517083  0.25037687  1
  C  C5  1  0.50889928  0.50889928  0.00816055  1
  C  C6  1  0.18073167  0.67949549  0.73233960  1
  C  C7  1  0.67949549  0.18073167  0.73233960  1
  C  C8  1  0.94739763  0.45451443  0.22243525  1
  C  C9  1  0.31488296  0.31488296  0.46973136  1
  C  C10  1  0.45451443  0.94739763  0.22243525  1
