# generated using pymatgen
data_CuNiC7
_symmetry_space_group_name_H-M   'P 1'
_cell_length_a   6.02418600
_cell_length_b   7.60379000
_cell_length_c   9.16605900
_cell_angle_alpha   90.00000000
_cell_angle_beta   90.00000000
_cell_angle_gamma   90.00000000
_symmetry_Int_Tables_number   1
_chemical_formula_structural   CuNiC7
_chemical_formula_sum   'Cu4 Ni4 C28'
_cell_volume   419.86641309
_cell_formula_units_Z   4
loop_
 _symmetry_equiv_pos_site_id
 _symmetry_equiv_pos_as_xyz
  1  'x, y, z'
loop_
 _atom_site_type_symbol
 _atom_site_label
 _atom_site_symmetry_multiplicity
 _atom_site_fract_x
 _atom_site_fract_y
 _atom_site_fract_z
 _atom_site_occupancy
  C  C0  1  0.02349500  0.36912200  0.82736700  1
  C  C1  1  0.52349500  0.13087800  0.17263300  1
  C  C2  1  0.97650500  0.86912200  0.67263300  1
  C  C3  1  0.47650500  0.63087800  0.32736700  1
  Ni  Ni4  1  0.25846700  0.76517500  0.99337800  1
  Ni  Ni5  1  0.75846700  0.73482500  0.00662200  1
  Ni  Ni6  1  0.74153300  0.26517500  0.50662200  1
  Ni  Ni7  1  0.24153300  0.23482500  0.49337800  1
  Cu  Cu8  1  0.98264200  0.37452500  0.17523000  1
  Cu  Cu9  1  0.48264200  0.12547500  0.82477000  1
  Cu  Cu10  1  0.01735800  0.87452500  0.32477000  1
  Cu  Cu11  1  0.51735800  0.62547500  0.67523000  1
  C  C12  1  0.97854200  0.00588400  0.97949100  1
  C  C13  1  0.47854200  0.49411600  0.02050900  1
  C  C14  1  0.02145800  0.50588400  0.52050900  1
  C  C15  1  0.52145800  0.99411600  0.47949100  1
  C  C16  1  0.99163700  0.89173100  0.92717600  1
  C  C17  1  0.49163700  0.60826900  0.07282400  1
  C  C18  1  0.00836300  0.39173100  0.57282400  1
  C  C19  1  0.50836300  0.10826900  0.42717600  1
  C  C20  1  0.74521800  0.60531100  0.78913900  1
  C  C21  1  0.24521800  0.89468900  0.21086100  1
  C  C22  1  0.25478200  0.10531100  0.71086100  1
  C  C23  1  0.75478200  0.39468900  0.28913900  1
  C  C24  1  0.48942100  0.44954300  0.55453100  1
  C  C25  1  0.98942100  0.05045700  0.44546900  1
  C  C26  1  0.51057900  0.94954300  0.94546900  1
  C  C27  1  0.01057900  0.55045700  0.05453100  1
  C  C28  1  0.59120400  0.79495000  0.56010300  1
  C  C29  1  0.09120400  0.70505000  0.43989700  1
  C  C30  1  0.40879600  0.29495000  0.93989700  1
  C  C31  1  0.90879600  0.20505000  0.06010300  1
  C  C32  1  0.23128400  0.34792800  0.26708700  1
  C  C33  1  0.73128400  0.15207200  0.73291300  1
  C  C34  1  0.76871600  0.84792800  0.23291300  1
  C  C35  1  0.26871600  0.65207200  0.76708700  1
