# generated using pymatgen
data_Cu10Ni3C8
_symmetry_space_group_name_H-M   'P 1'
_cell_length_a   9.40678338
_cell_length_b   9.40678338
_cell_length_c   9.40678338
_cell_angle_alpha   119.12706626
_cell_angle_beta   119.12706626
_cell_angle_gamma   91.51873462
_symmetry_Int_Tables_number   1
_chemical_formula_structural   Cu10Ni3C8
_chemical_formula_sum   'Cu20 Ni6 C16'
_cell_volume   596.12334117
_cell_formula_units_Z   2
loop_
 _symmetry_equiv_pos_site_id
 _symmetry_equiv_pos_as_xyz
  1  'x, y, z'
loop_
 _atom_site_type_symbol
 _atom_site_label
 _atom_site_symmetry_multiplicity
 _atom_site_fract_x
 _atom_site_fract_y
 _atom_site_fract_z
 _atom_site_occupancy
  C  C0  1  0.50000000  0.50000000  0.00000000  1
  C  C1  1  0.00000000  0.00000000  0.00000000  1
  C  C2  1  0.75000000  0.25000000  0.50000000  1
  C  C3  1  0.25000000  0.75000000  0.50000000  1
  C  C4  1  0.00000000  0.64962200  0.64962200  1
  C  C5  1  0.64962200  0.00000000  0.64962200  1
  C  C6  1  0.35037800  0.00000000  0.35037800  1
  C  C7  1  0.00000000  0.35037800  0.35037800  1
  C  C8  1  0.99881900  0.99881900  0.35055800  1
  C  C9  1  0.64826100  0.64826100  0.64944200  1
  C  C10  1  0.00118100  0.00118100  0.64944200  1
  C  C11  1  0.64826100  0.99881900  0.00000000  1
  C  C12  1  0.99881900  0.64826100  0.00000000  1
  C  C13  1  0.00118100  0.35173900  0.00000000  1
  C  C14  1  0.35173900  0.00118100  0.00000000  1
  C  C15  1  0.35173900  0.35173900  0.35055800  1
  Ni  Ni16  1  0.30358500  0.30358500  0.00000000  1
  Ni  Ni17  1  0.69677800  0.69677800  0.39355600  1
  Ni  Ni18  1  0.69677800  0.30322200  0.00000000  1
  Ni  Ni19  1  0.30322200  0.69677800  0.00000000  1
  Ni  Ni20  1  0.30322200  0.30322200  0.60644400  1
  Ni  Ni21  1  0.69641500  0.69641500  0.00000000  1
  Cu  Cu22  1  0.10001000  0.90024300  0.19976700  1
  Cu  Cu23  1  0.70047600  0.90024300  0.80023300  1
  Cu  Cu24  1  0.09975700  0.89999000  0.80023300  1
  Cu  Cu25  1  0.90024300  0.10001000  0.19976700  1
  Cu  Cu26  1  0.90024300  0.70047600  0.80023300  1
  Cu  Cu27  1  0.89999000  0.09975700  0.80023300  1
  Cu  Cu28  1  0.29952400  0.09975700  0.19976700  1
  Cu  Cu29  1  0.09975700  0.29952400  0.19976700  1
  Cu  Cu30  1  0.40189800  0.90189800  0.50000000  1
  Cu  Cu31  1  0.90189800  0.40189800  0.50000000  1
  Cu  Cu32  1  0.59810200  0.09810200  0.50000000  1
  Cu  Cu33  1  0.09810200  0.59810200  0.50000000  1
  Cu  Cu34  1  0.59475200  0.09475200  0.18950300  1
  Cu  Cu35  1  0.90524800  0.09475200  0.50000000  1
  Cu  Cu36  1  0.59475200  0.40524800  0.50000000  1
  Cu  Cu37  1  0.09475200  0.59475200  0.18950300  1
  Cu  Cu38  1  0.09475200  0.90524800  0.50000000  1
  Cu  Cu39  1  0.40524800  0.59475200  0.50000000  1
  Cu  Cu40  1  0.90524800  0.40524800  0.81049700  1
  Cu  Cu41  1  0.40524800  0.90524800  0.81049700  1
