# generated using pymatgen
data_Cu4NiC8
_symmetry_space_group_name_H-M   'P 1'
_cell_length_a   5.81047654
_cell_length_b   5.70417511
_cell_length_c   5.81036896
_cell_angle_alpha   60.60277139
_cell_angle_beta   58.48577365
_cell_angle_gamma   60.60337631
_symmetry_Int_Tables_number   1
_chemical_formula_structural   Cu4NiC8
_chemical_formula_sum   'Cu4 Ni1 C8'
_cell_volume   135.73413010
_cell_formula_units_Z   1
loop_
 _symmetry_equiv_pos_site_id
 _symmetry_equiv_pos_as_xyz
  1  'x, y, z'
loop_
 _atom_site_type_symbol
 _atom_site_label
 _atom_site_symmetry_multiplicity
 _atom_site_fract_x
 _atom_site_fract_y
 _atom_site_fract_z
 _atom_site_occupancy
  Ni  Ni0  1  0.11314800  0.13687500  0.11310300  1
  Cu  Cu1  1  0.50081900  0.50175100  0.50094600  1
  Cu  Cu2  1  0.50082100  0.99648700  0.50094400  1
  Cu  Cu3  1  0.99440700  0.50202500  0.50154800  1
  Cu  Cu4  1  0.50153800  0.50203900  0.99438600  1
  C  C5  1  0.74879100  0.72295200  0.30530500  1
  C  C6  1  0.75018900  0.71387600  0.75016300  1
  C  C7  1  0.25343500  0.27468100  0.69720300  1
  C  C8  1  0.25158300  0.71939200  0.25156600  1
  C  C9  1  0.25158200  0.27746000  0.25156700  1
  C  C10  1  0.69722200  0.27469900  0.25338000  1
  C  C11  1  0.30532800  0.72295100  0.74877300  1
  C  C12  1  0.75019100  0.28577200  0.75016300  1
