# generated using pymatgen
data_Cu4Ni8C7
_symmetry_space_group_name_H-M   'P 1'
_cell_length_a   11.11461797
_cell_length_b   7.18310252
_cell_length_c   2.98462000
_cell_angle_alpha   89.99881111
_cell_angle_beta   89.99785621
_cell_angle_gamma   106.03568896
_symmetry_Int_Tables_number   1
_chemical_formula_structural   Cu4Ni8C7
_chemical_formula_sum   'Cu4 Ni8 C7'
_cell_volume   229.01273093
_cell_formula_units_Z   1
loop_
 _symmetry_equiv_pos_site_id
 _symmetry_equiv_pos_as_xyz
  1  'x, y, z'
loop_
 _atom_site_type_symbol
 _atom_site_label
 _atom_site_symmetry_multiplicity
 _atom_site_fract_x
 _atom_site_fract_y
 _atom_site_fract_z
 _atom_site_occupancy
  C  C0  1  0.83320700  0.66671900  0.50925400  1
  C  C1  1  0.04249500  0.05175700  0.00889300  1
  C  C2  1  0.33330000  0.16672400  0.50935700  1
  C  C3  1  0.03322900  0.50384100  0.50859600  1
  C  C4  1  0.62407300  0.28152000  0.00883200  1
  C  C5  1  0.33312100  0.66666700  0.00784100  1
  C  C6  1  0.63307200  0.82936700  0.50861200  1
  Ni  Ni7  1  0.15426600  0.06550700  0.50905300  1
  Ni  Ni8  1  0.03304300  0.33213300  0.00848800  1
  Ni  Ni9  1  0.96643500  0.64700400  0.00880200  1
  Ni  Ni10  1  0.63334100  0.00107600  0.00847900  1
  Ni  Ni11  1  0.51232400  0.26796400  0.50900600  1
  Ni  Ni12  1  0.21509800  0.63017200  0.50822300  1
  Ni  Ni13  1  0.45117500  0.70318100  0.50822400  1
  Ni  Ni14  1  0.69992900  0.68623300  0.00883100  1
  Cu  Cu15  1  0.32019000  0.35220300  0.00945700  1
  Cu  Cu16  1  0.76194900  0.37551900  0.50857900  1
  Cu  Cu17  1  0.34641300  0.98125400  0.00940200  1
  Cu  Cu18  1  0.90458800  0.95782700  0.50873800  1
