# generated using pymatgen
data_Cu7Ni5C62
_symmetry_space_group_name_H-M   'P 1'
_cell_length_a   18.83390275
_cell_length_b   9.47099297
_cell_length_c   24.67933255
_cell_angle_alpha   90.09587405
_cell_angle_beta   90.20701418
_cell_angle_gamma   120.15514924
_symmetry_Int_Tables_number   1
_chemical_formula_structural   Cu7Ni5C62
_chemical_formula_sum   'Cu21 Ni15 C186'
_cell_volume   3806.38238595
_cell_formula_units_Z   3
loop_
 _symmetry_equiv_pos_site_id
 _symmetry_equiv_pos_as_xyz
  1  'x, y, z'
loop_
 _atom_site_type_symbol
 _atom_site_label
 _atom_site_symmetry_multiplicity
 _atom_site_fract_x
 _atom_site_fract_y
 _atom_site_fract_z
 _atom_site_occupancy
  C  C0  1  0.99324414  0.68451264  0.91042474  1
  C  C1  1  0.34957681  0.02795318  0.91387072  1
  C  C2  1  0.17422114  0.30572255  0.91300191  1
  C  C3  1  0.49404314  0.30624888  0.42190921  1
  C  C4  1  0.67274536  0.03899669  0.41655841  1
  C  C5  1  0.84686864  0.67066605  0.41764416  1
  C  C6  1  0.99667092  0.99678211  0.49526399  1
  C  C7  1  0.50085866  0.00255119  0.50230202  1
  C  C8  1  0.00204873  0.00392736  0.99687202  1
  C  C9  1  0.49638537  0.99664189  0.99140104  1
  C  C10  1  0.34011743  0.34763494  0.84136980  1
  C  C11  1  0.82499883  0.32347694  0.81944150  1
  C  C12  1  0.32697315  0.33268607  0.32478283  1
  C  C13  1  0.83716876  0.32844952  0.34742507  1
  C  C14  1  0.17121870  0.66803861  0.17238483  1
  C  C15  1  0.66458707  0.66422356  0.16780857  1
  C  C16  1  0.16808387  0.66732152  0.66688921  1
  C  C17  1  0.65720272  0.65190571  0.66155803  1
  C  C18  1  0.00352984  0.00427364  0.35393540  1
  C  C19  1  0.49755002  0.00421718  0.34539804  1
  C  C20  1  0.99685612  0.99146129  0.84455255  1
  C  C21  1  0.50348230  0.00383419  0.85165063  1
  C  C22  1  0.33849353  0.34628741  0.68008935  1
  C  C23  1  0.83232420  0.33108928  0.68858159  1
  C  C24  1  0.33323985  0.33390152  0.18940634  1
  C  C25  1  0.83316669  0.32215712  0.18228638  1
  C  C26  1  0.35046296  0.35632474  0.97817149  1
  C  C27  1  0.82401852  0.29361268  0.98838784  1
  C  C28  1  0.33487892  0.35429022  0.49563368  1
  C  C29  1  0.84798116  0.34022448  0.48006269  1
  C  C30  1  0.17198800  0.67972702  0.01637365  1
  C  C31  1  0.66667284  0.66526343  0.02004485  1
  C  C32  1  0.16627587  0.66660126  0.52162650  1
  C  C33  1  0.66727021  0.65682296  0.51824500  1
  C  C34  1  0.66819687  0.65232941  0.31289609  1
  C  C35  1  0.16927330  0.68492853  0.81091722  1
  C  C36  1  0.99062898  0.98492293  0.65874822  1
  C  C37  1  0.50250369  0.02537635  0.64511431  1
  C  C38  1  0.00377848  0.99867129  0.15119060  1
  C  C39  1  0.48953200  0.99380301  0.15850908  1
  C  C40  1  0.16683480  0.68267449  0.31218416  1
  C  C41  1  0.66146310  0.64502861  0.80686644  1
  Ni  Ni42  1  0.14220849  0.98714485  0.25004087  1
  Ni  Ni43  1  0.34383514  0.70415208  0.25304755  1
  Ni  Ni44  1  0.50483300  0.30503163  0.24894729  1
  Ni  Ni45  1  0.64155151  0.29080913  0.74911747  1
  Ni  Ni46  1  0.00387726  0.70334657  0.74936239  1
  Ni  Ni47  1  0.84396552  0.98306495  0.75293321  1
  Ni  Ni48  1  0.48714149  0.33568252  0.58330611  1
  Ni  Ni49  1  0.33923043  0.65430175  0.58952966  1
  Ni  Ni50  1  0.83984505  0.02517258  0.08855912  1
  Ni  Ni51  1  0.31445420  0.66750323  0.91566867  1
  Ni  Ni52  1  0.52493632  0.38184900  0.91223161  1
  Ni  Ni53  1  0.16479219  0.97002552  0.91906363  1
  Ni  Ni54  1  0.81306288  0.95912324  0.41630919  1
  Ni  Ni55  1  0.66593974  0.35912540  0.41745319  1
  Ni  Ni56  1  0.02355020  0.66598167  0.41336503  1
  Cu  Cu57  1  0.64133925  0.99509748  0.24422876  1
  Cu  Cu58  1  0.85859514  0.71883273  0.24318529  1
  Cu  Cu59  1  0.00939969  0.30086314  0.24791667  1
  Cu  Cu60  1  0.14250194  0.28755511  0.74467255  1
  Cu  Cu61  1  0.50844833  0.70851287  0.75168195  1
  Cu  Cu62  1  0.35812577  0.99895831  0.74351452  1
  Cu  Cu63  1  0.98525996  0.31104017  0.58929270  1
  Cu  Cu64  1  0.16992102  0.03005137  0.58848883  1
  Cu  Cu65  1  0.67329043  0.03120511  0.58610391  1
  Cu  Cu66  1  0.84427170  0.65762959  0.58760041  1
  Cu  Cu67  1  0.48577009  0.65962471  0.08911054  1
  Cu  Cu68  1  0.98436394  0.65293684  0.08694620  1
  Cu  Cu69  1  0.34302279  0.02914737  0.08777513  1
  Cu  Cu70  1  0.17227946  0.31664097  0.08689738  1
  Cu  Cu71  1  0.67172292  0.31201037  0.08806834  1
  Cu  Cu72  1  0.80847621  0.65787817  0.91188710  1
  Cu  Cu73  1  0.01560387  0.37014660  0.91774069  1
  Cu  Cu74  1  0.67056029  0.95146264  0.91122271  1
  Cu  Cu75  1  0.30653342  0.95630516  0.41070476  1
  Cu  Cu76  1  0.17284171  0.39418381  0.41042213  1
  Cu  Cu77  1  0.51468371  0.66183857  0.41636557  1
  C  C78  1  0.10092733  0.00939999  0.30262898  1
  C  C79  1  0.60893652  0.00630654  0.29711446  1
  C  C80  1  0.40037818  0.78490078  0.30471634  1
  C  C81  1  0.89891058  0.78576775  0.29522720  1
  C  C82  1  0.49897006  0.21593362  0.30620295  1
  C  C83  1  0.99432091  0.20799724  0.29749572  1
  C  C84  1  0.10902261  0.21179860  0.79788771  1
  C  C85  1  0.60321299  0.19490332  0.80380881  1
  C  C86  1  0.49771885  0.77947033  0.80125548  1
  C  C87  1  0.99836296  0.77883111  0.80768593  1
  C  C88  1  0.39783127  0.00865124  0.79600999  1
  C  C89  1  0.89993237  0.01584181  0.80528111  1
  C  C90  1  0.41150846  0.99690987  0.69773658  1
  C  C91  1  0.90217190  0.97069108  0.69866490  1
  C  C92  1  0.08427654  0.17648117  0.69959652  1
  C  C93  1  0.58116921  0.18646203  0.69603260  1
  C  C94  1  0.00189787  0.83349072  0.69911220  1
  C  C95  1  0.52100839  0.80841511  0.70317586  1
  C  C96  1  0.40180073  0.83245968  0.19811124  1
  C  C97  1  0.91257880  0.83182731  0.19738922  1
  C  C98  1  0.01727851  0.20791362  0.19996116  1
  C  C99  1  0.50205290  0.16989706  0.19802728  1
  C  C100  1  0.08075011  0.97196347  0.19590986  1
  C  C101  1  0.58433386  0.99118809  0.19880621  1
  C  C102  1  0.43420393  0.33936744  0.63349183  1
  C  C103  1  0.94239062  0.33653411  0.63439095  1
  C  C104  1  0.22449539  0.11202973  0.63495756  1
  C  C105  1  0.72759840  0.11811310  0.63179276  1
  C  C106  1  0.32256278  0.53000368  0.63872109  1
  C  C107  1  0.83578251  0.54920520  0.63222840  1
  C  C108  1  0.44289562  0.54891186  0.13436155  1
  C  C109  1  0.93927475  0.54768381  0.13287754  1
  C  C110  1  0.33462322  0.12061736  0.13256676  1
  C  C111  1  0.82851282  0.12484057  0.13804929  1
  C  C112  1  0.22715332  0.34096723  0.13245380  1
  C  C113  1  0.72739606  0.33918436  0.13437956  1
  C  C114  1  0.20042447  0.28359770  0.03548847  1
  C  C115  1  0.70933845  0.29047524  0.03751078  1
  C  C116  1  0.43888428  0.59611150  0.03785888  1
  C  C117  1  0.93839019  0.58801204  0.03543415  1
  C  C118  1  0.35584641  0.11273991  0.03529725  1
  C  C119  1  0.85824391  0.13845173  0.03317230  1
  C  C120  1  0.20572583  0.12544298  0.53779639  1
  C  C121  1  0.70361030  0.12194388  0.53466420  1
  C  C122  1  0.35908992  0.58309744  0.53360540  1
  C  C123  1  0.85801958  0.59931438  0.53511803  1
  C  C124  1  0.43636175  0.30034177  0.52526558  1
  C  C125  1  0.93883042  0.28170219  0.53785182  1
  C  C126  1  0.27073288  0.68703936  0.97064717  1
  C  C127  1  0.77147545  0.67307158  0.96247343  1
  C  C128  1  0.06466071  0.44916767  0.96718413  1
  C  C129  1  0.57267287  0.47036944  0.96774572  1
  C  C130  1  0.14597236  0.84761463  0.97074092  1
  C  C131  1  0.66831017  0.87188437  0.96340615  1
  C  C132  1  0.26828161  0.86641968  0.46015339  1
  C  C133  1  0.76923385  0.85075500  0.47010536  1
  C  C134  1  0.16863711  0.46971679  0.46177962  1
  C  C135  1  0.64620343  0.44381452  0.46813360  1
  C  C136  1  0.07335477  0.67536318  0.46770295  1
  C  C137  1  0.56372570  0.68106171  0.46560485  1
  C  C138  1  0.08309395  0.66204128  0.35977102  1
  C  C139  1  0.55531801  0.64567842  0.36719782  1
  C  C140  1  0.25616242  0.85506330  0.36084900  1
  C  C141  1  0.75713515  0.87603013  0.36141709  1
  C  C142  1  0.17466847  0.49544325  0.36208235  1
  C  C143  1  0.68007383  0.47049664  0.36306722  1
  C  C144  1  0.05517663  0.46681262  0.86869010  1
  C  C145  1  0.58351361  0.50434296  0.85942041  1
  C  C146  1  0.17751998  0.88251786  0.86543734  1
  C  C147  1  0.67401478  0.85925926  0.86359017  1
  C  C148  1  0.25608355  0.63710683  0.86239920  1
  C  C149  1  0.75867867  0.65254881  0.86328004  1
  C  C150  1  0.00645124  0.81851324  0.41101852  1
  C  C151  1  0.50648083  0.80953294  0.41314319  1
  C  C152  1  0.39019538  0.97861715  0.40757841  1
  C  C153  1  0.90295899  0.97016387  0.41449793  1
  C  C154  1  0.09801419  0.23113945  0.40791978  1
  C  C155  1  0.58558931  0.17021454  0.41583567  1
  C  C156  1  0.00639450  0.20526813  0.91468122  1
  C  C157  1  0.50709062  0.19449909  0.91101926  1
  C  C158  1  0.08425231  0.99768074  0.91725594  1
  C  C159  1  0.59701998  0.96965217  0.91021287  1
  C  C160  1  0.40337531  0.83685398  0.91478649  1
  C  C161  1  0.89355715  0.80321433  0.90986406  1
  C  C162  1  0.49410463  0.16270866  0.59594153  1
  C  C163  1  0.99314850  0.16182942  0.60009625  1
  C  C164  1  0.08717922  0.01657372  0.59763778  1
  C  C165  1  0.58948177  0.01748343  0.59735911  1
  C  C166  1  0.42463423  0.83287451  0.60691002  1
  C  C167  1  0.92170753  0.82630640  0.59820317  1
  C  C168  1  0.49379328  0.82502771  0.10017321  1
  C  C169  1  0.99160743  0.82109982  0.09665902  1
  C  C170  1  0.41990655  0.01363625  0.09796685  1
  C  C171  1  0.92474010  0.01471506  0.10599904  1
  C  C172  1  0.08836954  0.16119239  0.09961373  1
  C  C173  1  0.59002097  0.16035196  0.09669625  1
  C  C174  1  0.34784095  0.14228108  0.73892313  1
  C  C175  1  0.82761836  0.12955896  0.74040616  1
  C  C176  1  0.22245664  0.29816763  0.73912750  1
  C  C177  1  0.73454567  0.33667614  0.74008591  1
  C  C178  1  0.43891077  0.53934270  0.74654949  1
  C  C179  1  0.92147486  0.52827900  0.74352218  1
  C  C180  1  0.32761199  0.52541489  0.23988536  1
  C  C181  1  0.85106172  0.55773381  0.23507915  1
  C  C182  1  0.42220152  0.31478888  0.24303646  1
  C  C183  1  0.93993793  0.32984044  0.23852034  1
  C  C184  1  0.23378260  0.12920305  0.23870365  1
  C  C185  1  0.72196411  0.14571387  0.23845204  1
  C  C186  1  0.31812523  0.49671045  0.92134567  1
  C  C187  1  0.81764083  0.50959526  0.91352353  1
  C  C188  1  0.43284564  0.36327096  0.90868541  1
  C  C189  1  0.93392313  0.36308020  0.92278096  1
  C  C190  1  0.24974221  0.14946875  0.92553693  1
  C  C191  1  0.74625351  0.11964700  0.91195821  1
  C  C192  1  0.31219333  0.11774121  0.40869556  1
  C  C193  1  0.81759263  0.13849322  0.42151663  1
  C  C194  1  0.24758662  0.37842891  0.41011654  1
  C  C195  1  0.75082377  0.34903671  0.42407999  1
  C  C196  1  0.43283534  0.50694871  0.42017757  1
  C  C197  1  0.93225152  0.50061508  0.40980388  1
  C  C198  1  0.15557061  0.45316474  0.08384394  1
  C  C199  1  0.66111239  0.45581167  0.08316970  1
  C  C200  1  0.06785254  0.67690946  0.08535071  1
  C  C201  1  0.56918187  0.68192359  0.08415263  1
  C  C202  1  0.27133501  0.86093380  0.08716050  1
  C  C203  1  0.76261309  0.84241069  0.08243547  1
  C  C204  1  0.15808985  0.86355108  0.58297076  1
  C  C205  1  0.65893353  0.86363105  0.58286877  1
  C  C206  1  0.26327640  0.68824253  0.58216870  1
  C  C207  1  0.77385947  0.68470293  0.58632731  1
  C  C208  1  0.06876590  0.45568914  0.58450194  1
  C  C209  1  0.57997724  0.48795520  0.58603881  1
  C  C210  1  0.14777328  0.81142822  0.26079646  1
  C  C211  1  0.64687892  0.84691545  0.23912896  1
  C  C212  1  0.25407490  0.69920017  0.26138123  1
  C  C213  1  0.77899831  0.71164863  0.23856984  1
  C  C214  1  0.08741896  0.46573117  0.25251791  1
  C  C215  1  0.58999114  0.47499934  0.23958718  1
  C  C216  1  0.14644124  0.44590370  0.73988989  1
  C  C217  1  0.64537637  0.47758171  0.75874477  1
  C  C218  1  0.08937973  0.70420519  0.74041299  1
  C  C219  1  0.58758386  0.69560169  0.75941298  1
  C  C220  1  0.27834553  0.84484831  0.73927352  1
  C  C221  1  0.75451993  0.80821903  0.76312248  1
