# generated using pymatgen
data_Cu(Ni2C11)3
_symmetry_space_group_name_H-M   'P 1'
_cell_length_a   9.10918384
_cell_length_b   9.11131739
_cell_length_c   22.56461616
_cell_angle_alpha   90.03252457
_cell_angle_beta   90.01173833
_cell_angle_gamma   119.95710664
_symmetry_Int_Tables_number   1
_chemical_formula_structural   Cu(Ni2C11)3
_chemical_formula_sum   'Cu3 Ni18 C99'
_cell_volume   1622.58192923
_cell_formula_units_Z   3
loop_
 _symmetry_equiv_pos_site_id
 _symmetry_equiv_pos_as_xyz
  1  'x, y, z'
loop_
 _atom_site_type_symbol
 _atom_site_label
 _atom_site_symmetry_multiplicity
 _atom_site_fract_x
 _atom_site_fract_y
 _atom_site_fract_z
 _atom_site_occupancy
  Ni  Ni0  1  0.00700982  0.00054078  0.49969941  1
  Ni  Ni1  1  0.99144360  0.99210128  0.99725225  1
  Ni  Ni2  1  0.66658429  0.33256620  0.83390042  1
  Ni  Ni3  1  0.66673685  0.33283922  0.32741084  1
  Ni  Ni4  1  0.34286881  0.66715508  0.16314665  1
  Ni  Ni5  1  0.32435061  0.65785491  0.66549238  1
  Ni  Ni6  1  0.63896080  0.01321422  0.24625576  1
  Ni  Ni7  1  0.37306238  0.36037946  0.24550704  1
  Ni  Ni8  1  0.98768795  0.62601329  0.24596403  1
  Ni  Ni9  1  0.63346176  0.62398188  0.74677247  1
  Ni  Ni10  1  0.98921403  0.36567049  0.74710352  1
  Ni  Ni11  1  0.37751701  0.01010939  0.74760637  1
  Ni  Ni12  1  0.66558869  0.96941087  0.58600001  1
  Ni  Ni13  1  0.30611609  0.97267001  0.08331255  1
  Ni  Ni14  1  0.02904951  0.33696154  0.08341631  1
  Ni  Ni15  1  0.96480327  0.28864842  0.41313155  1
  Ni  Ni16  1  0.32415703  0.03408000  0.41323031  1
  Ni  Ni17  1  0.71076267  0.67705371  0.41352273  1
  Cu  Cu18  1  0.99974291  0.00001841  0.35241462  1
  Cu  Cu19  1  0.66729844  0.33481044  0.68543595  1
  Cu  Cu20  1  0.66582046  0.33395868  0.18258536  1
  C  C21  1  0.00061227  0.00084763  0.85686594  1
  C  C22  1  0.00455527  -0.00003520  0.64464436  1
  C  C23  1  0.99578177  0.99605416  0.14555086  1
  C  C24  1  0.66736928  0.33433196  0.97795326  1
  C  C25  1  0.66617782  0.33416028  0.48243968  1
  C  C26  1  0.33729013  0.66672980  0.01816728  1
  C  C27  1  0.32949911  0.66267846  0.52223489  1
  C  C28  1  0.33285984  0.66669372  0.31217498  1
  C  C29  1  0.33388500  0.66720825  0.81479474  1
  C  C30  1  0.29235979  0.00097790  0.25144248  1
  C  C31  1  0.70813908  0.70742256  0.25222481  1
  C  C32  1  0.99943117  0.29129842  0.25117609  1
  C  C33  1  0.28718835  0.28885568  0.75095622  1
  C  C34  1  0.00112114  0.71217609  0.75133999  1
  C  C35  1  0.71137939  0.99857229  0.75022104  1
  C  C36  1  0.95997579  0.33422230  0.58576150  1
  C  C37  1  0.37324392  0.04174570  0.58482535  1
  C  C38  1  0.66738296  0.62592973  0.58558402  1
  C  C39  1  0.95701741  0.62489043  0.08340474  1
  C  C40  1  0.66571119  0.04085903  0.08359991  1
  C  C41  1  0.37690699  0.33612528  0.08416013  1
  C  C42  1  0.62594720  0.66558530  0.91599256  1
  C  C43  1  0.04047583  0.37540537  0.91679118  1
  C  C44  1  0.33428784  0.95923122  0.91721969  1
  C  C45  1  0.62258365  0.95800383  0.41804989  1
  C  C46  1  0.33589370  0.37745877  0.41694286  1
  C  C47  1  0.04200332  0.66472024  0.41736268  1
  C  C48  1  0.20937807  0.02972716  0.31048618  1
  C  C49  1  0.81910454  0.78863687  0.31150592  1
  C  C50  1  0.97023805  0.17953965  0.31024615  1
  C  C51  1  0.18909943  0.16533514  0.80720785  1
  C  C52  1  0.97667878  0.81120395  0.80743265  1
  C  C53  1  0.83603191  0.02278386  0.80619260  1
  C  C54  1  0.79789701  0.96486624  0.69070512  1
  C  C55  1  0.16021181  0.19539748  0.69317853  1
  C  C56  1  0.03349184  0.83850589  0.69345466  1
  C  C57  1  0.80683535  0.83820089  0.19527344  1
  C  C58  1  0.03271649  0.19935512  0.19258016  1
  C  C59  1  0.16731828  0.96825509  0.19283389  1
  C  C60  1  0.88106262  0.36379031  0.64481216  1
  C  C61  1  0.49096303  0.11645246  0.64262022  1
  C  C62  1  0.63463674  0.51639215  0.64442074  1
  C  C63  1  0.88770516  0.51247961  0.14307273  1
  C  C64  1  0.62590945  0.11192176  0.14366876  1
  C  C65  1  0.47904164  0.36506541  0.14531529  1
  C  C66  1  0.47263461  0.30151168  0.02854938  1
  C  C67  1  0.83302467  0.52588682  0.02702486  1
  C  C68  1  0.69887157  0.17013986  0.02788839  1
  C  C69  1  0.47031159  0.16246474  0.52542165  1
  C  C70  1  0.69107302  0.52890420  0.52610138  1
  C  C71  1  0.83472551  0.30549372  0.52672843  1
  C  C72  1  0.52438313  0.68938602  0.97196989  1
  C  C73  1  0.15930612  0.47028918  0.97465313  1
  C  C74  1  0.30902727  0.83949469  0.97487088  1
  C  C75  1  0.52647293  0.83785155  0.47477787  1
  C  C76  1  0.31335947  0.48037332  0.47205524  1
  C  C77  1  0.16868907  0.68913663  0.47222904  1
  C  C78  1  0.13272773  0.63267357  0.35811886  1
  C  C79  1  0.49835416  0.86471191  0.35916825  1
  C  C80  1  0.36708458  0.49995532  0.35787005  1
  C  C81  1  0.13790010  0.49585685  0.85825641  1
  C  C82  1  0.35815604  0.86223877  0.85852379  1
  C  C83  1  0.50615044  0.64128319  0.85716193  1
  C  C84  1  0.02321941  0.83131563  0.41537265  1
  C  C85  1  0.80874163  0.97807052  0.41520596  1
  C  C86  1  0.16930897  0.19215010  0.41533101  1
  C  C87  1  0.02522147  0.18989436  0.91044070  1
  C  C88  1  0.16433818  0.97479191  0.91050777  1
  C  C89  1  0.81044530  0.83601876  0.91068880  1
  C  C90  1  0.96682401  0.15710555  0.58752686  1
  C  C91  1  0.18575018  0.02423468  0.58798689  1
  C  C92  1  0.83461789  0.81784326  0.58756587  1
  C  C93  1  0.98417780  0.81836725  0.08850821  1
  C  C94  1  0.84147659  0.03028278  0.08883249  1
  C  C95  1  0.18551229  0.16212439  0.08833342  1
  C  C96  1  0.68994628  0.16429624  0.74824021  1
  C  C97  1  0.47300360  0.30802879  0.74760293  1
  C  C98  1  0.83527885  0.52603116  0.74823333  1
  C  C99  1  0.68246736  0.51961994  0.24536858  1
  C  C100  1  0.83756873  0.31834767  0.24531864  1
  C  C101  1  0.48157966  0.16210791  0.24593351  1
  C  C102  1  0.63923920  0.49490628  0.92323131  1
  C  C103  1  0.85465633  0.35952663  0.92265477  1
  C  C104  1  0.50479421  0.14422683  0.92345747  1
  C  C105  1  0.63393182  0.14475926  0.42209614  1
  C  C106  1  0.51100882  0.36672810  0.42206336  1
  C  C107  1  0.85659391  0.48948279  0.42271326  1
  C  C108  1  0.34100553  0.49532592  0.07513710  1
  C  C109  1  0.14949488  0.65108592  0.07444383  1
  C  C110  1  0.49660361  0.85319404  0.07412218  1
  C  C111  1  0.35802585  0.85596681  0.57402657  1
  C  C112  1  0.50515747  0.65662071  0.57520248  1
  C  C113  1  0.14853161  0.49847595  0.57499617  1
  C  C114  1  0.30188180  0.82262159  0.25506500  1
  C  C115  1  0.52127408  0.69894516  0.25473044  1
  C  C116  1  0.17748662  0.47916415  0.25500407  1
  C  C117  1  0.29944070  0.47623621  0.75544035  1
  C  C118  1  0.17655415  0.70006987  0.75546439  1
  C  C119  1  0.52295281  0.82368433  0.75573513  1
