# generated using pymatgen
data_Cu2NiC6
_symmetry_space_group_name_H-M   'P 1'
_cell_length_a   6.37874012
_cell_length_b   6.37874012
_cell_length_c   4.48419400
_cell_angle_alpha   90.00000000
_cell_angle_beta   90.00000000
_cell_angle_gamma   29.97908805
_symmetry_Int_Tables_number   1
_chemical_formula_structural   Cu2NiC6
_chemical_formula_sum   'Cu2 Ni1 C6'
_cell_volume   91.16949560
_cell_formula_units_Z   1
loop_
 _symmetry_equiv_pos_site_id
 _symmetry_equiv_pos_as_xyz
  1  'x, y, z'
loop_
 _atom_site_type_symbol
 _atom_site_label
 _atom_site_symmetry_multiplicity
 _atom_site_fract_x
 _atom_site_fract_y
 _atom_site_fract_z
 _atom_site_occupancy
  Ni  Ni0  1  0.45900200  0.45900200  0.75000000  1
  Cu  Cu1  1  0.28640800  0.28640800  0.25000000  1
  Cu  Cu2  1  0.69447500  0.69447500  0.75000000  1
  C  C3  1  0.00582000  0.00582000  0.42893800  1
  C  C4  1  0.00582000  0.00582000  0.07106200  1
  C  C5  1  0.69918400  0.69918400  0.25000000  1
  C  C6  1  0.30479900  0.30479900  0.75000000  1
  C  C7  1  0.95236500  0.95236500  0.25000000  1
  C  C8  1  0.05046100  0.05046100  0.75000000  1
