# generated using pymatgen
data_Cu3NiC35
_symmetry_space_group_name_H-M   'P 1'
_cell_length_a   8.76726481
_cell_length_b   8.73131517
_cell_length_c   21.84700454
_cell_angle_alpha   89.97669593
_cell_angle_beta   89.87984122
_cell_angle_gamma   120.00215355
_symmetry_Int_Tables_number   1
_chemical_formula_structural   Cu3NiC35
_chemical_formula_sum   'Cu9 Ni3 C105'
_cell_volume   1448.28931565
_cell_formula_units_Z   3
loop_
 _symmetry_equiv_pos_site_id
 _symmetry_equiv_pos_as_xyz
  1  'x, y, z'
loop_
 _atom_site_type_symbol
 _atom_site_label
 _atom_site_symmetry_multiplicity
 _atom_site_fract_x
 _atom_site_fract_y
 _atom_site_fract_z
 _atom_site_occupancy
  C  C0  1  0.64688362  0.01232581  0.24506261  1
  C  C1  1  0.36557305  0.35341195  0.24468289  1
  C  C2  1  0.98885328  0.63764544  0.24535619  1
  C  C3  1  0.62709578  0.62018502  0.74878739  1
  C  C4  1  0.99263965  0.37295293  0.74889483  1
  C  C5  1  0.38239704  0.00797763  0.74560230  1
  C  C6  1  0.65928872  0.97725907  0.58356869  1
  C  C7  1  0.33223575  0.30173213  0.92362493  1
  C  C8  1  0.32414617  0.03313380  0.41523564  1
  C  C9  1  0.99930350  0.00015784  0.49892349  1
  C  C10  1  0.98491042  0.98869056  0.00023466  1
  C  C11  1  0.67821711  0.33519182  0.83945143  1
  C  C12  1  0.68010019  0.34560097  0.33228895  1
  C  C13  1  0.33363812  0.66831101  0.15805539  1
  C  C14  1  0.32023118  0.66089635  0.66129686  1
  C  C15  1  0.99265534  0.99964738  0.35950802  1
  C  C16  1  0.66623032  0.33265263  0.67912499  1
  C  C17  1  0.66885338  0.33401898  0.16956321  1
  Ni  Ni18  1  0.36235708  0.02899486  0.58278833  1
  Ni  Ni19  1  0.62576626  0.66691570  0.91739875  1
  Ni  Ni20  1  0.03812272  0.37761715  0.91695194  1
  Cu  Cu21  1  0.99357354  0.99730923  0.85963205  1
  Cu  Cu22  1  0.00719512  0.00002917  0.64350665  1
  Cu  Cu23  1  0.99759599  0.00107545  0.14283743  1
  Cu  Cu24  1  0.67971928  0.34329277  0.98281854  1
  Cu  Cu25  1  0.66496087  0.33601404  0.48337664  1
  Cu  Cu26  1  0.33621771  0.66417013  0.01454835  1
  Cu  Cu27  1  0.32963659  0.66428148  0.51934576  1
  Cu  Cu28  1  0.33143255  0.66336589  0.31537158  1
  Cu  Cu29  1  0.32966746  0.66070669  0.82111984  1
  C  C30  1  0.29023010  0.99240176  0.25206832  1
  C  C31  1  0.70263742  0.71011612  0.24963564  1
  C  C32  1  0.00773082  0.29806850  0.24928382  1
  C  C33  1  0.27432142  0.28460441  0.75346116  1
  C  C34  1  0.01087449  0.72629018  0.75382505  1
  C  C35  1  0.71471855  0.99095433  0.75287729  1
  C  C36  1  0.97105124  0.33597966  0.58359134  1
  C  C37  1  0.66586218  0.63367748  0.58308992  1
  C  C38  1  0.97864525  0.64187172  0.08193962  1
  C  C39  1  0.66215958  0.02544058  0.08149392  1
  C  C40  1  0.35949963  0.33438741  0.08164043  1
  C  C41  1  0.33540479  0.95471967  0.91602870  1
  C  C42  1  0.61254296  0.95859771  0.42065772  1
  C  C43  1  0.35330316  0.39410665  0.41997967  1
  C  C44  1  0.03893655  0.64549231  0.41998913  1
  C  C45  1  0.22389259  0.02342117  0.31159866  1
  C  C46  1  0.81115475  0.78045002  0.30582875  1
  C  C47  1  0.97249288  0.19068502  0.30575033  1
  C  C48  1  0.19046303  0.17238632  0.81104300  1
  C  C49  1  0.98592682  0.81628475  0.80966510  1
  C  C50  1  0.83421582  0.01782006  0.80736841  1
  C  C51  1  0.79271694  0.96017531  0.69225582  1
  C  C52  1  0.15762332  0.20029382  0.69566650  1
  C  C53  1  0.03915656  0.83768503  0.69445910  1
  C  C54  1  0.78919684  0.83466600  0.19204365  1
  C  C55  1  0.04323808  0.21051582  0.19156033  1
  C  C56  1  0.16277305  0.95769860  0.19650786  1
  C  C57  1  0.92153695  0.37857478  0.64472053  1
  C  C58  1  0.47347270  0.07937079  0.64466807  1
  C  C59  1  0.62828035  0.54458900  0.64444074  1
  C  C60  1  0.92857710  0.55374394  0.14338588  1
  C  C61  1  0.62940529  0.07568913  0.14381413  1
  C  C62  1  0.44798505  0.36601400  0.14254212  1
  C  C63  1  0.45792784  0.30284754  0.02671983  1
  C  C64  1  0.84015709  0.54085126  0.03006302  1
  C  C65  1  0.69580842  0.16441075  0.02976769  1
  C  C66  1  0.46634468  0.16653058  0.52442960  1
  C  C67  1  0.70421326  0.53936017  0.53008139  1
  C  C68  1  0.83214364  0.29542118  0.53186984  1
  C  C69  1  0.53181737  0.70560229  0.97285652  1
  C  C70  1  0.18071725  0.47016445  0.97030737  1
  C  C71  1  0.29799337  0.83153091  0.96942595  1
  C  C72  1  0.51367245  0.84908429  0.47680874  1
  C  C73  1  0.33471804  0.49107982  0.47431973  1
  C  C74  1  0.15970372  0.66863775  0.47331472  1
  C  C75  1  0.11917333  0.62105603  0.35797468  1
  C  C76  1  0.49801473  0.87400761  0.36067420  1
  C  C77  1  0.37160048  0.49583921  0.35813095  1
  C  C78  1  0.11766298  0.49648720  0.85276572  1
  C  C79  1  0.37017708  0.87752098  0.85528532  1
  C  C80  1  0.49700714  0.61871796  0.85483271  1
  C  C81  1  0.02530578  0.81096173  0.42041626  1
  C  C82  1  0.79176225  0.98028889  0.42320276  1
  C  C83  1  0.19876960  0.20778494  0.42128761  1
  C  C84  1  0.02873298  0.18384455  0.90964024  1
  C  C85  1  0.17162282  0.98061641  0.90938407  1
  C  C86  1  0.82227290  0.83806037  0.90960659  1
  C  C87  1  0.96987176  0.15491823  0.58762631  1
  C  C88  1  0.17137411  0.02082065  0.58806896  1
  C  C89  1  0.83283844  0.82451053  0.58648573  1
  C  C90  1  0.98869873  0.82687883  0.08543444  1
  C  C91  1  0.83526858  0.01242757  0.08369771  1
  C  C92  1  0.17354619  0.16061807  0.08418983  1
  C  C93  1  0.69409112  0.15442757  0.75225057  1
  C  C94  1  0.45863750  0.30831224  0.75070340  1
  C  C95  1  0.84932575  0.54138134  0.75192669  1
  C  C96  1  0.66683326  0.52174333  0.24151662  1
  C  C97  1  0.85562951  0.33396582  0.24207915  1
  C  C98  1  0.47665673  0.14677584  0.24329943  1
  C  C99  1  0.63550341  0.48371251  0.92605685  1
  C  C100  1  0.84319502  0.35307318  0.92647387  1
  C  C101  1  0.49767222  0.14227596  0.92295998  1
  C  C102  1  0.61993416  0.14319546  0.42263119  1
  C  C103  1  0.52866885  0.38505818  0.42300401  1
  C  C104  1  0.85576673  0.47324970  0.42603514  1
  C  C105  1  0.33929912  0.49913342  0.07088001  1
  C  C106  1  0.16096602  0.66334817  0.06712639  1
  C  C107  1  0.49665930  0.84347880  0.06886104  1
  C  C108  1  0.33570988  0.82982724  0.57168761  1
  C  C109  1  0.50708451  0.66375308  0.57122872  1
  C  C110  1  0.15943511  0.48652156  0.57036481  1
  C  C111  1  0.29664381  0.81219844  0.25546772  1
  C  C112  1  0.51813764  0.70544573  0.25523344  1
  C  C113  1  0.18828376  0.48269099  0.25400648  1
  C  C114  1  0.29013201  0.47354937  0.75535149  1
  C  C115  1  0.18373115  0.71181414  0.75601926  1
  C  C116  1  0.52689537  0.81921828  0.75699557  1
