# generated using pymatgen
data_CuNiC11
_symmetry_space_group_name_H-M   'P 1'
_cell_length_a   3.79302000
_cell_length_b   3.97650600
_cell_length_c   10.00176400
_cell_angle_alpha   90.00000000
_cell_angle_beta   90.00000000
_cell_angle_gamma   90.00000000
_symmetry_Int_Tables_number   1
_chemical_formula_structural   CuNiC11
_chemical_formula_sum   'Cu1 Ni1 C11'
_cell_volume   150.85627423
_cell_formula_units_Z   1
loop_
 _symmetry_equiv_pos_site_id
 _symmetry_equiv_pos_as_xyz
  1  'x, y, z'
loop_
 _atom_site_type_symbol
 _atom_site_label
 _atom_site_symmetry_multiplicity
 _atom_site_fract_x
 _atom_site_fract_y
 _atom_site_fract_z
 _atom_site_occupancy
  Ni  Ni0  1  0.50000000  0.50000000  0.94369400  1
  C  C1  1  0.00000000  0.00000000  0.01808600  1
  C  C2  1  0.00000000  0.50000000  0.26277700  1
  C  C3  1  0.50000000  0.00000000  0.72582500  1
  Cu  Cu4  1  0.50000000  0.49999900  0.49633900  1
  C  C5  1  0.00000000  0.00000000  0.20142100  1
  C  C6  1  0.50000000  0.50000000  0.74896400  1
  C  C7  1  0.00000000  0.50000000  0.44278600  1
  C  C8  1  0.50000000  0.00000000  0.97985800  1
  C  C9  1  0.50000000  0.00000000  0.54793400  1
  C  C10  1  0.00000000  0.50000000  0.01701900  1
  C  C11  1  0.50000000  0.50000000  0.23545200  1
  C  C12  1  0.00000000  0.00000000  0.80345800  1
