# generated using pymatgen
data_Cu2NiC4
_symmetry_space_group_name_H-M   'P 1'
_cell_length_a   2.87665600
_cell_length_b   6.31003376
_cell_length_c   5.32336569
_cell_angle_alpha   93.28470657
_cell_angle_beta   90.00000000
_cell_angle_gamma   117.12195500
_symmetry_Int_Tables_number   1
_chemical_formula_structural   Cu2NiC4
_chemical_formula_sum   'Cu2 Ni1 C4'
_cell_volume   85.82479039
_cell_formula_units_Z   1
loop_
 _symmetry_equiv_pos_site_id
 _symmetry_equiv_pos_as_xyz
  1  'x, y, z'
loop_
 _atom_site_type_symbol
 _atom_site_label
 _atom_site_symmetry_multiplicity
 _atom_site_fract_x
 _atom_site_fract_y
 _atom_site_fract_z
 _atom_site_occupancy
  Ni  Ni0  1  0.00000000  0.00000000  0.50000000  1
  Cu  Cu1  1  0.00000000  0.00000000  0.00000000  1
  Cu  Cu2  1  0.00000000  0.50000000  0.50000000  1
  C  C3  1  0.39075700  0.89075700  0.21922300  1
  C  C4  1  0.31541400  0.31541400  0.34158700  1
  C  C5  1  0.68458600  0.68458600  0.65841300  1
  C  C6  1  0.60924300  0.10924300  0.78077700  1
