# generated using pymatgen
data_Cu6NiC12
_symmetry_space_group_name_H-M   'P 1'
_cell_length_a   5.06151478
_cell_length_b   7.41055748
_cell_length_c   5.62347575
_cell_angle_alpha   96.58119600
_cell_angle_beta   99.35326477
_cell_angle_gamma   83.46309205
_symmetry_Int_Tables_number   1
_chemical_formula_structural   Cu6NiC12
_chemical_formula_sum   'Cu6 Ni1 C12'
_cell_volume   205.77543902
_cell_formula_units_Z   1
loop_
 _symmetry_equiv_pos_site_id
 _symmetry_equiv_pos_as_xyz
  1  'x, y, z'
loop_
 _atom_site_type_symbol
 _atom_site_label
 _atom_site_symmetry_multiplicity
 _atom_site_fract_x
 _atom_site_fract_y
 _atom_site_fract_z
 _atom_site_occupancy
  Ni  Ni0  1  0.49149200  0.83364500  0.82273800  1
  Cu  Cu1  1  0.57692900  0.02871500  0.42199600  1
  Cu  Cu2  1  0.49986900  0.32683700  0.82905600  1
  Cu  Cu3  1  0.46916600  0.63362900  0.22027900  1
  Cu  Cu4  1  0.98913400  0.64541800  0.67433600  1
  Cu  Cu5  1  0.00220500  0.31915300  0.32864200  1
  Cu  Cu6  1  0.99772100  0.00620100  0.99667000  1
  C  C7  1  0.86035400  0.08898200  0.29055000  1
  C  C8  1  0.63357000  0.76546500  0.50011000  1
  C  C9  1  0.66428800  0.08138500  0.80159200  1
  C  C10  1  0.67269300  0.41503700  0.14430100  1
  C  C11  1  0.34740800  0.57559500  0.86055000  1
  C  C12  1  0.33611600  0.23408300  0.50965800  1
  C  C13  1  0.34371000  0.90414600  0.14948700  1
  C  C14  1  0.82781700  0.40910100  0.63468300  1
  C  C15  1  0.84428500  0.75405800  0.98908700  1
  C  C16  1  0.17059900  0.24414000  0.01122300  1
  C  C17  1  0.12336800  0.90438400  0.69006500  1
  C  C18  1  0.14926800  0.56217200  0.35116800  1
