# generated using pymatgen
data_Cu2NiC71
_symmetry_space_group_name_H-M   'P 1'
_cell_length_a   18.31632232
_cell_length_b   9.15650755
_cell_length_c   23.77115773
_cell_angle_alpha   89.85881885
_cell_angle_beta   90.07951618
_cell_angle_gamma   119.84104125
_symmetry_Int_Tables_number   1
_chemical_formula_structural   Cu2NiC71
_chemical_formula_sum   'Cu6 Ni3 C213'
_cell_volume   3458.12899899
_cell_formula_units_Z   3
loop_
 _symmetry_equiv_pos_site_id
 _symmetry_equiv_pos_as_xyz
  1  'x, y, z'
loop_
 _atom_site_type_symbol
 _atom_site_label
 _atom_site_symmetry_multiplicity
 _atom_site_fract_x
 _atom_site_fract_y
 _atom_site_fract_z
 _atom_site_occupancy
  C  C0  1  0.68832871  0.37008538  0.24414631  1
  C  C1  1  0.99052017  0.63614445  0.25421524  1
  C  C2  1  0.33477876  0.96311881  0.59571842  1
  C  C3  1  0.83595808  0.96499452  0.59582204  1
  C  C4  1  0.33420705  0.69586606  0.08089921  1
  C  C5  1  0.34517383  0.66457324  0.41271701  1
  C  C6  1  0.00879354  0.99705755  0.49512301  1
  C  C7  1  0.51238590  0.01782809  0.50065626  1
  C  C8  1  0.99844463  0.99848696  0.99795936  1
  C  C9  1  0.50985502  0.01725010  0.99926879  1
  C  C10  1  0.33462433  0.32145330  0.83447271  1
  C  C11  1  0.83384181  0.32181690  0.83465180  1
  C  C12  1  0.32983344  0.32192835  0.32916612  1
  C  C13  1  0.83702468  0.34307822  0.33298597  1
  C  C14  1  0.16743419  0.66993323  0.16505154  1
  C  C15  1  0.67120940  0.67708303  0.15957864  1
  C  C16  1  0.17101182  0.67425393  0.67818883  1
  C  C17  1  0.67267283  0.67537784  0.67899583  1
  C  C18  1  0.99819917  0.99648246  0.35121679  1
  C  C19  1  0.49920471  0.00216185  0.34852559  1
  C  C20  1  0.00022886  0.00037311  0.65221580  1
  C  C21  1  0.50061335  0.99994116  0.65256449  1
  C  C22  1  0.50430788  0.00736354  0.15108144  1
  C  C23  1  0.33504827  0.33198991  0.18216983  1
  C  C24  1  0.83214079  0.33034165  0.17974881  1
  C  C25  1  0.33087722  0.32575847  0.98224142  1
  C  C26  1  0.83466288  0.33439834  0.98369172  1
  C  C27  1  0.33370109  0.32808474  0.48087283  1
  C  C28  1  0.83365793  0.33755110  0.47831911  1
  C  C29  1  0.16119054  0.66831372  0.01160687  1
  C  C30  1  0.66705407  0.66790674  0.01262498  1
  C  C31  1  0.16063385  0.65907292  0.51898642  1
  C  C32  1  0.66382163  0.66011256  0.52074557  1
  C  C33  1  0.16725578  0.66700759  0.31536702  1
  C  C34  1  0.17089090  0.67469985  0.81566692  1
  C  C35  1  0.67131855  0.67530916  0.81595349  1
  Ni  Ni36  1  0.85006062  0.70249936  0.25182813  1
  Ni  Ni37  1  0.35056564  0.00165741  0.74442782  1
  Ni  Ni38  1  0.85012791  0.00240018  0.74429554  1
  Cu  Cu39  1  0.99442683  0.00217943  0.84603587  1
  Cu  Cu40  1  0.49548920  0.00372734  0.84663370  1
  Cu  Cu41  1  0.99084100  0.99128819  0.15258049  1
  Cu  Cu42  1  0.33444705  0.32999063  0.68870622  1
  Cu  Cu43  1  0.83479912  0.33107680  0.68831127  1
  Cu  Cu44  1  0.67229651  0.67456521  0.31639463  1
  C  C45  1  0.14455999  0.99916741  0.24699426  1
  C  C46  1  0.64951655  0.99216383  0.25322619  1
  C  C47  1  0.34866473  0.69656637  0.25007093  1
  C  C48  1  0.00174222  0.29666126  0.24697906  1
  C  C49  1  0.50421571  0.31155863  0.25421805  1
  C  C50  1  0.15073488  0.29305119  0.74970476  1
  C  C51  1  0.65090423  0.29344648  0.74964711  1
  C  C52  1  0.99532860  0.69861157  0.75007715  1
  C  C53  1  0.49529950  0.69838383  0.75010880  1
  C  C54  1  0.47871976  0.33474322  0.58566123  1
  C  C55  1  0.97767167  0.33455775  0.58521082  1
  C  C56  1  0.18965111  0.04411049  0.58535576  1
  C  C57  1  0.68999445  0.04601216  0.58425766  1
  C  C58  1  0.33389604  0.62311019  0.58466119  1
  C  C59  1  0.83321499  0.62074724  0.58659179  1
  C  C60  1  0.48258620  0.63303749  0.08318078  1
  C  C61  1  0.98603636  0.64779766  0.08763944  1
  C  C62  1  0.33202912  0.02623954  0.08346588  1
  C  C63  1  0.83792386  0.03075862  0.08504152  1
  C  C64  1  0.17713056  0.32335117  0.08651576  1
  C  C65  1  0.68154817  0.33467438  0.08409729  1
  C  C66  1  0.32316571  0.67601364  0.91616751  1
  C  C67  1  0.82315651  0.67584801  0.91417267  1
  C  C68  1  0.01630601  0.35575050  0.91358286  1
  C  C69  1  0.51662182  0.35686522  0.91348694  1
  C  C70  1  0.15884007  0.97008743  0.91221523  1
  C  C71  1  0.65962232  0.96975542  0.91290238  1
  C  C72  1  0.31684871  0.96215575  0.41865293  1
  C  C73  1  0.81115467  0.95955111  0.41712841  1
  C  C74  1  0.16842574  0.37025768  0.41743958  1
  C  C75  1  0.66603573  0.37487965  0.41361504  1
  C  C76  1  0.01651525  0.66726835  0.41510550  1
  C  C77  1  0.52127088  0.66620081  0.41347881  1
  C  C78  1  0.10719355  0.02222875  0.29823902  1
  C  C79  1  0.60933936  0.01747688  0.30288771  1
  C  C80  1  0.39613308  0.77886776  0.30266550  1
  C  C81  1  0.91152784  0.78516679  0.30377306  1
  C  C82  1  0.49455686  0.21107452  0.30459705  1
  C  C83  1  0.99503659  0.20005516  0.29775288  1
  C  C84  1  0.11264519  0.18335018  0.80111521  1
  C  C85  1  0.61281597  0.18361086  0.80111725  1
  C  C86  1  0.48399838  0.78048886  0.80176860  1
  C  C87  1  0.98426063  0.78083658  0.80188072  1
  C  C88  1  0.41466878  0.03499807  0.80072819  1
  C  C89  1  0.91426154  0.03643754  0.80064624  1
  C  C90  1  0.38953823  0.98914161  0.68531583  1
  C  C91  1  0.88926790  0.98902336  0.68541121  1
  C  C92  1  0.10369415  0.21359221  0.69861091  1
  C  C93  1  0.60352365  0.21369148  0.69864141  1
  C  C94  1  0.00759404  0.79813375  0.69936583  1
  C  C95  1  0.50739248  0.79722090  0.69922594  1
  C  C96  1  0.39291562  0.79747164  0.19963045  1
  C  C97  1  0.89009291  0.81821640  0.19311665  1
  C  C98  1  0.01300132  0.21382374  0.19478713  1
  C  C99  1  0.52129854  0.23913351  0.20382421  1
  C  C100  1  0.08994729  0.97878690  0.19550866  1
  C  C101  1  0.60020445  0.96516830  0.20184463  1
  C  C102  1  0.43600044  0.35338832  0.63754754  1
  C  C103  1  0.93552310  0.35445304  0.63757500  1
  C  C104  1  0.24369609  0.13182072  0.63693237  1
  C  C105  1  0.74294628  0.13231267  0.63617053  1
  C  C106  1  0.32558080  0.51642605  0.63608123  1
  C  C107  1  0.82429597  0.51834834  0.63955348  1
  C  C108  1  0.44313879  0.53503395  0.13479534  1
  C  C109  1  0.94835434  0.55474338  0.14034262  1
  C  C110  1  0.32391496  0.10703747  0.13468794  1
  C  C111  1  0.82990603  0.10907189  0.13660667  1
  C  C112  1  0.23033445  0.34837032  0.13620471  1
  C  C113  1  0.72474335  0.34522314  0.13867609  1
  C  C114  1  0.21304766  0.29466048  0.03524106  1
  C  C115  1  0.72883991  0.32108412  0.03628053  1
  C  C116  1  0.42920630  0.54760955  0.03357841  1
  C  C117  1  0.93385006  0.56737420  0.03798525  1
  C  C118  1  0.33896484  0.12378606  0.03270562  1
  C  C119  1  0.84938188  0.13216939  0.03448446  1
  C  C120  1  0.22935878  0.14115276  0.53445815  1
  C  C121  1  0.72992910  0.14318790  0.53339385  1
  C  C122  1  0.33978137  0.54351408  0.53254516  1
  C  C123  1  0.83782249  0.53517164  0.53631965  1
  C  C124  1  0.42858639  0.31723194  0.53541021  1
  C  C125  1  0.92631772  0.31523659  0.53534242  1
  C  C126  1  0.28809908  0.70065509  0.96946884  1
  C  C127  1  0.78634898  0.70340570  0.96521422  1
  C  C128  1  0.06514234  0.42990103  0.96538829  1
  C  C129  1  0.56546239  0.43133994  0.96511240  1
  C  C130  1  0.14512006  0.87240882  0.96443312  1
  C  C131  1  0.64577176  0.87095651  0.96475785  1
  C  C132  1  0.27672084  0.86739950  0.47118641  1
  C  C133  1  0.77026601  0.86264777  0.46830114  1
  C  C134  1  0.16253028  0.45369960  0.46885093  1
  C  C135  1  0.65894786  0.46227871  0.46296915  1
  C  C136  1  0.06700040  0.67383159  0.46452798  1
  C  C137  1  0.56947213  0.68134864  0.46436193  1
  C  C138  1  0.05610165  0.65719782  0.36177166  1
  C  C139  1  0.56483891  0.64950223  0.36147775  1
  C  C140  1  0.26652187  0.87589275  0.36866441  1
  C  C141  1  0.75745841  0.87104613  0.36523045  1
  C  C142  1  0.17676971  0.47153747  0.36695519  1
  C  C143  1  0.67306613  0.47373715  0.35950443  1
  C  C144  1  0.05767773  0.45587997  0.86345730  1
  C  C145  1  0.55784984  0.45552130  0.86308301  1
  C  C146  1  0.16909878  0.88616128  0.86308719  1
  C  C147  1  0.66939876  0.88723162  0.86324632  1
  C  C148  1  0.27047168  0.65916351  0.86753638  1
  C  C149  1  0.77350825  0.65723723  0.86370530  1
  C  C150  1  0.00912848  0.82161650  0.41692952  1
  C  C151  1  0.51013141  0.81602955  0.40944023  1
  C  C152  1  0.40034430  0.96713070  0.41584690  1
  C  C153  1  0.89467058  0.97529903  0.41201639  1
  C  C154  1  0.09478631  0.19853518  0.41491833  1
  C  C155  1  0.59016783  0.20705298  0.41030875  1
  C  C156  1  0.01070363  0.18185280  0.90922303  1
  C  C157  1  0.51121346  0.18231817  0.90943999  1
  C  C158  1  0.07843338  0.98375913  0.90532419  1
  C  C159  1  0.57867971  0.98341904  0.90608496  1
  C  C160  1  0.41008631  0.83534873  0.90971792  1
  C  C161  1  0.91095972  0.83595173  0.90882761  1
  C  C162  1  0.48494096  0.17896170  0.58846811  1
  C  C163  1  0.98401939  0.17915894  0.58880546  1
  C  C164  1  0.10465294  0.02057689  0.59037947  1
  C  C165  1  0.60463030  0.02181546  0.58884777  1
  C  C166  1  0.41008874  0.79282657  0.58794244  1
  C  C167  1  0.90924610  0.79032555  0.58909465  1
  C  C168  1  0.48591231  0.80023200  0.08691170  1
  C  C169  1  0.99428906  0.82378197  0.09131002  1
  C  C170  1  0.40784512  0.00421080  0.08683016  1
  C  C171  1  0.92001629  0.02100921  0.08845011  1
  C  C172  1  0.08969573  0.16987935  0.09414513  1
  C  C173  1  0.59655528  0.18116123  0.08464164  1
  C  C174  1  0.34476576  0.18341318  0.74559879  1
  C  C175  1  0.84446611  0.18408175  0.74527777  1
  C  C176  1  0.23884619  0.31387623  0.74567629  1
  C  C177  1  0.73870722  0.31372014  0.74551441  1
  C  C178  1  0.41251357  0.53057420  0.74566690  1
  C  C179  1  0.91292396  0.53101153  0.74582164  1
  C  C180  1  0.34017096  0.52671540  0.24797180  1
  C  C181  1  0.83454224  0.51096711  0.24455235  1
  C  C182  1  0.43087018  0.33436391  0.24843746  1
  C  C183  1  0.92587110  0.31444811  0.24230444  1
  C  C184  1  0.22991301  0.14228866  0.24056740  1
  C  C185  1  0.73453394  0.14168687  0.24822921  1
  C  C186  1  0.33482346  0.52818622  0.91990577  1
  C  C187  1  0.83586016  0.52924679  0.91965648  1
  C  C188  1  0.43001783  0.32906002  0.91791443  1
  C  C189  1  0.93004247  0.32940516  0.91851466  1
  C  C190  1  0.23216383  0.14131542  0.91726297  1
  C  C191  1  0.73292092  0.14137666  0.91845437  1
  C  C192  1  0.32996955  0.13487911  0.41971324  1
  C  C193  1  0.81706854  0.12602907  0.41657922  1
  C  C194  1  0.24904930  0.36328175  0.41901256  1
  C  C195  1  0.74279196  0.36121703  0.41429356  1
  C  C196  1  0.43559005  0.51524796  0.41421771  1
  C  C197  1  0.93163668  0.51410691  0.41708425  1
  C  C198  1  0.17084938  0.47961301  0.08039050  1
  C  C199  1  0.67365052  0.48808812  0.07992539  1
  C  C200  1  0.07135479  0.66996660  0.08190153  1
  C  C201  1  0.56849736  0.65734227  0.07821856  1
  C  C202  1  0.25707415  0.85082075  0.08014550  1
  C  C203  1  0.76520520  0.85891919  0.08018799  1
  C  C204  1  0.18763016  0.87901463  0.58416755  1
  C  C205  1  0.68773237  0.88036650  0.58303216  1
  C  C206  1  0.25859945  0.64516820  0.58461136  1
  C  C207  1  0.75798465  0.64392209  0.58583381  1
  C  C208  1  0.06185636  0.48479580  0.58371723  1
  C  C209  1  0.56300432  0.48518709  0.58395475  1
  C  C210  1  0.14536265  0.83683873  0.24860604  1
  C  C211  1  0.65644058  0.83382640  0.26010977  1
  C  C212  1  0.26433145  0.68282904  0.25157782  1
  C  C213  1  0.75160116  0.67678303  0.25754722  1
  C  C214  1  0.07625615  0.46900000  0.24804186  1
  C  C215  1  0.58483054  0.48404065  0.25999687  1
  C  C216  1  0.15885057  0.45895175  0.75663666  1
  C  C217  1  0.65875723  0.45911073  0.75651578  1
  C  C218  1  0.06517568  0.66594643  0.75691145  1
  C  C219  1  0.56493267  0.66532434  0.75694278  1
  C  C220  1  0.25789765  0.84275627  0.75245365  1
  C  C221  1  0.75746972  0.84364939  0.75236017  1
