# generated using pymatgen
data_Cu2NiC10
_symmetry_space_group_name_H-M   'P 1'
_cell_length_a   8.24068110
_cell_length_b   8.24068110
_cell_length_c   8.60704270
_cell_angle_alpha   136.63780169
_cell_angle_beta   142.50969541
_cell_angle_gamma   53.97902531
_symmetry_Int_Tables_number   1
_chemical_formula_structural   Cu2NiC10
_chemical_formula_sum   'Cu2 Ni1 C10'
_cell_volume   244.16525741
_cell_formula_units_Z   1
loop_
 _symmetry_equiv_pos_site_id
 _symmetry_equiv_pos_as_xyz
  1  'x, y, z'
loop_
 _atom_site_type_symbol
 _atom_site_label
 _atom_site_symmetry_multiplicity
 _atom_site_fract_x
 _atom_site_fract_y
 _atom_site_fract_z
 _atom_site_occupancy
  Ni  Ni0  1  0.69709757  0.69709757  -0.00000000  1
  Cu  Cu1  1  0.91859067  0.91859067  -0.00000000  1
  Cu  Cu2  1  0.79199240  0.29199240  0.50000000  1
  C  C3  1  0.49978575  0.49978575  0.00000000  1
  C  C4  1  0.28002093  0.78002093  0.50000000  1
  C  C5  1  0.65351805  0.28651082  0.07264087  1
  C  C6  1  0.63265547  0.62057313  0.67236647  1
  C  C7  1  0.33146216  0.89033608  0.79648851  1
  C  C8  1  0.68869004  0.73589445  0.28027467  1
  C  C9  1  0.45561978  0.40841637  0.71972533  1
  C  C10  1  0.09384857  0.53497365  0.20351149  1
  C  C11  1  0.94820666  0.96028800  0.32763353  1
  C  C12  1  0.21386894  0.58087718  0.92735913  1
