# generated using pymatgen
data_CuNiC15
_symmetry_space_group_name_H-M   'P 1'
_cell_length_a   8.81408215
_cell_length_b   8.82487893
_cell_length_c   23.02657001
_cell_angle_alpha   89.82884828
_cell_angle_beta   90.00000000
_cell_angle_gamma   119.95953687
_symmetry_Int_Tables_number   1
_chemical_formula_structural   CuNiC15
_chemical_formula_sum   'Cu6 Ni6 C90'
_cell_volume   1551.74403079
_cell_formula_units_Z   6
loop_
 _symmetry_equiv_pos_site_id
 _symmetry_equiv_pos_as_xyz
  1  'x, y, z'
loop_
 _atom_site_type_symbol
 _atom_site_label
 _atom_site_symmetry_multiplicity
 _atom_site_fract_x
 _atom_site_fract_y
 _atom_site_fract_z
 _atom_site_occupancy
  Ni  Ni0  1  0.00056835  0.00127654  0.35441778  1
  Ni  Ni1  1  0.00070819  0.00127654  0.85441778  1
  Ni  Ni2  1  0.67890670  0.34131657  0.68821032  1
  Ni  Ni3  1  0.66241087  0.34131657  0.18821032  1
  Ni  Ni4  1  0.32899661  0.65400985  0.02098459  1
  Ni  Ni5  1  0.32501224  0.65400985  0.52098459  1
  Cu  Cu6  1  0.00033742  0.00108546  0.64706245  1
  Cu  Cu7  1  0.00074804  0.00108546  0.14706245  1
  Cu  Cu8  1  0.66520601  0.33270918  0.98060931  1
  Cu  Cu9  1  0.66750417  0.33270918  0.48060931  1
  Cu  Cu10  1  0.34389681  0.66153825  0.31366036  1
  Cu  Cu11  1  0.31764044  0.66153825  0.81366036  1
  C  C12  1  0.71366080  0.71574169  0.25063543  1
  C  C13  1  0.00208089  0.71574169  0.75063543  1
  C  C14  1  0.95406846  0.32753715  0.58357362  1
  C  C15  1  0.37346970  0.32753715  0.08357362  1
  C  C16  1  0.03633748  0.37258710  0.91746277  1
  C  C17  1  0.33624862  0.37258710  0.41746277  1
  C  C18  1  0.29159880  0.99367504  0.25115444  1
  C  C19  1  0.00135317  0.29496481  0.24998806  1
  C  C20  1  0.29361163  0.29496481  0.74998806  1
  C  C21  1  0.70207624  0.99367504  0.75115444  1
  C  C22  1  0.37431609  0.04226506  0.58410637  1
  C  C23  1  0.66968810  0.62779908  0.58374949  1
  C  C24  1  0.95811199  0.62779908  0.08374949  1
  C  C25  1  0.66794997  0.04226506  0.08410637  1
  C  C26  1  0.62218768  0.66447834  0.91622442  1
  C  C27  1  0.33760821  0.95934384  0.91781105  1
  C  C28  1  0.62173462  0.95934384  0.41781105  1
  C  C29  1  0.04228966  0.66447834  0.41622442  1
  C  C30  1  0.21572539  0.02765425  0.30230922  1
  C  C31  1  0.82341541  0.79693831  0.30462923  1
  C  C32  1  0.97148897  0.18905486  0.30211888  1
  C  C33  1  0.21756589  0.18905486  0.80211888  1
  C  C34  1  0.97352290  0.79693831  0.80462923  1
  C  C35  1  0.81192886  0.02765425  0.80230922  1
  C  C36  1  0.77899158  0.96139507  0.69747539  1
  C  C37  1  0.18090367  0.21971737  0.69705741  1
  C  C38  1  0.03786929  0.83090427  0.69424466  1
  C  C39  1  0.79303497  0.83090427  0.19424466  1
  C  C40  1  0.03881370  0.21971737  0.19705741  1
  C  C41  1  0.18240349  0.96139507  0.19747539  1
  C  C42  1  0.87339844  0.35773033  0.63718647  1
  C  C43  1  0.47973810  0.12099789  0.63626705  1
  C  C44  1  0.63454358  0.51790306  0.63538987  1
  C  C45  1  0.88336048  0.51790306  0.13538987  1
  C  C46  1  0.64126079  0.12099789  0.13626705  1
  C  C47  1  0.48433289  0.35773033  0.13718647  1
  C  C48  1  0.45404623  0.29240592  0.02749381  1
  C  C49  1  0.84780182  0.55117218  0.03048158  1
  C  C50  1  0.70386778  0.15375594  0.03060792  1
  C  C51  1  0.44988916  0.15375594  0.53060792  1
  C  C52  1  0.70337136  0.55117218  0.53048158  1
  C  C53  1  0.83836069  0.29240592  0.52749381  1
  C  C54  1  0.54700078  0.69698831  0.96839854  1
  C  C55  1  0.14920290  0.45355756  0.97080762  1
  C  C56  1  0.31036532  0.85252197  0.96997487  1
  C  C57  1  0.54215565  0.85252197  0.46997487  1
  C  C58  1  0.30435366  0.45355756  0.47080762  1
  C  C59  1  0.14998653  0.69698831  0.46839854  1
  C  C60  1  0.12130374  0.63328491  0.36284597  1
  C  C61  1  0.51075286  0.88452031  0.36429676  1
  C  C62  1  0.37435103  0.48964453  0.36169074  1
  C  C63  1  0.11529250  0.48964453  0.86169074  1
  C  C64  1  0.37376645  0.88452031  0.86429676  1
  C  C65  1  0.51198018  0.63328491  0.86284597  1
  C  C66  1  0.02026915  0.81641941  0.40915074  1
  C  C67  1  0.79437911  0.97794616  0.41024937  1
  C  C68  1  0.17751456  0.19381610  0.40768609  1
  C  C69  1  0.01630155  0.19381610  0.90768609  1
  C  C70  1  0.18356705  0.97794616  0.91024937  1
  C  C71  1  0.79615026  0.81641941  0.90915074  1
  C  C72  1  0.97136819  0.16015306  0.59146180  1
  C  C73  1  0.19789876  0.02643642  0.59001645  1
  C  C74  1  0.83122467  0.80172136  0.59033913  1
  C  C75  1  0.97049670  0.80172136  0.09033913  1
  C  C76  1  0.82853766  0.02643642  0.09001645  1
  C  C77  1  0.18878486  0.16015306  0.09146180  1
  C  C78  1  0.67758152  0.14449054  0.74296315  1
  C  C79  1  0.46557400  0.31130545  0.74083812  1
  C  C80  1  0.84263719  0.53565394  0.74354319  1
  C  C81  1  0.69301775  0.53565394  0.24354319  1
  C  C82  1  0.84573245  0.31130545  0.24083812  1
  C  C83  1  0.46691002  0.14449054  0.24296315  1
  C  C84  1  0.63608351  0.50320260  0.92301414  1
  C  C85  1  0.85299468  0.35811161  0.92555495  1
  C  C86  1  0.49767591  0.13524460  0.92344043  1
  C  C87  1  0.63756968  0.13524460  0.42344043  1
  C  C88  1  0.50511792  0.35811161  0.42555495  1
  C  C89  1  0.86712009  0.50320260  0.42301414  1
  C  C90  1  0.35474843  0.48790274  0.07623019  1
  C  C91  1  0.13380356  0.65269642  0.07593191  1
  C  C92  1  0.51311066  0.87014608  0.07515061  1
  C  C93  1  0.35703442  0.87014608  0.57515061  1
  C  C94  1  0.51889186  0.65269642  0.57593191  1
  C  C95  1  0.13315331  0.48790274  0.57623019  1
  C  C96  1  0.30315114  0.83115482  0.25887531  1
  C  C97  1  0.52948331  0.70097032  0.25587561  1
  C  C98  1  0.15963318  0.47215338  0.25675238  1
  C  C99  1  0.31251919  0.47215338  0.75675238  1
  C  C100  1  0.17148601  0.70097032  0.75587561  1
  C  C101  1  0.52800268  0.83115482  0.75887531  1
