# generated using pymatgen
data_Cu4NiC12
_symmetry_space_group_name_H-M   'P 1'
_cell_length_a   3.00871455
_cell_length_b   5.77315853
_cell_length_c   12.57759869
_cell_angle_alpha   92.64363086
_cell_angle_beta   90.00084607
_cell_angle_gamma   89.99947950
_symmetry_Int_Tables_number   1
_chemical_formula_structural   Cu4NiC12
_chemical_formula_sum   'Cu4 Ni1 C12'
_cell_volume   218.23768838
_cell_formula_units_Z   1
loop_
 _symmetry_equiv_pos_site_id
 _symmetry_equiv_pos_as_xyz
  1  'x, y, z'
loop_
 _atom_site_type_symbol
 _atom_site_label
 _atom_site_symmetry_multiplicity
 _atom_site_fract_x
 _atom_site_fract_y
 _atom_site_fract_z
 _atom_site_occupancy
  C  C0  1  0.25003076  0.36963263  0.01566772  1
  C  C1  1  0.24999683  0.11586372  0.64532170  1
  C  C2  1  0.74998155  0.49478631  0.82068872  1
  C  C3  1  0.74998422  0.07580436  0.42098892  1
  Ni  Ni4  1  0.75003354  0.34790079  0.21668752  1
  Cu  Cu5  1  0.25003992  0.84949325  0.09840212  1
  Cu  Cu6  1  0.75001124  0.96927803  0.86462386  1
  Cu  Cu7  1  0.75000802  0.56807457  0.41938332  1
  Cu  Cu8  1  0.24999972  0.63382439  0.62102551  1
  C  C9  1  0.75004327  0.61653710  0.12279585  1
  C  C10  1  0.24998663  0.19391859  0.84157803  1
  C  C11  1  0.25003405  0.35183598  0.32293260  1
  C  C12  1  0.74999842  0.80688177  0.69973606  1
  C  C13  1  0.75001670  0.09522512  0.10252636  1
  C  C14  1  0.25002363  0.77178960  0.91633951  1
  C  C15  1  0.75002409  0.40380462  0.57796090  1
  C  C16  1  0.25000041  0.79962915  0.47111930  1
