# generated using pymatgen
data_Cu2Ni4C7
_symmetry_space_group_name_H-M   'P 1'
_cell_length_a   3.33652300
_cell_length_b   3.33650074
_cell_length_c   38.35745500
_cell_angle_alpha   89.99962539
_cell_angle_beta   89.99992831
_cell_angle_gamma   120.00009974
_symmetry_Int_Tables_number   1
_chemical_formula_structural   Cu2Ni4C7
_chemical_formula_sum   'Cu2 Ni4 C7'
_cell_volume   369.79865599
_cell_formula_units_Z   1
loop_
 _symmetry_equiv_pos_site_id
 _symmetry_equiv_pos_as_xyz
  1  'x, y, z'
loop_
 _atom_site_type_symbol
 _atom_site_label
 _atom_site_symmetry_multiplicity
 _atom_site_fract_x
 _atom_site_fract_y
 _atom_site_fract_z
 _atom_site_occupancy
  C  C0  1  0.64389400  0.32687000  0.86685500  1
  C  C1  1  0.66664400  0.33328700  0.04423100  1
  C  C2  1  0.66663700  0.33327300  0.14321500  1
  C  C3  1  0.33330800  0.66661700  0.09368800  1
  C  C4  1  0.33328700  0.66658500  0.46967500  1
  C  C5  1  0.66670200  0.33340000  0.28198700  1
  C  C6  1  0.66668900  0.33337900  0.65758400  1
  Ni  Ni7  1  0.33337900  0.66675600  0.32565100  1
  Ni  Ni8  1  0.33335100  0.66670600  0.70128000  1
  Ni  Ni9  1  0.33335900  0.66671500  0.23820500  1
  Ni  Ni10  1  0.33335000  0.66670300  0.61381000  1
  Cu  Cu11  1  0.66661200  0.33323800  0.43007300  1
  Cu  Cu12  1  0.66661300  0.33324300  0.50921300  1
