# generated using pymatgen
data_Cu4NiC8
_symmetry_space_group_name_H-M   'P 1'
_cell_length_a   6.83109009
_cell_length_b   6.91270096
_cell_length_c   6.86719055
_cell_angle_alpha   59.79391350
_cell_angle_beta   59.34994877
_cell_angle_gamma   59.61638862
_symmetry_Int_Tables_number   1
_chemical_formula_structural   Cu4NiC8
_chemical_formula_sum   'Cu4 Ni1 C8'
_cell_volume   227.13795591
_cell_formula_units_Z   1
loop_
 _symmetry_equiv_pos_site_id
 _symmetry_equiv_pos_as_xyz
  1  'x, y, z'
loop_
 _atom_site_type_symbol
 _atom_site_label
 _atom_site_symmetry_multiplicity
 _atom_site_fract_x
 _atom_site_fract_y
 _atom_site_fract_z
 _atom_site_occupancy
  Ni  Ni0  1  0.86950500  0.87874500  0.87266300  1
  Cu  Cu1  1  0.49817000  0.00467600  0.49810700  1
  Cu  Cu2  1  0.00875500  0.49735100  0.49639100  1
  Cu  Cu3  1  0.49705400  0.49791700  0.00702200  1
  Cu  Cu4  1  0.49838200  0.49909500  0.49829100  1
  C  C5  1  0.73284200  0.73168900  0.73217800  1
  C  C6  1  0.26862500  0.26773000  0.69620600  1
  C  C7  1  0.26732300  0.70095100  0.26661000  1
  C  C8  1  0.69364800  0.26882300  0.26898200  1
  C  C9  1  0.26708800  0.26516200  0.26632900  1
  C  C10  1  0.73364400  0.73246200  0.30164400  1
  C  C11  1  0.30192400  0.73257600  0.73315100  1
  C  C12  1  0.73303900  0.30282200  0.73242600  1
