# generated using pymatgen
data_CuNiC5
_symmetry_space_group_name_H-M   'P 1'
_cell_length_a   3.19845700
_cell_length_b   3.19845241
_cell_length_c   28.30631500
_cell_angle_alpha   89.99969909
_cell_angle_beta   90.00000000
_cell_angle_gamma   120.00003716
_symmetry_Int_Tables_number   1
_chemical_formula_structural   CuNiC5
_chemical_formula_sum   'Cu1 Ni1 C5'
_cell_volume   250.78075966
_cell_formula_units_Z   1
loop_
 _symmetry_equiv_pos_site_id
 _symmetry_equiv_pos_as_xyz
  1  'x, y, z'
loop_
 _atom_site_type_symbol
 _atom_site_label
 _atom_site_symmetry_multiplicity
 _atom_site_fract_x
 _atom_site_fract_y
 _atom_site_fract_z
 _atom_site_occupancy
  C  C0  1  0.33332300  0.66664700  0.29986400  1
  Ni  Ni1  1  0.33332900  0.66665800  0.13909400  1
  Cu  Cu2  1  0.66667300  0.33334700  0.45711100  1
  C  C3  1  0.33333800  0.66667700  0.51252000  1
  C  C4  1  0.66666700  0.33333300  0.08404200  1
  C  C5  1  0.66666100  0.33332000  0.19439100  1
  C  C6  1  0.33334100  0.66668300  0.40132000  1
