# generated using pymatgen
data_Cu2Ni10C7
_symmetry_space_group_name_H-M   'P 1'
_cell_length_a   5.12239114
_cell_length_b   7.58946885
_cell_length_c   5.69674051
_cell_angle_alpha   98.56420205
_cell_angle_beta   94.66199504
_cell_angle_gamma   87.37460179
_symmetry_Int_Tables_number   1
_chemical_formula_structural   Cu2Ni10C7
_chemical_formula_sum   'Cu2 Ni10 C7'
_cell_volume   218.14612679
_cell_formula_units_Z   1
loop_
 _symmetry_equiv_pos_site_id
 _symmetry_equiv_pos_as_xyz
  1  'x, y, z'
loop_
 _atom_site_type_symbol
 _atom_site_label
 _atom_site_symmetry_multiplicity
 _atom_site_fract_x
 _atom_site_fract_y
 _atom_site_fract_z
 _atom_site_occupancy
  C  C0  1  0.00053400  0.16697500  0.67039600  1
  C  C1  1  0.53646500  0.68640800  0.14583600  1
  C  C2  1  0.46688800  0.97283400  0.55777400  1
  C  C3  1  0.53013900  0.35836100  0.79637400  1
  C  C4  1  0.99006000  0.67184700  0.68076900  1
  C  C5  1  0.96342100  0.35362900  0.30257800  1
  C  C6  1  0.00846200  0.97596500  0.05630500  1
  Ni  Ni7  1  0.84269200  0.42482000  0.63033200  1
  Ni  Ni8  1  0.81096000  0.76692000  0.96593400  1
  Ni  Ni9  1  0.86833300  0.11450000  0.32261900  1
  Ni  Ni10  1  0.67999500  0.11705000  0.81526900  1
  Ni  Ni11  1  0.68684300  0.75916800  0.46781100  1
  Ni  Ni12  1  0.67330500  0.44348300  0.11497000  1
  Ni  Ni13  1  0.32457700  0.57608900  0.85877000  1
  Ni  Ni14  1  0.32565600  0.23563900  0.54230300  1
  Ni  Ni15  1  0.32455000  0.89575100  0.22292100  1
  Ni  Ni16  1  0.15789900  0.91772100  0.72573800  1
  Cu  Cu17  1  0.15671300  0.24060600  0.01544500  1
  Cu  Cu18  1  0.16639800  0.57223300  0.36976500  1
