# generated using pymatgen
data_Cu7Ni5C66
_symmetry_space_group_name_H-M   'P 1'
_cell_length_a   17.79324228
_cell_length_b   8.87835744
_cell_length_c   22.26209712
_cell_angle_alpha   89.76422668
_cell_angle_beta   90.51417980
_cell_angle_gamma   119.87351638
_symmetry_Int_Tables_number   1
_chemical_formula_structural   Cu7Ni5C66
_chemical_formula_sum   'Cu21 Ni15 C198'
_cell_volume   3049.43240436
_cell_formula_units_Z   3
loop_
 _symmetry_equiv_pos_site_id
 _symmetry_equiv_pos_as_xyz
  1  'x, y, z'
loop_
 _atom_site_type_symbol
 _atom_site_label
 _atom_site_symmetry_multiplicity
 _atom_site_fract_x
 _atom_site_fract_y
 _atom_site_fract_z
 _atom_site_occupancy
  C  C0  1  0.32484407  0.02002896  0.24984368  1
  C  C1  1  0.67846560  0.35355133  0.25343322  1
  C  C2  1  0.99762132  0.63124445  0.24482261  1
  C  C3  1  0.49793409  0.62655598  0.24311603  1
  C  C4  1  0.32223245  0.62626795  0.75215994  1
  C  C5  1  0.82241038  0.62637975  0.75107808  1
  C  C6  1  0.99698917  0.36829709  0.74268421  1
  C  C7  1  0.49716234  0.36826962  0.74337976  1
  C  C8  1  0.17811119  0.00451403  0.75259308  1
  C  C9  1  0.67894284  0.00504903  0.75192958  1
  C  C10  1  0.33379074  0.96685340  0.57790228  1
  C  C11  1  0.83367004  0.96732059  0.57635881  1
  C  C12  1  0.33414996  0.70083341  0.07772822  1
  C  C13  1  0.83187950  0.69898445  0.07704591  1
  C  C14  1  0.48431152  0.67825935  0.91165824  1
  C  C15  1  0.98475099  0.67845919  0.91084066  1
  C  C16  1  0.48666258  0.29323586  0.40946488  1
  C  C17  1  0.16483889  0.03094836  0.41183437  1
  C  C18  1  0.99107125  0.00072822  0.49656202  1
  C  C19  1  0.50138915  0.99590664  0.49690704  1
  C  C20  1  0.99890982  0.00735194  0.99530349  1
  C  C21  1  0.49783165  0.00248039  0.99773785  1
  C  C22  1  0.32826354  0.33445215  0.83136311  1
  C  C23  1  0.82877842  0.33469277  0.83047998  1
  C  C24  1  0.32964235  0.33376563  0.32651837  1
  C  C25  1  0.82560405  0.30760673  0.33305924  1
  C  C26  1  0.15786078  0.65826830  0.16062731  1
  C  C27  1  0.65718176  0.67029150  0.16228567  1
  C  C28  1  0.15337083  0.64532511  0.66068742  1
  C  C29  1  0.65553692  0.64797981  0.65980908  1
  C  C30  1  0.99721112  0.00558544  0.35250226  1
  C  C31  1  0.50155050  0.00476052  0.35154135  1
  C  C32  1  0.00005019  0.99571374  0.85204811  1
  C  C33  1  0.49982823  0.99563516  0.85241733  1
  C  C34  1  0.33759095  0.34444938  0.68426164  1
  C  C35  1  0.83780428  0.34538765  0.68358958  1
  C  C36  1  0.33562400  0.33101068  0.18511179  1
  C  C37  1  0.83457382  0.32271457  0.18407213  1
  C  C38  1  0.16617645  0.67159285  0.01847225  1
  C  C39  1  0.66502313  0.67061419  0.01871776  1
  C  C40  1  0.16356729  0.65482224  0.51860012  1
  C  C41  1  0.66692446  0.66046900  0.51796291  1
  C  C42  1  0.01060692  0.01500891  0.64777502  1
  C  C43  1  0.51241773  0.01651044  0.64785082  1
  C  C44  1  0.00721687  0.99291312  0.14563393  1
  C  C45  1  0.51097018  0.00617620  0.14898194  1
  C  C46  1  0.33506624  0.35297264  0.98180075  1
  C  C47  1  0.83468691  0.35195243  0.98102906  1
  C  C48  1  0.34028574  0.32895031  0.48113557  1
  C  C49  1  0.83793151  0.31678944  0.47982644  1
  C  C50  1  0.17020261  0.68177018  0.31573565  1
  C  C51  1  0.67042801  0.68632477  0.31196735  1
  C  C52  1  0.16595418  0.65199344  0.81378448  1
  C  C53  1  0.66595437  0.65199680  0.81376008  1
  Ni  Ni54  1  0.14713770  0.00687374  0.25494745  1
  Ni  Ni55  1  0.65050630  0.00940351  0.25318894  1
  Ni  Ni56  1  0.50050304  0.29335908  0.25247097  1
  Ni  Ni57  1  0.14692335  0.28858587  0.75278327  1
  Ni  Ni58  1  0.64725006  0.28904729  0.75308082  1
  Ni  Ni59  1  -0.00000976  0.70827680  0.75247026  1
  Ni  Ni60  1  0.50013764  0.70854156  0.75255236  1
  Ni  Ni61  1  0.48555550  0.33640977  0.58749676  1
  Ni  Ni62  1  0.98411289  0.33628197  0.58728881  1
  Ni  Ni63  1  0.48457814  0.63315874  0.08741800  1
  Ni  Ni64  1  0.98319568  0.62239667  0.08725996  1
  Ni  Ni65  1  0.31375000  0.67540727  0.92112252  1
  Ni  Ni66  1  0.81356565  0.67652961  0.92116520  1
  Ni  Ni67  1  0.31572907  0.95494276  0.42229458  1
  Ni  Ni68  1  0.81473383  0.95306066  0.42076189  1
  Cu  Cu69  1  0.35241213  0.70841688  0.25070422  1
  Cu  Cu70  1  0.85523656  0.71326688  0.24961716  1
  Cu  Cu71  1  0.00114103  0.28916035  0.24992189  1
  Cu  Cu72  1  0.35406541  0.99735159  0.74989435  1
  Cu  Cu73  1  0.85405432  0.99743105  0.75023750  1
  Cu  Cu74  1  0.18786812  0.04449390  0.58332098  1
  Cu  Cu75  1  0.68819503  0.04453687  0.58394325  1
  Cu  Cu76  1  0.33369684  0.62345454  0.58328815  1
  Cu  Cu77  1  0.83391880  0.62448211  0.58343092  1
  Cu  Cu78  1  0.33355954  0.04418711  0.08351550  1
  Cu  Cu79  1  0.83444552  0.04520600  0.08331731  1
  Cu  Cu80  1  0.18751709  0.33037954  0.08450724  1
  Cu  Cu81  1  0.68783469  0.33163948  0.08380250  1
  Cu  Cu82  1  0.02074497  0.37268826  0.91754990  1
  Cu  Cu83  1  0.52073132  0.37233635  0.91735577  1
  Cu  Cu84  1  0.16965382  0.96135731  0.91690182  1
  Cu  Cu85  1  0.66994328  0.96179052  0.91692706  1
  Cu  Cu86  1  0.16744341  0.37885847  0.41686746  1
  Cu  Cu87  1  0.67003790  0.37792242  0.41685691  1
  Cu  Cu88  1  0.01985775  0.66318778  0.41696710  1
  Cu  Cu89  1  0.52156084  0.66964786  0.41711966  1
  C  C90  1  0.10028036  0.01767123  0.31352313  1
  C  C91  1  0.60139479  0.03133688  0.30804156  1
  C  C92  1  0.40657705  0.78760661  0.30368406  1
  C  C93  1  0.91043335  0.79495740  0.30166863  1
  C  C94  1  0.48026437  0.17463226  0.31085082  1
  C  C95  1  0.98938389  0.18713645  0.30370634  1
  C  C96  1  0.10015152  0.16978203  0.80838051  1
  C  C97  1  0.59970428  0.16937141  0.80829083  1
  C  C98  1  0.48085712  0.78646841  0.81092653  1
  C  C99  1  0.98094866  0.78621167  0.81101728  1
  C  C100  1  0.40838870  0.02894759  0.80283054  1
  C  C101  1  0.90830856  0.02871316  0.80322606  1
  C  C102  1  0.39168368  0.96528004  0.69490018  1
  C  C103  1  0.89174050  0.96532792  0.69532863  1
  C  C104  1  0.08205226  0.20423931  0.69175833  1
  C  C105  1  0.58248930  0.20537023  0.69178428  1
  C  C106  1  0.01734375  0.84439002  0.69410553  1
  C  C107  1  0.51714678  0.84458278  0.69404704  1
  C  C108  1  0.38954416  0.81792579  0.19551855  1
  C  C109  1  0.89326031  0.81793183  0.19348939  1
  C  C110  1  0.01232637  0.20510215  0.19545345  1
  C  C111  1  0.51631189  0.18816585  0.19434109  1
  C  C112  1  0.07930011  0.96515871  0.19492223  1
  C  C113  1  0.58399859  0.96319625  0.19200266  1
  C  C114  1  0.43493782  0.34670819  0.64432175  1
  C  C115  1  0.93602996  0.34696749  0.64564767  1
  C  C116  1  0.24001621  0.12555119  0.63737578  1
  C  C117  1  0.73875381  0.12268823  0.63898224  1
  C  C118  1  0.32144854  0.52400377  0.63865045  1
  C  C119  1  0.82188869  0.52554144  0.63920751  1
  C  C120  1  0.43441448  0.52217860  0.14455874  1
  C  C121  1  0.93501610  0.51915225  0.14622188  1
  C  C122  1  0.32163881  0.11948021  0.13868660  1
  C  C123  1  0.82218458  0.12285423  0.13712756  1
  C  C124  1  0.24067304  0.35408898  0.13748003  1
  C  C125  1  0.74002351  0.35668495  0.13809309  1
  C  C126  1  0.22676808  0.30074654  0.02943340  1
  C  C127  1  0.73075356  0.30567507  0.02994246  1
  C  C128  1  0.41488094  0.52863576  0.02636734  1
  C  C129  1  0.91498740  0.52933966  0.02698261  1
  C  C130  1  0.34260839  0.15340568  0.03003434  1
  C  C131  1  0.84552506  0.15295788  0.02906631  1
  C  C132  1  0.22920485  0.15282946  0.52827070  1
  C  C133  1  0.72981212  0.15485679  0.53031767  1
  C  C134  1  0.34299654  0.53145491  0.53022568  1
  C  C135  1  0.84389249  0.53573615  0.53050568  1
  C  C136  1  0.41624289  0.30337692  0.52620446  1
  C  C137  1  0.91420250  0.30028390  0.52783256  1
  C  C138  1  0.26748986  0.68561417  0.98000609  1
  C  C139  1  0.76744370  0.68609515  0.98020046  1
  C  C140  1  0.07367067  0.45872389  0.97013381  1
  C  C141  1  0.57403561  0.45876149  0.96978120  1
  C  C142  1  0.15428859  0.84746415  0.96851305  1
  C  C143  1  0.65505475  0.84826154  0.96848126  1
  C  C144  1  0.26491597  0.84818942  0.47960616  1
  C  C145  1  0.76999619  0.85169959  0.48069466  1
  C  C146  1  0.15570929  0.45771408  0.47019837  1
  C  C147  1  0.65429337  0.46059300  0.46820627  1
  C  C148  1  0.07566175  0.68989467  0.46871004  1
  C  C149  1  0.57363100  0.68847514  0.47017797  1
  C  C150  1  0.05984546  0.63491919  0.36067438  1
  C  C151  1  0.55782097  0.63125391  0.36167557  1
  C  C152  1  0.24893125  0.86156638  0.36071706  1
  C  C153  1  0.74769763  0.85405471  0.36137398  1
  C  C154  1  0.17802334  0.48753471  0.36224240  1
  C  C155  1  0.68032073  0.48009130  0.36049038  1
  C  C156  1  0.05930330  0.48509779  0.86152343  1
  C  C157  1  0.55961153  0.48552387  0.86125717  1
  C  C158  1  0.17994814  0.87896245  0.86067276  1
  C  C159  1  0.68094114  0.88075677  0.86066086  1
  C  C160  1  0.25001923  0.64275328  0.85969450  1
  C  C161  1  0.75004621  0.64254624  0.85984419  1
  C  C162  1  0.01201740  0.81957583  0.40997025  1
  C  C163  1  0.50828540  0.81723322  0.40975310  1
  C  C164  1  0.41232976  0.99123353  0.41455279  1
  C  C165  1  0.91008736  0.98578091  0.41020200  1
  C  C166  1  0.09291856  0.20101158  0.41074427  1
  C  C167  1  0.59268132  0.20251373  0.41219202  1
  C  C168  1  0.00911989  0.20008011  0.90985607  1
  C  C169  1  0.50942636  0.20015094  0.90954646  1
  C  C170  1  0.09235891  0.98197411  0.91194690  1
  C  C171  1  0.59282625  0.98257202  0.91184689  1
  C  C172  1  0.41150225  0.83180789  0.91393456  1
  C  C173  1  0.91159823  0.83185601  0.91422685  1
  C  C174  1  0.48275980  0.14431565  0.58896198  1
  C  C175  1  0.98310612  0.14483506  0.58965600  1
  C  C176  1  0.10051158  0.02898545  0.58630296  1
  C  C177  1  0.60033838  0.02883795  0.58700173  1
  C  C178  1  0.41334367  0.79902593  0.58664590  1
  C  C179  1  0.91331051  0.80191738  0.58784076  1
  C  C180  1  0.48303054  0.82143743  0.08935138  1
  C  C181  1  0.98394340  0.81760980  0.09121342  1
  C  C182  1  0.41312232  0.02665450  0.08709465  1
  C  C183  1  0.91492948  0.02767536  0.08860199  1
  C  C184  1  0.09869289  0.17212392  0.08930799  1
  C  C185  1  0.60092931  0.17237134  0.08660000  1
  C  C186  1  0.33906071  0.14609940  0.74307719  1
  C  C187  1  0.83897188  0.14597034  0.74350887  1
  C  C188  1  0.24177568  0.31391045  0.74210845  1
  C  C189  1  0.74196743  0.31410749  0.74241657  1
  C  C190  1  0.41925973  0.51438579  0.74479981  1
  C  C191  1  0.91901976  0.51410773  0.74509759  1
  C  C192  1  0.33983773  0.53333008  0.24350019  1
  C  C193  1  0.84399716  0.53661722  0.24390591  1
  C  C194  1  0.41951359  0.32542826  0.24472161  1
  C  C195  1  0.92604911  0.31793536  0.24431749  1
  C  C196  1  0.24333478  0.15950885  0.24333074  1
  C  C197  1  0.74303275  0.17886916  0.24284571  1
  C  C198  1  0.32069465  0.48757283  0.92442412  1
  C  C199  1  0.82103592  0.48844564  0.92485509  1
  C  C200  1  0.43318184  0.36282396  0.92145892  1
  C  C201  1  0.93302061  0.36320805  0.92175339  1
  C  C202  1  0.24953060  0.13367961  0.92301624  1
  C  C203  1  0.74992949  0.13501379  0.92343934  1
  C  C204  1  0.31860973  0.15266720  0.42446861  1
  C  C205  1  0.81874202  0.15011666  0.42461226  1
  C  C206  1  0.24784239  0.36181306  0.42123906  1
  C  C207  1  0.74979509  0.36476289  0.42369966  1
  C  C208  1  0.43233866  0.50328737  0.42269042  1
  C  C209  1  0.93238631  0.50616893  0.42166107  1
  C  C210  1  0.17814796  0.48508484  0.07772425  1
  C  C211  1  0.67898960  0.48656940  0.07694057  1
  C  C212  1  0.07750678  0.65277096  0.07644827  1
  C  C213  1  0.57737386  0.65433974  0.07606604  1
  C  C214  1  0.25802022  0.86594514  0.07820199  1
  C  C215  1  0.75982930  0.86678952  0.07793559  1
  C  C216  1  0.17926245  0.87155863  0.57754903  1
  C  C217  1  0.67862022  0.87099324  0.57800335  1
  C  C218  1  0.25842663  0.65056820  0.57725675  1
  C  C219  1  0.75825658  0.65149541  0.57849160  1
  C  C220  1  0.07724384  0.50054302  0.57679728  1
  C  C221  1  0.57770034  0.50096613  0.57584099  1
  C  C222  1  0.15075754  0.81585439  0.25869185  1
  C  C223  1  0.65301859  0.82337148  0.25732983  1
  C  C224  1  0.26439755  0.69665320  0.25693845  1
  C  C225  1  0.76633150  0.69079841  0.25467954  1
  C  C226  1  0.08095979  0.46856567  0.25495319  1
  C  C227  1  0.59212180  0.48509321  0.25776936  1
  C  C228  1  0.15448084  0.48524735  0.75738564  1
  C  C229  1  0.65444747  0.48523985  0.75748126  1
  C  C230  1  0.09164639  0.69831248  0.75856580  1
  C  C231  1  0.59174347  0.69876524  0.75854424  1
  C  C232  1  0.26586574  0.83632332  0.75541803  1
  C  C233  1  0.76587241  0.83610362  0.75567673  1
