# generated using pymatgen
data_Cu6Ni6C7
_symmetry_space_group_name_H-M   'P 1'
_cell_length_a   5.01566737
_cell_length_b   5.24034983
_cell_length_c   9.14743509
_cell_angle_alpha   89.99692498
_cell_angle_beta   89.98940778
_cell_angle_gamma   98.91923951
_symmetry_Int_Tables_number   1
_chemical_formula_structural   Cu6Ni6C7
_chemical_formula_sum   'Cu6 Ni6 C7'
_cell_volume   237.52251075
_cell_formula_units_Z   1
loop_
 _symmetry_equiv_pos_site_id
 _symmetry_equiv_pos_as_xyz
  1  'x, y, z'
loop_
 _atom_site_type_symbol
 _atom_site_label
 _atom_site_symmetry_multiplicity
 _atom_site_fract_x
 _atom_site_fract_y
 _atom_site_fract_z
 _atom_site_occupancy
  C  C0  1  0.95008975  0.55389702  0.67057281  1
  C  C1  1  0.99144513  0.93404662  0.00794610  1
  C  C2  1  0.99177513  0.93400759  0.33339983  1
  C  C3  1  0.38504489  0.03463744  0.67074244  1
  C  C4  1  0.43637538  0.54640001  0.85451558  1
  C  C5  1  0.62181554  0.40576585  0.17076911  1
  C  C6  1  0.43652469  0.54649404  0.48688251  1
  Ni  Ni7  1  0.17454791  0.78852994  0.50577868  1
  Ni  Ni8  1  0.17441441  0.78851747  0.83562725  1
  Ni  Ni9  1  0.26917006  0.38360398  0.67062615  1
  Ni  Ni10  1  0.66563731  0.68385880  0.00595327  1
  Ni  Ni11  1  0.66592728  0.68395933  0.33548595  1
  Ni  Ni12  1  0.84950480  0.11327921  0.17072390  1
  Cu  Cu13  1  0.15290056  0.72824897  0.17064599  1
  Cu  Cu14  1  0.29424462  0.23720031  0.00178037  1
  Cu  Cu15  1  0.29434304  0.23708044  0.33960383  1
  Cu  Cu16  1  0.68078794  0.78873420  0.67067944  1
  Cu  Cu17  1  0.71879590  0.31280609  0.52937373  1
  Cu  Cu18  1  0.71887967  0.31282068  0.81195405  1
