# generated using pymatgen
data_Cu14Ni2C15
_symmetry_space_group_name_H-M   'P 1'
_cell_length_a   12.50697400
_cell_length_b   6.27631700
_cell_length_c   9.31561541
_cell_angle_alpha   75.32910422
_cell_angle_beta   90.00000000
_cell_angle_gamma   90.00000000
_symmetry_Int_Tables_number   1
_chemical_formula_structural   Cu14Ni2C15
_chemical_formula_sum   'Cu28 Ni4 C30'
_cell_volume   707.41325386
_cell_formula_units_Z   2
loop_
 _symmetry_equiv_pos_site_id
 _symmetry_equiv_pos_as_xyz
  1  'x, y, z'
loop_
 _atom_site_type_symbol
 _atom_site_label
 _atom_site_symmetry_multiplicity
 _atom_site_fract_x
 _atom_site_fract_y
 _atom_site_fract_z
 _atom_site_occupancy
  C  C0  1  0.35048900  0.65294300  0.11912500  1
  C  C1  1  0.85048900  0.34705700  0.38087500  1
  C  C2  1  0.64951100  0.34705700  0.88087500  1
  C  C3  1  0.14951100  0.65294300  0.61912500  1
  C  C4  1  0.50000000  0.00000000  0.50000000  1
  C  C5  1  0.00000000  0.00000000  0.00000000  1
  C  C6  1  0.64044300  0.69213000  0.53267000  1
  C  C7  1  0.14044300  0.30787000  0.96733000  1
  C  C8  1  0.35955700  0.30787000  0.46733000  1
  C  C9  1  0.85955700  0.69213000  0.03267000  1
  C  C10  1  0.56228200  0.67632500  0.39969400  1
  C  C11  1  0.06228200  0.32367500  0.10030600  1
  C  C12  1  0.39608600  0.07825100  0.20514400  1
  C  C13  1  0.89608600  0.92174900  0.29485600  1
  C  C14  1  0.60391400  0.92174900  0.79485600  1
  C  C15  1  0.10391400  0.07825100  0.70514400  1
  C  C16  1  0.37656300  0.91799200  0.73082200  1
  C  C17  1  0.87656300  0.08200800  0.76917800  1
  C  C18  1  0.62343700  0.08200800  0.26917800  1
  C  C19  1  0.12343700  0.91799200  0.23082200  1
  C  C20  1  0.40931200  0.68446000  0.69820000  1
  C  C21  1  0.69303700  0.99182300  0.67240100  1
  C  C22  1  0.90931200  0.31554000  0.80180000  1
  C  C23  1  0.59068800  0.31554000  0.30180000  1
  C  C24  1  0.09068800  0.68446000  0.19820000  1
  C  C25  1  0.80696300  0.99182300  0.17240100  1
  C  C26  1  0.30696300  0.00817700  0.32759900  1
  C  C27  1  0.93771800  0.67632500  0.89969400  1
  C  C28  1  0.43771800  0.32367500  0.60030600  1
  C  C29  1  0.19303700  0.00817700  0.82759900  1
  Ni  Ni30  1  0.85935800  0.72735700  0.61163100  1
  Ni  Ni31  1  0.35935800  0.27264300  0.88836900  1
  Ni  Ni32  1  0.14064200  0.27264300  0.38836900  1
  Ni  Ni33  1  0.64064200  0.72735700  0.11163100  1
  Cu  Cu34  1  0.61069800  0.15912100  0.34891700  1
  Cu  Cu35  1  0.88930200  0.15912100  0.84891700  1
  Cu  Cu36  1  0.11941400  0.97308500  0.80182000  1
  Cu  Cu37  1  0.61941400  0.02691500  0.69818000  1
  Cu  Cu38  1  0.88058600  0.02691500  0.19818000  1
  Cu  Cu39  1  0.38058600  0.97308500  0.30182000  1
  Cu  Cu40  1  0.11069800  0.84087900  0.15108300  1
  Cu  Cu41  1  0.32997200  0.05389300  0.86211900  1
  Cu  Cu42  1  0.82997200  0.94610700  0.63788100  1
  Cu  Cu43  1  0.67002800  0.94610700  0.13788100  1
  Cu  Cu44  1  0.93551300  0.71414900  0.99791900  1
  Cu  Cu45  1  0.43551300  0.28585100  0.50208100  1
  Cu  Cu46  1  0.06448700  0.28585100  0.00208100  1
  Cu  Cu47  1  0.56448700  0.71414900  0.49791900  1
  Cu  Cu48  1  0.17002800  0.05389300  0.36211900  1
  Cu  Cu49  1  0.42502600  0.40095200  0.75975700  1
  Cu  Cu50  1  0.92502600  0.59904800  0.74024300  1
  Cu  Cu51  1  0.07497400  0.40095200  0.25975700  1
  Cu  Cu52  1  0.42377000  0.24247400  0.02584500  1
  Cu  Cu53  1  0.92377000  0.75752600  0.47415500  1
  Cu  Cu54  1  0.57623000  0.75752600  0.97415500  1
  Cu  Cu55  1  0.07623000  0.24247400  0.52584500  1
  Cu  Cu56  1  0.57497400  0.59904800  0.24024300  1
  Cu  Cu57  1  0.76029200  0.59899700  0.60124900  1
  Cu  Cu58  1  0.73970800  0.59899700  0.10124900  1
  Cu  Cu59  1  0.23970800  0.40100300  0.39875100  1
  Cu  Cu60  1  0.38930200  0.84087900  0.65108300  1
  Cu  Cu61  1  0.26029200  0.40100300  0.89875100  1
