# generated using pymatgen
data_Cu2Ni2C9
_symmetry_space_group_name_H-M   'P 1'
_cell_length_a   5.25350474
_cell_length_b   6.04824248
_cell_length_c   6.13950216
_cell_angle_alpha   61.70471240
_cell_angle_beta   78.85542509
_cell_angle_gamma   79.47847782
_symmetry_Int_Tables_number   1
_chemical_formula_structural   Cu2Ni2C9
_chemical_formula_sum   'Cu2 Ni2 C9'
_cell_volume   167.59422472
_cell_formula_units_Z   1
loop_
 _symmetry_equiv_pos_site_id
 _symmetry_equiv_pos_as_xyz
  1  'x, y, z'
loop_
 _atom_site_type_symbol
 _atom_site_label
 _atom_site_symmetry_multiplicity
 _atom_site_fract_x
 _atom_site_fract_y
 _atom_site_fract_z
 _atom_site_occupancy
  C  C0  1  0.71777796  0.09769763  0.59222376  1
  Ni  Ni1  1  0.43199213  0.22010770  0.21414353  1
  Ni  Ni2  1  0.43253016  0.70454512  0.72796488  1
  Cu  Cu3  1  0.01736199  0.75416033  0.24577510  1
  Cu  Cu4  1  0.02816328  0.27898247  0.76811625  1
  C  C5  1  0.18479183  0.60933056  0.59351052  1
  C  C6  1  0.85345979  0.42061322  0.43617352  1
  C  C7  1  0.86935116  0.94598970  0.90072942  1
  C  C8  1  0.18297624  0.08684515  0.11547186  1
  C  C9  1  0.66641467  0.39310494  0.90037937  1
  C  C10  1  0.32987866  0.10193429  0.60188307  1
  C  C11  1  0.27995975  0.57652432  0.08021562  1
  C  C12  1  0.68589837  0.90540157  0.40674710  1
