# generated using pymatgen
data_Cu2Ni4C7
_symmetry_space_group_name_H-M   'P 1'
_cell_length_a   3.33584700
_cell_length_b   3.33578933
_cell_length_c   37.06796903
_cell_angle_alpha   90.00243205
_cell_angle_beta   90.00204576
_cell_angle_gamma   119.99820670
_symmetry_Int_Tables_number   1
_chemical_formula_structural   Cu2Ni4C7
_chemical_formula_sum   'Cu2 Ni4 C7'
_cell_volume   357.22513384
_cell_formula_units_Z   1
loop_
 _symmetry_equiv_pos_site_id
 _symmetry_equiv_pos_as_xyz
  1  'x, y, z'
loop_
 _atom_site_type_symbol
 _atom_site_label
 _atom_site_symmetry_multiplicity
 _atom_site_fract_x
 _atom_site_fract_y
 _atom_site_fract_z
 _atom_site_occupancy
  C  C0  1  0.33645400  0.60557800  0.86765400  1
  C  C1  1  0.66647100  0.33300300  0.04249100  1
  C  C2  1  0.66658700  0.33316500  0.14487200  1
  C  C3  1  0.33318700  0.66642900  0.09363700  1
  C  C4  1  0.66670800  0.33316200  0.28201000  1
  C  C5  1  0.33322900  0.66655000  0.46963700  1
  C  C6  1  0.66644500  0.33310800  0.65788200  1
  Ni  Ni7  1  0.33320200  0.66655000  0.70310000  1
  Ni  Ni8  1  0.66653600  0.33320000  0.42437100  1
  Ni  Ni9  1  0.66660900  0.33323500  0.51484600  1
  Ni  Ni10  1  0.33301900  0.66634800  0.61259100  1
  Cu  Cu11  1  0.33338100  0.66649200  0.32292500  1
  Cu  Cu12  1  0.33328300  0.66643400  0.24104200  1
