# generated using pymatgen
data_Cu7Ni5C62
_symmetry_space_group_name_H-M   'P 1'
_cell_length_a   17.76927082
_cell_length_b   8.93759325
_cell_length_c   22.82059580
_cell_angle_alpha   90.14247197
_cell_angle_beta   89.66791342
_cell_angle_gamma   120.33688308
_symmetry_Int_Tables_number   1
_chemical_formula_structural   Cu7Ni5C62
_chemical_formula_sum   'Cu21 Ni15 C186'
_cell_volume   3127.92361149
_cell_formula_units_Z   3
loop_
 _symmetry_equiv_pos_site_id
 _symmetry_equiv_pos_as_xyz
  1  'x, y, z'
loop_
 _atom_site_type_symbol
 _atom_site_label
 _atom_site_symmetry_multiplicity
 _atom_site_fract_x
 _atom_site_fract_y
 _atom_site_fract_z
 _atom_site_occupancy
  C  C0  1  0.00035489  0.61745222  0.24933290  1
  C  C1  1  0.50061546  0.62213727  0.25005492  1
  C  C2  1  0.00093242  0.37500737  0.74990265  1
  C  C3  1  0.50095071  0.38268718  0.74932193  1
  C  C4  1  0.32921459  0.96538826  0.57946109  1
  C  C5  1  0.82879024  0.69336301  0.08228265  1
  C  C6  1  0.99296528  0.98491019  0.49579613  1
  C  C7  1  0.50277669  0.99953412  0.49801198  1
  C  C8  1  0.00359639  0.00467314  0.00264814  1
  C  C9  1  0.49215262  0.99803909  0.00019654  1
  C  C10  1  0.32748797  0.34497159  0.82707672  1
  C  C11  1  0.81986839  0.31981085  0.82509548  1
  C  C12  1  0.32739489  0.32211606  0.31927263  1
  C  C13  1  0.82563228  0.30910026  0.32450569  1
  C  C14  1  0.17307166  0.67880003  0.17001492  1
  C  C15  1  0.66653101  0.68007428  0.17183611  1
  C  C16  1  0.17426161  0.65448428  0.66491196  1
  C  C17  1  0.66963435  0.66293342  0.66834883  1
  C  C18  1  0.00194089  0.99646368  0.35713123  1
  C  C19  1  0.50094100  0.00175696  0.34636773  1
  C  C20  1  0.00207079  0.01093217  0.84986778  1
  C  C21  1  0.50269589  0.00729352  0.85766657  1
  C  C22  1  0.99648079  0.00567705  0.64811913  1
  C  C23  1  0.50294826  0.00779067  0.64211072  1
  C  C24  1  0.00357760  0.99896565  0.14246434  1
  C  C25  1  0.49724210  0.00032098  0.15215303  1
  C  C26  1  0.33762107  0.33856293  0.97786295  1
  C  C27  1  0.83611073  0.33224524  0.98649366  1
  C  C28  1  0.33793511  0.34243912  0.48465000  1
  C  C29  1  0.83541219  0.33272339  0.47534205  1
  C  C30  1  0.33259277  0.35501921  0.68166810  1
  C  C31  1  0.82061855  0.31377212  0.69208215  1
  C  C32  1  0.33006999  0.32491242  0.19643030  1
  C  C33  1  0.83165083  0.30997783  0.18257873  1
  C  C34  1  0.17220529  0.67604118  0.02006976  1
  C  C35  1  0.66218751  0.66819592  0.01551660  1
  C  C36  1  0.16523408  0.66054026  0.51280222  1
  C  C37  1  0.66936007  0.66606333  0.51693483  1
  C  C38  1  0.16669620  0.68483527  0.31026721  1
  C  C39  1  0.67080870  0.68973341  0.30877937  1
  C  C40  1  0.17944209  0.65337609  0.81393353  1
  C  C41  1  0.66569328  0.64915038  0.81048467  1
  Ni  Ni42  1  0.14586071  0.00002639  0.24974118  1
  Ni  Ni43  1  0.65411091  0.01232558  0.24768117  1
  Ni  Ni44  1  0.34572765  0.70005371  0.25098606  1
  Ni  Ni45  1  0.50612041  0.30448875  0.25057934  1
  Ni  Ni46  1  0.15453447  0.30209049  0.74829778  1
  Ni  Ni47  1  0.64732093  0.29285668  0.74991574  1
  Ni  Ni48  1  0.84648589  0.99488839  0.75100519  1
  Ni  Ni49  1  0.48556668  0.35249049  0.58875136  1
  Ni  Ni50  1  0.32566534  0.62498560  0.58523597  1
  Ni  Ni51  1  0.98571291  0.61984943  0.08907671  1
  Ni  Ni52  1  0.82644143  0.02543451  0.08523514  1
  Ni  Ni53  1  0.30825334  0.66703656  0.91867026  1
  Ni  Ni54  1  0.52912291  0.39082974  0.91535326  1
  Ni  Ni55  1  0.80569525  0.93995990  0.41729363  1
  Ni  Ni56  1  0.02989122  0.66939316  0.41578725  1
  Cu  Cu57  1  0.85797665  0.71690433  0.24930157  1
  Cu  Cu58  1  -0.00005768  0.28065472  0.25024199  1
  Cu  Cu59  1  0.00295675  0.71973689  0.74967198  1
  Cu  Cu60  1  0.49997850  0.71888079  0.74995949  1
  Cu  Cu61  1  0.35617706  0.99727316  0.74980516  1
  Cu  Cu62  1  0.97642395  0.33190418  0.58568904  1
  Cu  Cu63  1  0.18528671  0.04245183  0.58428690  1
  Cu  Cu64  1  0.69040942  0.04405264  0.58405544  1
  Cu  Cu65  1  0.83581120  0.62004706  0.58643923  1
  Cu  Cu66  1  0.47735038  0.62588418  0.08461885  1
  Cu  Cu67  1  0.33553345  0.04872153  0.08491822  1
  Cu  Cu68  1  0.19191704  0.33610123  0.08491566  1
  Cu  Cu69  1  0.68472804  0.32719094  0.08352332  1
  Cu  Cu70  1  0.81775024  0.66462719  0.91690183  1
  Cu  Cu71  1  0.01647555  0.37003904  0.91557732  1
  Cu  Cu72  1  0.16483980  0.95859611  0.91606090  1
  Cu  Cu73  1  0.66997332  0.96595828  0.91594159  1
  Cu  Cu74  1  0.31769838  0.96914457  0.41874130  1
  Cu  Cu75  1  0.16954388  0.37305247  0.41681921  1
  Cu  Cu76  1  0.66390546  0.36773692  0.41800828  1
  Cu  Cu77  1  0.51748886  0.66856562  0.41730216  1
  C  C78  1  0.08965485  0.01485642  0.30602495  1
  C  C79  1  0.59721890  0.02228944  0.30635341  1
  C  C80  1  0.41383666  0.81092342  0.30713839  1
  C  C81  1  0.91269611  0.81374987  0.30137704  1
  C  C82  1  0.49139117  0.17155599  0.30691162  1
  C  C83  1  0.99126650  0.17543668  0.30336696  1
  C  C84  1  0.09591950  0.17466655  0.80624506  1
  C  C85  1  0.59159656  0.16387099  0.80573895  1
  C  C86  1  0.49142220  0.80692809  0.80319966  1
  C  C87  1  0.99222853  0.80799125  0.80303263  1
  C  C88  1  0.41058476  0.00855454  0.80155895  1
  C  C89  1  0.91559715  0.01432805  0.80558285  1
  C  C90  1  0.39819133  0.97551494  0.69448206  1
  C  C91  1  0.90239949  0.97339435  0.69284525  1
  C  C92  1  0.08366597  0.18247834  0.69314812  1
  C  C93  1  0.58368816  0.17740022  0.69299737  1
  C  C94  1  0.01149133  0.82717969  0.69636021  1
  C  C95  1  0.50210201  0.81991030  0.69634411  1
  C  C96  1  0.40071489  0.83362407  0.19296695  1
  C  C97  1  0.90076941  0.82194962  0.19390586  1
  C  C98  1  0.00208840  0.18391499  0.19632351  1
  C  C99  1  0.51410608  0.19580952  0.19235099  1
  C  C100  1  0.08152577  0.98488164  0.19294054  1
  C  C101  1  0.58465508  0.98497188  0.19173256  1
  C  C102  1  0.43702623  0.35301973  0.64808501  1
  C  C103  1  0.93642783  0.34863342  0.63940403  1
  C  C104  1  0.23853906  0.12221437  0.63642294  1
  C  C105  1  0.74118700  0.12427264  0.63661010  1
  C  C106  1  0.30618716  0.50999034  0.64188991  1
  C  C107  1  0.82984838  0.52118128  0.63850776  1
  C  C108  1  0.43638400  0.52695454  0.13725710  1
  C  C109  1  0.93623315  0.51983744  0.14755963  1
  C  C110  1  0.32893650  0.13578749  0.13680037  1
  C  C111  1  0.80828634  0.10715011  0.14058504  1
  C  C112  1  0.24267839  0.35422550  0.13653705  1
  C  C113  1  0.73850398  0.35491755  0.13523313  1
  C  C114  1  0.23006295  0.30143560  0.03086365  1
  C  C115  1  0.73094598  0.30465219  0.02887185  1
  C  C116  1  0.42042096  0.53123100  0.03107706  1
  C  C117  1  0.91507066  0.52460182  0.03027434  1
  C  C118  1  0.34462814  0.15525631  0.03040796  1
  C  C119  1  0.84376281  0.16174145  0.02674491  1
  C  C120  1  0.22761158  0.15435595  0.53026119  1
  C  C121  1  0.73046705  0.15845836  0.53163003  1
  C  C122  1  0.34296011  0.52456458  0.52751646  1
  C  C123  1  0.84731064  0.53754030  0.53208710  1
  C  C124  1  0.41475521  0.30541210  0.53084563  1
  C  C125  1  0.92027656  0.30430407  0.53314677  1
  C  C126  1  0.27225398  0.70965126  0.97641326  1
  C  C127  1  0.78702628  0.69922376  0.97164756  1
  C  C128  1  0.06823297  0.44287947  0.96757991  1
  C  C129  1  0.58462433  0.46278085  0.97353625  1
  C  C130  1  0.14645741  0.85609837  0.96909891  1
  C  C131  1  0.65413256  0.86677874  0.97008839  1
  C  C132  1  0.28374179  0.87350416  0.47375838  1
  C  C133  1  0.77338038  0.83690746  0.47784269  1
  C  C134  1  0.15310916  0.44010463  0.47106096  1
  C  C135  1  0.64849130  0.43772144  0.47128966  1
  C  C136  1  0.08303560  0.70472777  0.47500852  1
  C  C137  1  0.56808156  0.69227639  0.46984776  1
  C  C138  1  0.05759462  0.62010348  0.35514211  1
  C  C139  1  0.54909625  0.63543612  0.36288013  1
  C  C140  1  0.26493407  0.89015120  0.36690518  1
  C  C141  1  0.75005853  0.87541314  0.35886029  1
  C  C142  1  0.18666269  0.47579657  0.36487413  1
  C  C143  1  0.68206056  0.46756323  0.36490761  1
  C  C144  1  0.04960269  0.46517993  0.86046792  1
  C  C145  1  0.55614033  0.49310567  0.85413491  1
  C  C146  1  0.18003870  0.88850110  0.86263936  1
  C  C147  1  0.68653771  0.89688959  0.86375123  1
  C  C148  1  0.25526511  0.61362184  0.85853524  1
  C  C149  1  0.76488869  0.63948902  0.86513590  1
  C  C150  1  0.00910267  0.83343287  0.40713785  1
  C  C151  1  0.50300249  0.82107636  0.41259109  1
  C  C152  1  0.40877488  0.99611307  0.41198404  1
  C  C153  1  0.90897031  0.98866816  0.40534247  1
  C  C154  1  0.08864877  0.19220770  0.40998517  1
  C  C155  1  0.58755563  0.18392395  0.41210934  1
  C  C156  1  0.00331837  0.18543811  0.90903833  1
  C  C157  1  0.50908247  0.18493464  0.90620749  1
  C  C158  1  0.08679660  0.98659694  0.90796414  1
  C  C159  1  0.58920722  0.98503817  0.90929917  1
  C  C160  1  0.41042491  0.82934097  0.90567880  1
  C  C161  1  0.91035854  0.82023440  0.90742852  1
  C  C162  1  0.48604896  0.16005677  0.59102727  1
  C  C163  1  0.98163723  0.16264348  0.58866637  1
  C  C164  1  0.09672288  0.02863192  0.58853662  1
  C  C165  1  0.60051977  0.03097548  0.58867935  1
  C  C166  1  0.41954464  0.81722958  0.59036895  1
  C  C167  1  0.92079668  0.80052380  0.58981558  1
  C  C168  1  0.48194235  0.80013185  0.08463081  1
  C  C169  1  0.98614359  0.81203663  0.09014927  1
  C  C170  1  0.41899842  0.03844345  0.08547415  1
  C  C171  1  0.91983878  0.02086651  0.08939314  1
  C  C172  1  0.10067337  0.16923281  0.08872037  1
  C  C173  1  0.59838495  0.16283481  0.08471684  1
  C  C174  1  0.35534140  0.15898162  0.74829144  1
  C  C175  1  0.85996431  0.18641162  0.74712513  1
  C  C176  1  0.24289177  0.29904968  0.74805756  1
  C  C177  1  0.74065223  0.30874856  0.75003024  1
  C  C178  1  0.42255002  0.54345717  0.74946603  1
  C  C179  1  0.92486603  0.54893363  0.74612012  1
  C  C180  1  0.35697987  0.53494211  0.24633071  1
  C  C181  1  0.85741449  0.55367952  0.24799549  1
  C  C182  1  0.42013265  0.31685142  0.24723287  1
  C  C183  1  0.92268128  0.30065404  0.24966081  1
  C  C184  1  0.23563811  0.17519328  0.24928467  1
  C  C185  1  0.74316438  0.19314388  0.24740880  1
  C  C186  1  0.32361562  0.49616649  0.93254998  1
  C  C187  1  0.82808598  0.50644484  0.92304685  1
  C  C188  1  0.42527868  0.34676073  0.93030251  1
  C  C189  1  0.92501942  0.34256264  0.92338408  1
  C  C190  1  0.24283684  0.14099448  0.92518750  1
  C  C191  1  0.74545716  0.15143346  0.92444115  1
  C  C192  1  0.32708203  0.14803156  0.42579703  1
  C  C193  1  0.82233005  0.14656932  0.43158938  1
  C  C194  1  0.24457254  0.33852193  0.42619285  1
  C  C195  1  0.74411935  0.34385640  0.42823924  1
  C  C196  1  0.42500988  0.50544284  0.42609954  1
  C  C197  1  0.92574121  0.50266383  0.43103427  1
  C  C198  1  0.17635311  0.47949356  0.07733886  1
  C  C199  1  0.67652572  0.47891848  0.07455742  1
  C  C200  1  0.07936497  0.64826726  0.07401634  1
  C  C201  1  0.56443304  0.65003995  0.07639758  1
  C  C202  1  0.26028443  0.87489454  0.07942619  1
  C  C203  1  0.75095779  0.82882722  0.07153778  1
  C  C204  1  0.17502823  0.87164093  0.57648954  1
  C  C205  1  0.67573319  0.87060199  0.57677886  1
  C  C206  1  0.25038206  0.67190579  0.57248438  1
  C  C207  1  0.76232649  0.64855736  0.58134834  1
  C  C208  1  0.06480677  0.47684991  0.57826210  1
  C  C209  1  0.58033000  0.51069672  0.57497827  1
  C  C210  1  0.14030454  0.81571169  0.24835332  1
  C  C211  1  0.64665016  0.82642240  0.24804214  1
  C  C212  1  0.25465498  0.69101908  0.25561652  1
  C  C213  1  0.77263314  0.70131138  0.25175278  1
  C  C214  1  0.08079846  0.44765893  0.25025813  1
  C  C215  1  0.59456123  0.48690413  0.25614165  1
  C  C216  1  0.14376534  0.47182248  0.74932899  1
  C  C217  1  0.64208643  0.46641193  0.74835782  1
  C  C218  1  0.08280859  0.71096547  0.75448506  1
  C  C219  1  0.58068708  0.71365736  0.74992519  1
  C  C220  1  0.26876708  0.84238975  0.75232441  1
  C  C221  1  0.75529038  0.82326163  0.75546024  1
