# generated using pymatgen
data_Cu6Ni2C9
_symmetry_space_group_name_H-M   'P 1'
_cell_length_a   6.67039835
_cell_length_b   6.67039827
_cell_length_c   6.67039753
_cell_angle_alpha   82.83777678
_cell_angle_beta   82.83777672
_cell_angle_gamma   82.83776634
_symmetry_Int_Tables_number   1
_chemical_formula_structural   Cu6Ni2C9
_chemical_formula_sum   'Cu6 Ni2 C9'
_cell_volume   290.37955187
_cell_formula_units_Z   1
loop_
 _symmetry_equiv_pos_site_id
 _symmetry_equiv_pos_as_xyz
  1  'x, y, z'
loop_
 _atom_site_type_symbol
 _atom_site_label
 _atom_site_symmetry_multiplicity
 _atom_site_fract_x
 _atom_site_fract_y
 _atom_site_fract_z
 _atom_site_occupancy
  C  C0  1  0.74624317  0.06468509  0.39843246  1
  C  C1  1  0.58721404  0.20043118  0.91099042  1
  C  C2  1  0.20043118  0.91099042  0.58721404  1
  C  C3  1  0.39843246  0.74624317  0.06468509  1
  C  C4  1  0.06468509  0.39843246  0.74624317  1
  C  C5  1  0.91099042  0.58721404  0.20043118  1
  C  C6  1  0.33302463  0.33302463  0.33302463  1
  C  C7  1  0.68636289  0.68636289  0.68636289  1
  C  C8  1  0.15030057  0.15030057  0.15030057  1
  Ni  Ni9  1  0.51062387  0.51062387  0.51062387  1
  Ni  Ni10  1  0.97176362  0.97176362  0.97176362  1
  Cu  Cu11  1  0.53957193  0.91278121  0.72253568  1
  Cu  Cu12  1  0.72253568  0.53957192  0.91278121  1
  Cu  Cu13  1  0.91278121  0.72253568  0.53957193  1
  Cu  Cu14  1  0.23076473  0.42008072  0.05590680  1
  Cu  Cu15  1  0.42008072  0.05590680  0.23076473  1
  Cu  Cu16  1  0.05590680  0.23076473  0.42008072  1
