# generated using pymatgen
data_Cu3Ni3C32
_symmetry_space_group_name_H-M   'P 1'
_cell_length_a   9.35595567
_cell_length_b   9.36878908
_cell_length_c   23.73587796
_cell_angle_alpha   90.31828281
_cell_angle_beta   89.79155937
_cell_angle_gamma   119.83087777
_symmetry_Int_Tables_number   1
_chemical_formula_structural   Cu3Ni3C32
_chemical_formula_sum   'Cu9 Ni9 C96'
_cell_volume   1804.83800285
_cell_formula_units_Z   3
loop_
 _symmetry_equiv_pos_site_id
 _symmetry_equiv_pos_as_xyz
  1  'x, y, z'
loop_
 _atom_site_type_symbol
 _atom_site_label
 _atom_site_symmetry_multiplicity
 _atom_site_fract_x
 _atom_site_fract_y
 _atom_site_fract_z
 _atom_site_occupancy
  C  C0  1  0.98088265  0.64695249  0.25304811  1
  C  C1  1  0.98612079  0.34305863  0.73791095  1
  C  C2  1  0.65047989  0.98198286  0.59274522  1
  C  C3  1  0.66845723  0.69445550  0.07768357  1
  C  C4  1  0.33855825  0.31257560  0.89912680  1
  C  C5  1  0.30928819  0.00978552  0.42108681  1
  C  C6  1  0.01425509  0.98737913  0.51009445  1
  C  C7  1  0.97348802  0.96647674  0.99749491  1
  C  C8  1  0.64202831  0.31039475  0.81710181  1
  C  C9  1  0.65500384  0.34914522  0.33694722  1
  C  C10  1  0.32275136  0.67720118  0.17608007  1
  C  C11  1  0.31203766  0.66716999  0.66083176  1
  C  C12  1  0.99190566  0.99141401  0.35129596  1
  C  C13  1  0.98219602  0.98053189  0.84898539  1
  C  C14  1  0.64672577  0.33011737  0.68358138  1
  C  C15  1  0.65604971  0.32328801  0.18722427  1
  C  C16  1  0.32426686  0.67589899  0.01707689  1
  C  C17  1  0.30434538  0.64462542  0.51999713  1
  C  C18  1  0.01897248  0.02688251  0.64912440  1
  C  C19  1  0.99492837  0.97792061  0.15463440  1
  C  C20  1  0.67891396  0.35362958  0.98248467  1
  C  C21  1  0.68210299  0.33884887  0.48778821  1
  C  C22  1  0.32814863  0.66864250  0.31392799  1
  C  C23  1  0.36798252  0.67788477  0.80926075  1
  Ni  Ni24  1  0.29102568  0.98121468  0.25467809  1
  Ni  Ni25  1  0.68710577  0.70382215  0.24864970  1
  Ni  Ni26  1  0.29196025  0.30621020  0.75835852  1
  Ni  Ni27  1  0.70546111  0.99599693  0.74617716  1
  Ni  Ni28  1  0.95794540  0.31734693  0.59059776  1
  Ni  Ni29  1  0.36406525  0.04339171  0.57815702  1
  Ni  Ni30  1  0.95953789  0.64082019  0.08800863  1
  Ni  Ni31  1  0.62596510  0.65506814  0.92286461  1
  Ni  Ni32  1  0.02224075  0.64851159  0.41366229  1
  Cu  Cu33  1  0.02352344  0.30810795  0.24785040  1
  Cu  Cu34  1  0.02446542  0.70436143  0.74931533  1
  Cu  Cu35  1  0.69021845  0.64694789  0.57982939  1
  Cu  Cu36  1  0.69037082  0.04564873  0.07976744  1
  Cu  Cu37  1  0.36007122  0.31651813  0.07890668  1
  Cu  Cu38  1  0.02141327  0.37171359  0.91696488  1
  Cu  Cu39  1  0.35500050  0.98586889  0.91553073  1
  Cu  Cu40  1  0.61147548  0.96947778  0.41675530  1
  Cu  Cu41  1  0.35583925  0.37916860  0.41282265  1
  C  C42  1  0.22276546  0.00849667  0.31347373  1
  C  C43  1  0.80945515  0.79404441  0.30023493  1
  C  C44  1  0.00295327  0.22100458  0.30037711  1
  C  C45  1  0.21357718  0.21543158  0.81736355  1
  C  C46  1  0.00103866  0.76900795  0.80290006  1
  C  C47  1  0.80522462  0.01056440  0.80293873  1
  C  C48  1  0.80436631  0.97617229  0.69088441  1
  C  C49  1  0.16750158  0.19609459  0.70425501  1
  C  C50  1  0.03686807  0.80874966  0.70065748  1
  C  C51  1  0.78691565  0.82244015  0.19099949  1
  C  C52  1  0.02970172  0.21121668  0.19808665  1
  C  C53  1  0.15650239  0.96083866  0.20175141  1
  C  C54  1  0.88424752  0.33829566  0.64900589  1
  C  C55  1  0.47762188  0.12645272  0.63259021  1
  C  C56  1  0.66369314  0.56048931  0.63316366  1
  C  C57  1  0.87633352  0.54481203  0.14501695  1
  C  C58  1  0.66647593  0.11207715  0.13236085  1
  C  C59  1  0.45968495  0.33855965  0.12918263  1
  C  C60  1  0.45184546  0.30081663  0.02797148  1
  C  C61  1  0.83093005  0.52944753  0.03306705  1
  C  C62  1  0.68859615  0.14401757  0.03037553  1
  C  C63  1  0.46232523  0.16181210  0.52134835  1
  C  C64  1  0.69423031  0.54143275  0.53163815  1
  C  C65  1  0.83227051  0.30990562  0.53707897  1
  C  C66  1  0.54180360  0.66023732  0.98197515  1
  C  C67  1  0.12260960  0.45590453  0.96678453  1
  C  C68  1  0.32913805  0.89278000  0.96789890  1
  C  C69  1  0.54781920  0.87958001  0.46934898  1
  C  C70  1  0.34822242  0.45452449  0.46570302  1
  C  C71  1  0.14725101  0.68673785  0.46522296  1
  C  C72  1  0.12218921  0.63125710  0.35630654  1
  C  C73  1  0.50179144  0.86707097  0.36787903  1
  C  C74  1  0.35855181  0.48132624  0.36362188  1
  C  C75  1  0.09509583  0.47103813  0.86552007  1
  C  C76  1  0.36166233  0.89134197  0.86583313  1
  C  C77  1  0.49999778  0.63925948  0.86864067  1
  C  C78  1  0.00446711  0.81396792  0.41278992  1
  C  C79  1  0.78268642  0.01148466  0.40845906  1
  C  C80  1  0.21046280  0.21053586  0.41005016  1
  C  C81  1  0.00598342  0.20731407  0.91480609  1
  C  C82  1  0.21929205  0.02400908  0.91203095  1
  C  C83  1  0.81331480  0.80451389  0.91981541  1
  C  C84  1  0.94917438  0.13412524  0.58974981  1
  C  C85  1  0.18088753  0.02657382  0.58909738  1
  C  C86  1  0.84938251  0.80453387  0.58075889  1
  C  C87  1  0.95812463  0.82050488  0.08955075  1
  C  C88  1  0.84876531  0.04173034  0.08098223  1
  C  C89  1  0.19618021  0.16627075  0.08269347  1
  C  C90  1  0.68767631  0.15951540  0.74599219  1
  C  C91  1  0.48135223  0.35167674  0.75345679  1
  C  C92  1  0.88687170  0.53313848  0.74372247  1
  C  C93  1  0.67601249  0.52481047  0.24488906  1
  C  C94  1  0.88824637  0.34605064  0.24223976  1
  C  C95  1  0.47806544  0.12168078  0.24398826  1
  C  C96  1  0.62592840  0.47343384  0.92555524  1
  C  C97  1  0.85253581  0.35318359  0.92617351  1
  C  C98  1  0.51366931  0.14732508  0.91981553  1
  C  C99  1  0.60336605  0.12724622  0.41799158  1
  C  C100  1  0.50815941  0.36441501  0.41212372  1
  C  C101  1  0.84212615  0.47791515  0.42480170  1
  C  C102  1  0.34634199  0.46663767  0.07418942  1
  C  C103  1  0.14626248  0.67678160  0.08076778  1
  C  C104  1  0.55324103  0.87080727  0.07539622  1
  C  C105  1  0.36000866  0.86678312  0.57440722  1
  C  C106  1  0.55502259  0.68293007  0.57112546  1
  C  C107  1  0.14848453  0.45842907  0.58484253  1
  C  C108  1  0.27937073  0.79673737  0.25636200  1
  C  C109  1  0.50699593  0.69092254  0.25796540  1
  C  C110  1  0.18286695  0.47066271  0.24972503  1
  C  C111  1  0.28571566  0.48319565  0.76025069  1
  C  C112  1  0.18207858  0.69690972  0.75358916  1
  C  C113  1  0.52204836  0.82355139  0.75395831  1
