# generated using pymatgen
data_Cu6Ni4C7
_symmetry_space_group_name_H-M   'P 1'
_cell_length_a   9.87249232
_cell_length_b   3.77338205
_cell_length_c   7.59018458
_cell_angle_alpha   90.33308453
_cell_angle_beta   88.92906363
_cell_angle_gamma   90.34395280
_symmetry_Int_Tables_number   1
_chemical_formula_structural   Cu6Ni4C7
_chemical_formula_sum   'Cu6 Ni4 C7'
_cell_volume   282.69567605
_cell_formula_units_Z   1
loop_
 _symmetry_equiv_pos_site_id
 _symmetry_equiv_pos_as_xyz
  1  'x, y, z'
loop_
 _atom_site_type_symbol
 _atom_site_label
 _atom_site_symmetry_multiplicity
 _atom_site_fract_x
 _atom_site_fract_y
 _atom_site_fract_z
 _atom_site_occupancy
  C  C0  1  0.15264400  0.70648000  0.47535600  1
  C  C1  1  0.50628300  0.79003200  0.80630700  1
  C  C2  1  0.97950100  0.20583500  0.26919900  1
  C  C3  1  0.59593300  0.77308900  0.43381900  1
  C  C4  1  0.45765500  0.97304700  0.43136600  1
  C  C5  1  0.89621100  0.13875300  0.90721800  1
  C  C6  1  0.05636500  0.10882400  0.90865500  1
  Ni  Ni7  1  0.74538000  0.78627400  0.76444400  1
  Ni  Ni8  1  0.24663400  0.77875300  0.76673200  1
  Ni  Ni9  1  0.74467100  0.20572700  0.25633500  1
  Ni  Ni10  1  0.27560300  0.21444000  0.31089800  1
  Cu  Cu11  1  0.50657300  0.78377200  0.49152500  1
  Cu  Cu12  1  0.97813100  0.21437600  0.97046300  1
  Cu  Cu13  1  0.49595700  0.79263300  0.03012500  1
  Cu  Cu14  1  0.01964500  0.24140000  0.50652400  1
  Cu  Cu15  1  0.50097900  0.28975200  0.76069100  1
  Cu  Cu16  1  0.03469200  0.71347900  0.24237200  1
