# generated using pymatgen
data_Cu6Ni2C
_symmetry_space_group_name_H-M   'P 1'
_cell_length_a   9.04400997
_cell_length_b   7.83362006
_cell_length_c   7.19231850
_cell_angle_alpha   73.87244226
_cell_angle_beta   56.31292453
_cell_angle_gamma   49.81463321
_symmetry_Int_Tables_number   1
_chemical_formula_structural   Cu6Ni2C
_chemical_formula_sum   'Cu12 Ni4 C2'
_cell_volume   321.32962585
_cell_formula_units_Z   2
loop_
 _symmetry_equiv_pos_site_id
 _symmetry_equiv_pos_as_xyz
  1  'x, y, z'
loop_
 _atom_site_type_symbol
 _atom_site_label
 _atom_site_symmetry_multiplicity
 _atom_site_fract_x
 _atom_site_fract_y
 _atom_site_fract_z
 _atom_site_occupancy
  C  C0  1  0.75231600  0.24768400  0.24768400  1
  C  C1  1  0.00231600  0.49768400  0.49768400  1
  Ni  Ni2  1  0.40766000  0.63311300  0.98996600  1
  Ni  Ni3  1  0.96926200  0.98996600  0.63311300  1
  Ni  Ni4  1  0.26003400  0.28073800  0.84234000  1
  Ni  Ni5  1  0.61688700  0.84234000  0.28073800  1
  Cu  Cu6  1  0.21412900  0.87723500  0.04727500  1
  Cu  Cu7  1  0.86136100  0.04727500  0.87723500  1
  Cu  Cu8  1  0.20272500  0.38863900  0.03587100  1
  Cu  Cu9  1  0.37276500  0.03587100  0.38863900  1
  Cu  Cu10  1  0.32296800  0.39663600  0.63935100  1
  Cu  Cu11  1  0.64104600  0.63935100  0.39663600  1
  Cu  Cu12  1  0.72308300  0.88994600  0.34499600  1
  Cu  Cu13  1  0.04197600  0.34499600  0.88994600  1
  Cu  Cu14  1  0.90500400  0.20802400  0.52691700  1
  Cu  Cu15  1  0.36005400  0.52691700  0.20802400  1
  Cu  Cu16  1  0.85336400  0.92703200  0.60895400  1
  Cu  Cu17  1  0.61064900  0.60895400  0.92703300  1
