# generated using pymatgen
data_Cu3Ni7C31
_symmetry_space_group_name_H-M   'P 1'
_cell_length_a   18.75978608
_cell_length_b   9.39808967
_cell_length_c   23.02733237
_cell_angle_alpha   89.96952992
_cell_angle_beta   90.57460169
_cell_angle_gamma   120.19739005
_symmetry_Int_Tables_number   1
_chemical_formula_structural   Cu3Ni7C31
_chemical_formula_sum   'Cu18 Ni42 C186'
_cell_volume   3508.70374851
_cell_formula_units_Z   6
loop_
 _symmetry_equiv_pos_site_id
 _symmetry_equiv_pos_as_xyz
  1  'x, y, z'
loop_
 _atom_site_type_symbol
 _atom_site_label
 _atom_site_symmetry_multiplicity
 _atom_site_fract_x
 _atom_site_fract_y
 _atom_site_fract_z
 _atom_site_occupancy
  Ni  Ni0  1  0.81228114  0.00787158  0.24629480  1
  Ni  Ni1  1  0.68769632  0.35283102  0.24185486  1
  Ni  Ni2  1  0.50040842  0.64874714  0.24479228  1
  Ni  Ni3  1  0.30835113  0.61391125  0.74724213  1
  Ni  Ni4  1  0.00061590  0.37059038  0.74468283  1
  Ni  Ni5  1  0.17908439  0.00517686  0.74284572  1
  Ni  Ni6  1  0.14855571  0.32084731  0.57814784  1
  Ni  Ni7  1  0.66692109  0.36126101  0.58529592  1
  Ni  Ni8  1  0.01614081  0.70029175  0.57698175  1
  Ni  Ni9  1  0.51965927  0.68644579  0.59282182  1
  Ni  Ni10  1  0.32980958  0.98476758  0.58698721  1
  Ni  Ni11  1  0.83059083  0.96552811  0.59396716  1
  Ni  Ni12  1  0.16486242  0.97092669  0.08359896  1
  Ni  Ni13  1  0.65455571  0.98374034  0.07347590  1
  Ni  Ni14  1  0.32466887  0.68990641  0.09092494  1
  Ni  Ni15  1  0.83227443  0.67726122  0.08521797  1
  Ni  Ni16  1  0.02046875  0.35414659  0.09075854  1
  Ni  Ni17  1  0.51580512  0.32755098  0.07180377  1
  Ni  Ni18  1  0.49198042  0.66963709  0.91820892  1
  Ni  Ni19  1  0.97932694  0.66578572  0.91501223  1
  Ni  Ni20  1  0.36046602  0.05303121  0.92199712  1
  Ni  Ni21  1  0.84112133  0.03049321  0.91108221  1
  Ni  Ni22  1  0.16697813  0.29539072  0.91590116  1
  Ni  Ni23  1  0.65937642  0.28371328  0.92335371  1
  Ni  Ni24  1  0.47843741  0.29608385  0.42682765  1
  Ni  Ni25  1  0.99274575  0.31593043  0.42060225  1
  Ni  Ni26  1  0.15768020  0.03256698  0.42515628  1
  Ni  Ni27  1  0.66875924  0.04070719  0.41937133  1
  Ni  Ni28  1  0.33833255  0.65157883  0.41383660  1
  Ni  Ni29  1  0.86182863  0.66794844  0.42295742  1
  Ni  Ni30  1  0.00922877  0.99683446  0.50074344  1
  Ni  Ni31  1  0.50253135  0.00993640  0.50904566  1
  Ni  Ni32  1  0.00377274  0.99586786  0.00602876  1
  Ni  Ni33  1  0.50867017  0.02357857  0.99542992  1
  Ni  Ni34  1  0.33998299  0.33407428  0.82990546  1
  Ni  Ni35  1  0.82627291  0.32877391  0.82710565  1
  Ni  Ni36  1  0.31461013  0.32241616  0.33254634  1
  Ni  Ni37  1  0.84304137  0.34849185  0.33037943  1
  Ni  Ni38  1  0.16882082  0.67261015  0.16442431  1
  Ni  Ni39  1  0.66728190  0.66093137  0.16315524  1
  Ni  Ni40  1  0.15920972  0.67127600  0.66898461  1
  Ni  Ni41  1  0.66967596  0.66769066  0.66614088  1
  Cu  Cu42  1  0.00314898  0.00045295  0.34857820  1
  Cu  Cu43  1  0.50029423  0.00064782  0.34470230  1
  Cu  Cu44  1  0.99919794  0.99353403  0.84252554  1
  Cu  Cu45  1  0.50299420  0.00445702  0.84869302  1
  Cu  Cu46  1  0.33736872  0.33099768  0.68241246  1
  Cu  Cu47  1  0.83008658  0.33404774  0.68447439  1
  Cu  Cu48  1  0.32636112  0.32425804  0.18330169  1
  Cu  Cu49  1  0.83614567  0.34288835  0.18162977  1
  Cu  Cu50  1  0.33383815  0.31942135  0.99101776  1
  Cu  Cu51  1  0.82682157  0.33639074  0.98880835  1
  Cu  Cu52  1  0.32653934  0.31846577  0.48991539  1
  Cu  Cu53  1  0.83368435  0.34735228  0.49177749  1
  Cu  Cu54  1  0.16782560  0.66845868  0.02010634  1
  Cu  Cu55  1  0.66455254  0.65942720  0.01479348  1
  Cu  Cu56  1  0.16459288  0.66831899  0.51497462  1
  Cu  Cu57  1  0.66877364  0.66929222  0.52125068  1
  Cu  Cu58  1  0.66435062  0.67327396  0.31306995  1
  Cu  Cu59  1  0.16132856  0.65716328  0.81095808  1
  C  C60  1  0.64591109  0.99966057  0.24776801  1
  C  C61  1  0.14536595  0.28939621  0.74666360  1
  C  C62  1  0.00007988  0.69743965  0.75180340  1
  C  C63  1  0.48511762  0.32763520  0.58275627  1
  C  C64  1  0.17703572  0.02563160  0.58622445  1
  C  C65  1  0.67982425  0.03284963  0.58255192  1
  C  C66  1  0.84353322  0.65716120  0.58716219  1
  C  C67  1  0.98520904  0.64336616  0.08268790  1
  C  C68  1  0.34310424  0.03090212  0.08781298  1
  C  C69  1  0.18047503  0.32847252  0.08236906  1
  C  C70  1  0.67808566  0.33159378  0.08889234  1
  C  C71  1  0.51563923  0.36906382  0.91593831  1
  C  C72  1  0.66830064  0.96657729  0.91828284  1
  C  C73  1  0.16807492  0.37015632  0.41787853  1
  C  C74  1  0.01448881  0.66181724  0.41656099  1
  C  C75  1  0.01482038  0.97869842  0.65225726  1
  C  C76  1  0.52109131  0.04832164  0.64599952  1
  C  C77  1  0.02155527  0.99743363  0.14524185  1
  C  C78  1  0.51019814  0.01872890  0.14689508  1
  C  C79  1  0.14373487  0.61495104  0.32560576  1
  C  C80  1  0.64939544  0.67685694  0.82565526  1
  C  C81  1  0.14975640  0.98988696  0.25073027  1
  C  C82  1  0.35039801  0.70379533  0.24881686  1
  C  C83  1  0.84946748  0.70362517  0.25005765  1
  C  C84  1  0.00309941  0.30270304  0.25146158  1
  C  C85  1  0.50114372  0.29741791  0.24888757  1
  C  C86  1  0.64857737  0.30843737  0.75026335  1
  C  C87  1  0.50410634  0.70503601  0.75115479  1
  C  C88  1  0.35256129  0.99717537  0.74921689  1
  C  C89  1  0.84680780  0.99065397  0.75012515  1
  C  C90  1  0.98364961  0.32533360  0.58541881  1
  C  C91  1  0.33724846  0.64259849  0.58459184  1
  C  C92  1  0.48440346  0.64451747  0.08761531  1
  C  C93  1  0.83629965  0.03142286  0.08498486  1
  C  C94  1  0.31551417  0.66393884  0.91585706  1
  C  C95  1  0.81317988  0.66891881  0.91499010  1
  C  C96  1  0.01506032  0.36320367  0.91728802  1
  C  C97  1  0.16637950  0.96667510  0.91610565  1
  C  C98  1  0.31435892  0.96092764  0.41437336  1
  C  C99  1  0.81560302  0.96767624  0.41570108  1
  C  C100  1  0.66534465  0.36705706  0.41514147  1
  C  C101  1  0.51536567  0.66593978  0.41611504  1
  C  C102  1  0.10602923  0.00474258  0.30006607  1
  C  C103  1  0.60722953  0.02370959  0.30637067  1
  C  C104  1  0.39802199  0.78231792  0.30305284  1
  C  C105  1  0.89561365  0.78742705  0.30278991  1
  C  C106  1  0.49036987  0.20520357  0.30282251  1
  C  C107  1  0.99412758  0.20388601  0.30286148  1
  C  C108  1  0.11012066  0.19517869  0.80761536  1
  C  C109  1  0.60524537  0.20689070  0.79997385  1
  C  C110  1  0.49502070  0.78508355  0.80266758  1
  C  C111  1  0.98975675  0.77074345  0.81155938  1
  C  C112  1  0.39931761  0.00946154  0.80217259  1
  C  C113  1  0.89387388  0.00970270  0.80452701  1
  C  C114  1  0.39373878  0.98018809  0.69602005  1
  C  C115  1  0.88871957  0.97386635  0.69863259  1
  C  C116  1  0.07812922  0.17407935  0.69041659  1
  C  C117  1  0.59695953  0.22749989  0.69316293  1
  C  C118  1  0.01250240  0.82233682  0.69505319  1
  C  C119  1  0.51665681  0.80142708  0.69730204  1
  C  C120  1  0.39368763  0.80517727  0.19685096  1
  C  C121  1  0.88959736  0.80186298  0.19697869  1
  C  C122  1  0.01592721  0.23319233  0.19764221  1
  C  C123  1  0.50930955  0.20896120  0.19732644  1
  C  C124  1  0.10102253  0.97224483  0.19371457  1
  C  C125  1  0.57634527  0.97599147  0.19138431  1
  C  C126  1  0.44102730  0.36930862  0.63337013  1
  C  C127  1  0.94370593  0.34801192  0.63635119  1
  C  C128  1  0.23534747  0.10848471  0.64385640  1
  C  C129  1  0.74386684  0.12402806  0.63350872  1
  C  C130  1  0.32624324  0.54158942  0.63632296  1
  C  C131  1  0.82044392  0.51707220  0.63399119  1
  C  C132  1  0.44563040  0.54435666  0.13934468  1
  C  C133  1  0.94165279  0.51398284  0.13450123  1
  C  C134  1  0.32428989  0.12570861  0.13698008  1
  C  C135  1  0.82565934  0.10898979  0.13724583  1
  C  C136  1  0.24388155  0.36764267  0.13441803  1
  C  C137  1  0.73397156  0.35984426  0.14568976  1
  C  C138  1  0.20783324  0.27526590  0.02276402  1
  C  C139  1  0.70978726  0.28580236  0.02974928  1
  C  C140  1  0.43485932  0.56604254  0.03447014  1
  C  C141  1  0.92932547  0.58748670  0.02335350  1
  C  C142  1  0.37108984  0.13850552  0.02737741  1
  C  C143  1  0.84630438  0.13130374  0.03261223  1
  C  C144  1  0.20966326  0.13366228  0.52701695  1
  C  C145  1  0.70450940  0.13663943  0.52177711  1
  C  C146  1  0.34826646  0.56513209  0.53175800  1
  C  C147  1  0.86755201  0.59950941  0.52662833  1
  C  C148  1  0.43116241  0.27220857  0.52235443  1
  C  C149  1  0.93498616  0.30766430  0.53154817  1
  C  C150  1  0.27679093  0.68659426  0.96758055  1
  C  C151  1  0.77870105  0.68771442  0.96984561  1
  C  C152  1  0.06655658  0.44411172  0.96897731  1
  C  C153  1  0.56795750  0.44239887  0.97456003  1
  C  C154  1  0.15959205  0.87121851  0.96862848  1
  C  C155  1  0.65695726  0.86398172  0.97658920  1
  C  C156  1  0.28129727  0.87161536  0.46945305  1
  C  C157  1  0.77591749  0.86570786  0.46691209  1
  C  C158  1  0.15841364  0.45260342  0.47579689  1
  C  C159  1  0.65823651  0.44940511  0.46725410  1
  C  C160  1  0.06912663  0.69525388  0.47407088  1
  C  C161  1  0.56746307  0.68876274  0.46738561  1
  C  C162  1  0.06505707  0.62612144  0.36003141  1
  C  C163  1  0.55440560  0.64788329  0.36305686  1
  C  C164  1  0.25993982  0.87228243  0.36419657  1
  C  C165  1  0.76544967  0.88818080  0.36246995  1
  C  C166  1  0.18351611  0.50515475  0.36040736  1
  C  C167  1  0.67229285  0.46278158  0.36236740  1
  C  C168  1  0.05505369  0.46011407  0.86450724  1
  C  C169  1  0.56851928  0.50648636  0.86028589  1
  C  C170  1  0.17360436  0.88409718  0.86383815  1
  C  C171  1  0.68428778  0.86411902  0.86175364  1
  C  C172  1  0.26533692  0.64404422  0.86297689  1
  C  C173  1  0.75796434  0.64718951  0.86451239  1
  C  C174  1  0.00408605  0.82143118  0.40821555  1
  C  C175  1  0.50481733  0.81327443  0.41240211  1
  C  C176  1  0.39880428  0.98124911  0.40900765  1
  C  C177  1  0.89889270  0.98653115  0.41085699  1
  C  C178  1  0.08484923  0.19373687  0.40966744  1
  C  C179  1  0.58898838  0.19992687  0.41292201  1
  C  C180  1  0.00402232  0.19434269  0.91376647  1
  C  C181  1  0.50487153  0.18774290  0.90826972  1
  C  C182  1  0.09119488  0.98361973  0.91426402  1
  C  C183  1  0.58482121  0.97590758  0.90998356  1
  C  C184  1  0.39933656  0.81249833  0.91119013  1
  C  C185  1  0.89621919  0.81947534  0.91017477  1
  C  C186  1  0.48897915  0.14874246  0.59512036  1
  C  C187  1  0.98965317  0.17374998  0.58909785  1
  C  C188  1  0.08509633  0.01569302  0.59307669  1
  C  C189  1  0.58462042  0.02115778  0.59460973  1
  C  C190  1  0.41355153  0.80950334  0.58956541  1
  C  C191  1  0.92864457  0.84754268  0.60161194  1
  C  C192  1  0.48968477  0.81056621  0.09110285  1
  C  C193  1  0.98967304  0.82945269  0.09480914  1
  C  C194  1  0.42770280  0.00614191  0.10245093  1
  C  C195  1  0.91203838  0.01616386  0.08936058  1
  C  C196  1  0.08590017  0.15071777  0.09309986  1
  C  C197  1  0.58421151  0.15349515  0.09461702  1
  C  C198  1  0.34034408  0.14034428  0.74745602  1
  C  C199  1  0.84234507  0.14354254  0.74602553  1
  C  C200  1  0.23946537  0.31679702  0.74419710  1
  C  C201  1  0.72804759  0.31798228  0.74559260  1
  C  C202  1  0.42894046  0.54175366  0.74672157  1
  C  C203  1  0.92582112  0.50954556  0.74746324  1
  C  C204  1  0.34946447  0.54347625  0.24596746  1
  C  C205  1  0.83856715  0.53666288  0.24884165  1
  C  C206  1  0.43303290  0.33189526  0.24340949  1
  C  C207  1  0.92794413  0.31521875  0.24734751  1
  C  C208  1  0.23045731  0.14090682  0.24779092  1
  C  C209  1  0.73935250  0.15603198  0.24373412  1
  C  C210  1  0.32348678  0.51443529  0.92087027  1
  C  C211  1  0.82246494  0.52023355  0.91627605  1
  C  C212  1  0.42768525  0.36568622  0.91174020  1
  C  C213  1  0.93268200  0.34990040  0.92156381  1
  C  C214  1  0.24185347  0.13398690  0.91882530  1
  C  C215  1  0.75257691  0.14528258  0.91320451  1
  C  C216  1  0.32393965  0.12897538  0.41637179  1
  C  C217  1  0.82290974  0.13239413  0.42069666  1
  C  C218  1  0.25259243  0.36123801  0.41253183  1
  C  C219  1  0.73974441  0.34873928  0.41814455  1
  C  C220  1  0.43279817  0.51460534  0.42075807  1
  C  C221  1  0.92620264  0.48943039  0.41246254  1
  C  C222  1  0.16040722  0.47637032  0.07890548  1
  C  C223  1  0.66393971  0.48901183  0.08563313  1
  C  C224  1  0.07962607  0.68417358  0.07927731  1
  C  C225  1  0.56884552  0.66959373  0.08344238  1
  C  C226  1  0.26426352  0.84640021  0.08119623  1
  C  C227  1  0.76238410  0.86374823  0.08035876  1
  C  C228  1  0.16618796  0.84118198  0.58499142  1
  C  C229  1  0.65922657  0.84417589  0.57950415  1
  C  C230  1  0.26387705  0.66259594  0.57946425  1
  C  C231  1  0.76528830  0.68573763  0.58137752  1
  C  C232  1  0.06812158  0.47286434  0.58209022  1
  C  C233  1  0.57998191  0.47494578  0.57933681  1
  C  C234  1  0.15484509  0.83792984  0.25167759  1
  C  C235  1  0.64690495  0.82597259  0.24305048  1
  C  C236  1  0.26683244  0.68276490  0.25054960  1
  C  C237  1  0.76533610  0.68799369  0.25145854  1
  C  C238  1  0.08173137  0.47561772  0.25780742  1
  C  C239  1  0.58050222  0.45870254  0.25114816  1
  C  C240  1  0.15058276  0.46874552  0.74231809  1
  C  C241  1  0.65404878  0.47047805  0.75111812  1
  C  C242  1  0.08830277  0.70231784  0.74684484  1
  C  C243  1  0.58180609  0.68918096  0.75758079  1
  C  C244  1  0.27002928  0.84287046  0.75092427  1
  C  C245  1  0.76257874  0.83800527  0.75251309  1
