# generated using pymatgen
data_Cu6Ni3C4
_symmetry_space_group_name_H-M   'P 1'
_cell_length_a   9.50912851
_cell_length_b   9.50912851
_cell_length_c   5.48706300
_cell_angle_alpha   90.00000000
_cell_angle_beta   90.00000000
_cell_angle_gamma   120.00000352
_symmetry_Int_Tables_number   1
_chemical_formula_structural   Cu6Ni3C4
_chemical_formula_sum   'Cu12 Ni6 C8'
_cell_volume   429.68678367
_cell_formula_units_Z   2
loop_
 _symmetry_equiv_pos_site_id
 _symmetry_equiv_pos_as_xyz
  1  'x, y, z'
loop_
 _atom_site_type_symbol
 _atom_site_label
 _atom_site_symmetry_multiplicity
 _atom_site_fract_x
 _atom_site_fract_y
 _atom_site_fract_z
 _atom_site_occupancy
  C  C0  1  0.08952500  0.68443500  0.75000000  1
  C  C1  1  0.40509100  0.08952500  0.25000000  1
  C  C2  1  0.91047500  0.31556500  0.25000000  1
  C  C3  1  0.59490900  0.91047500  0.75000000  1
  C  C4  1  0.31556500  0.40509100  0.75000000  1
  C  C5  1  0.68443500  0.59490900  0.25000000  1
  C  C6  1  0.33333300  0.66666700  0.25000000  1
  C  C7  1  0.66666700  0.33333300  0.75000000  1
  Ni  Ni8  1  0.80662500  0.75892000  0.75000000  1
  Ni  Ni9  1  0.75892000  0.95229500  0.25000000  1
  Ni  Ni10  1  0.04770500  0.80662500  0.25000000  1
  Ni  Ni11  1  0.19337500  0.24108000  0.25000000  1
  Ni  Ni12  1  0.24108000  0.04770500  0.75000000  1
  Ni  Ni13  1  0.95229500  0.19337500  0.75000000  1
  Cu  Cu14  1  0.36444000  0.83866800  0.47985000  1
  Cu  Cu15  1  0.52577200  0.36444000  0.97985000  1
  Cu  Cu16  1  0.83866800  0.47422800  0.97985000  1
  Cu  Cu17  1  0.16133200  0.52577200  0.47985000  1
  Cu  Cu18  1  0.47422800  0.63556000  0.47985000  1
  Cu  Cu19  1  0.63556000  0.16133200  0.97985000  1
  Cu  Cu20  1  0.63556000  0.16133200  0.52015000  1
  Cu  Cu21  1  0.47422800  0.63556000  0.02015000  1
  Cu  Cu22  1  0.83866800  0.47422800  0.52015000  1
  Cu  Cu23  1  0.52577200  0.36444000  0.52015000  1
  Cu  Cu24  1  0.36444000  0.83866800  0.02015000  1
  Cu  Cu25  1  0.16133200  0.52577200  0.02015000  1
