# generated using pymatgen
data_Cu4NiC12
_symmetry_space_group_name_H-M   'P 1'
_cell_length_a   3.05557543
_cell_length_b   3.05557543
_cell_length_c   26.69112127
_cell_angle_alpha   89.31487179
_cell_angle_beta   90.68512821
_cell_angle_gamma   120.32566487
_symmetry_Int_Tables_number   1
_chemical_formula_structural   Cu4NiC12
_chemical_formula_sum   'Cu4 Ni1 C12'
_cell_volume   215.08377076
_cell_formula_units_Z   1
loop_
 _symmetry_equiv_pos_site_id
 _symmetry_equiv_pos_as_xyz
  1  'x, y, z'
loop_
 _atom_site_type_symbol
 _atom_site_label
 _atom_site_symmetry_multiplicity
 _atom_site_fract_x
 _atom_site_fract_y
 _atom_site_fract_z
 _atom_site_occupancy
  Ni  Ni0  1  0.33208800  0.66791200  0.93468394  1
  C  C1  1  0.33278729  0.66721271  0.14837467  1
  C  C2  1  0.67097768  0.32902232  0.84056708  1
  C  C3  1  0.66726066  0.33273934  0.61438089  1
  C  C4  1  0.33215562  0.66784438  0.38207550  1
  Cu  Cu5  1  0.00000247  -0.00000247  0.02732012  1
  Cu  Cu6  1  0.00924651  0.99075349  0.49882176  1
  Cu  Cu7  1  0.65555859  0.34444141  0.26538660  1
  Cu  Cu8  1  0.33127581  0.66872419  0.72981575  1
  C  C9  1  0.00627318  0.99372682  0.11085147  1
  C  C10  1  0.99741097  0.00258903  0.90122674  1
  C  C11  1  0.01798706  0.98201294  0.57752938  1
  C  C12  1  0.00577397  0.99422603  0.42018764  1
  C  C13  1  0.66350603  0.33649397  0.18681622  1
  C  C14  1  0.33726019  0.66273981  0.80915028  1
  C  C15  1  0.31647675  0.68352325  0.65120421  1
  C  C16  1  0.65729223  0.34270777  0.34431575  1
