# generated using pymatgen
data_Cu3Ni3C29
_symmetry_space_group_name_H-M   'P 1'
_cell_length_a   8.44492075
_cell_length_b   8.42380308
_cell_length_c   21.96838765
_cell_angle_alpha   90.40694491
_cell_angle_beta   89.93286758
_cell_angle_gamma   120.11350736
_symmetry_Int_Tables_number   1
_chemical_formula_structural   Cu3Ni3C29
_chemical_formula_sum   'Cu9 Ni9 C87'
_cell_volume   1351.83010108
_cell_formula_units_Z   3
loop_
 _symmetry_equiv_pos_site_id
 _symmetry_equiv_pos_as_xyz
  1  'x, y, z'
loop_
 _atom_site_type_symbol
 _atom_site_label
 _atom_site_symmetry_multiplicity
 _atom_site_fract_x
 _atom_site_fract_y
 _atom_site_fract_z
 _atom_site_occupancy
  C  C0  1  0.00087806  0.01048195  0.99933264  1
  C  C1  1  0.67684334  0.33917754  0.83444863  1
  C  C2  1  0.66438009  0.33913291  0.33701360  1
  C  C3  1  0.00286138  0.99571001  0.64310853  1
  C  C4  1  0.65952418  0.33318949  0.18553697  1
  C  C5  1  0.32939625  0.65748201  0.52473465  1
  C  C6  1  0.99912307  0.99763234  0.35566741  1
  C  C7  1  0.99743212  -0.00002175  0.85434473  1
  C  C8  1  0.99066588  0.00085039  0.14478003  1
  C  C9  1  0.67308241  0.34044499  0.68692612  1
  C  C10  1  0.66741369  0.32299552  0.98004012  1
  C  C11  1  0.65995622  0.33274853  0.48074728  1
  C  C12  1  0.33375510  0.65690923  0.02067771  1
  C  C13  1  0.34464385  0.66095939  0.31194258  1
  C  C14  1  0.31721835  0.66012445  0.81425467  1
  Ni  Ni15  1  0.71855942  0.72766482  0.25153614  1
  Ni  Ni16  1  0.99889388  0.70711581  0.75449895  1
  Ni  Ni17  1  0.93500149  0.32859229  0.58308408  1
  Ni  Ni18  1  0.39676674  0.06116836  0.58377988  1
  Ni  Ni19  1  0.66664277  0.60564229  0.58347086  1
  Ni  Ni20  1  0.66416177  0.03591739  0.07894547  1
  Ni  Ni21  1  0.36886215  0.32888666  0.07819570  1
  Ni  Ni22  1  0.04477594  0.37851765  0.91696899  1
  Ni  Ni23  1  0.33330374  0.37032313  0.41271536  1
  Cu  Cu24  1  0.27686766  0.98839677  0.25166680  1
  Cu  Cu25  1  0.00736768  0.28761797  0.25180878  1
  Cu  Cu26  1  0.29411697  0.29389301  0.75323262  1
  Cu  Cu27  1  0.70490779  0.99766208  0.75308592  1
  Cu  Cu28  1  0.96066440  0.62719299  0.08035408  1
  Cu  Cu29  1  0.61979984  0.66588127  0.91599627  1
  Cu  Cu30  1  0.33233648  0.95248404  0.91680474  1
  Cu  Cu31  1  0.62499565  0.95889093  0.41421208  1
  Cu  Cu32  1  0.04306843  0.66675675  0.41337114  1
  C  C33  1  0.20354949  0.03185596  0.30553973  1
  C  C34  1  0.83863181  0.80683234  0.30802049  1
  C  C35  1  0.96951576  0.17264178  0.30543072  1
  C  C36  1  0.20636369  0.17346173  0.80574385  1
  C  C37  1  0.96500576  0.80329653  0.80811454  1
  C  C38  1  0.82788528  0.03618176  0.80584917  1
  C  C39  1  0.78950129  0.96865383  0.69674793  1
  C  C40  1  0.17839595  0.21226286  0.69689408  1
  C  C41  1  0.02810740  0.82848505  0.69581976  1
  C  C42  1  0.80712238  0.83640057  0.19407002  1
  C  C43  1  0.03611461  0.20863222  0.19602192  1
  C  C44  1  0.17431059  0.96717633  0.19568442  1
  C  C45  1  0.86351429  0.36670775  0.64073237  1
  C  C46  1  0.50431221  0.13760411  0.64170960  1
  C  C47  1  0.63049700  0.49745342  0.64085514  1
  C  C48  1  0.87638773  0.51077165  0.13731244  1
  C  C49  1  0.63569083  0.13035016  0.13839289  1
  C  C50  1  0.49401585  0.36490865  0.13813900  1
  C  C51  1  0.46628362  0.29617162  0.02544285  1
  C  C52  1  0.83790412  0.54202987  0.02807442  1
  C  C53  1  0.70537911  0.16766983  0.02637732  1
  C  C54  1  0.46877405  0.16863251  0.52591810  1
  C  C55  1  0.70247768  0.53341925  0.52530301  1
  C  C56  1  0.82914530  0.29909681  0.52474081  1
  C  C57  1  0.54135333  0.70148689  0.97093597  1
  C  C58  1  0.16483057  0.46588050  0.97352589  1
  C  C59  1  0.30147422  0.84084034  0.97127384  1
  C  C60  1  0.54144396  0.84548477  0.46971207  1
  C  C61  1  0.30199687  0.46212171  0.47099983  1
  C  C62  1  0.15690775  0.69918741  0.46956163  1
  C  C63  1  0.13067255  0.63566557  0.36004355  1
  C  C64  1  0.50395586  0.87465432  0.36082503  1
  C  C65  1  0.36869161  0.49892118  0.35911847  1
  C  C66  1  0.12994168  0.49587033  0.86003494  1
  C  C67  1  0.36749171  0.87286880  0.86164421  1
  C  C68  1  0.50764904  0.63647357  0.86094372  1
  C  C69  1  0.02610775  0.83009835  0.40710148  1
  C  C70  1  0.80399246  0.97443205  0.40676107  1
  C  C71  1  0.16242314  0.18475983  0.40418484  1
  C  C72  1  0.02399659  0.18503906  0.90758504  1
  C  C73  1  0.16761659  0.97214726  0.90898166  1
  C  C74  1  0.80552906  0.83124598  0.90920756  1
  C  C75  1  0.96812658  0.16595733  0.59258359  1
  C  C76  1  0.20108871  0.03354811  0.59212246  1
  C  C77  1  0.83159001  0.80276113  0.59143851  1
  C  C78  1  0.97629210  0.80712727  0.09114271  1
  C  C79  1  0.83535608  0.02129921  0.09093596  1
  C  C80  1  0.18608774  0.15665938  0.09281385  1
  C  C81  1  0.68786775  0.16280719  0.74468549  1
  C  C82  1  0.47326161  0.30626593  0.74445877  1
  C  C83  1  0.82630903  0.51891166  0.74399690  1
  C  C84  1  0.69669671  0.52886286  0.24359587  1
  C  C85  1  0.83941245  0.30745081  0.24468443  1
  C  C86  1  0.46879619  0.15894809  0.24547740  1
  C  C87  1  0.63839752  0.50056896  0.92353281  1
  C  C88  1  0.85263099  0.35874501  0.92528359  1
  C  C89  1  0.49679683  0.13889691  0.92320029  1
  C  C90  1  0.64432238  0.14234854  0.42208294  1
  C  C91  1  0.50555145  0.35526286  0.42307414  1
  C  C92  1  0.86197316  0.50025375  0.42133879  1
  C  C93  1  0.35560277  0.50002795  0.07273412  1
  C  C94  1  0.13811556  0.64282727  0.07370944  1
  C  C95  1  0.49240014  0.85290146  0.07027291  1
  C  C96  1  0.36493827  0.86482087  0.57368266  1
  C  C97  1  0.50154934  0.63731442  0.57494279  1
  C  C98  1  0.13118249  0.49867140  0.57463553  1
  C  C99  1  0.30090889  0.82975526  0.26048507  1
  C  C100  1  0.52756258  0.70015383  0.26009272  1
  C  C101  1  0.16546534  0.47269520  0.26010723  1
  C  C102  1  0.31386596  0.47514464  0.76062247  1
  C  C103  1  0.17071770  0.69420497  0.76092026  1
  C  C104  1  0.52724031  0.83317805  0.76135340  1
