# generated using pymatgen
data_Cu2Ni2C9
_symmetry_space_group_name_H-M   'P 1'
_cell_length_a   3.19087500
_cell_length_b   3.19086374
_cell_length_c   36.43142128
_cell_angle_alpha   90.01354628
_cell_angle_beta   89.99751168
_cell_angle_gamma   119.99960633
_symmetry_Int_Tables_number   1
_chemical_formula_structural   Cu2Ni2C9
_chemical_formula_sum   'Cu2 Ni2 C9'
_cell_volume   321.23769845
_cell_formula_units_Z   1
loop_
 _symmetry_equiv_pos_site_id
 _symmetry_equiv_pos_as_xyz
  1  'x, y, z'
loop_
 _atom_site_type_symbol
 _atom_site_label
 _atom_site_symmetry_multiplicity
 _atom_site_fract_x
 _atom_site_fract_y
 _atom_site_fract_z
 _atom_site_occupancy
  C  C0  1  0.70752200  0.38473600  0.87530400  1
  Ni  Ni1  1  0.33330900  0.66660300  0.09307200  1
  Ni  Ni2  1  0.66674500  0.33354500  0.65846300  1
  Cu  Cu3  1  0.33327000  0.66657400  0.46956400  1
  Cu  Cu4  1  0.66662700  0.33324400  0.28165000  1
  C  C5  1  0.33333200  0.66669200  0.32481500  1
  C  C6  1  0.33346600  0.66703600  0.70142400  1
  C  C7  1  0.66659900  0.33314800  0.05019300  1
  C  C8  1  0.66654300  0.33308000  0.42639000  1
  C  C9  1  0.66668700  0.33339500  0.13598300  1
  C  C10  1  0.66665200  0.33339100  0.51272200  1
  C  C11  1  0.33325100  0.66646000  0.23848900  1
  C  C12  1  0.33335400  0.66671600  0.61546200  1
