# generated using pymatgen
data_CuNi10C7
_symmetry_space_group_name_H-M   'P 1'
_cell_length_a   6.26642727
_cell_length_b   6.26642727
_cell_length_c   11.40059500
_cell_angle_alpha   90.00000000
_cell_angle_beta   90.00000000
_cell_angle_gamma   119.99999233
_symmetry_Int_Tables_number   1
_chemical_formula_structural   CuNi10C7
_chemical_formula_sum   'Cu1 Ni10 C7'
_cell_volume   387.70213321
_cell_formula_units_Z   1
loop_
 _symmetry_equiv_pos_site_id
 _symmetry_equiv_pos_as_xyz
  1  'x, y, z'
loop_
 _atom_site_type_symbol
 _atom_site_label
 _atom_site_symmetry_multiplicity
 _atom_site_fract_x
 _atom_site_fract_y
 _atom_site_fract_z
 _atom_site_occupancy
  Ni  Ni0  1  0.66666700  0.33333300  0.70607200  1
  Ni  Ni1  1  0.37658800  0.00000000  0.79690300  1
  Ni  Ni2  1  0.62341200  0.62341200  0.20309700  1
  Ni  Ni3  1  0.00000000  0.37658800  0.20309700  1
  Ni  Ni4  1  0.00000000  0.37658800  0.79690300  1
  Ni  Ni5  1  0.62341200  0.62341200  0.79690300  1
  Ni  Ni6  1  0.37658800  0.00000000  0.20309700  1
  Ni  Ni7  1  0.33333300  0.66666700  0.29392800  1
  Ni  Ni8  1  0.33333300  0.66666700  0.70607200  1
  Ni  Ni9  1  0.66666700  0.33333300  0.29392800  1
  C  C10  1  0.33333300  0.66666700  0.50000000  1
  C  C11  1  0.00000000  0.00000000  0.23078100  1
  C  C12  1  0.66666700  0.33333300  0.50000000  1
  C  C13  1  0.00000000  0.00000000  0.76921900  1
  C  C14  1  0.00000000  0.45448800  0.00000000  1
  C  C15  1  0.54551200  0.54551200  0.00000000  1
  C  C16  1  0.45448800  0.00000000  0.00000000  1
  Cu  Cu17  1  0.00000000  0.00000000  0.50000000  1
