# generated using pymatgen
data_Cu9Ni3C58
_symmetry_space_group_name_H-M   'P 1'
_cell_length_a   17.76343018
_cell_length_b   8.87177467
_cell_length_c   23.04146000
_cell_angle_alpha   89.91664906
_cell_angle_beta   90.08155859
_cell_angle_gamma   120.08436937
_symmetry_Int_Tables_number   1
_chemical_formula_structural   Cu9Ni3C58
_chemical_formula_sum   'Cu27 Ni9 C174'
_cell_volume   3142.00964641
_cell_formula_units_Z   3
loop_
 _symmetry_equiv_pos_site_id
 _symmetry_equiv_pos_as_xyz
  1  'x, y, z'
loop_
 _atom_site_type_symbol
 _atom_site_label
 _atom_site_symmetry_multiplicity
 _atom_site_fract_x
 _atom_site_fract_y
 _atom_site_fract_z
 _atom_site_occupancy
  C  C0  1  0.99871087  0.99451833  0.49955171  1
  C  C1  1  0.50033635  0.00469606  0.99810201  1
  C  C2  1  0.33736184  0.33552558  0.83360373  1
  C  C3  1  0.83489711  0.34405675  0.83159228  1
  C  C4  1  0.33470831  0.32680267  0.33509807  1
  C  C5  1  0.83738679  0.33877239  0.33773375  1
  C  C6  1  0.00114917  0.99115967  0.35777687  1
  C  C7  1  0.50144478  0.01227090  0.85442849  1
  C  C8  1  0.99967248  0.99045243  0.64922935  1
  C  C9  1  0.50090295  0.00868244  0.15041442  1
  C  C10  1  0.33170919  0.34156255  0.68354121  1
  C  C11  1  0.83378134  0.33335815  0.68477616  1
  C  C12  1  0.33928648  0.33380987  0.18879024  1
  C  C13  1  0.82995167  0.31909743  0.18399974  1
  C  C14  1  0.33877504  0.33553715  0.97871846  1
  C  C15  1  0.83500067  0.33150419  0.98028491  1
  C  C16  1  0.33586703  0.33909108  0.48145224  1
  C  C17  1  0.83254238  0.33249490  0.48223512  1
  C  C18  1  0.16679969  0.66611193  0.02007622  1
  C  C19  1  0.66836085  0.67810855  0.52484172  1
  C  C20  1  0.16410471  0.67461804  0.31629657  1
  C  C21  1  0.66367751  0.66116436  0.31021587  1
  C  C22  1  0.16417059  0.66782985  0.80755396  1
  C  C23  1  0.66367528  0.65228601  0.81429707  1
  C  C24  1  0.49512400  0.00593165  0.35681120  1
  C  C25  1  0.99365896  0.98381518  0.85404548  1
  C  C26  1  0.50125584  0.99511366  0.64080670  1
  C  C27  1  0.99785358  0.00192607  0.14419837  1
  C  C28  1  0.67144308  0.66450176  0.01905457  1
  C  C29  1  0.17013838  0.67795612  0.52019928  1
  Ni  Ni30  1  0.50041296  0.29271490  0.24945995  1
  Ni  Ni31  1  0.99777851  0.70192327  0.74839006  1
  Ni  Ni32  1  0.69339247  0.04808257  0.58339435  1
  Ni  Ni33  1  0.33026636  0.61812413  0.58249367  1
  Ni  Ni34  1  0.83053622  0.04305702  0.08235748  1
  Ni  Ni35  1  0.81003531  0.65890454  0.91497749  1
  Ni  Ni36  1  0.52136003  0.37610030  0.91619681  1
  Ni  Ni37  1  0.30902376  0.96111993  0.41575016  1
  Ni  Ni38  1  0.01882160  0.66031714  0.41648513  1
  Cu  Cu39  1  0.14382765  0.00102184  0.24925144  1
  Cu  Cu40  1  0.64426843  0.00108063  0.25133629  1
  Cu  Cu41  1  0.35494836  0.71107947  0.25055898  1
  Cu  Cu42  1  0.85671402  0.71116907  0.24998313  1
  Cu  Cu43  1  0.00008143  0.28823544  0.25034185  1
  Cu  Cu44  1  0.14435605  0.28692789  0.75110318  1
  Cu  Cu45  1  0.64365871  0.28675459  0.74916527  1
  Cu  Cu46  1  0.50003969  0.71294761  0.75019504  1
  Cu  Cu47  1  0.35681636  0.00258712  0.74959790  1
  Cu  Cu48  1  0.85454892  0.99894418  0.75030177  1
  Cu  Cu49  1  0.47847138  0.33294873  0.58447733  1
  Cu  Cu50  1  0.98031380  0.33355288  0.58257592  1
  Cu  Cu51  1  0.18758461  0.04322835  0.58277114  1
  Cu  Cu52  1  0.83380576  0.62539550  0.58280295  1
  Cu  Cu53  1  0.47975710  0.62609665  0.08260779  1
  Cu  Cu54  1  0.97930156  0.62456805  0.08441557  1
  Cu  Cu55  1  0.33291465  0.04119972  0.08285080  1
  Cu  Cu56  1  0.18889191  0.33390064  0.08418224  1
  Cu  Cu57  1  0.68756764  0.33231073  0.08262938  1
  Cu  Cu58  1  0.31079903  0.66581568  0.91653058  1
  Cu  Cu59  1  0.02310306  0.37680046  0.91552654  1
  Cu  Cu60  1  0.16620268  0.95692923  0.91589330  1
  Cu  Cu61  1  0.66655321  0.95360869  0.91655127  1
  Cu  Cu62  1  0.81105300  0.95606472  0.41592813  1
  Cu  Cu63  1  0.16706135  0.37994109  0.41687045  1
  Cu  Cu64  1  0.66704947  0.37740513  0.41570219  1
  Cu  Cu65  1  0.52245893  0.66865248  0.41525755  1
  C  C66  1  0.10432629  0.03100850  0.30082825  1
  C  C67  1  0.60150420  0.02639549  0.30295554  1
  C  C68  1  0.41315672  0.79559265  0.30293171  1
  C  C69  1  0.91172334  0.79258437  0.30102225  1
  C  C70  1  0.48631822  0.16112660  0.30666101  1
  C  C71  1  0.98475847  0.17692968  0.30091676  1
  C  C72  1  0.10103380  0.17612918  0.80362072  1
  C  C73  1  0.60374570  0.17817145  0.80171030  1
  C  C74  1  0.48485520  0.79221502  0.80182461  1
  C  C75  1  0.98687907  0.81110723  0.80673303  1
  C  C76  1  0.41070742  0.03060919  0.80221533  1
  C  C77  1  0.91371410  0.02775784  0.80366861  1
  C  C78  1  0.39894063  0.97786612  0.69789384  1
  C  C79  1  0.89636626  0.97545092  0.69901476  1
  C  C80  1  0.09191647  0.21109094  0.69862960  1
  C  C81  1  0.58707326  0.19872996  0.69783371  1
  C  C82  1  0.01489283  0.83126031  0.69446758  1
  C  C83  1  0.51035892  0.82386077  0.69748964  1
  C  C84  1  0.39642832  0.81708853  0.19836509  1
  C  C85  1  0.90167995  0.82444500  0.19661923  1
  C  C86  1  0.01037299  0.19464167  0.19667943  1
  C  C87  1  0.51419304  0.19912229  0.19377063  1
  C  C88  1  0.08746701  0.97831508  0.19673245  1
  C  C89  1  0.59213746  0.97275492  0.19824978  1
  C  C90  1  0.43817935  0.35966947  0.63616812  1
  C  C91  1  0.94327001  0.36658050  0.63495774  1
  C  C92  1  0.24059468  0.11664133  0.63530305  1
  C  C93  1  0.74926430  0.13386462  0.64135135  1
  C  C94  1  0.31615812  0.50318144  0.64038467  1
  C  C95  1  0.82098167  0.52068562  0.63532199  1
  C  C96  1  0.43996009  0.51731817  0.13479891  1
  C  C97  1  0.93947101  0.51847455  0.13629359  1
  C  C98  1  0.31887381  0.12080983  0.13483235  1
  C  C99  1  0.81752472  0.12906971  0.14048956  1
  C  C100  1  0.24196586  0.36187108  0.13597930  1
  C  C101  1  0.74070515  0.36462003  0.13518814  1
  C  C102  1  0.22379820  0.29647828  0.03221020  1
  C  C103  1  0.72794090  0.30681977  0.03088139  1
  C  C104  1  0.42335897  0.54435399  0.03129678  1
  C  C105  1  0.92519536  0.55602825  0.03243434  1
  C  C106  1  0.34739810  0.15116938  0.03110732  1
  C  C107  1  0.85220623  0.16507018  0.02668532  1
  C  C108  1  0.22779807  0.14882411  0.53074498  1
  C  C109  1  0.73068813  0.16622760  0.52623521  1
  C  C110  1  0.35074185  0.53775014  0.52655956  1
  C  C111  1  0.85060693  0.54955233  0.53093809  1
  C  C112  1  0.42399995  0.29452780  0.53241467  1
  C  C113  1  0.92552576  0.30309279  0.53088663  1
  C  C114  1  0.27048805  0.69380747  0.96937606  1
  C  C115  1  0.76528001  0.69587148  0.97346266  1
  C  C116  1  0.07590830  0.45536555  0.96873164  1
  C  C117  1  0.58331286  0.47638783  0.97429462  1
  C  C118  1  0.15037933  0.84879721  0.96846784  1
  C  C119  1  0.65326084  0.84381196  0.96995290  1
  C  C120  1  0.26491771  0.83408529  0.47351699  1
  C  C121  1  0.77224951  0.84727649  0.46802226  1
  C  C122  1  0.15313750  0.46140235  0.46952768  1
  C  C123  1  0.64937588  0.44838418  0.46758436  1
  C  C124  1  0.08368441  0.69021112  0.47362116  1
  C  C125  1  0.57450215  0.69764334  0.46780438  1
  C  C126  1  0.06366251  0.63281362  0.35933520  1
  C  C127  1  0.56266950  0.64082641  0.36363641  1
  C  C128  1  0.25408885  0.86936598  0.35864702  1
  C  C129  1  0.75826776  0.87445695  0.36366731  1
  C  C130  1  0.18111325  0.48352848  0.36407561  1
  C  C131  1  0.67966855  0.48392905  0.36365771  1
  C  C132  1  0.06382851  0.48713790  0.86460368  1
  C  C133  1  0.56302248  0.49553415  0.85973103  1
  C  C134  1  0.18139686  0.87796397  0.86481268  1
  C  C135  1  0.68095383  0.87815242  0.86447640  1
  C  C136  1  0.25786432  0.63977993  0.86484043  1
  C  C137  1  0.75294762  0.63876801  0.85919593  1
  C  C138  1  0.01346406  0.84067171  0.41143324  1
  C  C139  1  0.51363633  0.82652898  0.40475824  1
  C  C140  1  0.40592389  0.97084783  0.40636537  1
  C  C141  1  0.89959042  0.97713718  0.40926054  1
  C  C142  1  0.08754125  0.20552814  0.41156549  1
  C  C143  1  0.58757822  0.19631320  0.40535952  1
  C  C144  1  0.01462773  0.20255573  0.90674311  1
  C  C145  1  0.51220995  0.18319803  0.91214488  1
  C  C146  1  0.08789433  0.97759584  0.90691778  1
  C  C147  1  0.58725388  0.96873934  0.91210944  1
  C  C148  1  0.39906262  0.82077565  0.91100899  1
  C  C149  1  0.90665087  0.84227938  0.90645943  1
  C  C150  1  0.48760093  0.17453475  0.59542107  1
  C  C151  1  0.99082768  0.17904807  0.58994087  1
  C  C152  1  0.10004343  0.02262700  0.58870594  1
  C  C153  1  0.59373098  0.02434109  0.59729355  1
  C  C154  1  0.41499749  0.81475016  0.59753827  1
  C  C155  1  0.91155270  0.80381251  0.58932570  1
  C  C156  1  0.48944786  0.80088272  0.08954865  1
  C  C157  1  0.99034571  0.80462479  0.09584487  1
  C  C158  1  0.41042571  0.02008008  0.08919629  1
  C  C159  1  0.91703871  0.01730785  0.09784770  1
  C  C160  1  0.09862360  0.17373400  0.09536202  1
  C  C161  1  0.59987347  0.17708554  0.08877159  1
  C  C162  1  0.34652740  0.15745689  0.74284461  1
  C  C163  1  0.84966889  0.15928254  0.74718956  1
  C  C164  1  0.23112729  0.30038315  0.74646000  1
  C  C165  1  0.73036304  0.30474481  0.74313042  1
  C  C166  1  0.42196815  0.53668832  0.74274040  1
  C  C167  1  0.91102195  0.51477048  0.74593968  1
  C  C168  1  0.34768079  0.53738872  0.24469427  1
  C  C169  1  0.84768074  0.53848968  0.24101794  1
  C  C170  1  0.41227825  0.30623304  0.24461876  1
  C  C171  1  0.92235980  0.30707220  0.24149753  1
  C  C172  1  0.23020873  0.15848429  0.24084322  1
  C  C173  1  0.73136371  0.16205890  0.24572040  1
  C  C174  1  0.31883093  0.50820875  0.92457915  1
  C  C175  1  0.82536494  0.49756364  0.92550911  1
  C  C176  1  0.42442377  0.35320110  0.92530799  1
  C  C177  1  0.93547833  0.35582161  0.92237815  1
  C  C178  1  0.24216802  0.13301292  0.92404327  1
  C  C179  1  0.74346054  0.12908617  0.92459225  1
  C  C180  1  0.32540180  0.15424960  0.42470029  1
  C  C181  1  0.82064172  0.13058357  0.42194874  1
  C  C182  1  0.24362292  0.35764351  0.42412908  1
  C  C183  1  0.74270011  0.35316932  0.42088527  1
  C  C184  1  0.43424423  0.51509122  0.42102801  1
  C  C185  1  0.92281997  0.49296274  0.42413107  1
  C  C186  1  0.17514208  0.48306142  0.07503930  1
  C  C187  1  0.67816607  0.49043438  0.07473231  1
  C  C188  1  0.06661856  0.64876018  0.07513973  1
  C  C189  1  0.56631266  0.64338371  0.07355289  1
  C  C190  1  0.25483092  0.86727220  0.07393942  1
  C  C191  1  0.74663490  0.84888114  0.07173588  1
  C  C192  1  0.17804794  0.86589357  0.57496038  1
  C  C193  1  0.67470307  0.85162704  0.57343007  1
  C  C194  1  0.24577402  0.64228502  0.57118769  1
  C  C195  1  0.75598623  0.64134567  0.57445265  1
  C  C196  1  0.06796842  0.49007409  0.57290404  1
  C  C197  1  0.56541114  0.48214413  0.57551148  1
  C  C198  1  0.15130968  0.84495198  0.25343708  1
  C  C199  1  0.65553954  0.84972516  0.25942875  1
  C  C200  1  0.26948639  0.69214182  0.25864464  1
  C  C201  1  0.77207003  0.69955379  0.25523480  1
  C  C202  1  0.07904650  0.45709433  0.25336988  1
  C  C203  1  0.58463718  0.47847339  0.26161395  1
  C  C204  1  0.15538900  0.46057409  0.75994326  1
  C  C205  1  0.65083418  0.45819743  0.75448518  1
  C  C206  1  0.08445096  0.69309991  0.76200775  1
  C  C207  1  0.57849651  0.70014170  0.75499184  1
  C  C208  1  0.27108073  0.84511867  0.75726078  1
  C  C209  1  0.76978700  0.84594852  0.75949856  1
