# generated using pymatgen
data_Cu3Ni2C3
_symmetry_space_group_name_H-M   'P 1'
_cell_length_a   5.45660891
_cell_length_b   5.45660891
_cell_length_c   13.83636700
_cell_angle_alpha   90.00000000
_cell_angle_beta   90.00000000
_cell_angle_gamma   135.21553647
_symmetry_Int_Tables_number   1
_chemical_formula_structural   Cu3Ni2C3
_chemical_formula_sum   'Cu6 Ni4 C6'
_cell_volume   290.21030616
_cell_formula_units_Z   2
loop_
 _symmetry_equiv_pos_site_id
 _symmetry_equiv_pos_as_xyz
  1  'x, y, z'
loop_
 _atom_site_type_symbol
 _atom_site_label
 _atom_site_symmetry_multiplicity
 _atom_site_fract_x
 _atom_site_fract_y
 _atom_site_fract_z
 _atom_site_occupancy
  C  C0  1  0.58665400  0.41334600  0.60937300  1
  C  C1  1  0.41334600  0.58665400  0.39062700  1
  C  C2  1  0.41334600  0.58665400  0.10937300  1
  C  C3  1  0.58665400  0.41334600  0.89062700  1
  C  C4  1  0.13607800  0.86392200  0.25000000  1
  C  C5  1  0.86392200  0.13607800  0.75000000  1
  Ni  Ni6  1  0.29784500  0.70215500  0.60059500  1
  Ni  Ni7  1  0.70215500  0.29784500  0.39940500  1
  Ni  Ni8  1  0.70215500  0.29784500  0.10059500  1
  Ni  Ni9  1  0.29784500  0.70215500  0.89940500  1
  Cu  Cu10  1  0.87764700  0.12235300  0.53841100  1
  Cu  Cu11  1  0.12235300  0.87764700  0.46158900  1
  Cu  Cu12  1  0.16014600  0.83985400  0.75000000  1
  Cu  Cu13  1  0.83985400  0.16014600  0.25000000  1
  Cu  Cu14  1  0.87764700  0.12235300  0.96158900  1
  Cu  Cu15  1  0.12235300  0.87764700  0.03841100  1
