# generated using pymatgen
data_Cu3Ni4C67
_symmetry_space_group_name_H-M   'P 1'
_cell_length_a   17.88956421
_cell_length_b   8.88787804
_cell_length_c   23.03558912
_cell_angle_alpha   90.19466687
_cell_angle_beta   90.19570452
_cell_angle_gamma   119.85200929
_symmetry_Int_Tables_number   1
_chemical_formula_structural   Cu3Ni4C67
_chemical_formula_sum   'Cu9 Ni12 C201'
_cell_volume   3176.60694457
_cell_formula_units_Z   3
loop_
 _symmetry_equiv_pos_site_id
 _symmetry_equiv_pos_as_xyz
  1  'x, y, z'
loop_
 _atom_site_type_symbol
 _atom_site_label
 _atom_site_symmetry_multiplicity
 _atom_site_fract_x
 _atom_site_fract_y
 _atom_site_fract_z
 _atom_site_occupancy
  C  C0  1  -0.00005819  0.63352410  0.25195020  1
  C  C1  1  0.49773832  0.62281895  0.24447746  1
  C  C2  1  0.00282381  0.37125177  0.74456267  1
  C  C3  1  0.49961096  0.36840010  0.75138645  1
  C  C4  1  0.67202107  0.31365442  0.91139904  1
  C  C5  1  0.17098077  0.03297668  0.41460136  1
  C  C6  1  0.99370250  0.00941461  0.50110506  1
  C  C7  1  0.50421962  0.00965390  0.49955976  1
  C  C8  1  0.00311937  0.99598307  0.99329406  1
  C  C9  1  0.49365684  0.97787238  0.99565944  1
  C  C10  1  0.31462861  0.31197864  0.83000322  1
  C  C11  1  0.83478569  0.34893966  0.83430244  1
  C  C12  1  0.33142473  0.31784079  0.33673259  1
  C  C13  1  0.82249432  0.32942513  0.33629137  1
  C  C14  1  0.17393571  0.65648804  0.16615399  1
  C  C15  1  0.66534849  0.66315372  0.16635051  1
  C  C16  1  0.16432573  0.65643890  0.67321215  1
  C  C17  1  0.67549435  0.69306938  0.66852971  1
  C  C18  1  0.49996944  0.01224222  0.35940371  1
  C  C19  1  0.00735097  0.99644357  0.85633736  1
  C  C20  1  0.00361098  0.02003817  0.64854384  1
  C  C21  1  0.50402350  0.99733575  0.64685030  1
  C  C22  1  0.00435637  0.01036096  0.14578877  1
  C  C23  1  0.49861519  0.99198405  0.14471870  1
  C  C24  1  0.32583964  0.33334796  0.98242544  1
  C  C25  1  0.82620037  0.31937500  0.48477715  1
  C  C26  1  0.16548393  0.66385376  0.01604106  1
  C  C27  1  0.66819392  0.67276083  0.01710722  1
  C  C28  1  0.16840112  0.66403925  0.51943843  1
  C  C29  1  0.66531050  0.66250458  0.51881503  1
  Ni  Ni30  1  0.99511553  0.00096324  0.34943284  1
  Ni  Ni31  1  0.49421902  0.98833673  0.84805256  1
  Ni  Ni32  1  0.31841491  0.32638304  0.68706001  1
  Ni  Ni33  1  0.83592371  0.31934829  0.67331054  1
  Ni  Ni34  1  0.33411089  0.35046241  0.17091623  1
  Ni  Ni35  1  0.83017191  0.32962306  0.18064418  1
  Ni  Ni36  1  0.83974328  0.35069848  0.97918482  1
  Ni  Ni37  1  0.33751506  0.32618918  0.48267707  1
  Ni  Ni38  1  0.17654881  0.67685653  0.32200440  1
  Ni  Ni39  1  0.67325545  0.66142635  0.32226544  1
  Ni  Ni40  1  0.17082137  0.67252446  0.81434727  1
  Ni  Ni41  1  0.68116518  0.68154367  0.81925815  1
  Cu  Cu42  1  0.15151055  0.30620986  0.75322857  1
  Cu  Cu43  1  0.98031808  0.33699892  0.58506123  1
  Cu  Cu44  1  0.68648599  0.03730299  0.58663848  1
  Cu  Cu45  1  0.48136881  0.61886488  0.08604520  1
  Cu  Cu46  1  0.18719714  0.33912885  0.08650936  1
  Cu  Cu47  1  0.81341559  0.66361859  0.91592512  1
  Cu  Cu48  1  0.17154141  0.95619979  0.91361273  1
  Cu  Cu49  1  0.31060347  0.96375322  0.41645994  1
  Cu  Cu50  1  0.67267300  0.38091967  0.41442861  1
  C  C51  1  0.14742069  0.00168306  0.25184782  1
  C  C52  1  0.64732206  0.00131281  0.25037271  1
  C  C53  1  0.35372167  0.70844744  0.25099105  1
  C  C54  1  0.85345051  0.70753454  0.24912622  1
  C  C55  1  0.99933286  0.29490532  0.25126542  1
  C  C56  1  0.49905623  0.29244044  0.24985970  1
  C  C57  1  0.64736247  0.29333656  0.75211521  1
  C  C58  1  0.99615726  0.70442108  0.74851628  1
  C  C59  1  0.50206697  0.70679525  0.75156389  1
  C  C60  1  0.35618062  0.00207227  0.74920698  1
  C  C61  1  0.85264787  0.99829495  0.75134099  1
  C  C62  1  0.47782200  0.33369734  0.58586395  1
  C  C63  1  0.18718326  0.04129564  0.58234747  1
  C  C64  1  0.33428554  0.62058169  0.58246937  1
  C  C65  1  0.83344966  0.62512871  0.58445617  1
  C  C66  1  0.97880482  0.62278520  0.08585443  1
  C  C67  1  0.33263007  0.04171838  0.08472542  1
  C  C68  1  0.83316426  0.04682074  0.08377213  1
  C  C69  1  0.68783864  0.33371997  0.08385092  1
  C  C70  1  0.31563737  0.67201802  0.91523470  1
  C  C71  1  0.01761494  0.37206218  0.91515277  1
  C  C72  1  0.51920023  0.37199258  0.91445229  1
  C  C73  1  0.66482945  0.95990825  0.91507847  1
  C  C74  1  0.81397792  0.95792530  0.41466321  1
  C  C75  1  0.16499653  0.37062591  0.41471586  1
  C  C76  1  0.01948685  0.66653915  0.41410914  1
  C  C77  1  0.51968835  0.66341829  0.41386029  1
  C  C78  1  0.10590372  0.02120760  0.30519420  1
  C  C79  1  0.60413592  0.02255800  0.30190067  1
  C  C80  1  0.41057587  0.80241292  0.30158231  1
  C  C81  1  0.90814185  0.78546713  0.30164942  1
  C  C82  1  0.49328505  0.18622978  0.30182179  1
  C  C83  1  0.98701582  0.18921433  0.30302494  1
  C  C84  1  0.09717150  0.17716874  0.80695599  1
  C  C85  1  0.60622925  0.19148731  0.80542620  1
  C  C86  1  0.48957994  0.78772991  0.80345081  1
  C  C87  1  0.98762987  0.79247127  0.80147266  1
  C  C88  1  0.41023690  0.03162644  0.80190049  1
  C  C89  1  0.90664283  0.01474933  0.80244013  1
  C  C90  1  0.40248884  0.98247868  0.69742385  1
  C  C91  1  0.89480426  0.97631255  0.69757050  1
  C  C92  1  0.08736492  0.20636345  0.69511578  1
  C  C93  1  0.58809615  0.19535965  0.70049811  1
  C  C94  1  0.00373900  0.81173408  0.69665883  1
  C  C95  1  0.51128782  0.81606164  0.69875502  1
  C  C96  1  0.39875511  0.81664507  0.19789163  1
  C  C97  1  0.89939469  0.81610217  0.19718888  1
  C  C98  1  0.00873353  0.20510150  0.19842599  1
  C  C99  1  0.50844729  0.20211403  0.19783383  1
  C  C100  1  0.08775733  0.98046919  0.20036563  1
  C  C101  1  0.59085601  0.97781135  0.19779995  1
  C  C102  1  0.44134705  0.36192848  0.63913527  1
  C  C103  1  0.94843592  0.37338463  0.64626380  1
  C  C104  1  0.24171330  0.11836437  0.63368106  1
  C  C105  1  0.73957749  0.11454565  0.64500335  1
  C  C106  1  0.32239295  0.52014661  0.63521712  1
  C  C107  1  0.81695072  0.52249801  0.63661863  1
  C  C108  1  0.44897964  0.52291835  0.14812672  1
  C  C109  1  0.94302519  0.52367418  0.14010518  1
  C  C110  1  0.31862927  0.11276497  0.13758721  1
  C  C111  1  0.81999504  0.12176436  0.13726999  1
  C  C112  1  0.23894175  0.36682296  0.14564361  1
  C  C113  1  0.74023602  0.36165740  0.13634102  1
  C  C114  1  0.22906362  0.30276098  0.02843457  1
  C  C115  1  0.72133401  0.29726966  0.03108924  1
  C  C116  1  0.41980716  0.52706556  0.02980693  1
  C  C117  1  0.92567498  0.54481430  0.03457355  1
  C  C118  1  0.34759143  0.14845477  0.03233054  1
  C  C119  1  0.84735344  0.15077919  0.03178571  1
  C  C120  1  0.22095956  0.14299331  0.52894931  1
  C  C121  1  0.72744697  0.15428218  0.52782164  1
  C  C122  1  0.34820787  0.54615657  0.52965949  1
  C  C123  1  0.84511060  0.54292226  0.53141950  1
  C  C124  1  0.42687821  0.30622671  0.53334704  1
  C  C125  1  0.91995130  0.31186713  0.52816034  1
  C  C126  1  0.27176559  0.68969910  0.96855304  1
  C  C127  1  0.76519460  0.69001044  0.97390248  1
  C  C128  1  0.07444186  0.45833943  0.96786671  1
  C  C129  1  0.57756240  0.46349678  0.96601561  1
  C  C130  1  0.15757879  0.84261730  0.97368209  1
  C  C131  1  0.65163762  0.84894354  0.96803070  1
  C  C132  1  0.26486242  0.83963338  0.47297140  1
  C  C133  1  0.76971837  0.85089166  0.46687792  1
  C  C134  1  0.15216945  0.45556322  0.46717611  1
  C  C135  1  0.65555926  0.46899754  0.47211178  1
  C  C136  1  0.07783851  0.69257908  0.46492308  1
  C  C137  1  0.57620232  0.69262683  0.46570896  1
  C  C138  1  0.05437550  0.63718636  0.35981780  1
  C  C139  1  0.55768058  0.64154060  0.35994658  1
  C  C140  1  0.24961667  0.88735567  0.35953287  1
  C  C141  1  0.76251388  0.88769278  0.36154925  1
  C  C142  1  0.17412423  0.46993980  0.36186065  1
  C  C143  1  0.68476559  0.48513908  0.35582348  1
  C  C144  1  0.05477212  0.47197827  0.86252917  1
  C  C145  1  0.55432463  0.47138370  0.86091509  1
  C  C146  1  0.18298194  0.86494320  0.85753640  1
  C  C147  1  0.67363582  0.87723578  0.86267288  1
  C  C148  1  0.26467537  0.64128944  0.86297768  1
  C  C149  1  0.74703514  0.60936565  0.86144098  1
  C  C150  1  0.01592377  0.83151337  0.41133819  1
  C  C151  1  0.51334005  0.82582118  0.40938534  1
  C  C152  1  0.40588138  0.97617121  0.40968818  1
  C  C153  1  0.90013015  0.97169938  0.41151980  1
  C  C154  1  0.08728325  0.19160872  0.41169131  1
  C  C155  1  0.58572876  0.18436551  0.41035153  1
  C  C156  1  0.01108991  0.19812744  0.91252260  1
  C  C157  1  0.51594243  0.20037428  0.91222944  1
  C  C158  1  0.08520203  0.97949232  0.91240694  1
  C  C159  1  0.58750115  0.98370206  0.91252794  1
  C  C160  1  0.40218816  0.82988162  0.91322989  1
  C  C161  1  0.90653812  0.84012026  0.90958663  1
  C  C162  1  0.48873309  0.17613595  0.59249206  1
  C  C163  1  0.98767531  0.15686687  0.58752547  1
  C  C164  1  0.09786006  0.01401498  0.59099750  1
  C  C165  1  0.58817783  0.01470217  0.59053143  1
  C  C166  1  0.41042377  0.80151600  0.59042513  1
  C  C167  1  0.91164428  0.79967405  0.58890085  1
  C  C168  1  0.49066496  0.81743536  0.09132449  1
  C  C169  1  0.98824961  0.80073646  0.09315350  1
  C  C170  1  0.41234603  0.02306467  0.09038703  1
  C  C171  1  0.90958702  0.02011197  0.09240395  1
  C  C172  1  0.08878558  0.16357613  0.09127309  1
  C  C173  1  0.59814232  0.18012099  0.09341419  1
  C  C174  1  0.35325778  0.16585876  0.74219852  1
  C  C175  1  0.84927035  0.16100926  0.74821488  1
  C  C176  1  0.24395506  0.31702125  0.74777084  1
  C  C177  1  0.73282698  0.31517162  0.74500179  1
  C  C178  1  0.42646317  0.53154076  0.74356991  1
  C  C179  1  0.91817410  0.53071441  0.74617538  1
  C  C180  1  0.35015241  0.53937435  0.24817678  1
  C  C181  1  0.84766276  0.53324839  0.24245585  1
  C  C182  1  0.42000279  0.30440558  0.24787457  1
  C  C183  1  0.92219967  0.31688615  0.24385827  1
  C  C184  1  0.23286900  0.15085213  0.24493853  1
  C  C185  1  0.73304893  0.15600712  0.24360994  1
  C  C186  1  0.32655550  0.51614466  0.92354013  1
  C  C187  1  0.81919588  0.48614070  0.92350893  1
  C  C188  1  0.43313865  0.35007440  0.92506252  1
  C  C189  1  0.93166029  0.35025158  0.92471555  1
  C  C190  1  0.25672342  0.15092843  0.92269684  1
  C  C191  1  0.74262192  0.13142434  0.92349279  1
  C  C192  1  0.31982872  0.15523630  0.42356531  1
  C  C193  1  0.82510554  0.13538707  0.42231275  1
  C  C194  1  0.24264851  0.35396190  0.42233284  1
  C  C195  1  0.75723174  0.35750784  0.42218448  1
  C  C196  1  0.43350968  0.51431559  0.42238266  1
  C  C197  1  0.93300666  0.51566982  0.42342474  1
  C  C198  1  0.17308790  0.50603018  0.07626592  1
  C  C199  1  0.67649649  0.48893199  0.07760445  1
  C  C200  1  0.06728382  0.64712492  0.07889441  1
  C  C201  1  0.57933276  0.65216038  0.07584554  1
  C  C202  1  0.25811792  0.86315159  0.07581580  1
  C  C203  1  0.75553822  0.86890877  0.07762486  1
  C  C204  1  0.17646321  0.86310526  0.57525743  1
  C  C205  1  0.67252445  0.84206571  0.57466483  1
  C  C206  1  0.25633404  0.64263869  0.57625091  1
  C  C207  1  0.75704654  0.65134165  0.57485391  1
  C  C208  1  0.07776721  0.50197756  0.57327578  1
  C  C209  1  0.56708987  0.48789950  0.57827623  1
  C  C210  1  0.14657289  0.83249184  0.25160082  1
  C  C211  1  0.65088045  0.83802763  0.25400569  1
  C  C212  1  0.26840269  0.69391465  0.25359833  1
  C  C213  1  0.76855106  0.69503040  0.25181493  1
  C  C214  1  0.07758027  0.46950549  0.25451315  1
  C  C215  1  0.57620196  0.46826719  0.25285078  1
  C  C216  1  0.15105920  0.48947271  0.75677598  1
  C  C217  1  0.64629862  0.46060111  0.75192681  1
  C  C218  1  0.07434136  0.68912346  0.75137880  1
  C  C219  1  0.58116053  0.69166531  0.75466981  1
  C  C220  1  0.27134095  0.84752462  0.75090952  1
  C  C221  1  0.76574654  0.84301707  0.75345284  1
