# generated using pymatgen
data_Cu3Ni3C32
_symmetry_space_group_name_H-M   'P 1'
_cell_length_a   9.01300464
_cell_length_b   9.01619071
_cell_length_c   23.02407858
_cell_angle_alpha   89.92793964
_cell_angle_beta   90.14559558
_cell_angle_gamma   119.91178642
_symmetry_Int_Tables_number   1
_chemical_formula_structural   Cu3Ni3C32
_chemical_formula_sum   'Cu9 Ni9 C96'
_cell_volume   1621.77100096
_cell_formula_units_Z   3
loop_
 _symmetry_equiv_pos_site_id
 _symmetry_equiv_pos_as_xyz
  1  'x, y, z'
loop_
 _atom_site_type_symbol
 _atom_site_label
 _atom_site_symmetry_multiplicity
 _atom_site_fract_x
 _atom_site_fract_y
 _atom_site_fract_z
 _atom_site_occupancy
  C  C0  1  0.64131850  0.00098737  0.25179772  1
  C  C1  1  0.35956210  0.35830260  0.25152642  1
  C  C2  1  0.99907756  0.63942549  0.25201518  1
  C  C3  1  0.30374715  0.34001581  0.58676472  1
  C  C4  1  0.66498459  0.96571627  0.58661018  1
  C  C5  1  0.29270326  0.95962176  0.08276987  1
  C  C6  1  0.00079193  0.98960730  0.50242720  1
  C  C7  1  0.98851186  0.00064013  0.98962933  1
  C  C8  1  0.66642945  0.33329394  0.82748332  1
  C  C9  1  0.66725887  0.33334012  0.33025118  1
  C  C10  1  0.33360190  0.65515891  0.17156604  1
  C  C11  1  0.31969218  0.66755000  0.66255555  1
  C  C12  1  0.00053717  0.00006068  0.34639622  1
  C  C13  1  0.00106190  0.99973053  0.85733585  1
  C  C14  1  0.00156024  0.99296757  0.64225833  1
  C  C15  1  0.99400087  0.00110743  0.15348208  1
  C  C16  1  0.66868090  0.33507173  0.68145651  1
  C  C17  1  0.66870502  0.33582139  0.18931757  1
  C  C18  1  0.33421734  0.66171000  0.01344512  1
  C  C19  1  0.32708653  0.66679128  0.52220752  1
  C  C20  1  0.33317766  0.66745614  0.31258560  1
  C  C21  1  0.66899237  0.33484870  0.97183259  1
  C  C22  1  0.66865923  0.33498146  0.48549628  1
  C  C23  1  0.33348813  0.66705532  0.81991076  1
  Ni  Ni24  1  0.29023573  0.99926816  0.24763261  1
  Ni  Ni25  1  0.70859087  0.70976043  0.25058099  1
  Ni  Ni26  1  0.00117493  0.29106126  0.25041537  1
  Ni  Ni27  1  0.95960857  0.33540889  0.58559182  1
  Ni  Ni28  1  0.37668335  0.04246566  0.58454666  1
  Ni  Ni29  1  0.66756143  0.62472838  0.58407244  1
  Ni  Ni30  1  0.62572608  0.67147870  0.91821636  1
  Ni  Ni31  1  0.04599141  0.37460003  0.91786890  1
  Ni  Ni32  1  0.32928210  0.95400936  0.92056922  1
  Cu  Cu33  1  0.29358125  0.29885340  0.75064323  1
  Cu  Cu34  1  0.00474528  0.70739274  0.75143935  1
  Cu  Cu35  1  0.70119403  0.99487668  0.75069615  1
  Cu  Cu36  1  0.95561961  0.62268705  0.08196593  1
  Cu  Cu37  1  0.66808037  0.04608867  0.08205025  1
  Cu  Cu38  1  0.37902353  0.33405596  0.08199972  1
  Cu  Cu39  1  0.63031256  0.96689639  0.41800496  1
  Cu  Cu40  1  0.33692724  0.36990118  0.41785204  1
  Cu  Cu41  1  0.03317490  0.66292012  0.41698008  1
  C  C42  1  0.20642612  0.04386420  0.30249380  1
  C  C43  1  0.83423151  0.78855087  0.30632238  1
  C  C44  1  0.95373193  0.16528252  0.30614688  1
  C  C45  1  0.20333501  0.19186244  0.80103451  1
  C  C46  1  0.98809851  0.79378980  0.80281548  1
  C  C47  1  0.80806097  0.01059564  0.80108804  1
  C  C48  1  0.77466004  0.97142063  0.69607141  1
  C  C49  1  0.19650091  0.22457846  0.69594293  1
  C  C50  1  0.02781411  0.80884390  0.69799271  1
  C  C51  1  0.78737326  0.83447789  0.19400256  1
  C  C52  1  0.04719554  0.21271352  0.19373307  1
  C  C53  1  0.17510491  0.95738066  0.18788760  1
  C  C54  1  0.87295305  0.36771866  0.64105287  1
  C  C55  1  0.50093463  0.12591850  0.63967782  1
  C  C56  1  0.62174212  0.49765709  0.63858385  1
  C  C57  1  0.87467129  0.52711218  0.13590801  1
  C  C58  1  0.64830578  0.12732211  0.13535479  1
  C  C59  1  0.47488373  0.34906551  0.13614900  1
  C  C60  1  0.47666006  0.31859345  0.03136120  1
  C  C61  1  0.84776047  0.52553547  0.03070502  1
  C  C62  1  0.68031966  0.15500940  0.03062982  1
  C  C63  1  0.47578055  0.17095586  0.52639418  1
  C  C64  1  0.69446670  0.52660873  0.52574772  1
  C  C65  1  0.83186682  0.30568285  0.52713641  1
  C  C66  1  0.53978191  0.69672533  0.97489087  1
  C  C67  1  0.15631825  0.46153354  0.97468459  1
  C  C68  1  0.30659737  0.85233491  0.98016749  1
  C  C69  1  0.54205885  0.86405351  0.46985220  1
  C  C70  1  0.32237750  0.45772492  0.46980801  1
  C  C71  1  0.13986156  0.67711661  0.46779762  1
  C  C72  1  0.10889466  0.64001051  0.36295054  1
  C  C73  1  0.52819239  0.88790498  0.36453503  1
  C  C74  1  0.35848927  0.47158897  0.36451242  1
  C  C75  1  0.13778271  0.50284820  0.86033665  1
  C  C76  1  0.36440058  0.85814632  0.86368401  1
  C  C77  1  0.49662677  0.63374766  0.86060118  1
  C  C78  1  0.01340866  0.81557093  0.41479774  1
  C  C79  1  0.80275497  0.98683945  0.41495355  1
  C  C80  1  0.18513695  0.19693808  0.41459209  1
  C  C81  1  0.01078399  0.18551985  0.90677365  1
  C  C82  1  0.17487952  0.98786021  0.90772883  1
  C  C83  1  0.81426317  0.82549034  0.90684277  1
  C  C84  1  0.96680845  0.15791331  0.58926407  1
  C  C85  1  0.19621282  0.04116068  0.58789742  1
  C  C86  1  0.83379367  0.81447461  0.58835478  1
  C  C87  1  0.97199442  0.79523421  0.08180469  1
  C  C88  1  0.82349570  0.03085813  0.08319703  1
  C  C89  1  0.21081870  0.17234749  0.08223878  1
  C  C90  1  0.67870631  0.14715751  0.74825968  1
  C  C91  1  0.46824252  0.32094986  0.74821345  1
  C  C92  1  0.85308967  0.53336522  0.74770720  1
  C  C93  1  0.68350432  0.51833448  0.24167889  1
  C  C94  1  0.83524514  0.31705780  0.24131895  1
  C  C95  1  0.48282745  0.16547933  0.24072940  1
  C  C96  1  0.63607732  0.49131529  0.92706854  1
  C  C97  1  0.85550018  0.36454701  0.92639959  1
  C  C98  1  0.50986172  0.14540318  0.92749904  1
  C  C99  1  0.64508840  0.14254909  0.42270585  1
  C  C100  1  0.49784695  0.35506500  0.42242092  1
  C  C101  1  0.85833644  0.50272469  0.42275944  1
  C  C102  1  0.35922260  0.48660320  0.07798187  1
  C  C103  1  0.13039224  0.64340857  0.07923057  1
  C  C104  1  0.50872352  0.87596721  0.07855537  1
  C  C105  1  0.36345996  0.85940971  0.57327910  1
  C  C106  1  0.50050878  0.64520344  0.57201363  1
  C  C107  1  0.15166466  0.49210561  0.57472364  1
  C  C108  1  0.31265640  0.83141297  0.25839334  1
  C  C109  1  0.51717174  0.68538837  0.25945849  1
  C  C110  1  0.16828828  0.48203115  0.25951199  1
  C  C111  1  0.30933114  0.47512501  0.75699132  1
  C  C112  1  0.16566813  0.69143305  0.75705971  1
  C  C113  1  0.52401671  0.83516416  0.75729373  1
