# generated using pymatgen
data_Cu2Ni4C
_symmetry_space_group_name_H-M   'P 1'
_cell_length_a   4.16397326
_cell_length_b   4.16397326
_cell_length_c   7.90480383
_cell_angle_alpha   74.72914086
_cell_angle_beta   74.72914086
_cell_angle_gamma   60.00001173
_symmetry_Int_Tables_number   1
_chemical_formula_structural   Cu2Ni4C
_chemical_formula_sum   'Cu2 Ni4 C1'
_cell_volume   113.07392166
_cell_formula_units_Z   1
loop_
 _symmetry_equiv_pos_site_id
 _symmetry_equiv_pos_as_xyz
  1  'x, y, z'
loop_
 _atom_site_type_symbol
 _atom_site_label
 _atom_site_symmetry_multiplicity
 _atom_site_fract_x
 _atom_site_fract_y
 _atom_site_fract_z
 _atom_site_occupancy
  C  C0  1  0.00000000  0.00000000  0.00000000  1
  Ni  Ni1  1  0.14423300  0.14423300  0.56730100  1
  Ni  Ni2  1  0.56317600  0.56317600  0.31047200  1
  Ni  Ni3  1  0.85576700  0.85576700  0.43269900  1
  Ni  Ni4  1  0.43682400  0.43682400  0.68952800  1
  Cu  Cu5  1  0.25318200  0.25318200  0.24045400  1
  Cu  Cu6  1  0.74681800  0.74681800  0.75954600  1
