# generated using pymatgen
data_CuNiC11
_symmetry_space_group_name_H-M   'P 1'
_cell_length_a   5.20764957
_cell_length_b   5.20764887
_cell_length_c   7.31596276
_cell_angle_alpha   89.84704944
_cell_angle_beta   89.84703384
_cell_angle_gamma   73.99825172
_symmetry_Int_Tables_number   1
_chemical_formula_structural   CuNiC11
_chemical_formula_sum   'Cu1 Ni1 C11'
_cell_volume   190.71741112
_cell_formula_units_Z   1
loop_
 _symmetry_equiv_pos_site_id
 _symmetry_equiv_pos_as_xyz
  1  'x, y, z'
loop_
 _atom_site_type_symbol
 _atom_site_label
 _atom_site_symmetry_multiplicity
 _atom_site_fract_x
 _atom_site_fract_y
 _atom_site_fract_z
 _atom_site_occupancy
  C  C0  1  0.17532366  0.82467634  0.50000000  1
  Ni  Ni1  1  0.68809861  0.31190139  0.50000000  1
  Cu  Cu2  1  0.98263331  0.01736669  0.00000000  1
  C  C3  1  0.35978452  0.40067814  0.80217837  1
  C  C4  1  0.59932186  0.64021548  0.19782163  1
  C  C5  1  0.74999473  0.27569223  0.22573737  1
  C  C6  1  0.29507016  0.32423587  0.57691866  1
  C  C7  1  0.21221621  0.74228050  0.80081359  1
  C  C8  1  0.25771950  0.78778379  0.19918541  1
  C  C9  1  0.74713707  0.76737153  0.03038028  1
  C  C10  1  0.72430777  0.25000527  0.77426363  1
  C  C11  1  0.23262847  0.25286293  0.96961972  1
  C  C12  1  0.67576413  0.70492984  0.42308134  1
