# generated using pymatgen
data_Cu2Ni2C33
_symmetry_space_group_name_H-M   'P 1'
_cell_length_a   17.79107822
_cell_length_b   8.87077496
_cell_length_c   22.87877083
_cell_angle_alpha   89.89495828
_cell_angle_beta   90.07785045
_cell_angle_gamma   119.96168487
_symmetry_Int_Tables_number   1
_chemical_formula_structural   Cu2Ni2C33
_chemical_formula_sum   'Cu12 Ni12 C198'
_cell_volume   3128.19567099
_cell_formula_units_Z   6
loop_
 _symmetry_equiv_pos_site_id
 _symmetry_equiv_pos_as_xyz
  1  'x, y, z'
loop_
 _atom_site_type_symbol
 _atom_site_label
 _atom_site_symmetry_multiplicity
 _atom_site_fract_x
 _atom_site_fract_y
 _atom_site_fract_z
 _atom_site_occupancy
  C  C0  1  0.00114974  0.63304138  0.25198438  1
  C  C1  1  0.49610790  0.64541501  0.24575555  1
  C  C2  1  0.99807427  0.34841427  0.75121805  1
  C  C3  1  0.50045262  0.37177835  0.75322336  1
  C  C4  1  0.66305819  0.30563746  0.91757718  1
  C  C5  1  0.16406488  0.02317550  0.41441169  1
  C  C6  1  0.99830239  0.98507360  0.49976792  1
  C  C7  1  0.49268914  0.98761879  0.49485717  1
  C  C8  1  0.99320929  0.99810223  0.99668568  1
  C  C9  1  0.49692418  0.00030687  0.00466292  1
  C  C10  1  0.33369977  0.33699846  0.83165740  1
  C  C11  1  0.83317907  0.32752032  0.83634560  1
  C  C12  1  0.33124599  0.33711576  0.32928823  1
  C  C13  1  0.83376428  0.32830397  0.32776089  1
  C  C14  1  0.17627162  0.67458574  0.17247824  1
  C  C15  1  0.67033265  0.66661040  0.16221732  1
  C  C16  1  0.17718889  0.68431625  0.66718027  1
  C  C17  1  0.67394424  0.67647973  0.67422328  1
  Ni  Ni18  1  0.49645873  0.97842302  0.35310930  1
  Ni  Ni19  1  0.99642437  0.01508868  0.85436000  1
  Ni  Ni20  1  -0.00014049  0.00149398  0.64519970  1
  Ni  Ni21  1  0.49494158  0.99072836  0.65162363  1
  Ni  Ni22  1  0.99646421  0.00081915  0.15187944  1
  Ni  Ni23  1  0.49770479  0.98775006  0.14219086  1
  Ni  Ni24  1  0.34269421  0.33530122  0.97951258  1
  Ni  Ni25  1  0.83935365  0.35107247  0.47759286  1
  Ni  Ni26  1  0.16719527  0.66910706  0.02218324  1
  Ni  Ni27  1  0.66330688  0.64657661  0.02218322  1
  Ni  Ni28  1  0.16937211  0.68685660  0.51913309  1
  Ni  Ni29  1  0.66698053  0.66567408  0.52171491  1
  Cu  Cu30  1  0.00054379  0.99203248  0.34417950  1
  Cu  Cu31  1  0.49946461  0.00638648  0.84558250  1
  Cu  Cu32  1  0.32638376  0.32114367  0.69428696  1
  Cu  Cu33  1  0.82186764  0.33099648  0.69065181  1
  Cu  Cu34  1  0.33231428  0.32779657  0.18557150  1
  Cu  Cu35  1  0.82655856  0.33055528  0.19377649  1
  Cu  Cu36  1  0.83155874  0.33998465  0.97611894  1
  Cu  Cu37  1  0.33175441  0.32327696  0.47493624  1
  Cu  Cu38  1  0.16767077  0.68215212  0.30862217  1
  Cu  Cu39  1  0.66321744  0.67545886  0.31042540  1
  Cu  Cu40  1  0.16629231  0.65224109  0.81332864  1
  Cu  Cu41  1  0.66776534  0.65528409  0.81109121  1
  C  C42  1  0.14933832  0.00973852  0.24911854  1
  C  C43  1  0.64518072  0.00576190  0.25099513  1
  C  C44  1  0.34963325  0.70050092  0.24853187  1
  C  C45  1  0.84953416  0.70714110  0.25110972  1
  C  C46  1  0.00058801  0.29247421  0.25207420  1
  C  C47  1  0.14529015  0.28762880  0.75042960  1
  C  C48  1  0.64403408  0.28824707  0.75014571  1
  C  C49  1  0.50072988  0.70851999  0.75193430  1
  C  C50  1  0.34945874  0.99150338  0.75147338  1
  C  C51  1  0.85024990  0.99799467  0.74770633  1
  C  C52  1  0.19332769  0.05467509  0.58401390  1
  C  C53  1  0.83251851  0.62319009  0.58565332  1
  C  C54  1  0.47852632  0.61911334  0.08534287  1
  C  C55  1  0.33161345  0.04269206  0.08546722  1
  C  C56  1  0.69406657  0.33253236  0.08428139  1
  C  C57  1  0.81200750  0.67096298  0.91686167  1
  C  C58  1  0.02078993  0.38283068  0.91803284  1
  C  C59  1  0.52000734  0.36945934  0.91185080  1
  C  C60  1  0.31385328  0.95669965  0.41486613  1
  C  C61  1  0.02165946  0.67217942  0.41213622  1
  C  C62  1  0.52124377  0.66100594  0.41773379  1
  C  C63  1  0.50094724  0.29280995  0.25125974  1
  C  C64  1  0.00059495  0.70679006  0.74999050  1
  C  C65  1  0.47564125  0.33102794  0.58252365  1
  C  C66  1  0.97754418  0.33431038  0.58450796  1
  C  C67  1  0.68861986  0.04633417  0.58340503  1
  C  C68  1  0.33361327  0.61589945  0.58263423  1
  C  C69  1  0.97556586  0.62017183  0.08249701  1
  C  C70  1  0.83501077  0.05325568  0.08261926  1
  C  C71  1  0.18811464  0.32972444  0.08280653  1
  C  C72  1  0.31129030  0.66903700  0.91538994  1
  C  C73  1  0.16629917  0.95386470  0.91480274  1
  C  C74  1  0.66566062  0.95412495  0.91633571  1
  C  C75  1  0.81141549  0.95304124  0.41583725  1
  C  C76  1  0.16560919  0.37706529  0.41743596  1
  C  C77  1  0.66612684  0.37765318  0.41582229  1
  C  C78  1  0.10162178  0.03169834  0.30853859  1
  C  C79  1  0.60663942  0.04249661  0.30952809  1
  C  C80  1  0.41485832  0.78372389  0.30574284  1
  C  C81  1  0.91781850  0.79877455  0.30626503  1
  C  C82  1  0.48938831  0.18928823  0.30401416  1
  C  C83  1  0.98416693  0.16101734  0.30803995  1
  C  C84  1  0.10467895  0.16848378  0.80778541  1
  C  C85  1  0.60197887  0.17058011  0.80889046  1
  C  C86  1  0.48404956  0.80691603  0.80733640  1
  C  C87  1  0.98600702  0.78373071  0.80238525  1
  C  C88  1  0.41809665  0.03639544  0.80593717  1
  C  C89  1  0.91635751  0.05088851  0.80421981  1
  C  C90  1  0.39133738  0.95795686  0.69301094  1
  C  C91  1  0.89697063  0.96651612  0.69177598  1
  C  C92  1  0.08215321  0.21405609  0.69390779  1
  C  C93  1  0.58291560  0.20294836  0.69299937  1
  C  C94  1  0.01420090  0.81414922  0.69719800  1
  C  C95  1  0.51703869  0.82873109  0.69357396  1
  C  C96  1  0.39518788  0.82892369  0.19339585  1
  C  C97  1  0.89155623  0.82548555  0.19297954  1
  C  C98  1  0.01732963  0.20591984  0.19408556  1
  C  C99  1  0.51562142  0.21757398  0.19828796  1
  C  C100  1  0.08255898  0.96222771  0.19395998  1
  C  C101  1  0.58188473  0.95084938  0.19525822  1
  C  C102  1  0.44081169  0.35855720  0.63699861  1
  C  C103  1  0.93756921  0.35682834  0.63740426  1
  C  C104  1  0.25576880  0.15656863  0.64045311  1
  C  C105  1  0.74096241  0.12617695  0.63675270  1
  C  C106  1  0.32591245  0.51829338  0.63639395  1
  C  C107  1  0.82208016  0.49348465  0.64123157  1
  C  C108  1  0.42854393  0.49956812  0.14339860  1
  C  C109  1  0.94077728  0.52275633  0.13706538  1
  C  C110  1  0.31720422  0.14175502  0.14167939  1
  C  C111  1  0.82742909  0.13625603  0.13624987  1
  C  C112  1  0.23994173  0.35563704  0.13579362  1
  C  C113  1  0.75697199  0.35354569  0.14042030  1
  C  C114  1  0.22795990  0.30991370  0.02890872  1
  C  C115  1  0.74374832  0.31474714  0.02498530  1
  C  C116  1  0.41858612  0.53013975  0.02721861  1
  C  C117  1  0.92310145  0.53337100  0.03008959  1
  C  C118  1  0.34058662  0.15396474  0.02626913  1
  C  C119  1  0.84727160  0.15801694  0.02934110  1
  C  C120  1  0.24245593  0.16919653  0.52480226  1
  C  C121  1  0.73148137  0.14809635  0.53026909  1
  C  C122  1  0.34583596  0.53716999  0.52946769  1
  C  C123  1  0.84337517  0.52637300  0.52781792  1
  C  C124  1  0.42301127  0.31263123  0.53024630  1
  C  C125  1  0.92351424  0.31026828  0.53128213  1
  C  C126  1  0.27055874  0.69358193  0.96879578  1
  C  C127  1  0.76897705  0.70190719  0.97420433  1
  C  C128  1  0.08316547  0.47918602  0.97313493  1
  C  C129  1  0.58130601  0.45688634  0.96985527  1
  C  C130  1  0.15790189  0.85126618  0.96878613  1
  C  C131  1  0.65458783  0.85281732  0.97022407  1
  C  C132  1  0.27071313  0.84131028  0.47384913  1
  C  C133  1  0.77024596  0.84652535  0.46973499  1
  C  C134  1  0.15483051  0.45733782  0.47137258  1
  C  C135  1  0.65893336  0.46480308  0.46980732  1
  C  C136  1  0.08112405  0.70041019  0.47108243  1
  C  C137  1  0.58301167  0.68751444  0.47369809  1
  C  C138  1  0.06727492  0.64406246  0.35535851  1
  C  C139  1  0.56922774  0.63657077  0.35911598  1
  C  C140  1  0.24688551  0.86663525  0.36054155  1
  C  C141  1  0.75668488  0.86963302  0.36401362  1
  C  C142  1  0.17975267  0.48329179  0.36520625  1
  C  C143  1  0.68188273  0.48733619  0.36407425  1
  C  C144  1  0.06933545  0.50096618  0.85839241  1
  C  C145  1  0.56844788  0.49033804  0.85469729  1
  C  C146  1  0.17960963  0.87070557  0.86322219  1
  C  C147  1  0.67972229  0.87650986  0.86407857  1
  C  C148  1  0.25621435  0.64765637  0.86315307  1
  C  C149  1  0.74738909  0.63041170  0.86018892  1
  C  C150  1  0.01421669  0.84994306  0.40854068  1
  C  C151  1  0.51394405  0.83626724  0.41335809  1
  C  C152  1  0.41247148  0.99713148  0.40978377  1
  C  C153  1  0.89808758  0.97383657  0.41099969  1
  C  C154  1  0.08922716  0.19823222  0.41296506  1
  C  C155  1  0.58815844  0.20776235  0.41232892  1
  C  C156  1  0.01400262  0.19274612  0.91276435  1
  C  C157  1  0.51376074  0.17737123  0.90624254  1
  C  C158  1  0.08629748  0.96420203  0.91048839  1
  C  C159  1  0.58931493  0.98054613  0.91120223  1
  C  C160  1  0.39761634  0.82233062  0.90940536  1
  C  C161  1  0.91123289  0.82654465  0.90844170  1
  C  C162  1  0.48643798  0.17440229  0.58551135  1
  C  C163  1  0.98444681  0.17439878  0.58690036  1
  C  C164  1  0.09742875  0.03424770  0.58897553  1
  C  C165  1  0.60137401  0.02807473  0.58755307  1
  C  C166  1  0.41177676  0.79725518  0.58644840  1
  C  C167  1  0.91865950  0.81241721  0.58935034  1
  C  C168  1  0.48529717  0.80804409  0.08694648  1
  C  C169  1  0.98619113  0.79804654  0.08535387  1
  C  C170  1  0.41873184  0.03132476  0.08972869  1
  C  C171  1  0.91399945  0.03129549  0.08655949  1
  C  C172  1  0.09980526  0.17395595  0.08767921  1
  C  C173  1  0.59845308  0.16501916  0.08884129  1
  C  C174  1  0.34777839  0.17412556  0.74354389  1
  C  C175  1  0.84786352  0.18152209  0.73587617  1
  C  C176  1  0.24343309  0.32129762  0.74163284  1
  C  C177  1  0.74115268  0.30842607  0.74341625  1
  C  C178  1  0.41671251  0.51361200  0.73999845  1
  C  C179  1  0.92406634  0.52674507  0.74261200  1
  C  C180  1  0.34592696  0.51262467  0.24086468  1
  C  C181  1  0.84781926  0.52125425  0.24360460  1
  C  C182  1  0.42412496  0.31770651  0.24628965  1
  C  C183  1  0.91721729  0.32076791  0.24095772  1
  C  C184  1  0.24447103  0.17883737  0.24334408  1
  C  C185  1  0.74410455  0.16691684  0.24257023  1
  C  C186  1  0.31433840  0.50524205  0.91972941  1
  C  C187  1  0.81536414  0.48508734  0.92440839  1
  C  C188  1  0.42392739  0.35207020  0.91600556  1
  C  C189  1  0.92404354  0.35887816  0.92579941  1
  C  C190  1  0.24247881  0.13137187  0.92074067  1
  C  C191  1  0.74494092  0.13589727  0.92171332  1
  C  C192  1  0.31633785  0.14711200  0.42466937  1
  C  C193  1  0.81689253  0.12601221  0.42342271  1
  C  C194  1  0.24483170  0.35445868  0.42328260  1
  C  C195  1  0.74384022  0.35362514  0.42323941  1
  C  C196  1  0.42428594  0.49072123  0.42759707  1
  C  C197  1  0.92542341  0.49527489  0.41927930  1
  C  C198  1  0.17897142  0.48929292  0.07770887  1
  C  C199  1  0.68923904  0.51179760  0.08098079  1
  C  C200  1  0.06458785  0.64109639  0.07541727  1
  C  C201  1  0.57512386  0.64197166  0.08079127  1
  C  C202  1  0.24432753  0.84974121  0.07988191  1
  C  C203  1  0.75630372  0.87853179  0.07774910  1
  C  C204  1  0.18309502  0.85874418  0.58108160  1
  C  C205  1  0.68025320  0.87007675  0.57886010  1
  C  C206  1  0.25386239  0.63214989  0.57799562  1
  C  C207  1  0.74478979  0.63720668  0.58024201  1
  C  C208  1  0.06538495  0.48768522  0.57761048  1
  C  C209  1  0.56492534  0.48806646  0.57546224  1
  C  C210  1  0.15346337  0.82974279  0.25641348  1
  C  C211  1  0.65423346  0.82674283  0.26164524  1
  C  C212  1  0.25487683  0.67882357  0.26178898  1
  C  C213  1  0.75387972  0.67999146  0.26543665  1
  C  C214  1  0.08406637  0.48608532  0.26095748  1
  C  C215  1  0.57905871  0.47376146  0.25706733  1
  C  C216  1  0.15365242  0.48302366  0.76074872  1
  C  C217  1  0.65359199  0.47931581  0.75592820  1
  C  C218  1  0.07818801  0.68442705  0.75532244  1
  C  C219  1  0.58395103  0.68159665  0.76059187  1
  C  C220  1  0.25326939  0.82749156  0.76425934  1
  C  C221  1  0.75531899  0.83402179  0.76000719  1
