# generated using pymatgen
data_Cu24Ni6C5
_symmetry_space_group_name_H-M   'P 1'
_cell_length_a   9.38014151
_cell_length_b   9.38014116
_cell_length_c   24.62274744
_cell_angle_alpha   90.00000000
_cell_angle_beta   90.00000000
_cell_angle_gamma   120.00000119
_symmetry_Int_Tables_number   1
_chemical_formula_structural   Cu24Ni6C5
_chemical_formula_sum   'Cu72 Ni18 C15'
_cell_volume   1876.22924619
_cell_formula_units_Z   3
loop_
 _symmetry_equiv_pos_site_id
 _symmetry_equiv_pos_as_xyz
  1  'x, y, z'
loop_
 _atom_site_type_symbol
 _atom_site_label
 _atom_site_symmetry_multiplicity
 _atom_site_fract_x
 _atom_site_fract_y
 _atom_site_fract_z
 _atom_site_occupancy
  C  C0  1  0.00000000  0.00000000  0.99345174  1
  C  C1  1  0.66666700  0.33333300  0.84014205  1
  C  C2  1  0.66666700  0.33333300  0.33310455  1
  C  C3  1  0.00000000  0.00000000  0.64742541  1
  C  C4  1  0.00000000  0.00000000  0.14680275  1
  C  C5  1  0.66666700  0.33333300  0.68834864  1
  C  C6  1  0.66666700  0.33333300  0.18572604  1
  C  C7  1  0.66666700  0.33333300  0.47981801  1
  C  C8  1  0.33333300  0.66666700  0.01659269  1
  C  C9  1  0.33333300  0.66666700  0.51589474  1
  C  C10  1  0.33333300  0.66666700  0.31189421  1
  C  C11  1  0.33333300  0.66666700  0.81661112  1
  C  C12  1  0.00000000  0.00000000  0.35377020  1
  C  C13  1  0.00000000  0.00000000  0.84971894  1
  C  C14  1  0.66666700  0.33333300  0.98329791  1
  Ni  Ni15  1  0.28604084  0.00544741  0.25457240  1
  Ni  Ni16  1  0.71940657  0.71395916  0.25457240  1
  Ni  Ni17  1  0.99455259  0.28059343  0.25457240  1
  Ni  Ni18  1  0.28582417  0.28297375  0.75479505  1
  Ni  Ni19  1  0.99714957  0.71417583  0.75479505  1
  Ni  Ni20  1  0.71702625  0.00285043  0.75479505  1
  Ni  Ni21  1  0.96170611  0.33491813  0.58331979  1
  Ni  Ni22  1  0.37321301  0.03829389  0.58331979  1
  Ni  Ni23  1  0.66508187  0.62678699  0.58331979  1
  Ni  Ni24  1  0.94962931  0.61952679  0.07859426  1
  Ni  Ni25  1  0.66989848  0.05037069  0.07859426  1
  Ni  Ni26  1  0.38047321  0.33010152  0.07859426  1
  Ni  Ni27  1  0.64398764  0.66665015  0.91666458  1
  Ni  Ni28  1  0.02266151  0.35601236  0.91666458  1
  Ni  Ni29  1  0.33334985  0.97733849  0.91666458  1
  Ni  Ni30  1  0.64255757  0.96387248  0.41313796  1
  Ni  Ni31  1  0.32131392  0.35744243  0.41313796  1
  Ni  Ni32  1  0.03612752  0.67868608  0.41313796  1
  Cu  Cu33  1  0.19911249  0.02180579  0.30146546  1
  Cu  Cu34  1  0.82269330  0.80088751  0.30146546  1
  Cu  Cu35  1  0.97819421  0.17730670  0.30146546  1
  Cu  Cu36  1  0.19826995  0.17757032  0.80168167  1
  Cu  Cu37  1  0.97930037  0.80173005  0.80168167  1
  Cu  Cu38  1  0.82242968  0.02069963  0.80168167  1
  Cu  Cu39  1  0.78757813  0.98476724  0.70302971  1
  Cu  Cu40  1  0.19718911  0.21242187  0.70302971  1
  Cu  Cu41  1  0.01523276  0.80281089  0.70302971  1
  Cu  Cu42  1  0.79092052  0.80343938  0.20259338  1
  Cu  Cu43  1  0.01251886  0.20907948  0.20259338  1
  Cu  Cu44  1  0.19656062  0.98748114  0.20259338  1
  Cu  Cu45  1  0.88176552  0.35677845  0.63223520  1
  Cu  Cu46  1  0.47501393  0.11823448  0.63223520  1
  Cu  Cu47  1  0.64322155  0.52498607  0.63223520  1
  Cu  Cu48  1  0.87801248  0.52948619  0.13047667  1
  Cu  Cu49  1  0.65147472  0.12198752  0.13047667  1
  Cu  Cu50  1  0.47051381  0.34852528  0.13047667  1
  Cu  Cu51  1  0.46846271  0.31254919  0.03176733  1
  Cu  Cu52  1  0.84408748  0.53153729  0.03176733  1
  Cu  Cu53  1  0.68745081  0.15591252  0.03176733  1
  Cu  Cu54  1  0.45264486  0.14047869  0.53461784  1
  Cu  Cu55  1  0.68783483  0.54735514  0.53461784  1
  Cu  Cu56  1  0.85952131  0.31216517  0.53461784  1
  Cu  Cu57  1  0.56422799  0.69478927  0.96504557  1
  Cu  Cu58  1  0.13056028  0.43577201  0.96504557  1
  Cu  Cu59  1  0.30521073  0.86943972  0.96504557  1
  Cu  Cu60  1  0.56431429  0.86682732  0.46346703  1
  Cu  Cu61  1  0.30251203  0.43568571  0.46346703  1
  Cu  Cu62  1  0.13317268  0.69748797  0.46346703  1
  Cu  Cu63  1  0.11646735  0.64586644  0.36649885  1
  Cu  Cu64  1  0.52939809  0.88353265  0.36649885  1
  Cu  Cu65  1  0.35413356  0.47060191  0.36649885  1
  Cu  Cu66  1  0.10226976  0.46388933  0.86830998  1
  Cu  Cu67  1  0.36161858  0.89773024  0.86830998  1
  Cu  Cu68  1  0.53611067  0.63838142  0.86830998  1
  Cu  Cu69  1  0.02025507  0.82397399  0.40378404  1
  Cu  Cu70  1  0.80371891  0.97974493  0.40378404  1
  Cu  Cu71  1  0.17602601  0.19628109  0.40378404  1
  Cu  Cu72  1  0.00862481  0.19219756  0.90811209  1
  Cu  Cu73  1  0.18357274  0.99137519  0.90811209  1
  Cu  Cu74  1  0.80780244  0.81642726  0.90811209  1
  Cu  Cu75  1  0.97817032  0.18804933  0.58956994  1
  Cu  Cu76  1  0.20987901  0.02182968  0.58956994  1
  Cu  Cu77  1  0.81195067  0.79012099  0.58956994  1
  Cu  Cu78  1  0.96726213  0.78710567  0.08293892  1
  Cu  Cu79  1  0.81984354  0.03273787  0.08293892  1
  Cu  Cu80  1  0.21289433  0.18015646  0.08293892  1
  Cu  Cu81  1  0.69923660  0.15320968  0.75073928  1
  Cu  Cu82  1  0.45397408  0.30076340  0.75073928  1
  Cu  Cu83  1  0.84679032  0.54602592  0.75073928  1
  Cu  Cu84  1  0.70027663  0.54522321  0.25036161  1
  Cu  Cu85  1  0.84494758  0.29972337  0.25036161  1
  Cu  Cu86  1  0.45477679  0.15505242  0.25036161  1
  Cu  Cu87  1  0.65799626  0.51677582  0.92527249  1
  Cu  Cu88  1  0.85878056  0.34200374  0.92527249  1
  Cu  Cu89  1  0.48322418  0.14121944  0.92527249  1
  Cu  Cu90  1  0.65796157  0.13076497  0.41914021  1
  Cu  Cu91  1  0.47280441  0.34203843  0.41914021  1
  Cu  Cu92  1  0.86923503  0.52719559  0.41914021  1
  Cu  Cu93  1  0.36026123  0.47604663  0.07305430  1
  Cu  Cu94  1  0.11578440  0.63973877  0.07305430  1
  Cu  Cu95  1  0.52395337  0.88421560  0.07305430  1
  Cu  Cu96  1  0.35713360  0.87471365  0.57656223  1
  Cu  Cu97  1  0.51757905  0.64286640  0.57656223  1
  Cu  Cu98  1  0.12528635  0.48242095  0.57656223  1
  Cu  Cu99  1  0.30680738  0.85958649  0.25903673  1
  Cu  Cu100  1  0.55277811  0.69319262  0.25903673  1
  Cu  Cu101  1  0.14041351  0.44722189  0.25903673  1
  Cu  Cu102  1  0.30689141  0.44958038  0.76051110  1
  Cu  Cu103  1  0.14268797  0.69310859  0.76051110  1
  Cu  Cu104  1  0.55041962  0.85731203  0.76051110  1
