# generated using pymatgen
data_Cu2NiC15
_symmetry_space_group_name_H-M   'P 1'
_cell_length_a   9.06520088
_cell_length_b   9.06025887
_cell_length_c   23.75975392
_cell_angle_alpha   89.68608768
_cell_angle_beta   90.00000000
_cell_angle_gamma   120.01804532
_symmetry_Int_Tables_number   1
_chemical_formula_structural   Cu2NiC15
_chemical_formula_sum   'Cu12 Ni6 C90'
_cell_volume   1689.67397640
_cell_formula_units_Z   6
loop_
 _symmetry_equiv_pos_site_id
 _symmetry_equiv_pos_as_xyz
  1  'x, y, z'
loop_
 _atom_site_type_symbol
 _atom_site_label
 _atom_site_symmetry_multiplicity
 _atom_site_fract_x
 _atom_site_fract_y
 _atom_site_fract_z
 _atom_site_occupancy
  C  C0  1  0.98422187  0.98773672  0.50413704  1
  C  C1  1  0.00351485  0.98773672  0.00413704  1
  C  C2  1  0.65758170  0.31722783  0.83760074  1
  C  C3  1  0.65964713  0.31722783  0.33760074  1
  C  C4  1  0.32709107  0.67533018  0.17112853  1
  C  C5  1  0.34823811  0.67533018  0.67112853  1
  C  C6  1  0.99224459  0.99576308  0.64765301  1
  C  C7  1  0.00351849  0.99576308  0.14765301  1
  C  C8  1  0.66540943  0.33337609  0.98107469  1
  C  C9  1  0.66796766  0.33337609  0.48107469  1
  C  C10  1  0.33639604  0.67524720  0.31449651  1
  C  C11  1  0.33885016  0.67524720  0.81449651  1
  C  C12  1  0.00449368  0.00000868  0.35135433  1
  C  C13  1  0.99551499  0.00000868  0.85135433  1
  C  C14  1  0.66771103  0.33423052  0.68480256  1
  C  C15  1  0.66652049  0.33423052  0.18480256  1
  C  C16  1  0.32122021  0.67486220  0.01825959  1
  C  C17  1  0.35364099  0.67486220  0.51825959  1
  Ni  Ni18  1  0.29794635  0.00560549  0.24841783  1
  Ni  Ni19  1  0.70765914  0.00560549  0.74841783  1
  Ni  Ni20  1  0.66558188  0.62432119  0.58179469  1
  Ni  Ni21  1  0.95874031  0.62432119  0.08179469  1
  Ni  Ni22  1  0.32781171  0.96288739  0.91430080  1
  Ni  Ni23  1  0.63507467  0.96288739  0.41430080  1
  Cu  Cu24  1  0.70879565  0.70294770  0.24945881  1
  Cu  Cu25  1  0.99512013  0.29064252  0.24920133  1
  Cu  Cu26  1  0.29552239  0.29064252  0.74920133  1
  Cu  Cu27  1  0.99415205  0.70294770  0.74945881  1
  Cu  Cu28  1  0.96622578  0.34168648  0.58260151  1
  Cu  Cu29  1  0.37529374  0.03694510  0.58297150  1
  Cu  Cu30  1  0.66165236  0.03694510  0.08297150  1
  Cu  Cu31  1  0.37546170  0.34168648  0.08260151  1
  Cu  Cu32  1  0.62815077  0.67130811  0.91657781  1
  Cu  Cu33  1  0.04292497  0.37030340  0.91581930  1
  Cu  Cu34  1  0.32737743  0.37030340  0.41581930  1
  Cu  Cu35  1  0.04315635  0.67130811  0.41657781  1
  C  C36  1  0.20330390  0.02752924  0.30277518  1
  C  C37  1  0.81727500  0.78878474  0.30074390  1
  C  C38  1  0.97088612  0.18098233  0.30085443  1
  C  C39  1  0.21009621  0.18098233  0.80085443  1
  C  C40  1  0.97150974  0.78878474  0.80074390  1
  C  C41  1  0.82422533  0.02752924  0.80277518  1
  C  C42  1  0.79417433  0.98899240  0.69693250  1
  C  C43  1  0.19804833  0.21130005  0.69884431  1
  C  C44  1  0.01915952  0.80391968  0.69931705  1
  C  C45  1  0.78476017  0.80391968  0.19931705  1
  C  C46  1  0.01325172  0.21130005  0.19884431  1
  C  C47  1  0.19481806  0.98899240  0.19693250  1
  C  C48  1  0.87665031  0.36068756  0.63422800  1
  C  C49  1  0.48462276  0.12104480  0.63431582  1
  C  C50  1  0.64144255  0.50776107  0.63607161  1
  C  C51  1  0.86631952  0.50776107  0.13607161  1
  C  C52  1  0.63642304  0.12104480  0.13431582  1
  C  C53  1  0.48403825  0.36068756  0.13422800  1
  C  C54  1  0.45316042  0.31721999  0.03279752  1
  C  C55  1  0.85941431  0.53903991  0.02967764  1
  C  C56  1  0.68134214  0.13478019  0.03251907  1
  C  C57  1  0.45343906  0.13478019  0.53251907  1
  C  C58  1  0.67962659  0.53903991  0.52967764  1
  C  C59  1  0.86406057  0.31721999  0.53279752  1
  C  C60  1  0.54346420  0.69404940  0.96758443  1
  C  C61  1  0.15123678  0.45571277  0.96736751  1
  C  C62  1  0.30305764  0.84422901  0.96945133  1
  C  C63  1  0.54117037  0.84422901  0.46945133  1
  C  C64  1  0.30447499  0.45571277  0.46736751  1
  C  C65  1  0.15058420  0.69404940  0.46758443  1
  C  C66  1  0.12003142  0.64964109  0.36587185  1
  C  C67  1  0.52823347  0.87600085  0.36359048  1
  C  C68  1  0.34571695  0.46877642  0.36542332  1
  C  C69  1  0.12305847  0.46877642  0.86542332  1
  C  C70  1  0.34776638  0.87600085  0.86359048  1
  C  C71  1  0.52960867  0.64964109  0.86587185  1
  C  C72  1  0.03231647  0.83414116  0.41105241  1
  C  C73  1  0.81470132  0.97104554  0.40900894  1
  C  C74  1  0.16570965  0.19725860  0.41182759  1
  C  C75  1  0.03154895  0.19725860  0.91182759  1
  C  C76  1  0.15634422  0.97104554  0.90900894  1
  C  C77  1  0.80182469  0.83414116  0.91105241  1
  C  C78  1  0.99357061  0.19703194  0.58951338  1
  C  C79  1  0.20509610  0.01329160  0.59030753  1
  C  C80  1  0.81449368  0.80381728  0.58770184  1
  C  C81  1  0.98932359  0.80381728  0.08770184  1
  C  C82  1  0.80819550  0.01329160  0.09030753  1
  C  C83  1  0.20346133  0.19703194  0.08951338  1
  C  C84  1  0.69713777  0.17684685  0.74303872  1
  C  C85  1  0.46914421  0.30275754  0.74489600  1
  C  C86  1  0.83110942  0.53157069  0.74476498  1
  C  C87  1  0.70046227  0.53157069  0.24476498  1
  C  C88  1  0.83361433  0.30275754  0.24489600  1
  C  C89  1  0.47971007  0.17684685  0.24303872  1
  C  C90  1  0.65698097  0.52762878  0.92248906  1
  C  C91  1  0.87183940  0.34501214  0.92228338  1
  C  C92  1  0.47873888  0.14001813  0.92217132  1
  C  C93  1  0.66128024  0.14001813  0.42217132  1
  C  C94  1  0.47317374  0.34501214  0.42228338  1
  C  C95  1  0.87064881  0.52762878  0.42248906  1
  C  C96  1  0.36819884  0.50380068  0.07793004  1
  C  C97  1  0.14235884  0.63434109  0.07717519  1
  C  C98  1  0.50076905  0.86267889  0.07850080  1
  C  C99  1  0.36190884  0.86267889  0.57850080  1
  C  C100  1  0.49198125  0.63434109  0.57717519  1
  C  C101  1  0.13560084  0.50380068  0.57793004  1
  C  C102  1  0.32524631  0.85433380  0.25466217  1
  C  C103  1  0.53588556  0.67273590  0.25644808  1
  C  C104  1  0.14173107  0.46080805  0.25621203  1
  C  C105  1  0.31907598  0.46080805  0.75621203  1
  C  C106  1  0.13684934  0.67273590  0.75644808  1
  C  C107  1  0.52908649  0.85433380  0.75466217  1
