# generated using pymatgen
data_CuNiC3
_symmetry_space_group_name_H-M   'P 1'
_cell_length_a   10.71354800
_cell_length_b   10.71354800
_cell_length_c   6.48727700
_cell_angle_alpha   90.00000000
_cell_angle_beta   90.00000000
_cell_angle_gamma   90.00000000
_symmetry_Int_Tables_number   1
_chemical_formula_structural   CuNiC3
_chemical_formula_sum   'Cu8 Ni8 C24'
_cell_volume   744.61037251
_cell_formula_units_Z   8
loop_
 _symmetry_equiv_pos_site_id
 _symmetry_equiv_pos_as_xyz
  1  'x, y, z'
loop_
 _atom_site_type_symbol
 _atom_site_label
 _atom_site_symmetry_multiplicity
 _atom_site_fract_x
 _atom_site_fract_y
 _atom_site_fract_z
 _atom_site_occupancy
  Ni  Ni0  1  0.50000000  0.65547800  0.06545400  1
  Ni  Ni1  1  0.50000000  0.34452200  0.06545400  1
  Ni  Ni2  1  0.84452200  0.00000000  0.56545400  1
  Ni  Ni3  1  0.15547800  0.00000000  0.56545400  1
  Ni  Ni4  1  0.65547800  0.50000000  0.93454600  1
  Ni  Ni5  1  0.00000000  0.84452200  0.43454600  1
  Ni  Ni6  1  0.00000000  0.15547800  0.43454600  1
  Ni  Ni7  1  0.34452200  0.50000000  0.93454600  1
  Cu  Cu8  1  0.50000000  0.76099600  0.80107100  1
  Cu  Cu9  1  0.50000000  0.23900400  0.80107100  1
  Cu  Cu10  1  0.73900400  0.00000000  0.30107100  1
  Cu  Cu11  1  0.26099600  0.00000000  0.30107100  1
  Cu  Cu12  1  0.76099600  0.50000000  0.19892900  1
  Cu  Cu13  1  0.00000000  0.73900400  0.69892900  1
  Cu  Cu14  1  0.00000000  0.26099600  0.69892900  1
  Cu  Cu15  1  0.23900400  0.50000000  0.19892900  1
  C  C16  1  0.33662100  0.89716800  0.29869400  1
  C  C17  1  0.39716800  0.16337900  0.79869400  1
  C  C18  1  0.60283200  0.83662100  0.79869400  1
  C  C19  1  0.66337900  0.10283200  0.29869400  1
  C  C20  1  0.16337900  0.39716800  0.20130600  1
  C  C21  1  0.83662100  0.60283200  0.20130600  1
  C  C22  1  0.89716800  0.33662100  0.70130600  1
  C  C23  1  0.10283200  0.66337900  0.70130600  1
  C  C24  1  0.30397300  0.50000000  0.38006000  1
  C  C25  1  0.00000000  0.19602700  0.88006000  1
  C  C26  1  0.00000000  0.80397300  0.88006000  1
  C  C27  1  0.69602700  0.50000000  0.38006000  1
  C  C28  1  0.19602700  0.00000000  0.11994000  1
  C  C29  1  0.80397300  0.00000000  0.11994000  1
  C  C30  1  0.50000000  0.30397300  0.61994000  1
  C  C31  1  0.50000000  0.69602700  0.61994000  1
  C  C32  1  0.16337900  0.60283200  0.20130600  1
  C  C33  1  0.10283200  0.33662100  0.70130600  1
  C  C34  1  0.89716800  0.66337900  0.70130600  1
  C  C35  1  0.83662100  0.39716800  0.20130600  1
  C  C36  1  0.33662100  0.10283200  0.29869400  1
  C  C37  1  0.66337900  0.89716800  0.29869400  1
  C  C38  1  0.60283200  0.16337900  0.79869400  1
  C  C39  1  0.39716800  0.83662100  0.79869400  1
