# generated using pymatgen
data_Cu2Ni4C7
_symmetry_space_group_name_H-M   'P 1'
_cell_length_a   3.40179900
_cell_length_b   3.40192708
_cell_length_c   44.85756028
_cell_angle_alpha   89.97426194
_cell_angle_beta   90.00008062
_cell_angle_gamma   119.99870857
_symmetry_Int_Tables_number   1
_chemical_formula_structural   Cu2Ni4C7
_chemical_formula_sum   'Cu2 Ni4 C7'
_cell_volume   449.57848991
_cell_formula_units_Z   1
loop_
 _symmetry_equiv_pos_site_id
 _symmetry_equiv_pos_as_xyz
  1  'x, y, z'
loop_
 _atom_site_type_symbol
 _atom_site_label
 _atom_site_symmetry_multiplicity
 _atom_site_fract_x
 _atom_site_fract_y
 _atom_site_fract_z
 _atom_site_occupancy
  C  C0  1  0.00000700  0.99999400  0.38634900  1
  Ni  Ni1  1  0.33313600  0.66630600  0.31697900  1
  Ni  Ni2  1  0.33332600  0.66663600  0.69938100  1
  Ni  Ni3  1  0.33343600  0.66691900  0.23322100  1
  Ni  Ni4  1  0.33366500  0.66731300  0.61586000  1
  C  C5  1  0.33319500  0.66638900  0.09358600  1
  C  C6  1  0.33337600  0.66673500  0.47716300  1
  C  C7  1  0.66659900  0.33323800  0.27493900  1
  C  C8  1  0.66681700  0.33361600  0.65762700  1
  Cu  Cu9  1  0.66662400  0.33324700  0.05683600  1
  Cu  Cu10  1  0.66641000  0.33282000  0.13031700  1
  C  C11  1  0.66683500  0.33366200  0.44333700  1
  C  C12  1  0.66657300  0.33312400  0.51030800  1
