# generated using pymatgen
data_Cu2NiC12
_symmetry_space_group_name_H-M   'P 1'
_cell_length_a   5.91705208
_cell_length_b   6.27639130
_cell_length_c   6.26462843
_cell_angle_alpha   61.75491350
_cell_angle_beta   90.73256663
_cell_angle_gamma   88.86912726
_symmetry_Int_Tables_number   1
_chemical_formula_structural   Cu2NiC12
_chemical_formula_sum   'Cu2 Ni1 C12'
_cell_volume   204.84770356
_cell_formula_units_Z   1
loop_
 _symmetry_equiv_pos_site_id
 _symmetry_equiv_pos_as_xyz
  1  'x, y, z'
loop_
 _atom_site_type_symbol
 _atom_site_label
 _atom_site_symmetry_multiplicity
 _atom_site_fract_x
 _atom_site_fract_y
 _atom_site_fract_z
 _atom_site_occupancy
  C  C0  1  0.38409332  0.44227794  0.66838676  1
  C  C1  1  0.49827063  0.83798701  0.17645703  1
  C  C2  1  0.07379964  0.06937569  0.75714260  1
  C  C3  1  0.02840289  0.85892833  0.36552360  1
  C  C4  1  0.16613301  0.58891784  0.96303205  1
  C  C5  1  0.81357047  0.31307036  0.97390496  1
  Ni  Ni6  1  0.84332588  0.45814673  0.34165806  1
  Cu  Cu7  1  0.65409324  0.82078114  0.67644011  1
  Cu  Cu8  1  0.36392026  0.18637535  0.33589566  1
  C  C9  1  0.74204033  0.57280687  0.56893838  1
  C  C10  1  0.18151701  0.43506792  0.37159556  1
  C  C11  1  0.79816988  0.72833661  0.99577146  1
  C  C12  1  0.23320324  0.17825684  0.04126263  1
  C  C13  1  0.71337968  0.15099520  0.37733163  1
  C  C14  1  0.31858052  0.85867519  0.62624251  1
