# generated using pymatgen
data_Cu5(NiC)7
_symmetry_space_group_name_H-M   'P 1'
_cell_length_a   5.07117112
_cell_length_b   7.66993171
_cell_length_c   5.66937429
_cell_angle_alpha   99.50146110
_cell_angle_beta   100.71960504
_cell_angle_gamma   81.74331308
_symmetry_Int_Tables_number   1
_chemical_formula_structural   Cu5(NiC)7
_chemical_formula_sum   'Cu5 Ni7 C7'
_cell_volume   212.23758141
_cell_formula_units_Z   1
loop_
 _symmetry_equiv_pos_site_id
 _symmetry_equiv_pos_as_xyz
  1  'x, y, z'
loop_
 _atom_site_type_symbol
 _atom_site_label
 _atom_site_symmetry_multiplicity
 _atom_site_fract_x
 _atom_site_fract_y
 _atom_site_fract_z
 _atom_site_occupancy
  C  C0  1  0.99588800  0.49462100  0.00170800  1
  C  C1  1  0.56399900  0.01696800  0.44964400  1
  C  C2  1  0.49170100  0.31485400  0.83989600  1
  C  C3  1  0.49341100  0.67176200  0.16160300  1
  C  C4  1  0.01978100  0.68048600  0.63696200  1
  C  C5  1  0.97075600  0.30264200  0.36756700  1
  C  C6  1  0.98448600  0.99451700  0.01000200  1
  Ni  Ni7  1  0.80204700  0.08645600  0.27804700  1
  Ni  Ni8  1  0.69548800  0.77700800  0.44490400  1
  Ni  Ni9  1  0.70243100  0.09257900  0.78506600  1
  Ni  Ni10  1  0.68958700  0.43223500  0.13264500  1
  Ni  Ni11  1  0.30065300  0.55829600  0.86892200  1
  Ni  Ni12  1  0.32477800  0.22252700  0.53244600  1
  Ni  Ni13  1  0.30267300  0.90504600  0.20698200  1
  Cu  Cu14  1  0.82342100  0.44022900  0.65459800  1
  Cu  Cu15  1  0.82470100  0.74320500  0.96185500  1
  Cu  Cu16  1  0.17218100  0.24897300  0.02676800  1
  Cu  Cu17  1  0.16812200  0.90708100  0.73818900  1
  Cu  Cu18  1  0.17389000  0.55694800  0.34267300  1
