# generated using pymatgen
data_Cu(NiC11)3
_symmetry_space_group_name_H-M   'P 1'
_cell_length_a   8.86587196
_cell_length_b   8.89441465
_cell_length_c   22.45542217
_cell_angle_alpha   89.87434847
_cell_angle_beta   90.11983812
_cell_angle_gamma   120.27598575
_symmetry_Int_Tables_number   1
_chemical_formula_structural   Cu(NiC11)3
_chemical_formula_sum   'Cu3 Ni9 C99'
_cell_volume   1529.23717041
_cell_formula_units_Z   3
loop_
 _symmetry_equiv_pos_site_id
 _symmetry_equiv_pos_as_xyz
  1  'x, y, z'
loop_
 _atom_site_type_symbol
 _atom_site_label
 _atom_site_symmetry_multiplicity
 _atom_site_fract_x
 _atom_site_fract_y
 _atom_site_fract_z
 _atom_site_occupancy
  Ni  Ni0  1  0.35400428  0.34465200  0.24741275  1
  Ni  Ni1  1  0.62614896  0.62380536  0.75185958  1
  Ni  Ni2  1  0.96830305  0.29589361  0.41822358  1
  Ni  Ni3  1  -0.00029686  0.98821355  0.50632725  1
  Ni  Ni4  1  0.99974108  0.00035527  0.00054903  1
  Ni  Ni5  1  0.66716209  0.31918720  0.83944969  1
  Ni  Ni6  1  0.67021687  0.33553367  0.33032546  1
  Ni  Ni7  1  0.32936690  0.67969400  0.16292742  1
  Ni  Ni8  1  0.31510340  0.66671941  0.66637331  1
  Cu  Cu9  1  0.99581173  0.98229292  0.35829720  1
  Cu  Cu10  1  0.66825894  0.32187901  0.68510464  1
  Cu  Cu11  1  0.67887708  0.33412751  0.16870469  1
  C  C12  1  0.00189722  0.00160695  0.85780302  1
  C  C13  1  0.00286028  0.00452488  0.64749235  1
  C  C14  1  0.99645124  0.99732492  0.14611636  1
  C  C15  1  0.66636494  0.33522896  0.98358366  1
  C  C16  1  0.65746426  0.33364035  0.48400166  1
  C  C17  1  0.33498699  0.66527591  0.01301171  1
  C  C18  1  0.33706587  0.66636703  0.52070783  1
  C  C19  1  0.33637081  0.67671255  0.31167437  1
  C  C20  1  0.32482427  0.66813699  0.81511812  1
  C  C21  1  0.29098748  0.98932486  0.24660458  1
  C  C22  1  0.69225145  0.70582494  0.24648248  1
  C  C23  1  0.00799888  0.30195082  0.25248073  1
  C  C24  1  0.27145058  0.29146675  0.75407371  1
  C  C25  1  0.01876769  0.73335931  0.75373958  1
  C  C26  1  0.71336087  0.98682206  0.75491222  1
  C  C27  1  0.97192210  0.33029211  0.58002072  1
  C  C28  1  0.35805261  0.02608489  0.58159625  1
  C  C29  1  0.66945907  0.63780819  0.58498989  1
  C  C30  1  0.98102645  0.64620366  0.07870599  1
  C  C31  1  0.66537637  0.02291052  0.07886246  1
  C  C32  1  0.35786737  0.33399879  0.08095535  1
  C  C33  1  0.62113892  0.65916422  0.91368930  1
  C  C34  1  0.03787174  0.37734635  0.91563718  1
  C  C35  1  0.33986542  0.96104731  0.91550635  1
  C  C36  1  0.60239662  0.96399428  0.41999414  1
  C  C37  1  0.35916990  0.40067029  0.41802682  1
  C  C38  1  0.04166874  0.64574545  0.42132336  1
  C  C39  1  0.22579435  0.03099337  0.30338706  1
  C  C40  1  0.78985499  0.77030233  0.30478052  1
  C  C41  1  0.98993362  0.21366119  0.31268700  1
  C  C42  1  0.17474154  0.18256992  0.80909724  1
  C  C43  1  0.00949456  0.83090751  0.80881302  1
  C  C44  1  0.81943332  0.98906362  0.80966271  1
  C  C45  1  0.80606452  0.97479006  0.69725682  1
  C  C46  1  0.16991244  0.19626244  0.69618382  1
  C  C47  1  0.03065990  0.83666214  0.69608912  1
  C  C48  1  0.80109910  0.82369885  0.19250697  1
  C  C49  1  0.02386785  0.19241279  0.19968485  1
  C  C50  1  0.16971877  0.97256247  0.19269361  1
  C  C51  1  0.91618551  0.38041503  0.63701841  1
  C  C52  1  0.45944134  0.07844609  0.63962005  1
  C  C53  1  0.62637476  0.54237736  0.64462901  1
  C  C54  1  0.94357109  0.55596811  0.13874233  1
  C  C55  1  0.61032852  0.06100898  0.13813403  1
  C  C56  1  0.44733162  0.37798210  0.14153191  1
  C  C57  1  0.47408562  0.30976546  0.03283553  1
  C  C58  1  0.83955258  0.52918351  0.03073842  1
  C  C59  1  0.69248448  0.16379328  0.03073082  1
  C  C60  1  0.46790322  0.15927590  0.53038870  1
  C  C61  1  0.69025191  0.52551055  0.53431900  1
  C  C62  1  0.84605529  0.30473983  0.52670520  1
  C  C63  1  0.52487820  0.68473753  0.96557825  1
  C  C64  1  0.15663783  0.46874217  0.96871352  1
  C  C65  1  0.31346682  0.84082295  0.96773317  1
  C  C66  1  0.50127560  0.85690053  0.47387250  1
  C  C67  1  0.35953783  0.50897020  0.47069006  1
  C  C68  1  0.14440509  0.63394631  0.47382037  1
  C  C69  1  0.13514420  0.64081717  0.36239142  1
  C  C70  1  0.50427272  0.86620102  0.36147476  1
  C  C71  1  0.36755913  0.49441761  0.35807751  1
  C  C72  1  0.13198254  0.49569835  0.85956314  1
  C  C73  1  0.36368596  0.86925278  0.85899887  1
  C  C74  1  0.51210173  0.63516268  0.85574189  1
  C  C75  1  0.02529722  0.80650462  0.42886926  1
  C  C76  1  0.78853640  0.99388311  0.42313953  1
  C  C77  1  0.19051962  0.22339048  0.42238023  1
  C  C78  1  0.01537426  0.19347121  0.90908710  1
  C  C79  1  0.17815482  0.98405079  0.90928069  1
  C  C80  1  0.80821014  0.82122106  0.90942162  1
  C  C81  1  0.97162997  0.15639090  0.58897398  1
  C  C82  1  0.18564086  0.02849711  0.58820717  1
  C  C83  1  0.84308366  0.81310268  0.58985808  1
  C  C84  1  0.98029705  0.81946339  0.08434878  1
  C  C85  1  0.83986516  0.02343424  0.08621988  1
  C  C86  1  0.18034924  0.16267305  0.08606399  1
  C  C87  1  0.69674371  0.14842720  0.75785004  1
  C  C88  1  0.45695968  0.31933741  0.75466199  1
  C  C89  1  0.85018143  0.55564394  0.75406136  1
  C  C90  1  0.64980813  0.51777782  0.23998427  1
  C  C91  1  0.85661794  0.33422202  0.24606397  1
  C  C92  1  0.47418504  0.14420795  0.23896329  1
  C  C93  1  0.63846443  0.49535846  0.92421767  1
  C  C94  1  0.85663135  0.36019028  0.92336665  1
  C  C95  1  0.50375748  0.14313221  0.92404448  1
  C  C96  1  0.61967674  0.14668598  0.42172345  1
  C  C97  1  0.52130331  0.37764294  0.42379779  1
  C  C98  1  0.85733396  0.47854111  0.42175178  1
  C  C99  1  0.33204860  0.48745183  0.06408348  1
  C  C100  1  0.16224007  0.67640275  0.06178935  1
  C  C101  1  0.51763251  0.84074018  0.06115428  1
  C  C102  1  0.31851760  0.83962176  0.56874937  1
  C  C103  1  0.51981325  0.67343684  0.57114255  1
  C  C104  1  0.16244483  0.47686406  0.56924503  1
  C  C105  1  0.29019435  0.81502430  0.25387615  1
  C  C106  1  0.51749806  0.70873389  0.25116812  1
  C  C107  1  0.18749878  0.47833301  0.25348965  1
  C  C108  1  0.28972139  0.47537684  0.75571098  1
  C  C109  1  0.18125973  0.71052338  0.75659938  1
  C  C110  1  0.52983801  0.81839915  0.75576523  1
