# generated using pymatgen
data_Cu2NiC17
_symmetry_space_group_name_H-M   'P 1'
_cell_length_a   9.08752212
_cell_length_b   9.08752180
_cell_length_c   22.53482790
_cell_angle_alpha   88.78853372
_cell_angle_beta   91.21146626
_cell_angle_gamma   119.45628196
_symmetry_Int_Tables_number   1
_chemical_formula_structural   Cu2NiC17
_chemical_formula_sum   'Cu12 Ni6 C102'
_cell_volume   1619.94067509
_cell_formula_units_Z   6
loop_
 _symmetry_equiv_pos_site_id
 _symmetry_equiv_pos_as_xyz
  1  'x, y, z'
loop_
 _atom_site_type_symbol
 _atom_site_label
 _atom_site_symmetry_multiplicity
 _atom_site_fract_x
 _atom_site_fract_y
 _atom_site_fract_z
 _atom_site_occupancy
  C  C0  1  0.65694513  0.01602892  0.25159222  1
  C  C1  1  0.97517188  0.61532282  0.24536752  1
  C  C2  1  0.98397108  0.34305487  0.75159222  1
  C  C3  1  0.38467718  0.02482812  0.74536752  1
  C  C4  1  0.32361213  0.34936192  0.58492522  1
  C  C5  1  0.64183888  0.94865582  0.57870052  1
  C  C6  1  0.65063808  0.67638787  0.08492522  1
  C  C7  1  0.05134418  0.35816112  0.07870052  1
  C  C8  1  0.99027813  0.68269592  0.91825922  1
  C  C9  1  0.30850488  0.28198982  0.91203452  1
  C  C10  1  0.31730408  0.00972187  0.41825922  1
  C  C11  1  0.71801018  0.69149512  0.41203452  1
  C  C12  1  0.98892669  0.98268570  0.49161867  1
  C  C13  1  0.01731430  0.01107331  0.99161867  1
  C  C14  1  0.65559369  0.31601870  0.82495167  1
  C  C15  1  0.68398130  0.34440631  0.32495167  1
  C  C16  1  0.32225969  0.64935270  0.15828567  1
  C  C17  1  0.35064730  0.67774031  0.65828567  1
  C  C18  1  0.99444405  0.99918400  0.64635271  1
  C  C19  1  0.00081600  0.00555595  0.14635271  1
  C  C20  1  0.66111105  0.33251700  0.97968571  1
  C  C21  1  0.66748300  0.33888895  0.47968571  1
  C  C22  1  0.32777705  0.66585100  0.31301971  1
  C  C23  1  0.33414900  0.67222295  0.81301971  1
  Ni  Ni24  1  0.97118934  0.98953126  0.35086387  1
  Ni  Ni25  1  0.01046874  0.02881066  0.85086387  1
  Ni  Ni26  1  0.63785634  0.32286426  0.68419687  1
  Ni  Ni27  1  0.67713574  0.36214366  0.18419687  1
  Ni  Ni28  1  0.30452234  0.65619826  0.01753087  1
  Ni  Ni29  1  0.34380174  0.69547766  0.51753087  1
  Cu  Cu30  1  0.70174719  0.70224720  0.25276263  1
  Cu  Cu31  1  0.99987155  0.29219310  0.25126286  1
  Cu  Cu32  1  0.29775280  0.29825281  0.75276263  1
  Cu  Cu33  1  0.70780690  0.00012845  0.75126286  1
  Cu  Cu34  1  0.36841419  0.03558020  0.58609563  1
  Cu  Cu35  1  0.66653855  0.62552610  0.58459586  1
  Cu  Cu36  1  0.96441980  0.63158581  0.08609563  1
  Cu  Cu37  1  0.37447390  0.33346145  0.08459586  1
  Cu  Cu38  1  0.03508019  0.36891420  0.91942963  1
  Cu  Cu39  1  0.33320455  0.95886010  0.91792986  1
  Cu  Cu40  1  0.63108580  0.96491981  0.41942963  1
  Cu  Cu41  1  0.04113990  0.66679545  0.41792986  1
  C  C42  1  0.29135297  -0.00065168  0.25230091  1
  C  C43  1  0.00065168  0.70864703  0.75230091  1
  C  C44  1  0.95801997  0.33268132  0.58563391  1
  C  C45  1  0.66731868  0.04198003  0.08563391  1
  C  C46  1  0.62468597  0.66601532  0.91896791  1
  C  C47  1  0.33398468  0.37531403  0.41896791  1
  C  C48  1  0.21988227  0.01794728  0.30660162  1
  C  C49  1  0.81562347  0.77907479  0.31128349  1
  C  C50  1  0.98119367  0.17483411  0.30663336  1
  C  C51  1  0.22092521  0.18437653  0.81128349  1
  C  C52  1  0.98205272  0.78011773  0.80660162  1
  C  C53  1  0.82516589  0.01880633  0.80663336  1
  C  C54  1  0.80209662  0.97415003  0.69012640  1
  C  C55  1  0.16380900  0.19402583  0.69361759  1
  C  C56  1  0.02368911  0.82272684  0.69894055  1
  C  C57  1  0.80597417  0.83619100  0.19361759  1
  C  C58  1  0.02584997  0.19790338  0.19012640  1
  C  C59  1  0.17727316  0.97631089  0.19894055  1
  C  C60  1  0.88654927  0.35128028  0.63993462  1
  C  C61  1  0.48229047  0.11240779  0.64461649  1
  C  C62  1  0.64786067  0.50816711  0.63996636  1
  C  C63  1  0.88759221  0.51770953  0.14461649  1
  C  C64  1  0.64871972  0.11345073  0.13993462  1
  C  C65  1  0.49183289  0.35213933  0.13996636  1
  C  C66  1  0.46876362  0.30748303  0.02345940  1
  C  C67  1  0.83047600  0.52735883  0.02695059  1
  C  C68  1  0.69035611  0.15605984  0.03227355  1
  C  C69  1  0.47264117  0.16952400  0.52695059  1
  C  C70  1  0.69251697  0.53123638  0.52345940  1
  C  C71  1  0.84394016  0.30964389  0.53227355  1
  C  C72  1  0.55321527  0.68461428  0.97326862  1
  C  C73  1  0.14895647  0.44574179  0.97795049  1
  C  C74  1  0.31452667  0.84150111  0.97330036  1
  C  C75  1  0.55425821  0.85104353  0.47795049  1
  C  C76  1  0.31538572  0.44678473  0.47326862  1
  C  C77  1  0.15849889  0.68547333  0.47330036  1
  C  C78  1  0.13542962  0.64081703  0.35679340  1
  C  C79  1  0.49714200  0.86069283  0.36028459  1
  C  C80  1  0.35702211  0.48939384  0.36560755  1
  C  C81  1  0.13930717  0.50285800  0.86028459  1
  C  C82  1  0.35918297  0.86457038  0.85679340  1
  C  C83  1  0.51060616  0.64297789  0.86560755  1
  C  C84  1  0.02385239  0.83576572  0.41104703  1
  C  C85  1  0.81669796  0.98917565  0.41323376  1
  C  C86  1  0.20066905  0.20242681  0.41003230  1
  C  C87  1  0.01082435  0.18330204  0.91323376  1
  C  C88  1  0.16423428  0.97614761  0.91104703  1
  C  C89  1  0.79757319  0.79933095  0.91003230  1
  C  C90  1  0.95904630  0.16355771  0.58598800  1
  C  C91  1  0.18484705  0.03881982  0.59029796  1
  C  C92  1  0.83785010  0.81985987  0.59007659  1
  C  C93  1  0.96118018  0.81515295  0.09029796  1
  C  C94  1  0.83644229  0.04095370  0.08598800  1
  C  C95  1  0.18014013  0.16214990  0.09007659  1
  C  C96  1  0.69051939  0.16909872  0.74438003  1
  C  C97  1  0.48336496  0.32250865  0.74656676  1
  C  C98  1  0.86733605  0.53575981  0.74336530  1
  C  C99  1  0.67749135  0.51663504  0.24656676  1
  C  C100  1  0.83090128  0.30948061  0.24438003  1
  C  C101  1  0.46424019  0.13266395  0.24336530  1
  C  C102  1  0.62571330  0.49689071  0.91932100  1
  C  C103  1  0.85151405  0.37215282  0.92363096  1
  C  C104  1  0.50451710  0.15319287  0.92340959  1
  C  C105  1  0.62784718  0.14848595  0.42363096  1
  C  C106  1  0.50310929  0.37428670  0.41932100  1
  C  C107  1  0.84680713  0.49548290  0.42340959  1
  C  C108  1  0.35718539  0.50243272  0.07771403  1
  C  C109  1  0.15003096  0.65584265  0.07990076  1
  C  C110  1  0.53400205  0.86909381  0.07669930  1
  C  C111  1  0.34415735  0.84996904  0.57990076  1
  C  C112  1  0.49756728  0.64281461  0.57771403  1
  C  C113  1  0.13090619  0.46599795  0.57669930  1
  C  C114  1  0.29237930  0.83022471  0.25265500  1
  C  C115  1  0.51818005  0.70548682  0.25696496  1
  C  C116  1  0.17118310  0.48652687  0.25674359  1
  C  C117  1  0.29451318  0.48181995  0.75696496  1
  C  C118  1  0.16977529  0.70762070  0.75265500  1
  C  C119  1  0.51347313  0.82881690  0.75674359  1
