# generated using pymatgen
data_CuNi3C16
_symmetry_space_group_name_H-M   'P 1'
_cell_length_a   16.44168376
_cell_length_b   28.26737763
_cell_length_c   9.18576994
_cell_angle_alpha   90.00000000
_cell_angle_beta   125.89811732
_cell_angle_gamma   90.00000000
_symmetry_Int_Tables_number   1
_chemical_formula_structural   CuNi3C16
_chemical_formula_sum   'Cu12 Ni36 C192'
_cell_volume   3458.31899213
_cell_formula_units_Z   12
loop_
 _symmetry_equiv_pos_site_id
 _symmetry_equiv_pos_as_xyz
  1  'x, y, z'
loop_
 _atom_site_type_symbol
 _atom_site_label
 _atom_site_symmetry_multiplicity
 _atom_site_fract_x
 _atom_site_fract_y
 _atom_site_fract_z
 _atom_site_occupancy
  Ni  Ni0  1  0.24659414  0.25748381  0.99680130  1
  Ni  Ni1  1  0.23818327  0.58824776  0.00276994  1
  Ni  Ni2  1  0.23752222  0.92101367  0.00076358  1
  Ni  Ni3  1  0.74659414  0.24251619  0.49680130  1
  Ni  Ni4  1  0.73752222  0.57898633  0.50076358  1
  Ni  Ni5  1  0.73818327  0.91175224  0.50276994  1
  Ni  Ni6  1  0.73818327  0.08824776  0.00276994  1
  Ni  Ni7  1  0.73752222  0.42101367  0.00076358  1
  Ni  Ni8  1  0.74659414  0.75748381  0.99680130  1
  Ni  Ni9  1  0.23752222  0.07898633  0.50076358  1
  Ni  Ni10  1  0.23818327  0.41175224  0.50276994  1
  Ni  Ni11  1  0.24659414  0.74251619  0.49680130  1
  Ni  Ni12  1  0.49393005  0.02982558  0.75794647  1
  Ni  Ni13  1  0.49664427  0.36388789  0.76561604  1
  Ni  Ni14  1  0.49438958  0.69659772  0.75907591  1
  Ni  Ni15  1  0.49438958  0.30340228  0.25907591  1
  Ni  Ni16  1  0.49664427  0.63611211  0.26561604  1
  Ni  Ni17  1  0.49393005  0.97017442  0.25794647  1
  Ni  Ni18  1  0.99438958  0.19659772  0.75907591  1
  Ni  Ni19  1  0.99393005  0.52982558  0.75794647  1
  Ni  Ni20  1  0.99664427  0.86388789  0.76561604  1
  Ni  Ni21  1  0.99664427  0.13611211  0.26561604  1
  Ni  Ni22  1  0.99393005  0.47017442  0.25794647  1
  Ni  Ni23  1  0.99438958  0.80340228  0.25907591  1
  Ni  Ni24  1  0.82316624  0.64345255  0.20363063  1
  Ni  Ni25  1  0.82221868  0.97628937  0.20636417  1
  Ni  Ni26  1  0.18766882  0.30477789  0.28789780  1
  Ni  Ni27  1  0.18766882  0.69522211  0.78789780  1
  Ni  Ni28  1  0.82221868  0.02371063  0.70636417  1
  Ni  Ni29  1  0.82316624  0.35654745  0.70363063  1
  Ni  Ni30  1  0.32316624  0.14345255  0.20363063  1
  Ni  Ni31  1  0.32221868  0.47628937  0.20636417  1
  Ni  Ni32  1  0.68766882  0.80477789  0.28789780  1
  Ni  Ni33  1  0.68766882  0.19522211  0.78789780  1
  Ni  Ni34  1  0.32221868  0.52371063  0.70636417  1
  Ni  Ni35  1  0.32316624  0.85654745  0.70363063  1
  Cu  Cu36  1  0.90161882  0.25164577  0.95498872  1
  Cu  Cu37  1  0.88956522  0.58396755  0.92468240  1
  Cu  Cu38  1  0.88952415  0.91491765  0.93140295  1
  Cu  Cu39  1  0.88952415  0.08508235  0.43140295  1
  Cu  Cu40  1  0.88956522  0.41603245  0.42468240  1
  Cu  Cu41  1  0.90161882  0.74835423  0.45498872  1
  Cu  Cu42  1  0.38956522  0.08396755  0.92468240  1
  Cu  Cu43  1  0.38952415  0.41491765  0.93140295  1
  Cu  Cu44  1  0.40161882  0.75164577  0.95498872  1
  Cu  Cu45  1  0.40161882  0.24835423  0.45498872  1
  Cu  Cu46  1  0.38952415  0.58508235  0.43140295  1
  Cu  Cu47  1  0.38956522  0.91603245  0.42468240  1
  C  C48  1  0.10494505  0.24835098  0.56157743  1
  C  C49  1  0.10670745  0.58248481  0.56483173  1
  C  C50  1  0.10651029  0.91672775  0.56545480  1
  C  C51  1  0.10651029  0.08327225  0.06545480  1
  C  C52  1  0.10670745  0.41751519  0.06483173  1
  C  C53  1  0.10494505  0.75164902  0.06157743  1
  C  C54  1  0.60670745  0.08248481  0.56483173  1
  C  C55  1  0.60651029  0.41672775  0.56545480  1
  C  C56  1  0.60494505  0.74835098  0.56157743  1
  C  C57  1  0.60494505  0.25164902  0.06157743  1
  C  C58  1  0.60651029  0.58327225  0.06545480  1
  C  C59  1  0.60670745  0.91751519  0.06483173  1
  C  C60  1  0.34231085  0.29235026  0.74514755  1
  C  C61  1  0.34880776  0.62653286  0.76541879  1
  C  C62  1  0.34823903  0.95834494  0.75757566  1
  C  C63  1  0.64511194  0.30673808  0.74477918  1
  C  C64  1  0.64013466  0.63826824  0.73936106  1
  C  C65  1  0.64212219  0.97293397  0.74041602  1
  C  C66  1  0.64212219  0.02706603  0.24041602  1
  C  C67  1  0.64013466  0.36173176  0.23936106  1
  C  C68  1  0.64511194  0.69326192  0.24477918  1
  C  C69  1  0.34823903  0.04165506  0.25757566  1
  C  C70  1  0.34880776  0.37346714  0.26541879  1
  C  C71  1  0.34231085  0.70764974  0.24514755  1
  C  C72  1  0.84880776  0.12653286  0.76541879  1
  C  C73  1  0.84823903  0.45834494  0.75757566  1
  C  C74  1  0.84231085  0.79235026  0.74514755  1
  C  C75  1  0.14013466  0.13826824  0.73936106  1
  C  C76  1  0.14212219  0.47293397  0.74041602  1
  C  C77  1  0.14511194  0.80673808  0.74477918  1
  C  C78  1  0.14511194  0.19326192  0.24477918  1
  C  C79  1  0.14212219  0.52706603  0.24041602  1
  C  C80  1  0.14013466  0.86173176  0.23936106  1
  C  C81  1  0.84231085  0.20764974  0.24514755  1
  C  C82  1  0.84823903  0.54165506  0.25757566  1
  C  C83  1  0.84880776  0.87346714  0.26541879  1
  C  C84  1  0.01753120  0.31843843  0.75821812  1
  C  C85  1  0.01551480  0.64991521  0.74946446  1
  C  C86  1  0.01480774  0.98612242  0.75114970  1
  C  C87  1  0.01480774  0.01387758  0.25114970  1
  C  C88  1  0.01551480  0.35008479  0.24946446  1
  C  C89  1  0.01753120  0.68156157  0.25821812  1
  C  C90  1  0.51551480  0.14991521  0.74946446  1
  C  C91  1  0.51480774  0.48612242  0.75114970  1
  C  C92  1  0.51753120  0.81843843  0.75821812  1
  C  C93  1  0.51753120  0.18156157  0.25821812  1
  C  C94  1  0.51480774  0.51387758  0.25114970  1
  C  C95  1  0.51551480  0.85008479  0.24946446  1
  C  C96  1  0.13811531  0.19847711  0.74200299  1
  C  C97  1  0.14080432  0.53272595  0.75131405  1
  C  C98  1  0.14316427  0.86571063  0.75173344  1
  C  C99  1  0.83618701  0.18385258  0.75256930  1
  C  C100  1  0.84261345  0.51499709  0.74187518  1
  C  C101  1  0.83789154  0.84977123  0.74339307  1
  C  C102  1  0.83789154  0.15022877  0.24339307  1
  C  C103  1  0.84261345  0.48500291  0.24187518  1
  C  C104  1  0.83618701  0.81614742  0.25256930  1
  C  C105  1  0.14316427  0.13428937  0.25173344  1
  C  C106  1  0.14080432  0.46727405  0.25131405  1
  C  C107  1  0.13811531  0.80152289  0.24200299  1
  C  C108  1  0.64080432  0.03272595  0.75131405  1
  C  C109  1  0.64316427  0.36571063  0.75173344  1
  C  C110  1  0.63811531  0.69847711  0.74200299  1
  C  C111  1  0.34261345  0.01499709  0.74187518  1
  C  C112  1  0.33789154  0.34977123  0.74339307  1
  C  C113  1  0.33618701  0.68385258  0.75256930  1
  C  C114  1  0.33618701  0.31614742  0.25256930  1
  C  C115  1  0.33789154  0.65022877  0.24339307  1
  C  C116  1  0.34261345  0.98500291  0.24187518  1
  C  C117  1  0.63811531  0.30152289  0.24200299  1
  C  C118  1  0.64316427  0.63428937  0.25173344  1
  C  C119  1  0.64080432  0.96727405  0.25131405  1
  C  C120  1  0.44902005  0.17280465  0.56381213  1
  C  C121  1  0.44609859  0.51166647  0.57361677  1
  C  C122  1  0.45173987  0.84766545  0.59105868  1
  C  C123  1  0.56747609  0.18928841  0.90176729  1
  C  C124  1  0.56930523  0.52405648  0.91155498  1
  C  C125  1  0.57755486  0.85319987  0.92958280  1
  C  C126  1  0.57755486  0.14680013  0.42958280  1
  C  C127  1  0.56930523  0.47594352  0.41155498  1
  C  C128  1  0.56747609  0.81071159  0.40176729  1
  C  C129  1  0.45173987  0.15233455  0.09105868  1
  C  C130  1  0.44609859  0.48833353  0.07361677  1
  C  C131  1  0.44902005  0.82719535  0.06381213  1
  C  C132  1  0.94609859  0.01166647  0.57361677  1
  C  C133  1  0.95173987  0.34766545  0.59105868  1
  C  C134  1  0.94902005  0.67280465  0.56381213  1
  C  C135  1  0.06930523  0.02405648  0.91155498  1
  C  C136  1  0.07755486  0.35319987  0.92958280  1
  C  C137  1  0.06747609  0.68928841  0.90176729  1
  C  C138  1  0.06747609  0.31071159  0.40176729  1
  C  C139  1  0.07755486  0.64680013  0.42958280  1
  C  C140  1  0.06930523  0.97594352  0.41155498  1
  C  C141  1  0.94902005  0.32719535  0.06381213  1
  C  C142  1  0.95173987  0.65233455  0.09105868  1
  C  C143  1  0.94609859  0.98833353  0.07361677  1
  C  C144  1  0.24833540  0.26857418  0.74097536  1
  C  C145  1  0.25475880  0.60049811  0.75748092  1
  C  C146  1  0.25275990  0.93430926  0.75145837  1
  C  C147  1  0.74102788  0.28882482  0.75184779  1
  C  C148  1  0.73286633  0.61986168  0.74274161  1
  C  C149  1  0.73881008  0.95947397  0.74467473  1
  C  C150  1  0.73881008  0.04052603  0.24467473  1
  C  C151  1  0.73286633  0.38013832  0.24274161  1
  C  C152  1  0.74102788  0.71117518  0.25184779  1
  C  C153  1  0.25275990  0.06569074  0.25145837  1
  C  C154  1  0.25475880  0.39950189  0.25748092  1
  C  C155  1  0.24833540  0.73142582  0.24097536  1
  C  C156  1  0.75475880  0.10049811  0.75748092  1
  C  C157  1  0.75275990  0.43430926  0.75145837  1
  C  C158  1  0.74833540  0.76857418  0.74097536  1
  C  C159  1  0.23286633  0.11986168  0.74274161  1
  C  C160  1  0.23881008  0.45947397  0.74467473  1
  C  C161  1  0.24102788  0.78882482  0.75184779  1
  C  C162  1  0.24102788  0.21117518  0.25184779  1
  C  C163  1  0.23881008  0.54052603  0.24467473  1
  C  C164  1  0.23286633  0.88013832  0.24274161  1
  C  C165  1  0.74833540  0.23142582  0.24097536  1
  C  C166  1  0.75275990  0.56569074  0.25145837  1
  C  C167  1  0.75475880  0.89950189  0.25748092  1
  C  C168  1  0.31990434  0.27909534  0.55441915  1
  C  C169  1  0.33768152  0.60491561  0.59448498  1
  C  C170  1  0.33957439  0.93270865  0.59471844  1
  C  C171  1  0.63256820  0.28579436  0.90883131  1
  C  C172  1  0.63447479  0.62062647  0.91712692  1
  C  C173  1  0.63828516  0.95309230  0.91901079  1
  C  C174  1  0.63828516  0.04690770  0.41901079  1
  C  C175  1  0.63447479  0.37937353  0.41712692  1
  C  C176  1  0.63256820  0.71420564  0.40883131  1
  C  C177  1  0.33957439  0.06729135  0.09471844  1
  C  C178  1  0.33768152  0.39508439  0.09448498  1
  C  C179  1  0.31990434  0.72090466  0.05441915  1
  C  C180  1  0.83768152  0.10491561  0.59448498  1
  C  C181  1  0.83957439  0.43270865  0.59471844  1
  C  C182  1  0.81990434  0.77909534  0.55441915  1
  C  C183  1  0.13447479  0.12062647  0.91712692  1
  C  C184  1  0.13828516  0.45309230  0.91901079  1
  C  C185  1  0.13256820  0.78579436  0.90883131  1
  C  C186  1  0.13256820  0.21420564  0.40883131  1
  C  C187  1  0.13828516  0.54690770  0.41901079  1
  C  C188  1  0.13447479  0.87937353  0.41712692  1
  C  C189  1  0.81990434  0.22090466  0.05441915  1
  C  C190  1  0.83957439  0.56729135  0.09471844  1
  C  C191  1  0.83768152  0.89508439  0.09448498  1
  C  C192  1  0.45822081  0.27042031  0.91364228  1
  C  C193  1  0.46347706  0.60567836  0.94342878  1
  C  C194  1  0.46524517  0.93706324  0.93905412  1
  C  C195  1  0.54428093  0.29024699  0.55788553  1
  C  C196  1  0.53519523  0.62545363  0.55584442  1
  C  C197  1  0.53954523  0.95768881  0.55941879  1
  C  C198  1  0.53954523  0.04231119  0.05941879  1
  C  C199  1  0.53519523  0.37454637  0.05584442  1
  C  C200  1  0.54428093  0.70975301  0.05788553  1
  C  C201  1  0.46524517  0.06293676  0.43905412  1
  C  C202  1  0.46347706  0.39432164  0.44342878  1
  C  C203  1  0.45822081  0.72957969  0.41364228  1
  C  C204  1  0.96347706  0.10567836  0.94342878  1
  C  C205  1  0.96524517  0.43706324  0.93905412  1
  C  C206  1  0.95822081  0.77042031  0.91364228  1
  C  C207  1  0.03519523  0.12545363  0.55584442  1
  C  C208  1  0.03954523  0.45768881  0.55941879  1
  C  C209  1  0.04428093  0.79024699  0.55788553  1
  C  C210  1  0.04428093  0.20975301  0.05788553  1
  C  C211  1  0.03954523  0.54231119  0.05941879  1
  C  C212  1  0.03519523  0.87454637  0.05584442  1
  C  C213  1  0.95822081  0.22957969  0.41364228  1
  C  C214  1  0.96524517  0.56293676  0.43905412  1
  C  C215  1  0.96347706  0.89432164  0.44342878  1
  C  C216  1  0.09515545  0.28928421  0.74906490  1
  C  C217  1  0.10407221  0.62544703  0.75698647  1
  C  C218  1  0.09592215  0.95748692  0.75108392  1
  C  C219  1  0.94922105  0.28374885  0.76911925  1
  C  C220  1  0.95596735  0.61218733  0.76630475  1
  C  C221  1  0.94891156  0.95222017  0.77078133  1
  C  C222  1  0.94891156  0.04777983  0.27078133  1
  C  C223  1  0.95596735  0.38781267  0.26630475  1
  C  C224  1  0.94922105  0.71625115  0.26911925  1
  C  C225  1  0.09592215  0.04251308  0.25108392  1
  C  C226  1  0.10407221  0.37455297  0.25698647  1
  C  C227  1  0.09515545  0.71071579  0.24906490  1
  C  C228  1  0.60407221  0.12544703  0.75698647  1
  C  C229  1  0.59592215  0.45748692  0.75108392  1
  C  C230  1  0.59515545  0.78928421  0.74906490  1
  C  C231  1  0.45596735  0.11218733  0.76630475  1
  C  C232  1  0.44891156  0.45222017  0.77078133  1
  C  C233  1  0.44922105  0.78374885  0.76911925  1
  C  C234  1  0.44922105  0.21625115  0.26911925  1
  C  C235  1  0.44891156  0.54777983  0.27078133  1
  C  C236  1  0.45596735  0.88781267  0.26630475  1
  C  C237  1  0.59515545  0.21071579  0.24906490  1
  C  C238  1  0.59592215  0.54251308  0.25108392  1
  C  C239  1  0.60407221  0.87455297  0.25698647  1
