# generated using pymatgen
data_Cu(NiC4)2
_symmetry_space_group_name_H-M   'P 1'
_cell_length_a   6.12345268
_cell_length_b   6.41740526
_cell_length_c   6.38935047
_cell_angle_alpha   59.65450239
_cell_angle_beta   61.36734737
_cell_angle_gamma   61.50400915
_symmetry_Int_Tables_number   1
_chemical_formula_structural   Cu(NiC4)2
_chemical_formula_sum   'Cu1 Ni2 C8'
_cell_volume   180.79830463
_cell_formula_units_Z   1
loop_
 _symmetry_equiv_pos_site_id
 _symmetry_equiv_pos_as_xyz
  1  'x, y, z'
loop_
 _atom_site_type_symbol
 _atom_site_label
 _atom_site_symmetry_multiplicity
 _atom_site_fract_x
 _atom_site_fract_y
 _atom_site_fract_z
 _atom_site_occupancy
  Ni  Ni0  1  0.81505100  0.68914000  0.68075700  1
  Ni  Ni1  1  0.18494900  0.31086000  0.31924300  1
  Cu  Cu2  1  0.00000000  0.00000000  0.00000000  1
  C  C3  1  0.50000000  0.00000000  0.00000000  1
  C  C4  1  0.50000000  0.50000000  0.50000000  1
  C  C5  1  0.69054300  0.27247300  0.79003200  1
  C  C6  1  0.75304700  0.72752700  0.20996800  1
  C  C7  1  0.30945700  0.72752700  0.20996800  1
  C  C8  1  0.24695300  0.27247300  0.79003200  1
  C  C9  1  0.28017200  0.77726600  0.66239000  1
  C  C10  1  0.71982800  0.22273400  0.33761000  1
