# generated using pymatgen
data_Cu6Ni6C7
_symmetry_space_group_name_H-M   'P 1'
_cell_length_a   5.17677080
_cell_length_b   14.66113876
_cell_length_c   2.99856658
_cell_angle_alpha   90.00000000
_cell_angle_beta   90.00000000
_cell_angle_gamma   103.92218229
_symmetry_Int_Tables_number   1
_chemical_formula_structural   Cu6Ni6C7
_chemical_formula_sum   'Cu6 Ni6 C7'
_cell_volume   220.89765032
_cell_formula_units_Z   1
loop_
 _symmetry_equiv_pos_site_id
 _symmetry_equiv_pos_as_xyz
  1  'x, y, z'
loop_
 _atom_site_type_symbol
 _atom_site_label
 _atom_site_symmetry_multiplicity
 _atom_site_fract_x
 _atom_site_fract_y
 _atom_site_fract_z
 _atom_site_occupancy
  C  C0  1  -0.00000000  0.50000000  0.99602429  1
  C  C1  1  -0.00000000  0.00000000  0.99325295  1
  C  C2  1  0.21904451  0.29201756  0.99474758  1
  C  C3  1  0.78095549  0.70798244  0.99474758  1
  C  C4  1  0.68499403  0.15195657  0.49364876  1
  C  C5  1  0.50000000  0.50000000  0.49577166  1
  C  C6  1  0.31500597  0.84804343  0.49364876  1
  Ni  Ni7  1  0.11345518  0.93710023  0.49333568  1
  Ni  Ni8  1  0.13769771  0.77688870  0.99381026  1
  Ni  Ni9  1  0.30398165  0.42945607  0.99569644  1
  Ni  Ni10  1  0.69601835  0.57054393  0.99569644  1
  Ni  Ni11  1  0.86230229  0.22311130  0.99381026  1
  Ni  Ni12  1  0.88654482  0.06289977  0.49333568  1
  Cu  Cu13  1  0.41101189  0.24971920  0.49468238  1
  Cu  Cu14  1  0.19950964  0.57412090  0.49591588  1
  Cu  Cu15  1  0.42229587  0.09436369  0.99355507  1
  Cu  Cu16  1  0.57770413  0.90563631  0.99355507  1
  Cu  Cu17  1  0.80049036  0.42587910  0.49591588  1
  Cu  Cu18  1  0.58898811  0.75028080  0.49468238  1
