# generated using pymatgen
data_Cu6NiC12
_symmetry_space_group_name_H-M   'P 1'
_cell_length_a   10.72458286
_cell_length_b   7.42811630
_cell_length_c   2.91956402
_cell_angle_alpha   90.01819115
_cell_angle_beta   89.99985990
_cell_angle_gamma   71.38581448
_symmetry_Int_Tables_number   1
_chemical_formula_structural   Cu6NiC12
_chemical_formula_sum   'Cu6 Ni1 C12'
_cell_volume   220.41599682
_cell_formula_units_Z   1
loop_
 _symmetry_equiv_pos_site_id
 _symmetry_equiv_pos_as_xyz
  1  'x, y, z'
loop_
 _atom_site_type_symbol
 _atom_site_label
 _atom_site_symmetry_multiplicity
 _atom_site_fract_x
 _atom_site_fract_y
 _atom_site_fract_z
 _atom_site_occupancy
  Ni  Ni0  1  0.16672800  0.66749000  0.48497400  1
  Cu  Cu1  1  0.98385400  0.05229900  0.98821100  1
  Cu  Cu2  1  0.98210800  0.48650300  0.48799900  1
  Cu  Cu3  1  0.34923800  0.28160500  0.98840400  1
  Cu  Cu4  1  0.66687500  0.14567400  0.49236400  1
  Cu  Cu5  1  0.35137100  0.84779500  0.48804300  1
  Cu  Cu6  1  0.66739900  0.70717200  0.99152600  1
  C  C7  1  0.98467800  0.31362000  0.98867000  1
  C  C8  1  0.34541200  0.02154300  0.98861300  1
  C  C9  1  0.03212600  0.64056200  0.98588800  1
  C  C10  1  0.22695400  0.37801600  0.48741100  1
  C  C11  1  0.46967600  0.25876500  0.48963700  1
  C  C12  1  0.10620700  0.95736500  0.48753700  1
  C  C13  1  0.30247300  0.69274200  0.98634400  1
  C  C14  1  0.86409000  0.06702200  0.48918900  1
  C  C15  1  0.54488800  0.72752300  0.49125300  1
  C  C16  1  0.79017600  0.61617100  0.49106900  1
  C  C17  1  0.66655500  0.97388000  0.99215700  1
  C  C18  1  0.66794200  0.33425300  0.99237900  1
