# generated using pymatgen
data_Cu2NiC2
_symmetry_space_group_name_H-M   'P 1'
_cell_length_a   7.01444300
_cell_length_b   4.86723600
_cell_length_c   11.05535971
_cell_angle_alpha   79.60949538
_cell_angle_beta   90.00000000
_cell_angle_gamma   90.00000000
_symmetry_Int_Tables_number   1
_chemical_formula_structural   Cu2NiC2
_chemical_formula_sum   'Cu16 Ni8 C16'
_cell_volume   371.25097219
_cell_formula_units_Z   8
loop_
 _symmetry_equiv_pos_site_id
 _symmetry_equiv_pos_as_xyz
  1  'x, y, z'
loop_
 _atom_site_type_symbol
 _atom_site_label
 _atom_site_symmetry_multiplicity
 _atom_site_fract_x
 _atom_site_fract_y
 _atom_site_fract_z
 _atom_site_occupancy
  C  C0  1  0.44992500  0.54094200  0.14365900  1
  C  C1  1  0.94992500  0.45905800  0.35634100  1
  C  C2  1  0.55007500  0.45905800  0.85634100  1
  C  C3  1  0.05007500  0.54094200  0.64365900  1
  C  C4  1  0.57194900  0.73894700  0.34237700  1
  C  C5  1  0.07194900  0.26105300  0.15762300  1
  C  C6  1  0.42805100  0.26105300  0.65762300  1
  C  C7  1  0.92805100  0.73894700  0.84237700  1
  C  C8  1  0.37068900  0.53334400  0.36587800  1
  C  C9  1  0.87068900  0.46665600  0.13412200  1
  C  C10  1  0.62931100  0.46665600  0.63412200  1
  C  C11  1  0.12931100  0.53334400  0.86587800  1
  C  C12  1  0.37638500  0.81889600  0.25022400  1
  C  C13  1  0.87638500  0.18110400  0.24977600  1
  C  C14  1  0.62361500  0.18110400  0.74977600  1
  C  C15  1  0.12361500  0.81889600  0.75022400  1
  Ni  Ni16  1  0.24991200  0.94328800  0.52553400  1
  Ni  Ni17  1  0.74991200  0.05671200  0.97446600  1
  Ni  Ni18  1  0.75008800  0.05671200  0.47446600  1
  Ni  Ni19  1  0.25008800  0.94328800  0.02553400  1
  Ni  Ni20  1  0.04343100  0.65521000  0.80110900  1
  Ni  Ni21  1  0.54343100  0.34479000  0.69889100  1
  Ni  Ni22  1  0.95656900  0.34479000  0.19889100  1
  Ni  Ni23  1  0.45656900  0.65521000  0.30110900  1
  Cu  Cu24  1  0.53129200  0.48817000  0.21931500  1
  Cu  Cu25  1  0.03129200  0.51183000  0.28068500  1
  Cu  Cu26  1  0.46870800  0.51183000  0.78068500  1
  Cu  Cu27  1  0.96870800  0.48817000  0.71931500  1
  Cu  Cu28  1  0.17582600  0.08366300  0.93136300  1
  Cu  Cu29  1  0.67582600  0.91633700  0.56863700  1
  Cu  Cu30  1  0.82417400  0.91633700  0.06863700  1
  Cu  Cu31  1  0.32417400  0.08366300  0.43136300  1
  Cu  Cu32  1  0.30283700  0.69211200  0.02601500  1
  Cu  Cu33  1  0.80283700  0.30788800  0.47398500  1
  Cu  Cu34  1  0.69716300  0.30788800  0.97398500  1
  Cu  Cu35  1  0.19716300  0.69211200  0.52601500  1
  Cu  Cu36  1  0.27298300  0.04890800  0.12268300  1
  Cu  Cu37  1  0.77298300  0.95109200  0.37731700  1
  Cu  Cu38  1  0.72701700  0.95109200  0.87731700  1
  Cu  Cu39  1  0.22701700  0.04890800  0.62268300  1
