# generated using pymatgen
data_Cu6NiC12
_symmetry_space_group_name_H-M   'P 1'
_cell_length_a   5.08824621
_cell_length_b   14.11597489
_cell_length_c   2.97898083
_cell_angle_alpha   90.00000000
_cell_angle_beta   90.00000000
_cell_angle_gamma   97.87088534
_symmetry_Int_Tables_number   1
_chemical_formula_structural   Cu6NiC12
_chemical_formula_sum   'Cu6 Ni1 C12'
_cell_volume   211.95120910
_cell_formula_units_Z   1
loop_
 _symmetry_equiv_pos_site_id
 _symmetry_equiv_pos_as_xyz
  1  'x, y, z'
loop_
 _atom_site_type_symbol
 _atom_site_label
 _atom_site_symmetry_multiplicity
 _atom_site_fract_x
 _atom_site_fract_y
 _atom_site_fract_z
 _atom_site_occupancy
  Ni  Ni0  1  0.42343963  0.31999901  0.00000000  1
  Cu  Cu1  1  0.02380223  0.98909656  0.00000000  1
  Cu  Cu2  1  0.92439467  0.36559049  0.00000000  1
  Cu  Cu3  1  0.03540592  0.66339960  0.00000000  1
  Cu  Cu4  1  0.57066768  0.13292698  0.50000000  1
  Cu  Cu5  1  0.48039916  0.51691095  0.50000000  1
  Cu  Cu6  1  0.47456797  0.84521294  0.50000000  1
  C  C7  1  0.18982443  0.60233343  0.50000000  1
  C  C8  1  0.17857422  0.92660793  0.50000000  1
  C  C9  1  0.35069251  0.08224120  0.00000000  1
  C  C10  1  0.33217401  0.76407554  0.00000000  1
  C  C11  1  0.27523899  0.44873880  0.00000000  1
  C  C12  1  0.68276315  0.22564290  0.00000000  1
  C  C13  1  0.69235583  0.57171260  0.00000000  1
  C  C14  1  0.69563179  0.89674714  0.00000000  1
  C  C15  1  0.87784434  0.05461068  0.50000000  1
  C  C16  1  0.66751665  0.39519734  0.50000000  1
  C  C17  1  0.17328171  0.28122338  0.50000000  1
  C  C18  1  0.86809211  0.72791751  0.50000000  1
