# generated using pymatgen
data_CuNi11C13
_symmetry_space_group_name_H-M   'P 1'
_cell_length_a   10.09004000
_cell_length_b   9.77199600
_cell_length_c   10.39805300
_cell_angle_alpha   90.00000000
_cell_angle_beta   90.00000000
_cell_angle_gamma   90.00000000
_symmetry_Int_Tables_number   1
_chemical_formula_structural   CuNi11C13
_chemical_formula_sum   'Cu4 Ni44 C52'
_cell_volume   1025.24626354
_cell_formula_units_Z   4
loop_
 _symmetry_equiv_pos_site_id
 _symmetry_equiv_pos_as_xyz
  1  'x, y, z'
loop_
 _atom_site_type_symbol
 _atom_site_label
 _atom_site_symmetry_multiplicity
 _atom_site_fract_x
 _atom_site_fract_y
 _atom_site_fract_z
 _atom_site_occupancy
  C  C0  1  0.37089400  0.13379900  0.11403300  1
  C  C1  1  0.12910600  0.13379900  0.61403300  1
  C  C2  1  0.87089400  0.86620100  0.11403300  1
  C  C3  1  0.62910600  0.86620100  0.61403300  1
  Ni  Ni4  1  0.33730600  0.79304000  0.95141100  1
  Ni  Ni5  1  0.16269400  0.79304000  0.45141100  1
  Ni  Ni6  1  0.83730600  0.20696000  0.95141100  1
  Ni  Ni7  1  0.66269400  0.20696000  0.45141100  1
  Ni  Ni8  1  0.45695200  0.78780900  0.82651900  1
  Ni  Ni9  1  0.04304800  0.78780900  0.32652000  1
  Ni  Ni10  1  0.95695200  0.21219100  0.82651900  1
  Ni  Ni11  1  0.54304800  0.21219100  0.32652000  1
  Ni  Ni12  1  0.57499600  0.65844100  0.86389600  1
  Ni  Ni13  1  0.92500400  0.65844100  0.36389600  1
  Ni  Ni14  1  0.07499600  0.34155900  0.86389600  1
  Ni  Ni15  1  0.42500400  0.34155900  0.36389600  1
  Ni  Ni16  1  0.52777600  0.58350000  0.01321000  1
  Ni  Ni17  1  0.97222400  0.58350000  0.51321000  1
  Ni  Ni18  1  0.02777600  0.41650000  0.01321000  1
  Ni  Ni19  1  0.47222400  0.41650000  0.51321000  1
  Ni  Ni20  1  0.38137600  0.66666100  0.06681100  1
  Ni  Ni21  1  0.11862400  0.66666100  0.56681100  1
  Ni  Ni22  1  0.88137600  0.33333900  0.06681100  1
  Ni  Ni23  1  0.61862400  0.33333900  0.56681100  1
  Ni  Ni24  1  0.41970300  0.84074200  0.09529100  1
  Ni  Ni25  1  0.08029700  0.84074200  0.59529100  1
  Ni  Ni26  1  0.91970300  0.15925800  0.09529100  1
  Ni  Ni27  1  0.58029700  0.15925800  0.59529100  1
  Ni  Ni28  1  0.46644700  0.91644700  0.94599000  1
  Ni  Ni29  1  0.03355300  0.91644700  0.44599000  1
  Ni  Ni30  1  0.96644700  0.08355300  0.94599000  1
  Ni  Ni31  1  0.53355300  0.08355300  0.44599000  1
  Ni  Ni32  1  0.61317600  0.83319400  0.89190800  1
  Ni  Ni33  1  0.88682400  0.83319400  0.39190800  1
  Ni  Ni34  1  0.11317600  0.16680600  0.89190800  1
  Ni  Ni35  1  0.38682400  0.16680600  0.39190800  1
  Ni  Ni36  1  0.65686100  0.70640800  0.00748200  1
  Ni  Ni37  1  0.84313900  0.70640800  0.50748200  1
  Ni  Ni38  1  0.15686100  0.29359200  0.00748200  1
  Ni  Ni39  1  0.34313900  0.29359200  0.50748200  1
  Ni  Ni40  1  0.53755000  0.71128900  0.13410900  1
  Ni  Ni41  1  0.96245000  0.71128900  0.63410900  1
  Ni  Ni42  1  0.03755000  0.28871100  0.13410900  1
  Ni  Ni43  1  0.46245000  0.28871100  0.63410900  1
  Ni  Ni44  1  0.58987400  0.86587500  0.05861800  1
  Ni  Ni45  1  0.91012600  0.86587500  0.55861800  1
  Ni  Ni46  1  0.08987400  0.13412500  0.05861800  1
  Ni  Ni47  1  0.41012600  0.13412500  0.55861800  1
  C  C48  1  0.35287400  0.56887700  0.85569700  1
  C  C49  1  0.14712600  0.56887700  0.35569700  1
  C  C50  1  0.85287400  0.43112300  0.85569700  1
  C  C51  1  0.64712600  0.43112300  0.35569700  1
  C  C52  1  0.22382100  0.81190100  0.92548300  1
  C  C53  1  0.27617900  0.81190100  0.42548300  1
  C  C54  1  0.72382100  0.18809900  0.92548300  1
  C  C55  1  0.77617900  0.18809900  0.42548300  1
  C  C56  1  0.42096500  0.80331600  0.71760200  1
  C  C57  1  0.07903500  0.80331600  0.21760200  1
  C  C58  1  0.92096500  0.19668400  0.71760200  1
  C  C59  1  0.57903500  0.19668400  0.21760200  1
  C  C60  1  0.61854400  0.58870700  0.77986500  1
  C  C61  1  0.88145600  0.58870700  0.27986500  1
  C  C62  1  0.11854400  0.41129300  0.77986500  1
  C  C63  1  0.38145600  0.41129300  0.27986500  1
  C  C64  1  0.54049300  0.46326500  0.02767800  1
  C  C65  1  0.95950700  0.46326500  0.52767800  1
  C  C66  1  0.04049300  0.53673500  0.02767800  1
  C  C67  1  0.45950700  0.53673500  0.52767800  1
  C  C68  1  0.29616100  0.60201100  0.11745100  1
  C  C69  1  0.20383900  0.60201100  0.61745100  1
  C  C70  1  0.79616100  0.39798900  0.11745100  1
  C  C71  1  0.70383900  0.39798900  0.61745100  1
  C  C72  1  0.36295700  0.90239600  0.17851600  1
  C  C73  1  0.13704300  0.90239600  0.67851600  1
  C  C74  1  0.86295700  0.09760400  0.17851600  1
  C  C75  1  0.63704300  0.09760400  0.67851600  1
  C  C76  1  0.44488900  0.03388900  0.91827200  1
  C  C77  1  0.05511100  0.03388900  0.41827200  1
  C  C78  1  0.94488900  0.96611100  0.91827200  1
  C  C79  1  0.55511100  0.96611100  0.41827200  1
  C  C80  1  0.69635600  0.89191600  0.83051000  1
  C  C81  1  0.80364400  0.89191600  0.33051000  1
  C  C82  1  0.19635600  0.10808400  0.83051000  1
  C  C83  1  0.30364400  0.10808400  0.33051000  1
  C  C84  1  0.77001400  0.67202300  0.02483800  1
  C  C85  1  0.72998600  0.67202300  0.52483800  1
  C  C86  1  0.27001400  0.32797700  0.02483800  1
  C  C87  1  0.22998600  0.32797700  0.52483800  1
  C  C88  1  0.56520400  0.68348300  0.24275000  1
  C  C89  1  0.93479600  0.68348300  0.74275000  1
  C  C90  1  0.06520400  0.31651700  0.24275000  1
  C  C91  1  0.43479600  0.31651700  0.74275000  1
  C  C92  1  0.65353100  0.95105200  0.11470900  1
  C  C93  1  0.84646900  0.95105200  0.61470900  1
  C  C94  1  0.15353100  0.04894800  0.11470900  1
  C  C95  1  0.34646900  0.04894800  0.61470900  1
  Cu  Cu96  1  0.41267800  0.64367600  0.90708000  1
  Cu  Cu97  1  0.08732200  0.64367600  0.40708000  1
  Cu  Cu98  1  0.91267800  0.35632400  0.90708000  1
  Cu  Cu99  1  0.58732200  0.35632400  0.40708000  1
