# generated using pymatgen
data_Cu3Ni3C31
_symmetry_space_group_name_H-M   'P 1'
_cell_length_a   17.99289590
_cell_length_b   8.99369792
_cell_length_c   23.03525356
_cell_angle_alpha   89.95945290
_cell_angle_beta   90.05540852
_cell_angle_gamma   119.87834525
_symmetry_Int_Tables_number   1
_chemical_formula_structural   Cu3Ni3C31
_chemical_formula_sum   'Cu18 Ni18 C186'
_cell_volume   3232.16751211
_cell_formula_units_Z   6
loop_
 _symmetry_equiv_pos_site_id
 _symmetry_equiv_pos_as_xyz
  1  'x, y, z'
loop_
 _atom_site_type_symbol
 _atom_site_label
 _atom_site_symmetry_multiplicity
 _atom_site_fract_x
 _atom_site_fract_y
 _atom_site_fract_z
 _atom_site_occupancy
  C  C0  1  0.48335226  0.68237718  0.91090715  1
  C  C1  1  0.16314323  0.31394499  0.91114632  1
  C  C2  1  0.48589880  0.29419476  0.41425785  1
  C  C3  1  0.97705650  0.28918545  0.40775812  1
  C  C4  1  0.16326334  0.02370933  0.41131130  1
  C  C5  1  0.66499542  0.03240927  0.41810177  1
  C  C6  1  0.98391187  0.96889803  0.49198299  1
  C  C7  1  0.49399817  0.98820844  0.49201721  1
  C  C8  1  0.99461196  0.99973344  0.99727694  1
  C  C9  1  0.50066891  0.99759941  0.98971293  1
  C  C10  1  0.33289729  0.32839976  0.82184130  1
  C  C11  1  0.83165093  0.34169941  0.82909809  1
  C  C12  1  0.33699854  0.32933323  0.32999868  1
  C  C13  1  0.83898954  0.33946888  0.33400742  1
  C  C14  1  0.15250538  0.65766381  0.16313735  1
  C  C15  1  0.66716903  0.65050365  0.16569620  1
  C  C16  1  0.16938152  0.67168895  0.67204090  1
  C  C17  1  0.66250607  0.65781786  0.66420934  1
  C  C18  1  0.00467229  0.99862836  0.65182610  1
  C  C19  1  0.50059095  0.00451156  0.65592701  1
  C  C20  1  0.00337553  0.99658822  0.14997957  1
  C  C21  1  0.50775930  0.02180213  0.14684817  1
  C  C22  1  0.83432243  0.33813625  0.97862841  1
  C  C23  1  0.15986139  0.67386019  0.31016715  1
  C  C24  1  0.66389622  0.65624207  0.31790108  1
  C  C25  1  0.16472162  0.65100226  0.80915584  1
  C  C26  1  0.66436252  0.67198778  0.80973717  1
  C  C27  1  0.99592925  0.99418722  0.34903618  1
  C  C28  1  0.49442283  0.99959688  0.35259254  1
  C  C29  1  0.00168125  -0.00001175  0.84915109  1
  C  C30  1  0.49932974  0.99483876  0.84990827  1
  C  C31  1  0.33517566  0.33405437  0.68897744  1
  C  C32  1  0.83290212  0.34254451  0.68651762  1
  C  C33  1  0.33413175  0.32705642  0.18887151  1
  C  C34  1  0.84146057  0.34662910  0.18133132  1
  C  C35  1  0.33197763  0.33450905  0.98077355  1
  C  C36  1  0.33792267  0.33729723  0.47919379  1
  C  C37  1  0.83379248  0.33879984  0.47620352  1
  C  C38  1  0.15982076  0.65402291  0.01424401  1
  C  C39  1  0.66835702  0.66641124  0.01940000  1
  C  C40  1  0.16867824  0.67381875  0.51667294  1
  C  C41  1  0.66704435  0.66917221  0.51190332  1
  Ni  Ni42  1  0.14717254  0.00585990  0.25307249  1
  Ni  Ni43  1  0.99736610  0.29171063  0.25153089  1
  Ni  Ni44  1  0.50472030  0.30516090  0.25213114  1
  Ni  Ni45  1  0.14724826  0.29269909  0.75229474  1
  Ni  Ni46  1  0.64757064  0.29318584  0.75402329  1
  Ni  Ni47  1  0.99964589  0.70239534  0.75429829  1
  Ni  Ni48  1  0.50004414  0.70829078  0.75227822  1
  Ni  Ni49  1  0.35212320  0.99689047  0.75407373  1
  Ni  Ni50  1  0.98341249  0.63314252  0.08215024  1
  Ni  Ni51  1  0.69215618  0.34100859  0.08388409  1
  Ni  Ni52  1  0.31203945  0.67296589  0.91943396  1
  Ni  Ni53  1  0.01784055  0.36768659  0.91538482  1
  Ni  Ni54  1  0.66819545  0.95907872  0.91928717  1
  Ni  Ni55  1  0.31008793  0.95296759  0.41769990  1
  Ni  Ni56  1  0.81452702  0.95533502  0.41684984  1
  Ni  Ni57  1  0.66677242  0.37235585  0.41855373  1
  Ni  Ni58  1  0.02073422  0.67082247  0.41822098  1
  Ni  Ni59  1  0.51899728  0.66748965  0.41704551  1
  Cu  Cu60  1  0.64566946  0.99735342  0.24885593  1
  Cu  Cu61  1  0.35436238  0.71363937  0.24778452  1
  Cu  Cu62  1  0.85080750  0.70810967  0.24854665  1
  Cu  Cu63  1  0.85295607  0.99471410  0.74862261  1
  Cu  Cu64  1  0.48307017  0.32947313  0.58404269  1
  Cu  Cu65  1  0.98141513  0.32865863  0.58402364  1
  Cu  Cu66  1  0.18339893  0.03895762  0.58414514  1
  Cu  Cu67  1  0.68392770  0.03746177  0.58464913  1
  Cu  Cu68  1  0.33460117  0.63174695  0.58385710  1
  Cu  Cu69  1  0.83465380  0.63687691  0.58420518  1
  Cu  Cu70  1  0.47963842  0.63183560  0.08558800  1
  Cu  Cu71  1  0.33568566  0.03885205  0.08405194  1
  Cu  Cu72  1  0.83581211  0.04507029  0.08325856  1
  Cu  Cu73  1  0.18494312  0.32870976  0.08595485  1
  Cu  Cu74  1  0.81203857  0.66349584  0.91606035  1
  Cu  Cu75  1  0.52308818  0.37906368  0.91620765  1
  Cu  Cu76  1  0.16778603  0.95864686  0.91638589  1
  Cu  Cu77  1  0.16799580  0.38074212  0.41624595  1
  C  C78  1  0.10783791  0.02524379  0.31240154  1
  C  C79  1  0.60663568  0.01775369  0.30158554  1
  C  C80  1  0.40487765  0.78181196  0.30040437  1
  C  C81  1  0.90051003  0.77937106  0.30123098  1
  C  C82  1  0.48925073  0.19283606  0.30870631  1
  C  C83  1  0.98668541  0.19252981  0.31148241  1
  C  C84  1  0.11043622  0.19230493  0.81185096  1
  C  C85  1  0.60727160  0.18621267  0.81085186  1
  C  C86  1  0.48734557  0.77251386  0.81351852  1
  C  C87  1  0.97660157  0.78261764  0.80814078  1
  C  C88  1  0.41004862  0.03574940  0.80984374  1
  C  C89  1  0.90124874  0.02386695  0.80182785  1
  C  C90  1  0.40348742  0.96869775  0.69532226  1
  C  C91  1  0.89622942  0.96797277  0.69689211  1
  C  C92  1  0.07908650  0.18554958  0.69592647  1
  C  C93  1  0.58276909  0.20013220  0.69527246  1
  C  C94  1  0.01007585  0.83255602  0.69512401  1
  C  C95  1  0.51736088  0.84076871  0.69619498  1
  C  C96  1  0.39956239  0.82497124  0.19620674  1
  C  C97  1  0.89741900  0.81761784  0.19606369  1
  C  C98  1  0.00744453  0.18079599  0.19510955  1
  C  C99  1  0.51396206  0.19301718  0.19439437  1
  C  C100  1  0.08142691  0.97094573  0.19565591  1
  C  C101  1  0.58644877  0.97472394  0.19667462  1
  C  C102  1  0.43804939  0.34976978  0.63330131  1
  C  C103  1  0.93938417  0.35251846  0.63487051  1
  C  C104  1  0.23631893  0.12757158  0.63367761  1
  C  C105  1  0.73933921  0.12471645  0.63511849  1
  C  C106  1  0.32387217  0.52526863  0.63456461  1
  C  C107  1  0.82428308  0.53336032  0.63595598  1
  C  C108  1  0.43515820  0.52023995  0.13481557  1
  C  C109  1  0.94769995  0.52704050  0.14042030  1
  C  C110  1  0.32524247  0.12286031  0.13498249  1
  C  C111  1  0.82055715  0.11410849  0.13579796  1
  C  C112  1  0.23989113  0.34730771  0.13530557  1
  C  C113  1  0.74101643  0.35660731  0.14275927  1
  C  C114  1  0.21779307  0.29505503  0.03098977  1
  C  C115  1  0.73766626  0.30884771  0.02640611  1
  C  C116  1  0.43139872  0.56161111  0.03004921  1
  C  C117  1  0.91760393  0.52625469  0.02630103  1
  C  C118  1  0.35430884  0.14664510  0.03080372  1
  C  C119  1  0.84737056  0.15360438  0.03087728  1
  C  C120  1  0.21600300  0.13407036  0.52916476  1
  C  C121  1  0.72084325  0.13571953  0.53028415  1
  C  C122  1  0.34596081  0.55448526  0.52960184  1
  C  C123  1  0.85131112  0.56583305  0.53168792  1
  C  C124  1  0.43453270  0.30323090  0.52876927  1
  C  C125  1  0.93245877  0.30361623  0.52984898  1
  C  C126  1  0.27076137  0.69371153  0.97839129  1
  C  C127  1  0.77472847  0.68516929  0.96933842  1
  C  C128  1  0.07810637  0.43353107  0.97192892  1
  C  C129  1  0.57090412  0.45484793  0.96951320  1
  C  C130  1  0.15856119  0.86802689  0.97054542  1
  C  C131  1  0.64797359  0.83176855  0.97375895  1
  C  C132  1  0.27534706  0.84918979  0.47739906  1
  C  C133  1  0.77776656  0.84998900  0.47611057  1
  C  C134  1  0.15410772  0.45185065  0.47029942  1
  C  C135  1  0.64222075  0.44443827  0.47478889  1
  C  C136  1  0.07866700  0.70525312  0.47546036  1
  C  C137  1  0.57515954  0.70938129  0.47535295  1
  C  C138  1  0.07141057  0.64342196  0.35959423  1
  C  C139  1  0.57091999  0.63689743  0.36025279  1
  C  C140  1  0.24723394  0.84595631  0.36047868  1
  C  C141  1  0.75067206  0.85320113  0.35901170  1
  C  C142  1  0.17777802  0.48631848  0.36460510  1
  C  C143  1  0.67813120  0.49795120  0.36019801  1
  C  C144  1  0.06719322  0.49501949  0.85903098  1
  C  C145  1  0.56943740  0.49331124  0.86416743  1
  C  C146  1  0.17603666  0.87274521  0.86454777  1
  C  C147  1  0.68135922  0.85392828  0.86146934  1
  C  C148  1  0.24580959  0.63946270  0.86291792  1
  C  C149  1  0.75865875  0.64090207  0.86398083  1
  C  C150  1  0.01566145  0.84348736  0.41165950  1
  C  C151  1  0.51476394  0.83796961  0.40580978  1
  C  C152  1  0.40754237  0.99574463  0.41309784  1
  C  C153  1  0.91227830  0.99428054  0.41238928  1
  C  C154  1  0.09201356  0.20775434  0.41227966  1
  C  C155  1  0.58482939  0.18357060  0.41049739  1
  C  C156  1  0.00433173  0.17434634  0.90918616  1
  C  C157  1  0.51093341  0.20899088  0.91112356  1
  C  C158  1  0.09311086  0.98708122  0.91360524  1
  C  C159  1  0.58496221  0.97883208  0.91371013  1
  C  C160  1  0.40890131  0.83009009  0.91549703  1
  C  C161  1  0.89859202  0.81161999  0.91123294  1
  C  C162  1  0.49044332  0.17022763  0.59094866  1
  C  C163  1  0.98775014  0.16789923  0.59230146  1
  C  C164  1  0.09379705  0.02242207  0.59199113  1
  C  C165  1  0.59741336  0.02353359  0.59189142  1
  C  C166  1  0.41301069  0.80595223  0.58974256  1
  C  C167  1  0.91352788  0.81408329  0.59253411  1
  C  C168  1  0.48609661  0.80375573  0.09403724  1
  C  C169  1  0.98545710  0.82373428  0.09082822  1
  C  C170  1  0.41613486  0.02242744  0.09291008  1
  C  C171  1  0.91556612  0.03180087  0.08788578  1
  C  C172  1  0.09719290  0.16947453  0.09371173  1
  C  C173  1  0.59246213  0.15715652  0.09301797  1
  C  C174  1  0.33663243  0.15305477  0.74104276  1
  C  C175  1  0.83870526  0.13844786  0.73856378  1
  C  C176  1  0.23966612  0.32114309  0.74057134  1
  C  C177  1  0.74038806  0.31406040  0.74304783  1
  C  C178  1  0.42508208  0.51946385  0.74087226  1
  C  C179  1  0.92254845  0.51164228  0.74293022  1
  C  C180  1  0.34191251  0.54004202  0.23968049  1
  C  C181  1  0.83656981  0.53439066  0.24292480  1
  C  C182  1  0.42480156  0.33450362  0.24316334  1
  C  C183  1  0.91498721  0.31672875  0.24509573  1
  C  C184  1  0.23981985  0.16971976  0.24413649  1
  C  C185  1  0.72944906  0.14710103  0.24059844  1
  C  C186  1  0.31644611  0.48851709  0.92011156  1
  C  C187  1  0.81740141  0.50068449  0.92054165  1
  C  C188  1  0.43938836  0.37870768  0.91783282  1
  C  C189  1  0.92470193  0.36001560  0.92598971  1
  C  C190  1  0.24726224  0.13493075  0.91877215  1
  C  C191  1  0.75703700  0.14637385  0.92756590  1
  C  C192  1  0.30818804  0.13626914  0.41893849  1
  C  C193  1  0.81561965  0.13895439  0.41765553  1
  C  C194  1  0.24558655  0.36232650  0.41997777  1
  C  C195  1  0.75243856  0.35800884  0.41789406  1
  C  C196  1  0.42879459  0.48522369  0.41730430  1
  C  C197  1  0.93275883  0.48877909  0.41846156  1
  C  C198  1  0.17434576  0.47874176  0.08335495  1
  C  C199  1  0.67124068  0.49603085  0.07721907  1
  C  C200  1  0.08110805  0.67213648  0.07514173  1
  C  C201  1  0.56625724  0.65453887  0.08276365  1
  C  C202  1  0.26238401  0.86822065  0.07910121  1
  C  C203  1  0.76175190  0.87009531  0.07656099  1
  C  C204  1  0.16962301  0.86345641  0.58284486  1
  C  C205  1  0.67307905  0.86300075  0.58258571  1
  C  C206  1  0.25642631  0.64915498  0.58080453  1
  C  C207  1  0.75855074  0.65753662  0.58108584  1
  C  C208  1  0.06973108  0.47802486  0.58049156  1
  C  C209  1  0.56967758  0.48242234  0.58182860  1
  C  C210  1  0.15387425  0.82665715  0.25566951  1
  C  C211  1  0.65000016  0.83656449  0.25039653  1
  C  C212  1  0.26912721  0.70188635  0.25274825  1
  C  C213  1  0.76763496  0.70686624  0.25099740  1
  C  C214  1  0.09046344  0.47988642  0.25722752  1
  C  C215  1  0.59529558  0.49152035  0.25433448  1
  C  C216  1  0.14756534  0.47683191  0.75411194  1
  C  C217  1  0.65734958  0.48839025  0.76135890  1
  C  C218  1  0.09134364  0.70719565  0.75887802  1
  C  C219  1  0.59293912  0.70051842  0.75753538  1
  C  C220  1  0.25898563  0.81673152  0.75956218  1
  C  C221  1  0.76761752  0.83081752  0.75351102  1
