# generated using pymatgen
data_CuNi5C33
_symmetry_space_group_name_H-M   'P 1'
_cell_length_a   9.01567337
_cell_length_b   8.98306841
_cell_length_c   22.87550318
_cell_angle_alpha   90.39473116
_cell_angle_beta   89.79991582
_cell_angle_gamma   119.89984544
_symmetry_Int_Tables_number   1
_chemical_formula_structural   CuNi5C33
_chemical_formula_sum   'Cu3 Ni15 C99'
_cell_volume   1606.02119439
_cell_formula_units_Z   3
loop_
 _symmetry_equiv_pos_site_id
 _symmetry_equiv_pos_as_xyz
  1  'x, y, z'
loop_
 _atom_site_type_symbol
 _atom_site_label
 _atom_site_symmetry_multiplicity
 _atom_site_fract_x
 _atom_site_fract_y
 _atom_site_fract_z
 _atom_site_occupancy
  C  C0  1  0.63598080  0.00135791  0.25031439  1
  C  C1  1  0.99794914  0.35890355  0.74975967  1
  C  C2  1  0.36074268  0.99924408  0.75047276  1
  C  C3  1  0.03206459  0.69833488  0.57999491  1
  C  C4  1  0.66415043  0.96733593  0.58195449  1
  C  C5  1  0.30289392  0.97328488  0.08492475  1
  C  C6  1  0.02982616  0.33289819  0.08569648  1
  C  C7  1  0.97464931  0.66517218  0.91821538  1
  C  C8  1  0.70121624  0.66924677  0.41596066  1
  C  C9  1  0.01716327  0.01573439  0.49432298  1
  C  C10  1  0.99757563  0.00668492  0.00409882  1
  C  C11  1  0.65704452  0.32521364  0.83432905  1
  C  C12  1  0.67844721  0.33765058  0.33270119  1
  C  C13  1  0.33637717  0.65179355  0.16919975  1
  C  C14  1  0.34452283  0.65474423  0.66559176  1
  C  C15  1  0.00229050  0.01080256  0.85571289  1
  C  C16  1  0.00451111  0.00279487  0.64539016  1
  C  C17  1  0.66468098  0.34260375  0.68206942  1
  C  C18  1  0.66149572  0.32461635  0.98893243  1
  C  C19  1  0.32916287  0.66460635  0.50879205  1
  C  C20  1  0.34166751  0.66840532  0.81776082  1
  C  C21  1  0.98303024  0.98964156  0.34515287  1
  C  C22  1  0.98737566  0.99830586  0.15366745  1
  C  C23  1  0.67934354  0.35946710  0.18157571  1
  C  C24  1  0.67514711  0.32481317  0.48077065  1
  C  C25  1  0.33150132  0.66672084  0.02192170  1
  C  C26  1  0.31844969  0.65660442  0.31664459  1
  Ni  Ni27  1  0.70468249  0.70463875  0.25022033  1
  Ni  Ni28  1  0.00171951  0.29210204  0.25007795  1
  Ni  Ni29  1  0.29997323  0.29931950  0.75044018  1
  Ni  Ni30  1  0.00033806  0.69899433  0.75185898  1
  Ni  Ni31  1  0.69909840  0.00047377  0.74751417  1
  Ni  Ni32  1  0.95895770  0.33391685  0.57986656  1
  Ni  Ni33  1  0.37812740  0.04454665  0.57780839  1
  Ni  Ni34  1  0.66483427  0.62414727  0.57503297  1
  Ni  Ni35  1  0.96755426  0.63985613  0.08598657  1
  Ni  Ni36  1  0.66637752  0.03089327  0.08957562  1
  Ni  Ni37  1  0.36556850  0.33284542  0.08918807  1
  Ni  Ni38  1  0.04407759  0.37847995  0.92288138  1
  Ni  Ni39  1  0.33269679  0.95754903  0.92188356  1
  Ni  Ni40  1  0.63522433  0.96998788  0.41132010  1
  Ni  Ni41  1  0.03067586  0.67002399  0.41221690  1
  Cu  Cu42  1  0.28915140  0.99946766  0.25037051  1
  Cu  Cu43  1  0.62605358  0.66614797  0.92297294  1
  Cu  Cu44  1  0.32961850  0.36014441  0.41076610  1
  C  C45  1  0.20314938  0.02278673  0.30202697  1
  C  C46  1  0.81268529  0.77960093  0.30691281  1
  C  C47  1  0.96585566  0.16737926  0.30210322  1
  C  C48  1  0.21262751  0.19089896  0.80476639  1
  C  C49  1  0.98530809  0.78715849  0.80761813  1
  C  C50  1  0.81119711  0.02066167  0.80079147  1
  C  C51  1  0.77970188  0.98397519  0.69008930  1
  C  C52  1  0.19243300  0.21414165  0.69555184  1
  C  C53  1  0.01986014  0.80302502  0.69585297  1
  C  C54  1  0.79249017  0.82974228  0.19828787  1
  C  C55  1  0.03240580  0.21417703  0.19301050  1
  C  C56  1  0.18845286  0.97385634  0.19571634  1
  C  C57  1  0.88818016  0.35742029  0.63871637  1
  C  C58  1  0.47012918  0.11244743  0.63713329  1
  C  C59  1  0.64647933  0.53008031  0.63227451  1
  C  C60  1  0.87778561  0.50699575  0.13599425  1
  C  C61  1  0.62907999  0.11839501  0.14288952  1
  C  C62  1  0.48851616  0.36401714  0.14103403  1
  C  C63  1  0.43290481  0.28901311  0.03363639  1
  C  C64  1  0.86802427  0.57364514  0.02840636  1
  C  C65  1  0.71061642  0.14587208  0.03519358  1
  C  C66  1  0.47805732  0.16044172  0.52613633  1
  C  C67  1  0.68443896  0.52997678  0.52065380  1
  C  C68  1  0.84037989  0.31252735  0.52799641  1
  C  C69  1  0.53406788  0.68125408  0.97391166  1
  C  C70  1  0.15633707  0.47581804  0.97699864  1
  C  C71  1  0.31874079  0.84385878  0.97552775  1
  C  C72  1  0.56756942  0.85977402  0.46745310  1
  C  C73  1  0.29778106  0.42846352  0.46574733  1
  C  C74  1  0.12699966  0.70180147  0.47074744  1
  C  C75  1  0.12803309  0.63810738  0.36189291  1
  C  C76  1  0.51499146  0.87502927  0.35811643  1
  C  C77  1  0.36415251  0.48460915  0.36186852  1
  C  C78  1  0.12126895  0.47201395  0.86460636  1
  C  C79  1  0.34818743  0.88114206  0.86320167  1
  C  C80  1  0.53732362  0.64868109  0.86736842  1
  C  C81  1  0.00915524  0.83126948  0.40232374  1
  C  C82  1  0.81510463  0.98353345  0.40306303  1
  C  C83  1  0.17822664  0.18868538  0.40142577  1
  C  C84  1  0.02090159  0.19737602  0.92360140  1
  C  C85  1  0.16071469  0.95894407  0.92236531  1
  C  C86  1  0.79946975  0.82133243  0.92158096  1
  C  C87  1  0.96755149  0.16685372  0.57976367  1
  C  C88  1  0.19470380  0.01656325  0.57825512  1
  C  C89  1  0.83286718  0.80240277  0.57728032  1
  C  C90  1  0.99665606  0.82308424  0.09824320  1
  C  C91  1  0.83018291  0.01543142  0.09729937  1
  C  C92  1  0.18296990  0.16975217  0.09789257  1
  C  C93  1  0.68310548  0.16458604  0.74827176  1
  C  C94  1  0.47506080  0.30994361  0.74936865  1
  C  C95  1  0.84654420  0.51539074  0.75077052  1
  C  C96  1  0.68771300  0.52438248  0.24053912  1
  C  C97  1  0.83312895  0.30351789  0.24283572  1
  C  C98  1  0.46527456  0.15212406  0.24578651  1
  C  C99  1  0.65023097  0.51446070  0.92520665  1
  C  C100  1  0.86929658  0.37264756  0.92516388  1
  C  C101  1  0.48832772  0.13884455  0.92396274  1
  C  C102  1  0.65117434  0.14972352  0.41996779  1
  C  C103  1  0.49108902  0.35323819  0.41674651  1
  C  C104  1  0.84579705  0.50845214  0.41819389  1
  C  C105  1  0.34078387  0.49251417  0.08065144  1
  C  C106  1  0.14927398  0.65368327  0.08054441  1
  C  C107  1  0.49926745  0.85422271  0.07941477  1
  C  C108  1  0.36066395  0.86289750  0.57393313  1
  C  C109  1  0.51278032  0.65721601  0.57310296  1
  C  C110  1  0.13524365  0.49754052  0.57485673  1
  C  C111  1  0.31164038  0.84336539  0.25611807  1
  C  C112  1  0.52565100  0.69458119  0.25772244  1
  C  C113  1  0.16354025  0.47341508  0.25961143  1
  C  C114  1  0.31250066  0.47588627  0.75222338  1
  C  C115  1  0.16516794  0.68430901  0.75240379  1
  C  C116  1  0.51667248  0.84518981  0.75003325  1
