# generated using pymatgen
data_Cu5Ni2C3
_symmetry_space_group_name_H-M   'P 1'
_cell_length_a   10.32159100
_cell_length_b   8.17356900
_cell_length_c   8.64817255
_cell_angle_alpha   68.10108321
_cell_angle_beta   90.00000000
_cell_angle_gamma   90.00000000
_symmetry_Int_Tables_number   1
_chemical_formula_structural   Cu5Ni2C3
_chemical_formula_sum   'Cu20 Ni8 C12'
_cell_volume   676.95120177
_cell_formula_units_Z   4
loop_
 _symmetry_equiv_pos_site_id
 _symmetry_equiv_pos_as_xyz
  1  'x, y, z'
loop_
 _atom_site_type_symbol
 _atom_site_label
 _atom_site_symmetry_multiplicity
 _atom_site_fract_x
 _atom_site_fract_y
 _atom_site_fract_z
 _atom_site_occupancy
  C  C0  1  0.17610100  0.76928400  0.74934700  1
  C  C1  1  0.67610100  0.73071600  0.25065300  1
  C  C2  1  0.82389900  0.23071600  0.25065300  1
  C  C3  1  0.32389900  0.26928400  0.74934700  1
  C  C4  1  0.95885100  0.57560300  0.70811800  1
  C  C5  1  0.45885100  0.92439700  0.29188200  1
  C  C6  1  0.04114900  0.42439700  0.29188200  1
  C  C7  1  0.54114900  0.07560300  0.70811800  1
  C  C8  1  0.92477700  0.89207500  0.78725200  1
  C  C9  1  0.42477700  0.60792500  0.21274800  1
  C  C10  1  0.07522300  0.10792500  0.21274800  1
  C  C11  1  0.57522300  0.39207500  0.78725200  1
  Ni  Ni12  1  0.11617000  0.60973100  0.71827700  1
  Ni  Ni13  1  0.61617000  0.89026900  0.28172300  1
  Ni  Ni14  1  0.88383000  0.39026900  0.28172300  1
  Ni  Ni15  1  0.38383000  0.10973100  0.71827700  1
  Ni  Ni16  1  0.08465400  0.90126600  0.78555600  1
  Ni  Ni17  1  0.58465400  0.59873400  0.21444400  1
  Ni  Ni18  1  0.91534600  0.09873400  0.21444400  1
  Ni  Ni19  1  0.41534600  0.40126600  0.78555600  1
  Cu  Cu20  1  0.93193900  0.39505800  0.80402000  1
  Cu  Cu21  1  0.43193900  0.10494200  0.19598000  1
  Cu  Cu22  1  0.06806100  0.60494200  0.19598000  1
  Cu  Cu23  1  0.56806100  0.89505800  0.80402000  1
  Cu  Cu24  1  0.60298200  0.17974300  0.82404800  1
  Cu  Cu25  1  0.10298200  0.32025700  0.17595200  1
  Cu  Cu26  1  0.39701800  0.82025700  0.17595200  1
  Cu  Cu27  1  0.89701800  0.67974300  0.82404800  1
  Cu  Cu28  1  0.62226400  0.41179400  0.93394600  1
  Cu  Cu29  1  0.12226400  0.08820600  0.06605400  1
  Cu  Cu30  1  0.37773600  0.58820600  0.06605400  1
  Cu  Cu31  1  0.87773600  0.91179400  0.93394600  1
  Cu  Cu32  1  0.62224300  0.49761700  0.62535500  1
  Cu  Cu33  1  0.12224300  0.00238300  0.37464500  1
  Cu  Cu34  1  0.37775700  0.50238300  0.37464500  1
  Cu  Cu35  1  0.87775700  0.99761700  0.62535500  1
  Cu  Cu36  1  0.58280300  0.16018700  0.53942700  1
  Cu  Cu37  1  0.08280300  0.33981300  0.46057300  1
  Cu  Cu38  1  0.41719700  0.83981300  0.46057300  1
  Cu  Cu39  1  0.91719700  0.66018700  0.53942700  1
