# generated using pymatgen
data_Cu2NiC8
_symmetry_space_group_name_H-M   'P 1'
_cell_length_a   6.20784481
_cell_length_b   6.20784302
_cell_length_c   6.20784455
_cell_angle_alpha   53.13502114
_cell_angle_beta   53.13502280
_cell_angle_gamma   53.13502487
_symmetry_Int_Tables_number   1
_chemical_formula_structural   Cu2NiC8
_chemical_formula_sum   'Cu2 Ni1 C8'
_cell_volume   141.95633215
_cell_formula_units_Z   1
loop_
 _symmetry_equiv_pos_site_id
 _symmetry_equiv_pos_as_xyz
  1  'x, y, z'
loop_
 _atom_site_type_symbol
 _atom_site_label
 _atom_site_symmetry_multiplicity
 _atom_site_fract_x
 _atom_site_fract_y
 _atom_site_fract_z
 _atom_site_occupancy
  C  C0  1  0.27216600  0.27216600  0.27216600  1
  Ni  Ni1  1  0.64643000  0.64643000  0.64643000  1
  Cu  Cu2  1  0.01493000  0.01493000  0.01493000  1
  Cu  Cu3  1  0.47431900  0.47431900  0.47431900  1
  C  C4  1  0.82240200  0.82240200  0.82240200  1
  C  C5  1  0.18620300  0.30507700  0.74047400  1
  C  C6  1  0.30507700  0.74047400  0.18620300  1
  C  C7  1  0.74047400  0.18620300  0.30507700  1
  C  C8  1  0.24449300  0.81688700  0.68527900  1
  C  C9  1  0.68527900  0.24449300  0.81688700  1
  C  C10  1  0.81688700  0.68527900  0.24449300  1
