# generated using pymatgen
data_Cu4NiC14
_symmetry_space_group_name_H-M   'P 1'
_cell_length_a   5.82827241
_cell_length_b   5.87487162
_cell_length_c   10.28976860
_cell_angle_alpha   115.93627125
_cell_angle_beta   115.79922246
_cell_angle_gamma   78.80154306
_symmetry_Int_Tables_number   1
_chemical_formula_structural   Cu4NiC14
_chemical_formula_sum   'Cu4 Ni1 C14'
_cell_volume   285.25516525
_cell_formula_units_Z   1
loop_
 _symmetry_equiv_pos_site_id
 _symmetry_equiv_pos_as_xyz
  1  'x, y, z'
loop_
 _atom_site_type_symbol
 _atom_site_label
 _atom_site_symmetry_multiplicity
 _atom_site_fract_x
 _atom_site_fract_y
 _atom_site_fract_z
 _atom_site_occupancy
  C  C0  1  0.57879057  0.08805051  0.17326463  1
  C  C1  1  0.88882433  0.41890745  0.76261086  1
  C  C2  1  0.15969862  0.68599382  0.16631410  1
  C  C3  1  0.32967225  0.82062402  0.77075113  1
  Ni  Ni4  1  0.95573172  0.47585030  0.32127710  1
  Cu  Cu5  1  0.74700479  0.82036378  0.51602299  1
  Cu  Cu6  1  0.96366919  0.02784700  0.96013484  1
  Cu  Cu7  1  0.25356061  0.11712683  0.51983236  1
  Cu  Cu8  1  0.49000954  0.44368945  0.96205408  1
  C  C9  1  0.60563368  0.55889218  0.32654322  1
  C  C10  1  0.32185639  0.34527650  0.72160183  1
  C  C11  1  0.57313158  0.11776466  0.50191467  1
  C  C12  1  0.85059631  0.82920870  0.71033314  1
  C  C13  1  0.84367800  0.36931398  0.09030725  1
  C  C14  1  0.24625955  0.24372967  0.96388965  1
  C  C15  1  0.04644451  0.14721358  0.33567110  1
  C  C16  1  0.75918913  0.80113627  0.96529802  1
  C  C17  1  0.09916540  0.80897360  0.48971134  1
  C  C18  1  0.27358482  0.76098871  0.99246969  1
