# generated using pymatgen
data_CuNiC19
_symmetry_space_group_name_H-M   'P 1'
_cell_length_a   9.16253879
_cell_length_b   9.16253846
_cell_length_c   22.10293652
_cell_angle_alpha   90.00000000
_cell_angle_beta   90.00000000
_cell_angle_gamma   120.00000115
_symmetry_Int_Tables_number   1
_chemical_formula_structural   CuNiC19
_chemical_formula_sum   'Cu6 Ni6 C114'
_cell_volume   1606.98654332
_cell_formula_units_Z   6
loop_
 _symmetry_equiv_pos_site_id
 _symmetry_equiv_pos_as_xyz
  1  'x, y, z'
loop_
 _atom_site_type_symbol
 _atom_site_label
 _atom_site_symmetry_multiplicity
 _atom_site_fract_x
 _atom_site_fract_y
 _atom_site_fract_z
 _atom_site_occupancy
  C  C0  1  0.63637186  0.00767806  0.24836118  1
  C  C1  1  0.37130620  0.36362814  0.24836118  1
  C  C2  1  0.99232194  0.62869380  0.24836118  1
  C  C3  1  0.63637186  0.62869380  0.74836118  1
  C  C4  1  0.99232194  0.36362814  0.74836118  1
  C  C5  1  0.37130620  0.00767806  0.74836118  1
  C  C6  1  0.30303886  0.34101106  0.58169418  1
  C  C7  1  0.03797320  0.69696114  0.58169418  1
  C  C8  1  0.65898894  0.96202680  0.58169418  1
  C  C9  1  0.30303886  0.96202680  0.08169418  1
  C  C10  1  0.65898894  0.69696114  0.08169418  1
  C  C11  1  0.03797320  0.34101106  0.08169418  1
  C  C12  1  0.96970486  0.67434506  0.91502818  1
  C  C13  1  0.70463920  0.03029514  0.91502818  1
  C  C14  1  0.32565494  0.29536080  0.91502818  1
  C  C15  1  0.96970486  0.29536080  0.41502818  1
  C  C16  1  0.32565494  0.03029514  0.41502818  1
  C  C17  1  0.70463920  0.67434506  0.41502818  1
  C  C18  1  0.00000000  0.00000000  0.49644468  1
  C  C19  1  0.00000000  0.00000000  0.99644468  1
  C  C20  1  0.66666700  0.33333300  0.82977768  1
  C  C21  1  0.66666700  0.33333300  0.32977768  1
  C  C22  1  0.33333300  0.66666700  0.16311168  1
  C  C23  1  0.33333300  0.66666700  0.66311168  1
  Ni  Ni24  1  0.00000000  0.00000000  0.34598517  1
  Ni  Ni25  1  0.00000000  0.00000000  0.84598517  1
  Ni  Ni26  1  0.66666700  0.33333300  0.67931817  1
  Ni  Ni27  1  0.66666700  0.33333300  0.17931817  1
  Ni  Ni28  1  0.33333300  0.66666700  0.01265217  1
  Ni  Ni29  1  0.33333300  0.66666700  0.51265217  1
  Cu  Cu30  1  0.00000000  0.00000000  0.65309438  1
  Cu  Cu31  1  0.00000000  0.00000000  0.15309438  1
  Cu  Cu32  1  0.66666700  0.33333300  0.98642738  1
  Cu  Cu33  1  0.66666700  0.33333300  0.48642738  1
  Cu  Cu34  1  0.33333300  0.66666700  0.31976138  1
  Cu  Cu35  1  0.33333300  0.66666700  0.81976138  1
  C  C36  1  0.29973989  0.00078607  0.25151995  1
  C  C37  1  0.70104617  0.70026011  0.25151995  1
  C  C38  1  0.99921393  0.29895383  0.25151995  1
  C  C39  1  0.29973989  0.29895383  0.75151995  1
  C  C40  1  0.99921393  0.70026011  0.75151995  1
  C  C41  1  0.70104617  0.00078607  0.75151995  1
  C  C42  1  0.96640689  0.33411907  0.58485295  1
  C  C43  1  0.36771317  0.03359311  0.58485295  1
  C  C44  1  0.66588093  0.63228683  0.58485295  1
  C  C45  1  0.96640689  0.63228683  0.08485295  1
  C  C46  1  0.66588093  0.03359311  0.08485295  1
  C  C47  1  0.36771317  0.33411907  0.08485295  1
  C  C48  1  0.63307289  0.66745307  0.91818695  1
  C  C49  1  0.03437917  0.36692711  0.91818695  1
  C  C50  1  0.33254693  0.96562083  0.91818695  1
  C  C51  1  0.63307289  0.96562083  0.41818695  1
  C  C52  1  0.33254693  0.36692711  0.41818695  1
  C  C53  1  0.03437917  0.66745307  0.41818695  1
  C  C54  1  0.21517241  0.02646631  0.30715924  1
  C  C55  1  0.81129390  0.78482759  0.30715924  1
  C  C56  1  0.97353369  0.18870610  0.30715924  1
  C  C57  1  0.21517241  0.18870610  0.80715924  1
  C  C58  1  0.97353369  0.78482759  0.80715924  1
  C  C59  1  0.81129390  0.02646631  0.80715924  1
  C  C60  1  0.77554828  0.96692818  0.69334337  1
  C  C61  1  0.19137990  0.22445172  0.69334337  1
  C  C62  1  0.03307182  0.80862010  0.69334337  1
  C  C63  1  0.77554828  0.80862010  0.19334337  1
  C  C64  1  0.03307182  0.22445172  0.19334337  1
  C  C65  1  0.19137990  0.96692818  0.19334337  1
  C  C66  1  0.88183941  0.35979931  0.64049224  1
  C  C67  1  0.47796090  0.11816059  0.64049224  1
  C  C68  1  0.64020069  0.52203910  0.64049224  1
  C  C69  1  0.88183941  0.52203910  0.14049224  1
  C  C70  1  0.64020069  0.11816059  0.14049224  1
  C  C71  1  0.47796090  0.35979931  0.14049224  1
  C  C72  1  0.44221528  0.30026118  0.02667637  1
  C  C73  1  0.85804690  0.55778472  0.02667637  1
  C  C74  1  0.69973882  0.14195310  0.02667637  1
  C  C75  1  0.44221528  0.14195310  0.52667637  1
  C  C76  1  0.69973882  0.55778472  0.52667637  1
  C  C77  1  0.85804690  0.30026118  0.52667637  1
  C  C78  1  0.54850541  0.69313331  0.97382624  1
  C  C79  1  0.14462690  0.45149459  0.97382624  1
  C  C80  1  0.30686669  0.85537310  0.97382624  1
  C  C81  1  0.54850541  0.85537310  0.47382624  1
  C  C82  1  0.30686669  0.45149459  0.47382624  1
  C  C83  1  0.14462690  0.69313331  0.47382624  1
  C  C84  1  0.10888128  0.63359518  0.36001037  1
  C  C85  1  0.52471290  0.89111872  0.36001037  1
  C  C86  1  0.36640482  0.47528710  0.36001037  1
  C  C87  1  0.10888128  0.47528710  0.86001037  1
  C  C88  1  0.36640482  0.89111872  0.86001037  1
  C  C89  1  0.52471290  0.63359518  0.86001037  1
  C  C90  1  0.01601534  0.82611490  0.41302240  1
  C  C91  1  0.81009955  0.98398466  0.41302240  1
  C  C92  1  0.17388510  0.18990045  0.41302240  1
  C  C93  1  0.01601534  0.18990045  0.91302240  1
  C  C94  1  0.17388510  0.98398466  0.91302240  1
  C  C95  1  0.81009955  0.82611490  0.91302240  1
  C  C96  1  0.98386040  0.17264534  0.58808578  1
  C  C97  1  0.18878494  0.01613960  0.58808578  1
  C  C98  1  0.82735466  0.81121506  0.58808578  1
  C  C99  1  0.98386040  0.81121506  0.08808578  1
  C  C100  1  0.82735466  0.01613960  0.08808578  1
  C  C101  1  0.18878494  0.17264534  0.08808578  1
  C  C102  1  0.68268234  0.15944790  0.74635540  1
  C  C103  1  0.47676655  0.31731766  0.74635540  1
  C  C104  1  0.84055210  0.52323345  0.74635540  1
  C  C105  1  0.68268234  0.52323345  0.24635540  1
  C  C106  1  0.84055210  0.31731766  0.24635540  1
  C  C107  1  0.47676655  0.15944790  0.24635540  1
  C  C108  1  0.65052740  0.50597834  0.92141878  1
  C  C109  1  0.85545194  0.34947260  0.92141878  1
  C  C110  1  0.49402166  0.14454806  0.92141878  1
  C  C111  1  0.65052740  0.14454806  0.42141878  1
  C  C112  1  0.49402166  0.34947260  0.42141878  1
  C  C113  1  0.85545194  0.50597834  0.42141878  1
  C  C114  1  0.34934834  0.49278190  0.07968940  1
  C  C115  1  0.14343255  0.65065166  0.07968940  1
  C  C116  1  0.50721810  0.85656745  0.07968940  1
  C  C117  1  0.34934834  0.85656745  0.57968940  1
  C  C118  1  0.50721810  0.65065166  0.57968940  1
  C  C119  1  0.14343255  0.49278190  0.57968940  1
  C  C120  1  0.31719340  0.83931234  0.25475278  1
  C  C121  1  0.52211794  0.68280660  0.25475278  1
  C  C122  1  0.16068766  0.47788206  0.25475278  1
  C  C123  1  0.31719340  0.47788206  0.75475278  1
  C  C124  1  0.16068766  0.68280660  0.75475278  1
  C  C125  1  0.52211794  0.83931234  0.75475278  1
