# generated using pymatgen
data_Cu2NiC46
_symmetry_space_group_name_H-M   'P 1'
_cell_length_a   10.54857387
_cell_length_b   10.56543584
_cell_length_c   8.54604543
_cell_angle_alpha   86.30250850
_cell_angle_beta   90.49008311
_cell_angle_gamma   121.25148368
_symmetry_Int_Tables_number   1
_chemical_formula_structural   Cu2NiC46
_chemical_formula_sum   'Cu2 Ni1 C46'
_cell_volume   812.21466787
_cell_formula_units_Z   1
loop_
 _symmetry_equiv_pos_site_id
 _symmetry_equiv_pos_as_xyz
  1  'x, y, z'
loop_
 _atom_site_type_symbol
 _atom_site_label
 _atom_site_symmetry_multiplicity
 _atom_site_fract_x
 _atom_site_fract_y
 _atom_site_fract_z
 _atom_site_occupancy
  C  C0  1  0.09572100  0.69330400  0.13490300  1
  C  C1  1  0.58659600  0.90432700  0.14756700  1
  C  C2  1  0.40123600  0.04784100  0.81259000  1
  C  C3  1  0.96689700  0.95451100  0.94970100  1
  C  C4  1  0.89596500  0.30867200  0.85568100  1
  C  C5  1  0.68241300  0.58290400  0.83573400  1
  C  C6  1  0.31219200  0.45012000  0.19747800  1
  C  C7  1  0.99992900  0.01120700  0.43337200  1
  Ni  Ni8  1  0.30797500  0.19378000  0.04442200  1
  Cu  Cu9  1  0.33876400  0.67172200  0.49421700  1
  Cu  Cu10  1  0.64663400  0.32593900  0.51404500  1
  C  C11  1  0.97626900  0.33310000  0.38030600  1
  C  C12  1  0.02502600  0.68033500  0.62069000  1
  C  C13  1  0.31451500  0.99541500  0.37542200  1
  C  C14  1  0.65294600  0.32380000  0.15617500  1
  C  C15  1  0.66486400  0.98916900  0.63054100  1
  C  C16  1  0.33378000  0.64337700  0.85710400  1
  C  C17  1  0.67905900  0.66617000  0.36486400  1
  C  C18  1  0.32192000  0.32726800  0.65083500  1
  C  C19  1  0.48206600  0.81623000  0.66355700  1
  C  C20  1  0.65617000  0.48469600  0.33615900  1
  C  C21  1  0.72987800  0.98648900  0.44182500  1
  C  C22  1  0.50084500  0.65596000  0.36734800  1
  C  C23  1  0.17322500  0.49356700  0.95638000  1
  C  C24  1  0.14066600  0.51867400  0.36618500  1
  C  C25  1  0.27332100  0.04616200  0.55498300  1
  C  C26  1  0.36345700  0.85159600  0.35671700  1
  C  C27  1  0.50808200  0.34965400  0.06254600  1
  C  C28  1  0.86036900  0.49810200  0.62165400  1
  C  C29  1  0.33632600  0.51933600  0.67362800  1
  C  C30  1  0.80230300  0.33425800  0.33977200  1
  C  C31  1  0.96322800  0.25031200  0.57012500  1
  C  C32  1  0.77048600  0.72818400  0.54323000  1
  C  C33  1  0.33795900  0.79707400  0.94164300  1
  C  C34  1  0.81326700  0.48131000  0.06374200  1
  C  C35  1  0.22267500  0.02157400  0.18410400  1
  C  C36  1  0.07407400  0.78597600  0.43175200  1
  C  C37  1  0.64045300  0.17847500  0.05143200  1
  C  C38  1  0.77752700  0.98964900  0.78748300  1
  C  C39  1  0.00095000  0.23319000  0.23654400  1
  C  C40  1  0.51137900  0.18519600  0.33814500  1
  C  C41  1  0.51326600  0.35589800  0.65132300  1
  C  C42  1  0.18293700  0.65900500  0.66693400  1
  C  C43  1  0.24609700  0.29135600  0.46209200  1
  C  C44  1  0.64279200  0.14801100  0.64492700  1
  C  C45  1  0.79021200  0.79546800  0.20728400  1
  C  C46  1  0.00656900  0.77406500  0.77626900  1
  C  C47  1  0.48138500  0.64220200  0.95773500  1
  C  C48  1  0.23283500  0.20661800  0.84352500  1
