# generated using pymatgen
data_CuNiC7
_symmetry_space_group_name_H-M   'P 1'
_cell_length_a   8.88236051
_cell_length_b   8.88236051
_cell_length_c   4.81908900
_cell_angle_alpha   90.00000000
_cell_angle_beta   90.00000000
_cell_angle_gamma   120.00000383
_symmetry_Int_Tables_number   1
_chemical_formula_structural   CuNiC7
_chemical_formula_sum   'Cu3 Ni3 C21'
_cell_volume   329.27014459
_cell_formula_units_Z   3
loop_
 _symmetry_equiv_pos_site_id
 _symmetry_equiv_pos_as_xyz
  1  'x, y, z'
loop_
 _atom_site_type_symbol
 _atom_site_label
 _atom_site_symmetry_multiplicity
 _atom_site_fract_x
 _atom_site_fract_y
 _atom_site_fract_z
 _atom_site_occupancy
  C  C0  1  0.70247900  0.00000000  0.50000000  1
  C  C1  1  0.29752100  0.29752100  0.50000000  1
  C  C2  1  0.00000000  0.70247900  0.50000000  1
  Ni  Ni3  1  0.63864600  0.63864600  0.00000000  1
  Ni  Ni4  1  0.00000000  0.36135400  0.00000000  1
  Ni  Ni5  1  0.36135400  0.00000000  0.00000000  1
  Cu  Cu6  1  0.66666700  0.33333300  0.49795500  1
  Cu  Cu7  1  0.33333300  0.66666700  0.50204500  1
  Cu  Cu8  1  0.00000000  0.00000000  0.00000000  1
  C  C9  1  0.88637600  0.78736800  0.22477700  1
  C  C10  1  0.90099200  0.11362400  0.22477700  1
  C  C11  1  0.21263200  0.09900800  0.22477700  1
  C  C12  1  0.09900800  0.21263200  0.77522300  1
  C  C13  1  0.11362400  0.90099200  0.77522300  1
  C  C14  1  0.78736800  0.88637600  0.77522300  1
  C  C15  1  0.54315400  0.42035700  0.27056200  1
  C  C16  1  0.57964300  0.12279700  0.27056200  1
  C  C17  1  0.87720300  0.45684600  0.27056200  1
  C  C18  1  0.12279700  0.57964300  0.72943800  1
  C  C19  1  0.45684600  0.87720300  0.72943800  1
  C  C20  1  0.42035700  0.54315400  0.72943800  1
  C  C21  1  0.22191000  0.45409500  0.27828400  1
  C  C22  1  0.54590500  0.76781500  0.27828400  1
  C  C23  1  0.23218500  0.77809000  0.27828400  1
  C  C24  1  0.76781500  0.54590500  0.72171600  1
  C  C25  1  0.77809000  0.23218500  0.72171600  1
  C  C26  1  0.45409500  0.22191000  0.72171600  1
