# generated using pymatgen
data_CuNiC7
_symmetry_space_group_name_H-M   'P 1'
_cell_length_a   6.16404698
_cell_length_b   6.16404698
_cell_length_c   6.16404698
_cell_angle_alpha   128.24729456
_cell_angle_beta   126.76899968
_cell_angle_gamma   77.42912455
_symmetry_Int_Tables_number   1
_chemical_formula_structural   CuNiC7
_chemical_formula_sum   'Cu1 Ni1 C7'
_cell_volume   142.92150020
_cell_formula_units_Z   1
loop_
 _symmetry_equiv_pos_site_id
 _symmetry_equiv_pos_as_xyz
  1  'x, y, z'
loop_
 _atom_site_type_symbol
 _atom_site_label
 _atom_site_symmetry_multiplicity
 _atom_site_fract_x
 _atom_site_fract_y
 _atom_site_fract_z
 _atom_site_occupancy
  C  C0  1  0.50000000  0.50000000  0.00000000  1
  C  C1  1  0.70269800  0.20269800  0.50000000  1
  C  C2  1  0.29730200  0.79730200  0.50000000  1
  Ni  Ni3  1  0.00000000  0.50000000  0.50000000  1
  Cu  Cu4  1  0.00000000  0.00000000  0.00000000  1
  C  C5  1  0.70801500  0.14917100  0.05516400  1
  C  C6  1  0.29198500  0.34715000  0.44115600  1
  C  C7  1  0.90599300  0.85082900  0.55884400  1
  C  C8  1  0.09400700  0.65285000  0.94483600  1
