# generated using pymatgen
data_Cu12Ni3C
_symmetry_space_group_name_H-M   'P 1'
_cell_length_a   11.47611500
_cell_length_b   11.47611500
_cell_length_c   11.47611500
_cell_angle_alpha   90.00000000
_cell_angle_beta   90.00000000
_cell_angle_gamma   90.00000000
_symmetry_Int_Tables_number   1
_chemical_formula_structural   Cu12Ni3C
_chemical_formula_sum   'Cu96 Ni24 C8'
_cell_volume   1511.41829464
_cell_formula_units_Z   8
loop_
 _symmetry_equiv_pos_site_id
 _symmetry_equiv_pos_as_xyz
  1  'x, y, z'
loop_
 _atom_site_type_symbol
 _atom_site_label
 _atom_site_symmetry_multiplicity
 _atom_site_fract_x
 _atom_site_fract_y
 _atom_site_fract_z
 _atom_site_occupancy
  C  C0  1  0.78105900  0.71894100  0.28105900  1
  C  C1  1  0.71894100  0.21894100  0.28105900  1
  C  C2  1  0.28105900  0.71894100  0.21894100  1
  C  C3  1  0.21894100  0.21894100  0.21894100  1
  C  C4  1  0.21894100  0.28105900  0.71894100  1
  C  C5  1  0.28105900  0.78105900  0.71894100  1
  C  C6  1  0.78105900  0.78105900  0.78105900  1
  C  C7  1  0.71894100  0.28105900  0.78105900  1
  Ni  Ni8  1  0.25382000  0.03181000  0.69076100  1
  Ni  Ni9  1  0.24618000  0.96819000  0.19076100  1
  Ni  Ni10  1  0.25382000  0.46819000  0.19076100  1
  Ni  Ni11  1  0.46819000  0.30923900  0.75382000  1
  Ni  Ni12  1  0.80923900  0.74618000  0.53181000  1
  Ni  Ni13  1  0.03181000  0.80923900  0.75382000  1
  Ni  Ni14  1  0.74618000  0.96819000  0.30923900  1
  Ni  Ni15  1  0.03181000  0.69076100  0.25382000  1
  Ni  Ni16  1  0.75382000  0.46819000  0.30923900  1
  Ni  Ni17  1  0.96819000  0.30923900  0.74618000  1
  Ni  Ni18  1  0.24618000  0.53181000  0.69076100  1
  Ni  Ni19  1  0.53181000  0.80923900  0.74618000  1
  Ni  Ni20  1  0.69076100  0.24618000  0.53181000  1
  Ni  Ni21  1  0.96819000  0.19076100  0.24618000  1
  Ni  Ni22  1  0.19076100  0.25382000  0.46819000  1
  Ni  Ni23  1  0.74618000  0.53181000  0.80923900  1
  Ni  Ni24  1  0.19076100  0.24618000  0.96819000  1
  Ni  Ni25  1  0.53181000  0.69076100  0.24618000  1
  Ni  Ni26  1  0.30923900  0.74618000  0.96819000  1
  Ni  Ni27  1  0.30923900  0.75382000  0.46819000  1
  Ni  Ni28  1  0.69076100  0.25382000  0.03181000  1
  Ni  Ni29  1  0.46819000  0.19076100  0.25382000  1
  Ni  Ni30  1  0.80923900  0.75382000  0.03181000  1
  Ni  Ni31  1  0.75382000  0.03181000  0.80923900  1
  Cu  Cu32  1  0.27177100  0.53434000  0.10823400  1
  Cu  Cu33  1  0.33504500  0.10176000  0.69429000  1
  Cu  Cu34  1  0.92097600  0.32560000  0.84113900  1
  Cu  Cu35  1  0.32560000  0.84113900  0.92097600  1
  Cu  Cu36  1  0.82560000  0.65886100  0.07902400  1
  Cu  Cu37  1  0.74972800  0.51893300  0.21469200  1
  Cu  Cu38  1  0.07902400  0.67440000  0.15886100  1
  Cu  Cu39  1  0.72822900  0.46566000  0.89176600  1
  Cu  Cu40  1  0.72822900  0.03434000  0.39176600  1
  Cu  Cu41  1  0.16495500  0.89824000  0.19429000  1
  Cu  Cu42  1  0.92097600  0.17440000  0.34113900  1
  Cu  Cu43  1  0.69429000  0.16495500  0.60176000  1
  Cu  Cu44  1  0.67440000  0.15886100  0.07902400  1
  Cu  Cu45  1  0.07902400  0.82560000  0.65886100  1
  Cu  Cu46  1  0.42097600  0.32560000  0.65886100  1
  Cu  Cu47  1  0.24972800  0.51893300  0.28530800  1
  Cu  Cu48  1  0.28530800  0.25027100  0.01893300  1
  Cu  Cu49  1  0.10176000  0.69429000  0.33504500  1
  Cu  Cu50  1  0.34113900  0.57902400  0.67440000  1
  Cu  Cu51  1  0.78530800  0.24972800  0.98106700  1
  Cu  Cu52  1  0.28530800  0.24972800  0.51893300  1
  Cu  Cu53  1  0.89176600  0.72822900  0.46566000  1
  Cu  Cu54  1  0.39176600  0.72822900  0.03434000  1
  Cu  Cu55  1  0.80571000  0.83504500  0.10176000  1
  Cu  Cu56  1  0.60176000  0.80571000  0.66495500  1
  Cu  Cu57  1  0.75027200  0.01893300  0.21469200  1
  Cu  Cu58  1  0.48106700  0.78530800  0.25027100  1
  Cu  Cu59  1  0.51893300  0.28530800  0.24972800  1
  Cu  Cu60  1  0.15886100  0.07902400  0.67440000  1
  Cu  Cu61  1  0.16495500  0.60176000  0.69429000  1
  Cu  Cu62  1  0.24972800  0.98106700  0.78530800  1
  Cu  Cu63  1  0.15886100  0.42097600  0.17440000  1
  Cu  Cu64  1  0.53434000  0.39176600  0.77177100  1
  Cu  Cu65  1  0.19429000  0.33504500  0.39824000  1
  Cu  Cu66  1  0.25027100  0.48106700  0.78530800  1
  Cu  Cu67  1  0.69429000  0.33504500  0.10176000  1
  Cu  Cu68  1  0.65886100  0.07902400  0.82560000  1
  Cu  Cu69  1  0.83504500  0.10176000  0.80571000  1
  Cu  Cu70  1  0.96566000  0.89176600  0.77177100  1
  Cu  Cu71  1  0.32560000  0.65886100  0.42097600  1
  Cu  Cu72  1  0.77177100  0.53434000  0.39176600  1
  Cu  Cu73  1  0.75027200  0.48106700  0.71469200  1
  Cu  Cu74  1  0.51893300  0.21469200  0.74972800  1
  Cu  Cu75  1  0.57902400  0.67440000  0.34113900  1
  Cu  Cu76  1  0.66495500  0.89824000  0.30571000  1
  Cu  Cu77  1  0.25027100  0.01893300  0.28530800  1
  Cu  Cu78  1  0.53434000  0.10823400  0.27177100  1
  Cu  Cu79  1  0.46566000  0.89176600  0.72822900  1
  Cu  Cu80  1  0.60823400  0.27177100  0.96566000  1
  Cu  Cu81  1  0.71469200  0.74972800  0.98106700  1
  Cu  Cu82  1  0.89824000  0.19429000  0.16495500  1
  Cu  Cu83  1  0.22822900  0.46566000  0.60823400  1
  Cu  Cu84  1  0.66495500  0.60176000  0.80571000  1
  Cu  Cu85  1  0.03434000  0.10823400  0.22822900  1
  Cu  Cu86  1  0.10176000  0.80571000  0.83504500  1
  Cu  Cu87  1  0.84113900  0.92097600  0.32560000  1
  Cu  Cu88  1  0.60823400  0.22822900  0.46566000  1
  Cu  Cu89  1  0.10823400  0.22822900  0.03434000  1
  Cu  Cu90  1  0.77177100  0.96566000  0.89176600  1
  Cu  Cu91  1  0.71469200  0.75027200  0.48106700  1
  Cu  Cu92  1  0.84113900  0.57902400  0.82560000  1
  Cu  Cu93  1  0.39824000  0.19429000  0.33504500  1
  Cu  Cu94  1  0.80571000  0.66495500  0.60176000  1
  Cu  Cu95  1  0.42097600  0.17440000  0.15886100  1
  Cu  Cu96  1  0.96566000  0.60823400  0.27177100  1
  Cu  Cu97  1  0.01893300  0.28530800  0.25027100  1
  Cu  Cu98  1  0.01893300  0.21469200  0.75027200  1
  Cu  Cu99  1  0.19429000  0.16495500  0.89824000  1
  Cu  Cu100  1  0.39176600  0.77177100  0.53434000  1
  Cu  Cu101  1  0.98106700  0.78530800  0.24972800  1
  Cu  Cu102  1  0.74972800  0.98106700  0.71469200  1
  Cu  Cu103  1  0.65886100  0.42097600  0.32560000  1
  Cu  Cu104  1  0.57902400  0.82560000  0.84113900  1
  Cu  Cu105  1  0.30571000  0.66495500  0.89824000  1
  Cu  Cu106  1  0.10823400  0.27177100  0.53434000  1
  Cu  Cu107  1  0.30571000  0.83504500  0.39824000  1
  Cu  Cu108  1  0.82560000  0.84113900  0.57902400  1
  Cu  Cu109  1  0.78530800  0.25027100  0.48106700  1
  Cu  Cu110  1  0.46566000  0.60823400  0.22822900  1
  Cu  Cu111  1  0.21469200  0.75027200  0.01893300  1
  Cu  Cu112  1  0.98106700  0.71469200  0.74972800  1
  Cu  Cu113  1  0.60176000  0.69429000  0.16495500  1
  Cu  Cu114  1  0.22822900  0.03434000  0.10823400  1
  Cu  Cu115  1  0.21469200  0.74972800  0.51893300  1
  Cu  Cu116  1  0.34113900  0.92097600  0.17440000  1
  Cu  Cu117  1  0.39824000  0.30571000  0.83504500  1
  Cu  Cu118  1  0.89824000  0.30571000  0.66495500  1
  Cu  Cu119  1  0.48106700  0.71469200  0.75027200  1
  Cu  Cu120  1  0.27177100  0.96566000  0.60823400  1
  Cu  Cu121  1  0.83504500  0.39824000  0.30571000  1
  Cu  Cu122  1  0.17440000  0.34113900  0.92097600  1
  Cu  Cu123  1  0.67440000  0.34113900  0.57902400  1
  Cu  Cu124  1  0.89176600  0.77177100  0.96566000  1
  Cu  Cu125  1  0.17440000  0.15886100  0.42097600  1
  Cu  Cu126  1  0.33504500  0.39824000  0.19429000  1
  Cu  Cu127  1  0.03434000  0.39176600  0.72822900  1
