# generated using pymatgen
data_CuNi8C69
_symmetry_space_group_name_H-M   'P 1'
_cell_length_a   17.76269417
_cell_length_b   8.85676482
_cell_length_c   22.16761061
_cell_angle_alpha   90.01633880
_cell_angle_beta   90.02804755
_cell_angle_gamma   120.02628530
_symmetry_Int_Tables_number   1
_chemical_formula_structural   CuNi8C69
_chemical_formula_sum   'Cu3 Ni24 C207'
_cell_volume   3019.38325201
_cell_formula_units_Z   3
loop_
 _symmetry_equiv_pos_site_id
 _symmetry_equiv_pos_as_xyz
  1  'x, y, z'
loop_
 _atom_site_type_symbol
 _atom_site_label
 _atom_site_symmetry_multiplicity
 _atom_site_fract_x
 _atom_site_fract_y
 _atom_site_fract_z
 _atom_site_occupancy
  C  C0  1  0.82078798  0.98668477  0.24653432  1
  C  C1  1  0.68547682  0.37414927  0.24996254  1
  C  C2  1  0.99430860  0.64447466  0.25366350  1
  C  C3  1  0.49808624  0.63238853  0.25008785  1
  C  C4  1  0.32048160  0.65635810  0.74616901  1
  C  C5  1  0.81975143  0.65529925  0.74621867  1
  C  C6  1  0.99218381  0.34417837  0.75368630  1
  C  C7  1  0.49205898  0.34400841  0.75376982  1
  C  C8  1  0.18729850  0.00029582  0.74995027  1
  C  C9  1  0.68694717  0.99953692  0.75007071  1
  C  C10  1  0.33550549  0.97078397  0.59047408  1
  C  C11  1  0.83421077  0.97019490  0.59223900  1
  C  C12  1  0.15441075  0.97432164  0.08330982  1
  C  C13  1  0.83512015  0.70082594  0.09234358  1
  C  C14  1  0.35052633  0.03047003  0.90967327  1
  C  C15  1  0.84912074  0.02916040  0.90761484  1
  C  C16  1  0.16787715  0.03122480  0.41631797  1
  C  C17  1  0.84930619  0.67068099  0.40783779  1
  C  C18  1  0.00691540  0.01990865  0.50182121  1
  C  C19  1  0.50771317  0.99736001  0.49831133  1
  C  C20  1  0.00812728  0.01912906  0.99826275  1
  C  C21  1  0.50667088  0.99519405  0.00166116  1
  C  C22  1  0.33473428  0.33453653  0.83457504  1
  C  C23  1  0.83343138  0.33232656  0.83411504  1
  C  C24  1  0.33438328  0.33818561  0.33408598  1
  C  C25  1  0.83328493  0.33350703  0.33354141  1
  C  C26  1  0.17794282  0.65460115  0.16713076  1
  C  C27  1  0.66450153  0.66337176  0.16543739  1
  C  C28  1  0.16781822  0.66667691  0.66571727  1
  C  C29  1  0.66612125  0.66598391  0.66551030  1
  Ni  Ni30  1  0.99910159  0.00206334  0.34761310  1
  Ni  Ni31  1  0.49706356  0.99756552  0.35292866  1
  Ni  Ni32  1  0.99945967  0.00347141  0.85029103  1
  Ni  Ni33  1  0.49938159  0.00369511  0.85048638  1
  Ni  Ni34  1  0.99766397  0.99658230  0.64970249  1
  Ni  Ni35  1  0.49744895  0.99644636  0.64948415  1
  Ni  Ni36  1  0.99852469  0.00663021  0.15244003  1
  Ni  Ni37  1  0.49626513  0.99698439  0.14694665  1
  Ni  Ni38  1  0.33476731  0.33207636  0.68152732  1
  Ni  Ni39  1  0.83387694  0.32997532  0.68159279  1
  Ni  Ni40  1  0.33163913  0.33220482  0.18252844  1
  Ni  Ni41  1  0.83410285  0.33764312  0.18254286  1
  Ni  Ni42  1  0.33582504  0.34281463  0.98424032  1
  Ni  Ni43  1  0.83163968  0.33491727  0.98293228  1
  Ni  Ni44  1  0.33835912  0.34371056  0.48192413  1
  Ni  Ni45  1  0.83108531  0.32708991  0.48382525  1
  Ni  Ni46  1  0.16798364  0.65994125  0.01662349  1
  Ni  Ni47  1  0.66079233  0.66512987  0.01791961  1
  Ni  Ni48  1  0.16626791  0.65698826  0.51690497  1
  Ni  Ni49  1  0.66126483  0.66114056  0.51579735  1
  Ni  Ni50  1  0.17139262  0.66580534  0.31670021  1
  Ni  Ni51  1  0.66726857  0.66517987  0.31809581  1
  Ni  Ni52  1  0.16895311  0.66823447  0.81846135  1
  Ni  Ni53  1  0.66796992  0.66847458  0.81842348  1
  Cu  Cu54  1  0.84926511  0.69927326  0.25017638  1
  Cu  Cu55  1  0.34937565  0.99995846  0.74999997  1
  Cu  Cu56  1  0.84944805  0.99956607  0.75004162  1
  C  C57  1  0.15111964  0.00266597  0.25023236  1
  C  C58  1  0.64403626  0.99850343  0.24976317  1
  C  C59  1  0.35280568  0.70600238  0.24981035  1
  C  C60  1  0.00346661  0.30039659  0.24976727  1
  C  C61  1  0.49606050  0.28717421  0.25025482  1
  C  C62  1  0.14607811  0.29177728  0.74965923  1
  C  C63  1  0.64630087  0.29230683  0.74962695  1
  C  C64  1  0.00004065  0.70815615  0.75030954  1
  C  C65  1  0.50015300  0.70810588  0.75032222  1
  C  C66  1  0.48334739  0.33671481  0.58343094  1
  C  C67  1  0.98334939  0.33765826  0.58333387  1
  C  C68  1  0.18311234  0.03575631  0.58153140  1
  C  C69  1  0.68294809  0.03528484  0.58334846  1
  C  C70  1  0.33366811  0.62824756  0.58337486  1
  C  C71  1  0.83375035  0.62925045  0.58159429  1
  C  C72  1  0.48213878  0.63101972  0.08545466  1
  C  C73  1  0.98359919  0.62874408  0.08315736  1
  C  C74  1  0.33368269  0.03797793  0.08129569  1
  C  C75  1  0.83399856  0.03921434  0.08196230  1
  C  C76  1  0.18568590  0.33317385  0.08375523  1
  C  C77  1  0.68364223  0.33101988  0.08321521  1
  C  C78  1  0.31537224  0.66305516  0.91641603  1
  C  C79  1  0.81491952  0.66355361  0.91849460  1
  C  C80  1  0.01910967  0.37197460  0.91683559  1
  C  C81  1  0.51934889  0.37135332  0.91669151  1
  C  C82  1  0.16524095  0.96437385  0.91832041  1
  C  C83  1  0.66538061  0.96398432  0.91669604  1
  C  C84  1  0.31470030  0.96179506  0.41870640  1
  C  C85  1  0.81522489  0.96738222  0.41799275  1
  C  C86  1  0.16651150  0.36910389  0.41622932  1
  C  C87  1  0.66573264  0.36713491  0.41695196  1
  C  C88  1  0.01976277  0.66491097  0.41663448  1
  C  C89  1  0.51828951  0.66737300  0.41465728  1
  C  C90  1  0.11051518  0.02478532  0.30565873  1
  C  C91  1  0.60627249  0.03395227  0.30343080  1
  C  C92  1  0.40808866  0.78879508  0.30336860  1
  C  C93  1  0.90976138  0.78554070  0.31029178  1
  C  C94  1  0.48695464  0.18635253  0.30491868  1
  C  C95  1  0.99111510  0.19365433  0.30374692  1
  C  C96  1  0.10995232  0.17965049  0.80335244  1
  C  C97  1  0.61040875  0.18003503  0.80329132  1
  C  C98  1  0.48889161  0.79049552  0.80451487  1
  C  C99  1  0.98854330  0.79016008  0.80452762  1
  C  C100  1  0.41014898  0.03588785  0.80984836  1
  C  C101  1  0.91015980  0.03511205  0.80992185  1
  C  C102  1  0.39212122  0.96382158  0.69015817  1
  C  C103  1  0.89234763  0.96376874  0.69014910  1
  C  C104  1  0.09341387  0.20960758  0.69547066  1
  C  C105  1  0.59369838  0.21030768  0.69548456  1
  C  C106  1  0.02003454  0.82033545  0.69657616  1
  C  C107  1  0.51976451  0.81991470  0.69661173  1
  C  C108  1  0.39340099  0.80900934  0.19514884  1
  C  C109  1  0.89316533  0.82044052  0.19014480  1
  C  C110  1  0.01803673  0.22459283  0.19514090  1
  C  C111  1  0.51100699  0.20786577  0.19637215  1
  C  C112  1  0.09647546  0.97791329  0.19591010  1
  C  C113  1  0.59085264  0.97419099  0.19577568  1
  C  C114  1  0.44478097  0.35677250  0.64043659  1
  C  C115  1  0.94443737  0.35645643  0.64026131  1
  C  C116  1  0.23748367  0.12131222  0.63588661  1
  C  C117  1  0.73567656  0.11521458  0.63903708  1
  C  C118  1  0.32495549  0.53243740  0.64038614  1
  C  C119  1  0.82562655  0.52929200  0.63722367  1
  C  C120  1  0.44236929  0.53206445  0.14213905  1
  C  C121  1  0.94462343  0.53260634  0.13972975  1
  C  C122  1  0.31966997  0.12563794  0.13341352  1
  C  C123  1  0.82570468  0.12257712  0.13764190  1
  C  C124  1  0.23705422  0.35494758  0.13849933  1
  C  C125  1  0.73613948  0.35586886  0.13893633  1
  C  C126  1  0.22677342  0.30382050  0.03019861  1
  C  C127  1  0.72798306  0.31139337  0.03030988  1
  C  C128  1  0.42787040  0.54046713  0.03271809  1
  C  C129  1  0.92649887  0.54022294  0.03130581  1
  C  C130  1  0.34243784  0.13525139  0.02476309  1
  C  C131  1  0.84018579  0.14012973  0.02740935  1
  C  C132  1  0.22507138  0.13810190  0.52630747  1
  C  C133  1  0.72723350  0.14339503  0.53042418  1
  C  C134  1  0.33888488  0.53462651  0.53081578  1
  C  C135  1  0.83979760  0.54076380  0.52696292  1
  C  C136  1  0.42489673  0.31050729  0.53211408  1
  C  C137  1  0.92533586  0.31207450  0.53174546  1
  C  C138  1  0.27028887  0.69011728  0.96777331  1
  C  C139  1  0.77159629  0.68739654  0.97205175  1
  C  C140  1  0.07143336  0.46484317  0.96941849  1
  C  C141  1  0.57215538  0.46433552  0.96911632  1
  C  C142  1  0.15599415  0.86202038  0.97364170  1
  C  C143  1  0.65679293  0.85735292  0.96981336  1
  C  C144  1  0.27480002  0.86263357  0.47494765  1
  C  C145  1  0.77232984  0.85691329  0.47180926  1
  C  C146  1  0.15615868  0.45053533  0.47098786  1
  C  C147  1  0.65714856  0.45723312  0.46993398  1
  C  C148  1  0.07559223  0.68469856  0.46849633  1
  C  C149  1  0.57271086  0.68697802  0.46746390  1
  C  C150  1  0.05800444  0.64685072  0.35961300  1
  C  C151  1  0.55835113  0.64783384  0.35814509  1
  C  C152  1  0.25676972  0.87445111  0.36650481  1
  C  C153  1  0.76456074  0.88435588  0.36239211  1
  C  C154  1  0.17590731  0.47218294  0.36208941  1
  C  C155  1  0.67828377  0.47140814  0.36106080  1
  C  C156  1  0.05833118  0.46744689  0.85985139  1
  C  C157  1  0.55843492  0.46734916  0.85967528  1
  C  C158  1  0.17643618  0.87786108  0.86412180  1
  C  C159  1  0.67761674  0.88368640  0.86095299  1
  C  C160  1  0.26639355  0.64264944  0.85957483  1
  C  C161  1  0.76469509  0.64505094  0.86265171  1
  C  C162  1  0.01382757  0.82922340  0.41515306  1
  C  C163  1  0.50920660  0.82505960  0.41081415  1
  C  C164  1  0.40194788  0.98212873  0.41204716  1
  C  C165  1  0.90264022  0.98076143  0.41428552  1
  C  C166  1  0.08885241  0.18810550  0.41158358  1
  C  C167  1  0.58868811  0.19108400  0.41228783  1
  C  C168  1  0.00991570  0.19447316  0.91546335  1
  C  C169  1  0.50993096  0.19401267  0.91526701  1
  C  C170  1  0.08814621  0.98570039  0.91265932  1
  C  C171  1  0.58858675  0.98612973  0.91181844  1
  C  C172  1  0.40291017  0.82368630  0.91326991  1
  C  C173  1  0.90243069  0.82533817  0.91485713  1
  C  C174  1  0.49072817  0.17593448  0.58651312  1
  C  C175  1  0.99021722  0.17577162  0.58627427  1
  C  C176  1  0.09540678  0.01474106  0.58730235  1
  C  C177  1  0.59518485  0.01300047  0.58848631  1
  C  C178  1  0.41282872  0.80530526  0.58456414  1
  C  C179  1  0.91317251  0.80633617  0.58355763  1
  C  C180  1  0.49147940  0.80740892  0.08864257  1
  C  C181  1  0.99372370  0.80845541  0.08608439  1
  C  C182  1  0.41084452  0.01803819  0.08786291  1
  C  C183  1  0.91335347  0.02101423  0.08391085  1
  C  C184  1  0.09806411  0.16995815  0.08891518  1
  C  C185  1  0.59565363  0.17740815  0.08827588  1
  C  C186  1  0.33839735  0.17479869  0.74488122  1
  C  C187  1  0.83915674  0.17525487  0.74519553  1
  C  C188  1  0.23700702  0.32660985  0.74281246  1
  C  C189  1  0.73757369  0.32808505  0.74273458  1
  C  C190  1  0.41827853  0.53619475  0.74335906  1
  C  C191  1  0.91806333  0.53667701  0.74295007  1
  C  C192  1  0.34597357  0.52976650  0.24500288  1
  C  C193  1  0.83845859  0.50291102  0.24533781  1
  C  C194  1  0.41923328  0.31243752  0.24452004  1
  C  C195  1  0.92094921  0.30832333  0.24393362  1
  C  C196  1  0.23904898  0.15605343  0.24443202  1
  C  C197  1  0.73492312  0.14784763  0.24328481  1
  C  C198  1  0.32431163  0.50652757  0.92301066  1
  C  C199  1  0.82485245  0.50758666  0.92333216  1
  C  C200  1  0.42917715  0.34607492  0.92066332  1
  C  C201  1  0.92880128  0.34545172  0.92088064  1
  C  C202  1  0.24727741  0.13780068  0.92200226  1
  C  C203  1  0.74757477  0.13813880  0.92135264  1
  C  C204  1  0.32088770  0.13721043  0.42266942  1
  C  C205  1  0.82510917  0.14308281  0.42290942  1
  C  C206  1  0.24423129  0.34475666  0.42058609  1
  C  C207  1  0.74760639  0.35687557  0.42178439  1
  C  C208  1  0.43060947  0.50884192  0.41991462  1
  C  C209  1  0.92949188  0.51405834  0.42217175  1
  C  C210  1  0.17464558  0.48750208  0.07735082  1
  C  C211  1  0.67921091  0.49568113  0.07803747  1
  C  C212  1  0.07258698  0.65360157  0.07736190  1
  C  C213  1  0.57001806  0.64889916  0.08040119  1
  C  C214  1  0.25221132  0.86170583  0.07776685  1
  C  C215  1  0.75659203  0.85860246  0.07884321  1
  C  C216  1  0.17806563  0.86168705  0.57775297  1
  C  C217  1  0.67840942  0.86149396  0.57801981  1
  C  C218  1  0.25621861  0.65417769  0.57977322  1
  C  C219  1  0.75632745  0.65456253  0.57859851  1
  C  C220  1  0.07064160  0.49323495  0.57717663  1
  C  C221  1  0.57066486  0.49323722  0.57720975  1
  C  C222  1  0.15518551  0.83797539  0.25529970  1
  C  C223  1  0.65020496  0.83660925  0.25630540  1
  C  C224  1  0.26456413  0.68383423  0.25589836  1
  C  C225  1  0.75182475  0.68043624  0.25491894  1
  C  C226  1  0.07663729  0.48316444  0.25587011  1
  C  C227  1  0.57487918  0.46739439  0.25515690  1
  C  C228  1  0.14994176  0.46359955  0.75683168  1
  C  C229  1  0.65049154  0.46433195  0.75696455  1
  C  C230  1  0.07358281  0.67300291  0.75715663  1
  C  C231  1  0.57375434  0.67296120  0.75688001  1
  C  C232  1  0.25104547  0.82505718  0.75508892  1
  C  C233  1  0.75158680  0.82396500  0.75508132  1
