# generated using pymatgen
data_Cu2NiC7
_symmetry_space_group_name_H-M   'P 1'
_cell_length_a   3.28486800
_cell_length_b   3.28485959
_cell_length_c   37.31430200
_cell_angle_alpha   90.00030691
_cell_angle_beta   90.00000768
_cell_angle_gamma   120.00006457
_symmetry_Int_Tables_number   1
_chemical_formula_structural   Cu2NiC7
_chemical_formula_sum   'Cu2 Ni1 C7'
_cell_volume   348.69073179
_cell_formula_units_Z   1
loop_
 _symmetry_equiv_pos_site_id
 _symmetry_equiv_pos_as_xyz
  1  'x, y, z'
loop_
 _atom_site_type_symbol
 _atom_site_label
 _atom_site_symmetry_multiplicity
 _atom_site_fract_x
 _atom_site_fract_y
 _atom_site_fract_z
 _atom_site_occupancy
  C  C0  1  0.99997100  0.99994100  0.24136400  1
  Ni  Ni1  1  0.66671900  0.33344000  0.35400100  1
  Cu  Cu2  1  0.33316400  0.66632900  0.10709800  1
  Cu  Cu3  1  0.33344200  0.66688400  0.57867700  1
  C  C4  1  0.66652600  0.33305200  0.06162200  1
  C  C5  1  0.66674800  0.33349600  0.53318800  1
  C  C6  1  0.66646600  0.33293200  0.15276100  1
  C  C7  1  0.66679500  0.33359100  0.62414600  1
  C  C8  1  0.33340200  0.66680500  0.39476200  1
  C  C9  1  0.33336600  0.66673300  0.31272100  1
