# generated using pymatgen
data_CuNiC4
_symmetry_space_group_name_H-M   'P 1'
_cell_length_a   7.34799425
_cell_length_b   7.34799425
_cell_length_c   7.34799425
_cell_angle_alpha   127.43262427
_cell_angle_beta   127.43262427
_cell_angle_gamma   77.54597419
_symmetry_Int_Tables_number   1
_chemical_formula_structural   CuNiC4
_chemical_formula_sum   'Cu1 Ni1 C4'
_cell_volume   242.60697985
_cell_formula_units_Z   1
loop_
 _symmetry_equiv_pos_site_id
 _symmetry_equiv_pos_as_xyz
  1  'x, y, z'
loop_
 _atom_site_type_symbol
 _atom_site_label
 _atom_site_symmetry_multiplicity
 _atom_site_fract_x
 _atom_site_fract_y
 _atom_site_fract_z
 _atom_site_occupancy
  Ni  Ni0  1  0.25000000  0.75000000  0.50000000  1
  Cu  Cu1  1  0.50000000  0.50000000  0.00000000  1
  C  C2  1  0.60339200  0.12195800  0.96993800  1
  C  C3  1  0.87804200  0.84798000  0.48143400  1
  C  C4  1  0.36654600  0.39660800  0.51856600  1
  C  C5  1  0.15202000  0.63345400  0.03006200  1
