# generated using pymatgen
data_CuNi2C27
_symmetry_space_group_name_H-M   'P 1'
_cell_length_a   8.96438851
_cell_length_b   26.82273174
_cell_length_c   22.05525983
_cell_angle_alpha   89.99934929
_cell_angle_beta   90.00059797
_cell_angle_gamma   120.09151599
_symmetry_Int_Tables_number   1
_chemical_formula_structural   CuNi2C27
_chemical_formula_sum   'Cu12 Ni24 C324'
_cell_volume   4588.44205427
_cell_formula_units_Z   12
loop_
 _symmetry_equiv_pos_site_id
 _symmetry_equiv_pos_as_xyz
  1  'x, y, z'
loop_
 _atom_site_type_symbol
 _atom_site_label
 _atom_site_symmetry_multiplicity
 _atom_site_fract_x
 _atom_site_fract_y
 _atom_site_fract_z
 _atom_site_occupancy
  C  C0  1  0.02779018  0.00482384  0.49264195  1
  C  C1  1  0.01040921  0.33073338  0.49306922  1
  C  C2  1  0.98292934  0.66980840  0.50561432  1
  C  C3  1  0.99708879  0.00423390  0.99587986  1
  C  C4  1  0.01817230  0.33807341  0.00776839  1
  C  C5  1  0.99711830  0.66092039  0.00940905  1
  C  C6  1  0.65023112  0.10548210  0.82996836  1
  C  C7  1  0.68253055  0.44981263  0.83668601  1
  C  C8  1  0.66752029  0.77812769  0.83317665  1
  C  C9  1  0.65250254  0.10214919  0.32287162  1
  C  C10  1  0.67832352  0.45224945  0.34351098  1
  C  C11  1  0.69703661  0.78404831  0.33206184  1
  C  C12  1  0.32215801  0.22398105  0.17361097  1
  C  C13  1  0.30562063  0.54982776  0.17342345  1
  C  C14  1  0.33739180  0.89299594  0.16069739  1
  C  C15  1  0.31469844  0.21702673  0.65884369  1
  C  C16  1  0.33664654  0.55159312  0.67147414  1
  C  C17  1  0.33435056  0.89435751  0.65672505  1
  C  C18  1  0.64826984  0.32871327  0.26496454  1
  C  C19  1  0.62193517  0.66529203  0.24478439  1
  C  C20  1  0.37261107  0.12371535  0.25615408  1
  C  C21  1  0.34415308  0.45065640  0.25859872  1
  C  C22  1  0.36145583  0.78558599  0.23613527  1
  C  C23  1  0.99604558  0.21257586  0.24768898  1
  C  C24  1  0.62647970  0.20897106  0.74878436  1
  C  C25  1  0.62553681  0.54288384  0.74451371  1
  C  C26  1  0.64336042  0.87580363  0.74146400  1
  C  C27  1  0.99979216  0.12564989  0.74935919  1
  C  C28  1  0.99559599  0.45585533  0.75672423  1
  C  C29  1  0.38019495  0.33385405  0.74891849  1
  C  C30  1  0.37712965  0.66662454  0.74617798  1
  C  C31  1  0.30185971  0.77875365  0.58218180  1
  C  C32  1  0.01275065  0.56541568  0.58881284  1
  C  C33  1  0.01464672  0.88963371  0.57314064  1
  C  C34  1  0.65391953  0.32294731  0.56937920  1
  C  C35  1  0.68357157  0.66711427  0.59257978  1
  C  C36  1  0.31886305  0.66595564  0.09381292  1
  C  C37  1  0.32107638  0.99113825  0.07767472  1
  C  C38  1  0.67854994  0.23199980  0.09759596  1
  C  C39  1  0.65075945  0.89022319  0.07403744  1
  C  C40  1  0.03140772  0.77776907  0.08374884  1
  C  C41  1  0.95304484  0.22157226  0.91798824  1
  C  C42  1  0.95670541  0.88945031  0.92030151  1
  C  C43  1  0.70784901  0.01259097  0.92227586  1
  C  C44  1  0.70646547  0.34642589  0.91787825  1
  C  C45  1  0.68992782  0.68010058  0.92481458  1
  C  C46  1  0.33770006  0.09959061  0.91026450  1
  C  C47  1  0.33332822  0.42966976  0.91716613  1
  C  C48  1  0.98770631  0.10412020  0.40766022  1
  C  C49  1  0.95976785  0.43127663  0.41089304  1
  C  C50  1  0.33637972  0.34217038  0.41909495  1
  C  C51  1  0.35299751  0.68220830  0.42192906  1
  C  C52  1  0.68446195  0.22636978  0.40160425  1
  C  C53  1  0.70753073  0.88947927  0.42027018  1
  Ni  Ni54  1  0.00495276  0.00001573  0.35295073  1
  Ni  Ni55  1  0.99920043  0.33436931  0.34862281  1
  Ni  Ni56  1  0.00387647  0.00121791  0.85202614  1
  Ni  Ni57  1  0.99939294  0.33323466  0.85517572  1
  Ni  Ni58  1  0.00218019  0.66934349  0.64891604  1
  Ni  Ni59  1  0.00656353  0.33411267  0.14832851  1
  Ni  Ni60  1  0.99949975  0.66634946  0.14726288  1
  Ni  Ni61  1  0.65954118  0.10914244  0.68629872  1
  Ni  Ni62  1  0.66333136  0.44570970  0.68287929  1
  Ni  Ni63  1  0.68427657  0.77714773  0.68449992  1
  Ni  Ni64  1  0.67455433  0.11172579  0.18230617  1
  Ni  Ni65  1  0.66508826  0.77878213  0.18476861  1
  Ni  Ni66  1  0.66970766  0.10965661  0.98395964  1
  Ni  Ni67  1  0.67375221  0.44636957  0.98032687  1
  Ni  Ni68  1  0.65215602  0.77945893  0.98206607  1
  Ni  Ni69  1  0.65760583  0.44344370  0.48444380  1
  Ni  Ni70  1  0.68909742  0.77924870  0.48186592  1
  Ni  Ni71  1  0.33165162  0.88633413  0.01819278  1
  Ni  Ni72  1  0.32610251  0.22119642  0.51833335  1
  Ni  Ni73  1  0.33020458  0.88816547  0.51836932  1
  Ni  Ni74  1  0.33356226  0.22077293  0.31807210  1
  Ni  Ni75  1  0.32688427  0.55423262  0.31347465  1
  Ni  Ni76  1  0.33379393  0.22220638  0.81149792  1
  Ni  Ni77  1  0.32957877  0.55446221  0.81482903  1
  Cu  Cu78  1  0.99448648  0.66293526  0.35254370  1
  Cu  Cu79  1  0.99922479  0.66544227  0.85364939  1
  Cu  Cu80  1  0.00306684  0.00162897  0.64604435  1
  Cu  Cu81  1  0.00482081  0.33148090  0.64721906  1
  Cu  Cu82  1  0.99149113  0.99950455  0.15009251  1
  Cu  Cu83  1  0.67259452  0.44531423  0.18285605  1
  Cu  Cu84  1  0.66037896  0.11000314  0.48367979  1
  Cu  Cu85  1  0.32810574  0.22381952  0.01950131  1
  Cu  Cu86  1  0.33032556  0.55388032  0.02045240  1
  Cu  Cu87  1  0.34127589  0.55475820  0.51766398  1
  Cu  Cu88  1  0.33273708  0.89409076  0.31468193  1
  Cu  Cu89  1  0.33418829  0.89027910  0.81294472  1
  C  C90  1  0.29110942  0.00051674  0.24925027  1
  C  C91  1  0.29617932  0.33411908  0.25174379  1
  C  C92  1  0.29423336  0.66476298  0.24810887  1
  C  C93  1  0.70292920  0.23341553  0.24843450  1
  C  C94  1  0.70493223  0.56874075  0.24673456  1
  C  C95  1  0.70125807  0.90080541  0.25559428  1
  C  C96  1  0.99659686  0.09851073  0.25577223  1
  C  C97  1  0.00010787  0.43174282  0.24960377  1
  C  C98  1  0.99856144  0.76446729  0.24894245  1
  C  C99  1  0.29587649  0.09863825  0.75373256  1
  C  C100  1  0.29547104  0.43011894  0.75433486  1
  C  C101  1  0.29455708  0.76466800  0.74917446  1
  C  C102  1  0.99521583  0.23392143  0.75572126  1
  C  C103  1  0.00217873  0.56890001  0.74653539  1
  C  C104  1  0.00322839  0.90274644  0.75179757  1
  C  C105  1  0.71033523  0.00098888  0.75480219  1
  C  C106  1  0.70983813  0.33454436  0.75126087  1
  C  C107  1  0.70322468  0.66620760  0.74902071  1
  C  C108  1  0.95920359  0.11190184  0.58820031  1
  C  C109  1  0.96193858  0.44462749  0.58407615  1
  C  C110  1  0.96984067  0.77784429  0.58382546  1
  C  C111  1  0.37062943  0.01241417  0.58802918  1
  C  C112  1  0.37251311  0.34456939  0.58386744  1
  C  C113  1  0.37429709  0.68020549  0.58167449  1
  C  C114  1  0.66372287  0.20900481  0.58864700  1
  C  C115  1  0.66914013  0.54343113  0.58564001  1
  C  C116  1  0.66383419  0.87439286  0.58505504  1
  C  C117  1  0.96072087  0.21088102  0.08284053  1
  C  C118  1  0.96295279  0.54313304  0.07874288  1
  C  C119  1  0.95866853  0.87528258  0.08169526  1
  C  C120  1  0.66519403  0.01208533  0.08113473  1
  C  C121  1  0.66937780  0.34642993  0.07785288  1
  C  C122  1  0.66879934  0.68111941  0.08172637  1
  C  C123  1  0.36929880  0.11044597  0.08255481  1
  C  C124  1  0.37424339  0.44369785  0.07846344  1
  C  C125  1  0.36456827  0.77766979  0.08579087  1
  C  C126  1  0.62360655  0.22107560  0.91546046  1
  C  C127  1  0.62331784  0.55457983  0.91193260  1
  C  C128  1  0.62911097  0.88907636  0.91773836  1
  C  C129  1  0.03760953  0.12538320  0.91233777  1
  C  C130  1  0.03726217  0.45686357  0.91294678  1
  C  C131  1  0.03971461  0.79092517  0.91774502  1
  C  C132  1  0.33821967  0.32157103  0.91106235  1
  C  C133  1  0.32974638  0.65295872  0.91528006  1
  C  C134  1  0.33145247  0.98675396  0.92004847  1
  C  C135  1  0.63017949  0.32209182  0.41817855  1
  C  C136  1  0.63012903  0.65390823  0.41193834  1
  C  C137  1  0.62762458  0.98668380  0.42016117  1
  C  C138  1  0.33304444  0.12376341  0.41706910  1
  C  C139  1  0.33582331  0.45643771  0.41087913  1
  C  C140  1  0.33382873  0.79173032  0.41599728  1
  C  C141  1  0.03714997  0.22140706  0.41490501  1
  C  C142  1  0.04180329  0.55546008  0.41727672  1
  C  C143  1  0.03647535  0.88993386  0.42095698  1
  C  C144  1  0.19934374  0.00626124  0.30354940  1
  C  C145  1  0.23600350  0.35017603  0.31053918  1
  C  C146  1  0.17945118  0.66437814  0.30533420  1
  C  C147  1  0.81258477  0.26487084  0.30508533  1
  C  C148  1  0.81371165  0.59737585  0.30740889  1
  C  C149  1  0.79707617  0.93067891  0.31280594  1
  C  C150  1  0.98770393  0.06702896  0.31414388  1
  C  C151  1  0.95886746  0.39788293  0.30963448  1
  C  C152  1  0.98559488  0.72153557  0.30217122  1
  C  C153  1  0.20980540  0.06708812  0.81219790  1
  C  C154  1  0.21228866  0.39699758  0.81242266  1
  C  C155  1  0.18114702  0.72532020  0.80381679  1
  C  C156  1  0.97828232  0.26278728  0.81268820  1
  C  C157  1  0.99481947  0.60539402  0.80355437  1
  C  C158  1  0.98700883  0.93226562  0.80824027  1
  C  C159  1  0.80500252  0.00535839  0.81333072  1
  C  C160  1  0.81633368  0.34159011  0.80822701  1
  C  C161  1  0.81449735  0.66686092  0.80687898  1
  C  C162  1  0.81155706  0.33018020  0.69358900  1
  C  C163  1  0.79348594  0.66105983  0.69280554  1
  C  C164  1  0.80871688  0.99136631  0.70027841  1
  C  C165  1  0.17161028  0.06038226  0.69871931  1
  C  C166  1  0.17606238  0.39246996  0.69887130  1
  C  C167  1  0.20124403  0.73961628  0.69003255  1
  C  C168  1  0.99660387  0.27230430  0.69897871  1
  C  C169  1  0.01804385  0.60403607  0.68994809  1
  C  C170  1  0.02636952  0.94030425  0.69340545  1
  C  C171  1  0.78936121  0.26824049  0.19087639  1
  C  C172  1  0.80028918  0.60840854  0.19489462  1
  C  C173  1  0.80068274  0.93875190  0.19759196  1
  C  C174  1  0.00607656  0.05854612  0.20210690  1
  C  C175  1  0.01768090  0.39916729  0.19688289  1
  C  C176  1  0.03979925  0.74290636  0.19105480  1
  C  C177  1  0.18202539  0.32599146  0.19795725  1
  C  C178  1  0.19692568  0.66422832  0.19143795  1
  C  C179  1  0.17858966  0.99119574  0.19023792  1
  C  C180  1  0.87553352  0.11614072  0.64613479  1
  C  C181  1  0.89586801  0.46011889  0.64098451  1
  C  C182  1  0.88197712  0.78476071  0.64027250  1
  C  C183  1  0.46995855  0.04151916  0.64433433  1
  C  C184  1  0.48155867  0.37610605  0.63965800  1
  C  C185  1  0.48070219  0.70414550  0.64012142  1
  C  C186  1  0.65834065  0.17806185  0.64648843  1
  C  C187  1  0.64150713  0.51367857  0.64708928  1
  C  C188  1  0.64332794  0.83807521  0.64185396  1
  C  C189  1  0.89043285  0.17762292  0.14205027  1
  C  C190  1  0.86527209  0.50474863  0.13616475  1
  C  C191  1  0.86317739  0.83534483  0.13422849  1
  C  C192  1  0.64075212  0.04468175  0.13244660  1
  C  C193  1  0.65117206  0.38089848  0.13406984  1
  C  C194  1  0.62749265  0.70407105  0.13961803  1
  C  C195  1  0.48303777  0.12311447  0.13831662  1
  C  C196  1  0.49698934  0.45326610  0.13509676  1
  C  C197  1  0.46708767  0.78381980  0.14460864  1
  C  C198  1  0.43640901  0.09524610  0.02549875  1
  C  C199  1  0.45814875  0.43958817  0.02073066  1
  C  C200  1  0.46354626  0.77269474  0.03178039  1
  C  C201  1  0.85196927  0.17952822  0.02688815  1
  C  C202  1  0.86349055  0.51423594  0.02245574  1
  C  C203  1  0.85977965  0.85463621  0.02124127  1
  C  C204  1  0.69395450  0.04203733  0.01965560  1
  C  C205  1  0.67548416  0.37758521  0.02024675  1
  C  C206  1  0.69057138  0.71759976  0.02497514  1
  C  C207  1  0.46837254  0.05096665  0.53068484  1
  C  C208  1  0.44235352  0.37783678  0.52457005  1
  C  C209  1  0.46229407  0.71606653  0.52493948  1
  C  C210  1  0.68256199  0.17483382  0.53249937  1
  C  C211  1  0.69259348  0.51078594  0.53411929  1
  C  C212  1  0.70399754  0.85080021  0.52731704  1
  C  C213  1  0.83630638  0.10235833  0.53170921  1
  C  C214  1  0.84939230  0.43237382  0.52808966  1
  C  C215  1  0.85641198  0.76787519  0.52767281  1
  C  C216  1  0.52197974  0.22548333  0.97304915  1
  C  C217  1  0.52455209  0.56416628  0.96646497  1
  C  C218  1  0.53857608  0.89371641  0.97412531  1
  C  C219  1  0.15714249  0.16312049  0.96769098  1
  C  C220  1  0.16169766  0.49520832  0.96797372  1
  C  C221  1  0.13321898  0.81540647  0.97701508  1
  C  C222  1  0.33664072  0.28322908  0.96768054  1
  C  C223  1  0.30649943  0.61519188  0.97354353  1
  C  C224  1  0.31649898  0.95159422  0.97639560  1
  C  C225  1  0.54341836  0.28743336  0.47584602  1
  C  C226  1  0.53429922  0.61617326  0.47055372  1
  C  C227  1  0.53081051  0.94733438  0.47214970  1
  C  C228  1  0.31581768  0.15643774  0.46981692  1
  C  C229  1  0.32556146  0.49623958  0.46472420  1
  C  C230  1  0.30889540  0.81480457  0.47537433  1
  C  C231  1  0.15201468  0.23009282  0.46869589  1
  C  C232  1  0.15943419  0.56577557  0.47536736  1
  C  C233  1  0.13376139  0.89251392  0.47810204  1
  C  C234  1  0.09779584  0.20553688  0.35616067  1
  C  C235  1  0.13440875  0.55078556  0.36263235  1
  C  C236  1  0.15623835  0.89098505  0.36486852  1
  C  C237  1  0.52005578  0.29074751  0.36153715  1
  C  C238  1  0.52740287  0.62383128  0.35579296  1
  C  C239  1  0.51891216  0.95794101  0.35955032  1
  C  C240  1  0.37530009  0.15790734  0.35719943  1
  C  C241  1  0.34509197  0.48802888  0.35252698  1
  C  C242  1  0.34593002  0.83261990  0.36189285  1
  C  C243  1  0.12088139  0.15854232  0.85420070  1
  C  C244  1  0.12360495  0.48861674  0.85453311  1
  C  C245  1  0.15253393  0.83030476  0.86315890  1
  C  C246  1  0.35536957  0.29283900  0.85392325  1
  C  C247  1  0.34746046  0.62366387  0.85881595  1
  C  C248  1  0.33853180  0.95030361  0.86286351  1
  C  C249  1  0.51743289  0.21418415  0.85840280  1
  C  C250  1  0.52828035  0.55022735  0.85338943  1
  C  C251  1  0.51835173  0.88878077  0.85991441  1
  C  C252  1  0.00934414  0.27357599  0.40883037  1
  C  C253  1  0.03084073  0.61305293  0.41439428  1
  C  C254  1  0.01384778  0.94271195  0.41472967  1
  C  C255  1  0.81258571  0.32810757  0.41397555  1
  C  C256  1  0.81257905  0.65807034  0.41129085  1
  C  C257  1  0.81004733  0.99631676  0.41442782  1
  C  C258  1  0.17631750  0.06311308  0.41340605  1
  C  C259  1  0.16620897  0.39844550  0.41725223  1
  C  C260  1  0.17215395  0.72905416  0.40445279  1
  C  C261  1  0.03051324  0.06688604  0.91772582  1
  C  C262  1  0.03274656  0.39867791  0.91961299  1
  C  C263  1  0.01455954  0.72876828  0.90794584  1
  C  C264  1  0.16853655  0.32239820  0.91729114  1
  C  C265  1  0.16102571  0.65822649  0.91167532  1
  C  C266  1  0.16935088  0.99232316  0.91477929  1
  C  C267  1  0.80068517  0.27678786  0.91730999  1
  C  C268  1  0.80640145  0.61239162  0.91238594  1
  C  C269  1  0.80892293  0.94437398  0.91413694  1
  C  C270  1  0.96856253  0.05362902  0.59168409  1
  C  C271  1  0.98653189  0.39097014  0.59328261  1
  C  C272  1  0.99239865  0.72397122  0.58796035  1
  C  C273  1  0.18692664  0.00957343  0.58811770  1
  C  C274  1  0.18396093  0.33747123  0.59288697  1
  C  C275  1  0.18864406  0.66954671  0.58525261  1
  C  C276  1  0.83495308  0.27130058  0.58703518  1
  C  C277  1  0.81987865  0.60635940  0.58562606  1
  C  C278  1  0.83528905  0.93644184  0.59460866  1
  C  C279  1  0.98638397  0.27192958  0.08461022  1
  C  C280  1  0.00496142  0.60494039  0.08754919  1
  C  C281  1  0.97470621  0.93753583  0.09218711  1
  C  C282  1  0.83074832  0.00424873  0.09218936  1
  C  C283  1  0.81928832  0.33587577  0.08664937  1
  C  C284  1  0.82568549  0.67285468  0.08689978  1
  C  C285  1  0.18162454  0.05702540  0.09358747  1
  C  C286  1  0.19429618  0.39437413  0.08921959  1
  C  C287  1  0.18199840  0.72323005  0.08633127  1
  C  C288  1  0.68936860  0.05320445  0.74639066  1
  C  C289  1  0.69289812  0.38879042  0.74433383  1
  C  C290  1  0.68399599  0.71966161  0.75300211  1
  C  C291  1  0.47651736  0.10678038  0.74787288  1
  C  C292  1  0.47536430  0.43684707  0.74730798  1
  C  C293  1  0.47224261  0.76979261  0.75385252  1
  C  C294  1  0.83639992  0.17342724  0.75015555  1
  C  C295  1  0.83578992  0.51050670  0.75087856  1
  C  C296  1  0.84341425  0.84313424  0.74554079  1
  C  C297  1  0.68334017  0.17222762  0.24744487  1
  C  C298  1  0.68904166  0.50752706  0.24250654  1
  C  C299  1  0.67295455  0.84028882  0.24774565  1
  C  C300  1  0.83951322  0.10536406  0.24633929  1
  C  C301  1  0.83177458  0.43795055  0.23870971  1
  C  C302  1  0.83153158  0.76585694  0.24991867  1
  C  C303  1  0.46947716  0.05272563  0.24102363  1
  C  C304  1  0.48632576  0.38995463  0.23967704  1
  C  C305  1  0.46912776  0.72112563  0.25474610  1
  C  C306  1  0.64055043  0.16682725  0.92234648  1
  C  C307  1  0.64396700  0.50238063  0.92032449  1
  C  C308  1  0.64706973  0.83536435  0.91339374  1
  C  C309  1  0.85786396  0.11873913  0.91938474  1
  C  C310  1  0.85684804  0.44878278  0.91883471  1
  C  C311  1  0.86148276  0.78551226  0.91304158  1
  C  C312  1  0.49797446  0.04518899  0.91569740  1
  C  C313  1  0.49701174  0.38213027  0.91658459  1
  C  C314  1  0.48855754  0.71270590  0.92215634  1
  C  C315  1  0.64371735  0.04801450  0.42405301  1
  C  C316  1  0.65049133  0.38341574  0.41912998  1
  C  C317  1  0.64877358  0.71316662  0.41950615  1
  C  C318  1  0.50166815  0.11769009  0.42805420  1
  C  C319  1  0.49356510  0.45001456  0.42040737  1
  C  C320  1  0.49481071  0.78572263  0.41230107  1
  C  C321  1  0.84754991  0.16565673  0.42709273  1
  C  C322  1  0.86438444  0.50302644  0.42576421  1
  C  C323  1  0.86039002  0.83477552  0.41461312  1
  C  C324  1  0.34561169  0.16435544  0.07318401  1
  C  C325  1  0.36482075  0.50201416  0.07517808  1
  C  C326  1  0.34430135  0.83203793  0.08224789  1
  C  C327  1  0.14927322  0.21808665  0.07384720  1
  C  C328  1  0.14665379  0.54601837  0.07869633  1
  C  C329  1  0.14550757  0.88666542  0.07954666  1
  C  C330  1  0.49834479  0.28433201  0.07969090  1
  C  C331  1  0.49796100  0.61903680  0.07209751  1
  C  C332  1  0.51220443  0.94944741  0.08060989  1
  C  C333  1  0.34691229  0.28362274  0.58215332  1
  C  C334  1  0.35663718  0.61721687  0.57480678  1
  C  C335  1  0.32921049  0.95072105  0.57937941  1
  C  C336  1  0.51418370  0.21966888  0.58010538  1
  C  C337  1  0.50084668  0.55011163  0.57502344  1
  C  C338  1  0.50758463  0.88286449  0.58017059  1
  C  C339  1  0.13893525  0.16117670  0.57747907  1
  C  C340  1  0.14985483  0.49815776  0.57269404  1
  C  C341  1  0.15145888  0.83229246  0.57962165  1
  C  C342  1  0.32374851  0.28193450  0.25766456  1
  C  C343  1  0.31890315  0.61242243  0.25194660  1
  C  C344  1  0.30722970  0.94410742  0.25331113  1
  C  C345  1  0.52018237  0.22725283  0.25266711  1
  C  C346  1  0.52245452  0.55919894  0.25266699  1
  C  C347  1  0.51555547  0.89567119  0.25429498  1
  C  C348  1  0.16646580  0.15659520  0.24931363  1
  C  C349  1  0.15685834  0.49241949  0.25309837  1
  C  C350  1  0.16039724  0.82518553  0.26302149  1
  C  C351  1  0.30078319  0.15694506  0.74706750  1
  C  C352  1  0.30270093  0.48867152  0.74902896  1
  C  C353  1  0.31912984  0.82668382  0.75881445  1
  C  C354  1  0.16499972  0.23321290  0.74932525  1
  C  C355  1  0.16441273  0.56339760  0.75199135  1
  C  C356  1  0.17142478  0.89708287  0.75519559  1
  C  C357  1  0.53289929  0.27884298  0.74939104  1
  C  C358  1  0.52338156  0.61091180  0.75269030  1
  C  C359  1  0.52686141  0.94320769  0.75440697  1
