# generated using pymatgen
data_Cu(NiC2)2
_symmetry_space_group_name_H-M   'P 1'
_cell_length_a   6.02496673
_cell_length_b   6.02470855
_cell_length_c   6.02524808
_cell_angle_alpha   120.00046320
_cell_angle_beta   90.02829368
_cell_angle_gamma   119.99665421
_symmetry_Int_Tables_number   1
_chemical_formula_structural   Cu(NiC2)2
_chemical_formula_sum   'Cu2 Ni4 C8'
_cell_volume   154.61876736
_cell_formula_units_Z   2
loop_
 _symmetry_equiv_pos_site_id
 _symmetry_equiv_pos_as_xyz
  1  'x, y, z'
loop_
 _atom_site_type_symbol
 _atom_site_label
 _atom_site_symmetry_multiplicity
 _atom_site_fract_x
 _atom_site_fract_y
 _atom_site_fract_z
 _atom_site_occupancy
  Ni  Ni0  1  0.00002200  0.49997600  0.00000500  1
  Ni  Ni1  1  0.49997900  0.00003100  0.50004100  1
  Ni  Ni2  1  0.00001600  0.50002900  0.49999500  1
  Ni  Ni3  1  0.00001800  0.00002400  0.50005600  1
  Cu  Cu4  1  0.62506200  0.75007000  0.87510100  1
  Cu  Cu5  1  0.37500200  0.25001300  0.12498200  1
  C  C6  1  0.25899600  0.50598300  0.75294900  1
  C  C7  1  0.25300600  0.00603200  0.75902900  1
  C  C8  1  0.25301400  0.00599500  0.24701200  1
  C  C9  1  0.25298600  0.49393300  0.24695600  1
  C  C10  1  0.74699300  0.99395000  0.75295300  1
  C  C11  1  0.74699600  0.50604000  0.75296000  1
  C  C12  1  0.74089500  0.49393600  0.24701900  1
  C  C13  1  0.74701500  0.99398900  0.24094100  1
