# generated using pymatgen
data_Cu4NiC14
_symmetry_space_group_name_H-M   'P 1'
_cell_length_a   5.12448074
_cell_length_b   5.75621359
_cell_length_c   9.53416804
_cell_angle_alpha   89.99977634
_cell_angle_beta   106.80150927
_cell_angle_gamma   91.73442960
_symmetry_Int_Tables_number   1
_chemical_formula_structural   Cu4NiC14
_chemical_formula_sum   'Cu4 Ni1 C14'
_cell_volume   269.09514632
_cell_formula_units_Z   1
loop_
 _symmetry_equiv_pos_site_id
 _symmetry_equiv_pos_as_xyz
  1  'x, y, z'
loop_
 _atom_site_type_symbol
 _atom_site_label
 _atom_site_symmetry_multiplicity
 _atom_site_fract_x
 _atom_site_fract_y
 _atom_site_fract_z
 _atom_site_occupancy
  Ni  Ni0  1  0.14147479  0.77356092  0.78230741  1
  Cu  Cu1  1  0.39581339  0.16039188  0.36269057  1
  Cu  Cu2  1  0.10220372  0.32977334  0.65358298  1
  Cu  Cu3  1  0.57316167  0.86270580  0.61213059  1
  Cu  Cu4  1  0.89425590  0.64390457  0.33469540  1
  C  C5  1  0.81168672  0.21893860  0.96527147  1
  C  C6  1  0.30644820  0.78378652  0.09237034  1
  C  C7  1  0.72909452  0.18012152  0.55250697  1
  C  C8  1  0.14981719  0.34703980  0.43587748  1
  C  C9  1  0.23010361  0.83740708  0.43545060  1
  C  C10  1  0.84116695  0.66777925  0.56689277  1
  C  C11  1  0.59920161  0.41165277  0.29190571  1
  C  C12  1  0.30762228  0.05829905  0.70804210  1
  C  C13  1  0.99870789  0.60920070  0.16278914  1
  C  C14  1  0.83419180  0.92923484  0.82306903  1
  C  C15  1  0.03186966  0.41977423  0.83031907  1
  C  C16  1  0.15836421  0.09803244  0.14521132  1
  C  C17  1  0.62520718  0.89204607  0.28809604  1
  C  C18  1  0.38210872  0.58587461  0.69250502  1
