# generated using pymatgen
data_CuNiC3
_symmetry_space_group_name_H-M   'P 1'
_cell_length_a   7.16397119
_cell_length_b   7.16397119
_cell_length_c   5.48468821
_cell_angle_alpha   80.62062279
_cell_angle_beta   80.62062279
_cell_angle_gamma   87.16736835
_symmetry_Int_Tables_number   1
_chemical_formula_structural   CuNiC3
_chemical_formula_sum   'Cu4 Ni4 C12'
_cell_volume   273.93608249
_cell_formula_units_Z   4
loop_
 _symmetry_equiv_pos_site_id
 _symmetry_equiv_pos_as_xyz
  1  'x, y, z'
loop_
 _atom_site_type_symbol
 _atom_site_label
 _atom_site_symmetry_multiplicity
 _atom_site_fract_x
 _atom_site_fract_y
 _atom_site_fract_z
 _atom_site_occupancy
  Ni  Ni0  1  0.71238500  0.28761500  0.75000000  1
  Ni  Ni1  1  0.28761500  0.71238500  0.25000000  1
  Ni  Ni2  1  0.09762800  0.90237200  0.75000000  1
  Ni  Ni3  1  0.90237200  0.09762800  0.25000000  1
  Cu  Cu4  1  0.20670200  0.38328600  0.77303500  1
  Cu  Cu5  1  0.61671400  0.79329800  0.72696500  1
  Cu  Cu6  1  0.79329800  0.61671400  0.22696500  1
  Cu  Cu7  1  0.38328600  0.20670200  0.27303500  1
  C  C8  1  0.39311200  0.85608300  0.87018200  1
  C  C9  1  0.14391700  0.60688800  0.62981800  1
  C  C10  1  0.60688800  0.14391700  0.12981800  1
  C  C11  1  0.85608300  0.39311200  0.37018200  1
  C  C12  1  0.70023300  0.59551600  0.94183700  1
  C  C13  1  0.40448400  0.29976700  0.55816300  1
  C  C14  1  0.29976700  0.40448400  0.05816300  1
  C  C15  1  0.59551600  0.70023300  0.44183700  1
  C  C16  1  0.21361800  0.02846800  0.34676300  1
  C  C17  1  0.97153200  0.78638200  0.15323700  1
  C  C18  1  0.78638200  0.97153200  0.65323700  1
  C  C19  1  0.02846800  0.21361800  0.84676300  1
