# generated using pymatgen
data_Cu4Ni2C9
_symmetry_space_group_name_H-M   'P 1'
_cell_length_a   7.18260234
_cell_length_b   7.18260218
_cell_length_c   7.37509600
_cell_angle_alpha   59.10943103
_cell_angle_beta   59.10943176
_cell_angle_gamma   59.74073357
_symmetry_Int_Tables_number   1
_chemical_formula_structural   Cu4Ni2C9
_chemical_formula_sum   'Cu4 Ni2 C9'
_cell_volume   264.85163795
_cell_formula_units_Z   1
loop_
 _symmetry_equiv_pos_site_id
 _symmetry_equiv_pos_as_xyz
  1  'x, y, z'
loop_
 _atom_site_type_symbol
 _atom_site_label
 _atom_site_symmetry_multiplicity
 _atom_site_fract_x
 _atom_site_fract_y
 _atom_site_fract_z
 _atom_site_occupancy
  C  C0  1  0.66526000  0.66526000  0.08474000  1
  Ni  Ni1  1  0.92271100  0.92271100  0.82728900  1
  Ni  Ni2  1  0.12331200  0.12331200  0.12668800  1
  Cu  Cu3  1  0.48891600  0.48891600  0.00240200  1
  Cu  Cu4  1  0.48891600  0.48891600  0.51976600  1
  Cu  Cu5  1  0.99845800  0.48520200  0.50817000  1
  Cu  Cu6  1  0.48520200  0.99845800  0.50817000  1
  C  C7  1  0.74348500  0.74348500  0.71099900  1
  C  C8  1  0.25268400  0.25268400  0.72118200  1
  C  C9  1  0.25370900  0.71545000  0.26542000  1
  C  C10  1  0.71545000  0.25370900  0.26542000  1
  C  C11  1  0.72381500  0.29006100  0.74306200  1
  C  C12  1  0.29006100  0.72381500  0.74306200  1
  C  C13  1  0.25268400  0.25268400  0.27345000  1
  C  C14  1  0.74348500  0.74348500  0.30203300  1
