# generated using pymatgen
data_CuNi5C31
_symmetry_space_group_name_H-M   'P 1'
_cell_length_a   8.92124914
_cell_length_b   8.92306763
_cell_length_c   23.28243697
_cell_angle_alpha   89.88808816
_cell_angle_beta   89.99963646
_cell_angle_gamma   119.95796400
_symmetry_Int_Tables_number   1
_chemical_formula_structural   CuNi5C31
_chemical_formula_sum   'Cu3 Ni15 C93'
_cell_volume   1605.76362914
_cell_formula_units_Z   3
loop_
 _symmetry_equiv_pos_site_id
 _symmetry_equiv_pos_as_xyz
  1  'x, y, z'
loop_
 _atom_site_type_symbol
 _atom_site_label
 _atom_site_symmetry_multiplicity
 _atom_site_fract_x
 _atom_site_fract_y
 _atom_site_fract_z
 _atom_site_occupancy
  C  C0  1  0.99018416  0.36338786  0.74595328  1
  C  C1  1  0.30980383  0.97379236  0.08538382  1
  C  C2  1  0.32514805  0.03132512  0.41155114  1
  C  C3  1  0.98631293  0.99899711  0.49471023  1
  C  C4  1  0.99130247  0.00055803  0.99864132  1
  C  C5  1  0.65675543  0.33299117  0.82816650  1
  C  C6  1  0.66808413  0.33497133  0.32641556  1
  C  C7  1  0.33327329  0.66124913  0.16752658  1
  C  C8  1  0.34118178  0.66915035  0.66576255  1
  C  C9  1  0.00272151  0.99958453  0.85190913  1
  C  C10  1  0.99370548  0.99735794  0.64723645  1
  C  C11  1  0.99901699  0.99822551  0.14875727  1
  C  C12  1  0.67021121  0.33537831  0.98088318  1
  C  C13  1  0.68063699  0.34495189  0.48062462  1
  C  C14  1  0.33290810  0.66005101  0.01904335  1
  C  C15  1  0.33503267  0.65878745  0.51848155  1
  C  C16  1  0.33343705  0.67194522  0.31398006  1
  C  C17  1  0.33916922  0.67176097  0.81372216  1
  C  C18  1  0.00146317  0.00192914  0.35149365  1
  C  C19  1  0.66756686  0.34618036  0.68510537  1
  C  C20  1  0.65768316  0.32458530  0.18129231  1
  Ni  Ni21  1  0.29768908  0.00823228  0.25194281  1
  Ni  Ni22  1  0.29624333  0.29009448  0.74923237  1
  Ni  Ni23  1  0.99713137  0.70556537  0.74973884  1
  Ni  Ni24  1  0.70760129  0.00395799  0.74964192  1
  Ni  Ni25  1  0.95754367  0.33459921  0.58655653  1
  Ni  Ni26  1  0.66646098  0.62192271  0.58549630  1
  Ni  Ni27  1  0.95428784  0.61999003  0.08606839  1
  Ni  Ni28  1  0.66766146  0.04431715  0.08467744  1
  Ni  Ni29  1  0.37946298  0.33479021  0.08560751  1
  Ni  Ni30  1  0.62622201  0.66710461  0.91665021  1
  Ni  Ni31  1  0.04132543  0.37424917  0.91541842  1
  Ni  Ni32  1  0.33420607  0.95911560  0.91785364  1
  Ni  Ni33  1  0.63009203  0.95823734  0.41675997  1
  Ni  Ni34  1  0.32997302  0.37047100  0.41548497  1
  Ni  Ni35  1  0.04415344  0.67102782  0.41630472  1
  Cu  Cu36  1  0.70990327  0.70492194  0.25160366  1
  Cu  Cu37  1  0.99557486  0.29021734  0.25132182  1
  Cu  Cu38  1  0.37732006  0.04281332  0.58386331  1
  C  C39  1  0.21031360  0.02422864  0.30627129  1
  C  C40  1  0.81236482  0.78998541  0.30277733  1
  C  C41  1  0.97472644  0.18648526  0.30263550  1
  C  C42  1  0.20269656  0.17996554  0.80334534  1
  C  C43  1  0.97823982  0.79790379  0.80318776  1
  C  C44  1  0.82317873  0.02737261  0.80278391  1
  C  C45  1  0.79375937  0.97297374  0.69628428  1
  C  C46  1  0.17414183  0.20479586  0.69684378  1
  C  C47  1  0.02650185  0.82093072  0.69655593  1
  C  C48  1  0.79020312  0.81609732  0.19882574  1
  C  C49  1  0.02239586  0.20712289  0.19874723  1
  C  C50  1  0.18162247  0.97783122  0.19657531  1
  C  C51  1  0.88128136  0.36022213  0.64134659  1
  C  C52  1  0.48138591  0.12045741  0.63470439  1
  C  C53  1  0.63394909  0.51291029  0.63832905  1
  C  C54  1  0.87654945  0.51318144  0.13911375  1
  C  C55  1  0.62751389  0.11737044  0.13712618  1
  C  C56  1  0.48526064  0.36484280  0.13887767  1
  C  C57  1  0.45858706  0.30025092  0.03092910  1
  C  C58  1  0.84646691  0.54007218  0.03071008  1
  C  C59  1  0.69425698  0.15420609  0.02973414  1
  C  C60  1  0.45450632  0.14490303  0.52995126  1
  C  C61  1  0.69057435  0.53665867  0.53028433  1
  C  C62  1  0.84471771  0.30864173  0.53199258  1
  C  C63  1  0.53872075  0.69173974  0.97017551  1
  C  C64  1  0.15443167  0.46310773  0.96865510  1
  C  C65  1  0.30900137  0.85108368  0.97277378  1
  C  C66  1  0.53653374  0.84587733  0.47013979  1
  C  C67  1  0.30993364  0.46181213  0.46932853  1
  C  C68  1  0.15829593  0.69447096  0.46951079  1
  C  C69  1  0.12954517  0.64028542  0.36289295  1
  C  C70  1  0.50800825  0.87271852  0.36385142  1
  C  C71  1  0.36014763  0.48806565  0.36291865  1
  C  C72  1  0.12487203  0.48295566  0.86072642  1
  C  C73  1  0.35816109  0.86949471  0.86469076  1
  C  C74  1  0.51346999  0.64168332  0.86319903  1
  C  C75  1  0.03070638  0.83397748  0.41104949  1
  C  C76  1  0.80735913  0.97835614  0.40968262  1
  C  C77  1  0.17313763  0.18891462  0.41161564  1
  C  C78  1  0.02280839  0.19362189  0.91030924  1
  C  C79  1  0.17151939  0.97652475  0.91090028  1
  C  C80  1  0.80595856  0.82932298  0.91028224  1
  C  C81  1  0.97953841  0.17183960  0.58951440  1
  C  C82  1  0.20138550  0.02412249  0.58876787  1
  C  C83  1  0.83087152  0.80477869  0.58932594  1
  C  C84  1  0.98303055  0.80963739  0.09069238  1
  C  C85  1  0.82807860  0.02133272  0.09078759  1
  C  C86  1  0.19589305  0.16650291  0.09081664  1
  C  C87  1  0.69652679  0.16791270  0.74397836  1
  C  C88  1  0.47325468  0.30861466  0.74431392  1
  C  C89  1  0.84199446  0.52311963  0.74627485  1
  C  C90  1  0.69040156  0.53424690  0.24402248  1
  C  C91  1  0.84652408  0.31405677  0.24378574  1
  C  C92  1  0.47792966  0.16431198  0.24413004  1
  C  C93  1  0.64295496  0.50438475  0.92343529  1
  C  C94  1  0.86181913  0.35744810  0.92285631  1
  C  C95  1  0.49617124  0.13960084  0.92347668  1
  C  C96  1  0.63217502  0.13404719  0.42432930  1
  C  C97  1  0.49316939  0.35002776  0.42407292  1
  C  C98  1  0.86427422  0.50540715  0.42226690  1
  C  C99  1  0.35107062  0.49089896  0.07609208  1
  C  C100  1  0.14359505  0.65434057  0.07636840  1
  C  C101  1  0.50245187  0.86231983  0.07492661  1
  C  C102  1  0.35444905  0.86589970  0.57623649  1
  C  C103  1  0.50796511  0.64856293  0.57619217  1
  C  C104  1  0.13965947  0.49575102  0.57598761  1
  C  C105  1  0.30848063  0.83592429  0.25595356  1
  C  C106  1  0.53398458  0.69146492  0.25558177  1
  C  C107  1  0.15976692  0.46430443  0.25539053  1
  C  C108  1  0.30026006  0.46745613  0.75654117  1
  C  C109  1  0.16206174  0.68661611  0.75641436  1
  C  C110  1  0.52870649  0.83815837  0.75596996  1
