# generated using pymatgen
data_Cu3(NiC2)2
_symmetry_space_group_name_H-M   'P 1'
_cell_length_a   12.42100900
_cell_length_b   12.42100900
_cell_length_c   12.42100900
_cell_angle_alpha   90.00000000
_cell_angle_beta   90.00000000
_cell_angle_gamma   90.00000000
_symmetry_Int_Tables_number   1
_chemical_formula_structural   Cu3(NiC2)2
_chemical_formula_sum   'Cu24 Ni16 C32'
_cell_volume   1916.33146006
_cell_formula_units_Z   8
loop_
 _symmetry_equiv_pos_site_id
 _symmetry_equiv_pos_as_xyz
  1  'x, y, z'
loop_
 _atom_site_type_symbol
 _atom_site_label
 _atom_site_symmetry_multiplicity
 _atom_site_fract_x
 _atom_site_fract_y
 _atom_site_fract_z
 _atom_site_occupancy
  C  C0  1  0.72338100  0.22338100  0.27661900  1
  C  C1  1  0.27661900  0.72338100  0.22338100  1
  C  C2  1  0.22338100  0.27661900  0.72338100  1
  C  C3  1  0.77661900  0.77661900  0.77661900  1
  C  C4  1  0.27661900  0.77661900  0.72338100  1
  C  C5  1  0.72338100  0.27661900  0.77661900  1
  C  C6  1  0.77661900  0.72338100  0.27661900  1
  C  C7  1  0.22338100  0.22338100  0.22338100  1
  C  C8  1  0.75012700  0.03043000  0.51210500  1
  C  C9  1  0.51210500  0.75012700  0.03043000  1
  C  C10  1  0.03043000  0.51210500  0.75012700  1
  C  C11  1  0.46957000  0.48789500  0.25012700  1
  C  C12  1  0.01210500  0.74987300  0.96957000  1
  C  C13  1  0.96957000  0.01210500  0.74987300  1
  C  C14  1  0.98789500  0.24987300  0.53043000  1
  C  C15  1  0.48789500  0.25012700  0.46957000  1
  C  C16  1  0.53043000  0.98789500  0.24987300  1
  C  C17  1  0.25012700  0.46957000  0.48789500  1
  C  C18  1  0.24987300  0.53043000  0.98789500  1
  C  C19  1  0.74987300  0.96957000  0.01210500  1
  C  C20  1  0.24987300  0.96957000  0.48789500  1
  C  C21  1  0.48789500  0.24987300  0.96957000  1
  C  C22  1  0.96957000  0.48789500  0.24987300  1
  C  C23  1  0.53043000  0.51210500  0.74987300  1
  C  C24  1  0.98789500  0.25012700  0.03043000  1
  C  C25  1  0.03043000  0.98789500  0.25012700  1
  C  C26  1  0.01210500  0.75012700  0.46957000  1
  C  C27  1  0.51210500  0.74987300  0.53043000  1
  C  C28  1  0.46957000  0.01210500  0.75012700  1
  C  C29  1  0.74987300  0.53043000  0.51210500  1
  C  C30  1  0.75012700  0.46957000  0.01210500  1
  C  C31  1  0.25012700  0.03043000  0.98789500  1
  Ni  Ni32  1  0.94898400  0.05101600  0.55101600  1
  Ni  Ni33  1  0.55101600  0.94898400  0.05101600  1
  Ni  Ni34  1  0.05101600  0.55101600  0.94898400  1
  Ni  Ni35  1  0.44898400  0.44898400  0.44898400  1
  Ni  Ni36  1  0.05101600  0.94898400  0.44898400  1
  Ni  Ni37  1  0.44898400  0.05101600  0.94898400  1
  Ni  Ni38  1  0.94898400  0.44898400  0.05101600  1
  Ni  Ni39  1  0.55101600  0.55101600  0.55101600  1
  Ni  Ni40  1  0.60731000  0.10731000  0.39269000  1
  Ni  Ni41  1  0.39269000  0.60731000  0.10731000  1
  Ni  Ni42  1  0.10731000  0.39269000  0.60731000  1
  Ni  Ni43  1  0.89269000  0.89269000  0.89269000  1
  Ni  Ni44  1  0.39269000  0.89269000  0.60731000  1
  Ni  Ni45  1  0.60731000  0.39269000  0.89269000  1
  Ni  Ni46  1  0.89269000  0.60731000  0.39269000  1
  Ni  Ni47  1  0.10731000  0.10731000  0.10731000  1
  Cu  Cu48  1  0.68131100  0.07366800  0.72670000  1
  Cu  Cu49  1  0.72670000  0.68131100  0.07366800  1
  Cu  Cu50  1  0.07366800  0.72670000  0.68131100  1
  Cu  Cu51  1  0.42633200  0.27330000  0.18131100  1
  Cu  Cu52  1  0.22670000  0.81868900  0.92633200  1
  Cu  Cu53  1  0.92633200  0.22670000  0.81868900  1
  Cu  Cu54  1  0.77330000  0.31868900  0.57366800  1
  Cu  Cu55  1  0.27330000  0.18131100  0.42633200  1
  Cu  Cu56  1  0.57366800  0.77330000  0.31868900  1
  Cu  Cu57  1  0.18131100  0.42633200  0.27330000  1
  Cu  Cu58  1  0.31868900  0.57366800  0.77330000  1
  Cu  Cu59  1  0.81868900  0.92633200  0.22670000  1
  Cu  Cu60  1  0.31868900  0.92633200  0.27330000  1
  Cu  Cu61  1  0.27330000  0.31868900  0.92633200  1
  Cu  Cu62  1  0.92633200  0.27330000  0.31868900  1
  Cu  Cu63  1  0.57366800  0.72670000  0.81868900  1
  Cu  Cu64  1  0.77330000  0.18131100  0.07366800  1
  Cu  Cu65  1  0.07366800  0.77330000  0.18131100  1
  Cu  Cu66  1  0.22670000  0.68131100  0.42633200  1
  Cu  Cu67  1  0.72670000  0.81868900  0.57366800  1
  Cu  Cu68  1  0.42633200  0.22670000  0.68131100  1
  Cu  Cu69  1  0.81868900  0.57366800  0.72670000  1
  Cu  Cu70  1  0.68131100  0.42633200  0.22670000  1
  Cu  Cu71  1  0.18131100  0.07366800  0.77330000  1
