# generated using pymatgen
data_Cu4NiC3
_symmetry_space_group_name_H-M   'P 1'
_cell_length_a   13.03067400
_cell_length_b   13.25382600
_cell_length_c   13.38468700
_cell_angle_alpha   90.00000000
_cell_angle_beta   90.00000000
_cell_angle_gamma   90.00000000
_symmetry_Int_Tables_number   1
_chemical_formula_structural   Cu4NiC3
_chemical_formula_sum   'Cu32 Ni8 C24'
_cell_volume   2311.61957915
_cell_formula_units_Z   8
loop_
 _symmetry_equiv_pos_site_id
 _symmetry_equiv_pos_as_xyz
  1  'x, y, z'
loop_
 _atom_site_type_symbol
 _atom_site_label
 _atom_site_symmetry_multiplicity
 _atom_site_fract_x
 _atom_site_fract_y
 _atom_site_fract_z
 _atom_site_occupancy
  C  C0  1  0.61952500  0.08934700  0.18857600  1
  C  C1  1  0.31979800  0.30906000  0.23485000  1
  C  C2  1  0.18020200  0.69094000  0.73485000  1
  C  C3  1  0.68020200  0.80906000  0.26515000  1
  C  C4  1  0.18020200  0.80906000  0.23485000  1
  C  C5  1  0.68020200  0.69094000  0.76515000  1
  C  C6  1  0.81979800  0.30906000  0.26515000  1
  C  C7  1  0.31979800  0.19094000  0.73485000  1
  C  C8  1  0.81979800  0.19094000  0.76515000  1
  C  C9  1  0.11952500  0.41065300  0.81142400  1
  C  C10  1  0.38047500  0.58934700  0.31142400  1
  C  C11  1  0.88047500  0.91065300  0.68857600  1
  C  C12  1  0.38047500  0.91065300  0.81142400  1
  C  C13  1  0.88047500  0.58934700  0.18857600  1
  C  C14  1  0.61952500  0.41065300  0.68857600  1
  C  C15  1  0.11952500  0.08934700  0.31142400  1
  C  C16  1  0.23093900  0.09689100  0.01290100  1
  C  C17  1  0.73093900  0.40310900  0.98709900  1
  C  C18  1  0.76906100  0.59689100  0.48709900  1
  C  C19  1  0.26906100  0.90310900  0.51290100  1
  C  C20  1  0.76906100  0.90310900  0.98709900  1
  C  C21  1  0.26906100  0.59689100  0.01290100  1
  C  C22  1  0.23093900  0.40310900  0.51290100  1
  C  C23  1  0.73093900  0.09689100  0.48709900  1
  Ni  Ni24  1  0.40270500  0.09607600  0.89740100  1
  Ni  Ni25  1  0.90270500  0.40392400  0.10259900  1
  Ni  Ni26  1  0.59729500  0.59607600  0.60259900  1
  Ni  Ni27  1  0.09729500  0.90392400  0.39740100  1
  Ni  Ni28  1  0.59729500  0.90392400  0.10259900  1
  Ni  Ni29  1  0.09729500  0.59607600  0.89740100  1
  Ni  Ni30  1  0.40270500  0.40392400  0.39740100  1
  Ni  Ni31  1  0.90270500  0.09607600  0.60259900  1
  Cu  Cu32  1  0.33186600  0.09814500  0.22860200  1
  Cu  Cu33  1  0.83186600  0.40185500  0.77139800  1
  Cu  Cu34  1  0.66813400  0.59814500  0.27139800  1
  Cu  Cu35  1  0.16813400  0.90185500  0.72860200  1
  Cu  Cu36  1  0.66813400  0.90185500  0.77139800  1
  Cu  Cu37  1  0.16813400  0.59814500  0.22860200  1
  Cu  Cu38  1  0.33186600  0.40185500  0.72860200  1
  Cu  Cu39  1  0.83186600  0.09814500  0.27139800  1
  Cu  Cu40  1  0.05791400  0.08494100  0.10020800  1
  Cu  Cu41  1  0.55791400  0.41505900  0.89979200  1
  Cu  Cu42  1  0.94208600  0.58494100  0.39979200  1
  Cu  Cu43  1  0.44208600  0.91505900  0.60020800  1
  Cu  Cu44  1  0.94208600  0.91505900  0.89979200  1
  Cu  Cu45  1  0.44208600  0.58494100  0.10020800  1
  Cu  Cu46  1  0.05791400  0.41505900  0.60020800  1
  Cu  Cu47  1  0.59556500  0.21652200  0.67631500  1
  Cu  Cu48  1  0.76191700  0.16502600  0.94829900  1
  Cu  Cu49  1  0.26191700  0.33497400  0.05170100  1
  Cu  Cu50  1  0.23808300  0.66502600  0.55170100  1
  Cu  Cu51  1  0.73808300  0.83497400  0.44829900  1
  Cu  Cu52  1  0.23808300  0.83497400  0.05170100  1
  Cu  Cu53  1  0.73808300  0.66502600  0.94829900  1
  Cu  Cu54  1  0.76191700  0.33497400  0.44829900  1
  Cu  Cu55  1  0.26191700  0.16502600  0.55170100  1
  Cu  Cu56  1  0.09556500  0.21652200  0.82368500  1
  Cu  Cu57  1  0.59556500  0.28347800  0.17631500  1
  Cu  Cu58  1  0.90443500  0.71652200  0.67631500  1
  Cu  Cu59  1  0.40443500  0.78347800  0.32368500  1
  Cu  Cu60  1  0.90443500  0.78347800  0.17631500  1
  Cu  Cu61  1  0.40443500  0.71652200  0.82368500  1
  Cu  Cu62  1  0.09556500  0.28347800  0.32368500  1
  Cu  Cu63  1  0.55791400  0.08494100  0.39979200  1
