# generated using pymatgen
data_CuNi2C17
_symmetry_space_group_name_H-M   'P 1'
_cell_length_a   9.01341767
_cell_length_b   9.01341736
_cell_length_c   22.43937230
_cell_angle_alpha   88.68338558
_cell_angle_beta   91.31661440
_cell_angle_gamma   119.54154898
_symmetry_Int_Tables_number   1
_chemical_formula_structural   CuNi2C17
_chemical_formula_sum   'Cu6 Ni12 C102'
_cell_volume   1585.45712156
_cell_formula_units_Z   6
loop_
 _symmetry_equiv_pos_site_id
 _symmetry_equiv_pos_as_xyz
  1  'x, y, z'
loop_
 _atom_site_type_symbol
 _atom_site_label
 _atom_site_symmetry_multiplicity
 _atom_site_fract_x
 _atom_site_fract_y
 _atom_site_fract_z
 _atom_site_occupancy
  C  C0  1  0.63020733  0.00183162  0.24628173  1
  C  C1  1  0.99863678  0.63873730  0.24861361  1
  C  C2  1  0.99816838  0.36979267  0.74628173  1
  C  C3  1  0.36126270  0.00136322  0.74861361  1
  C  C4  1  0.29687433  0.33516462  0.57961473  1
  C  C5  1  0.66530378  0.97207030  0.58194661  1
  C  C6  1  0.66483538  0.70312567  0.07961473  1
  C  C7  1  0.02792970  0.33469622  0.08194661  1
  C  C8  1  0.96354033  0.66849862  0.91294873  1
  C  C9  1  0.33196978  0.30540430  0.91528061  1
  C  C10  1  0.33150138  0.03645967  0.41294873  1
  C  C11  1  0.69459570  0.66803022  0.41528061  1
  C  C12  1  0.00087203  0.01380190  0.49806273  1
  C  C13  1  0.98619810  0.99912797  0.99806273  1
  C  C14  1  0.66753903  0.34713490  0.83139573  1
  C  C15  1  0.65286510  0.33246097  0.33139573  1
  C  C16  1  0.33420503  0.68046890  0.16472973  1
  C  C17  1  0.31953110  0.66579497  0.66472973  1
  C  C18  1  0.00600950  0.00717365  0.35156332  1
  C  C19  1  0.99282635  0.99399050  0.85156332  1
  C  C20  1  0.67267650  0.34050665  0.68489632  1
  C  C21  1  0.65949335  0.32732350  0.18489632  1
  C  C22  1  0.33934250  0.67384065  0.01823032  1
  C  C23  1  0.32615935  0.66065750  0.51823032  1
  C  C24  1  0.03099407  0.01441032  0.64708951  1
  C  C25  1  0.98558968  0.96900593  0.14708951  1
  C  C26  1  0.69766107  0.34774332  0.98042251  1
  C  C27  1  0.65225668  0.30233893  0.48042251  1
  C  C28  1  0.36432707  0.68107732  0.31375651  1
  C  C29  1  0.31892268  0.63567293  0.81375651  1
  Ni  Ni30  1  0.29171983  0.99895441  0.25206857  1
  Ni  Ni31  1  0.70827089  0.70306791  0.25204268  1
  Ni  Ni32  1  0.29693209  0.29172911  0.75204268  1
  Ni  Ni33  1  0.00104559  0.70828017  0.75206857  1
  Ni  Ni34  1  0.95838683  0.33228741  0.58540157  1
  Ni  Ni35  1  0.37493789  0.03640091  0.58537568  1
  Ni  Ni36  1  0.96359909  0.62506211  0.08537568  1
  Ni  Ni37  1  0.66771259  0.04161317  0.08540157  1
  Ni  Ni38  1  0.62505283  0.66562141  0.91873557  1
  Ni  Ni39  1  0.04160389  0.36973491  0.91870968  1
  Ni  Ni40  1  0.63026509  0.95839611  0.41870968  1
  Ni  Ni41  1  0.33437859  0.37494717  0.41873557  1
  Cu  Cu42  1  0.00578980  0.29497180  0.24845455  1
  Cu  Cu43  1  0.70502820  0.99421020  0.74845455  1
  Cu  Cu44  1  0.67245680  0.62830480  0.58178755  1
  Cu  Cu45  1  0.37169520  0.32754320  0.08178755  1
  Cu  Cu46  1  0.33912280  0.96163880  0.91512155  1
  Cu  Cu47  1  0.03836120  0.66087720  0.41512155  1
  C  C48  1  0.20766083  0.02417954  0.31059930  1
  C  C49  1  0.82402982  0.79378371  0.30955623  1
  C  C50  1  0.97493278  0.18519635  0.30153074  1
  C  C51  1  0.20621629  0.17597018  0.80955623  1
  C  C52  1  0.97582046  0.79233917  0.81059930  1
  C  C53  1  0.81480365  0.02506722  0.80153074  1
  C  C54  1  0.78320234  0.97095828  0.69492824  1
  C  C55  1  0.16935069  0.20352117  0.69174639  1
  C  C56  1  0.03026213  0.84355300  0.69450759  1
  C  C57  1  0.79647883  0.83064931  0.19174639  1
  C  C58  1  0.02904172  0.21679766  0.19492824  1
  C  C59  1  0.15644700  0.96973787  0.19450759  1
  C  C60  1  0.87432783  0.35751254  0.64393230  1
  C  C61  1  0.49069682  0.12711671  0.64288923  1
  C  C62  1  0.64159978  0.51852935  0.63486374  1
  C  C63  1  0.87288329  0.50930318  0.14288923  1
  C  C64  1  0.64248746  0.12567217  0.14393230  1
  C  C65  1  0.48147065  0.35840022  0.13486374  1
  C  C66  1  0.44986934  0.30429128  0.02826124  1
  C  C67  1  0.83601769  0.53685417  0.02507939  1
  C  C68  1  0.69692913  0.17688600  0.02784059  1
  C  C69  1  0.46314583  0.16398231  0.52507939  1
  C  C70  1  0.69570872  0.55013066  0.52826124  1
  C  C71  1  0.82311400  0.30307087  0.52784059  1
  C  C72  1  0.54099383  0.69084654  0.97726630  1
  C  C73  1  0.15736282  0.46045071  0.97622323  1
  C  C74  1  0.30826578  0.85186335  0.96819774  1
  C  C75  1  0.53954929  0.84263718  0.47622323  1
  C  C76  1  0.30915346  0.45900617  0.47726630  1
  C  C77  1  0.14813665  0.69173422  0.46819774  1
  C  C78  1  0.11653534  0.63762528  0.36159524  1
  C  C79  1  0.50268369  0.87018817  0.35841339  1
  C  C80  1  0.36359513  0.51022000  0.36117459  1
  C  C81  1  0.12981183  0.49731631  0.85841339  1
  C  C82  1  0.36237472  0.88346466  0.86159524  1
  C  C83  1  0.48978000  0.63640487  0.86117459  1
  C  C84  1  0.02083943  0.81743035  0.41100396  1
  C  C85  1  0.81274728  0.97122345  0.41083308  1
  C  C86  1  0.17872881  0.18137159  0.41246492  1
  C  C87  1  0.02877655  0.18725272  0.91083308  1
  C  C88  1  0.18256965  0.97916057  0.91100396  1
  C  C89  1  0.81862841  0.82127119  0.91246492  1
  C  C90  1  0.96351110  0.14844673  0.59019108  1
  C  C91  1  0.18840923  0.03297858  0.58930067  1
  C  C92  1  0.82104845  0.80163147  0.58916111  1
  C  C93  1  0.96702142  0.81159077  0.08930067  1
  C  C94  1  0.85155327  0.03648890  0.09019108  1
  C  C95  1  0.19836853  0.17895155  0.08916111  1
  C  C96  1  0.68750643  0.15076335  0.74433696  1
  C  C97  1  0.47941428  0.30455645  0.74416608  1
  C  C98  1  0.84539581  0.51470459  0.74579792  1
  C  C99  1  0.69544355  0.52058572  0.24416608  1
  C  C100  1  0.84923665  0.31249357  0.24433696  1
  C  C101  1  0.48529541  0.15460419  0.24579792  1
  C  C102  1  0.63017810  0.48177973  0.92352408  1
  C  C103  1  0.85507623  0.36631158  0.92263367  1
  C  C104  1  0.48771545  0.13496447  0.92249411  1
  C  C105  1  0.63368842  0.14492377  0.42263367  1
  C  C106  1  0.51822027  0.36982190  0.42352408  1
  C  C107  1  0.86503553  0.51228455  0.42249411  1
  C  C108  1  0.35417243  0.48409735  0.07767096  1
  C  C109  1  0.14608028  0.63789045  0.07750008  1
  C  C110  1  0.51206181  0.84803859  0.07913192  1
  C  C111  1  0.36210955  0.85391972  0.57750008  1
  C  C112  1  0.51590265  0.64582757  0.57767096  1
  C  C113  1  0.15196141  0.48793819  0.57913192  1
  C  C114  1  0.29684410  0.81511373  0.25685808  1
  C  C115  1  0.52174223  0.69964558  0.25596767  1
  C  C116  1  0.15438145  0.46829847  0.25582811  1
  C  C117  1  0.30035442  0.47825777  0.75596767  1
  C  C118  1  0.18488627  0.70315590  0.75685808  1
  C  C119  1  0.53170153  0.84561855  0.75582811  1
