# generated using pymatgen
data_Cu2Ni2C9
_symmetry_space_group_name_H-M   'P 1'
_cell_length_a   3.33693500
_cell_length_b   3.33692877
_cell_length_c   47.13651001
_cell_angle_alpha   90.00257828
_cell_angle_beta   90.00000000
_cell_angle_gamma   120.00007165
_symmetry_Int_Tables_number   1
_chemical_formula_structural   Cu2Ni2C9
_chemical_formula_sum   'Cu2 Ni2 C9'
_cell_volume   454.55079905
_cell_formula_units_Z   1
loop_
 _symmetry_equiv_pos_site_id
 _symmetry_equiv_pos_as_xyz
  1  'x, y, z'
loop_
 _atom_site_type_symbol
 _atom_site_label
 _atom_site_symmetry_multiplicity
 _atom_site_fract_x
 _atom_site_fract_y
 _atom_site_fract_z
 _atom_site_occupancy
  C  C0  1  0.99998900  0.99997800  0.56015200  1
  C  C1  1  0.33335000  0.66670100  0.70473100  1
  C  C2  1  0.33331400  0.66662900  0.62377800  1
  Ni  Ni3  1  0.33333900  0.66667900  0.09396300  1
  Ni  Ni4  1  0.66666600  0.33333200  0.66446800  1
  Cu  Cu5  1  0.33331700  0.66663300  0.46002000  1
  Cu  Cu6  1  0.66668400  0.33336700  0.28184300  1
  C  C7  1  0.33336100  0.66672200  0.31745600  1
  C  C8  1  0.66666200  0.33332200  0.05854600  1
  C  C9  1  0.66669000  0.33338000  0.12939600  1
  C  C10  1  0.33333500  0.66667100  0.24624400  1
  C  C11  1  0.66663400  0.33326500  0.42780000  1
  C  C12  1  0.66666100  0.33332100  0.49243300  1
