# generated using pymatgen
data_Cu3NiC30
_symmetry_space_group_name_H-M   'P 1'
_cell_length_a   8.65065612
_cell_length_b   8.64649507
_cell_length_c   22.25582907
_cell_angle_alpha   89.84356622
_cell_angle_beta   89.82040245
_cell_angle_gamma   120.04145494
_symmetry_Int_Tables_number   1
_chemical_formula_structural   Cu3NiC30
_chemical_formula_sum   'Cu9 Ni3 C90'
_cell_volume   1441.03489236
_cell_formula_units_Z   3
loop_
 _symmetry_equiv_pos_site_id
 _symmetry_equiv_pos_as_xyz
  1  'x, y, z'
loop_
 _atom_site_type_symbol
 _atom_site_label
 _atom_site_symmetry_multiplicity
 _atom_site_fract_x
 _atom_site_fract_y
 _atom_site_fract_z
 _atom_site_occupancy
  Ni  Ni0  1  0.99904014  0.99961586  0.35733336  1
  Ni  Ni1  1  0.66217003  0.33434144  0.69080688  1
  Ni  Ni2  1  0.66588384  0.33244062  0.18848534  1
  Cu  Cu3  1  0.01017991  0.01051017  0.85988005  1
  Cu  Cu4  1  0.99113168  0.99268345  0.64252861  1
  Cu  Cu5  1  0.00078030  0.00300434  0.14443666  1
  Cu  Cu6  1  0.66515626  0.32775010  0.97156806  1
  Cu  Cu7  1  0.67154769  0.34971229  0.47907268  1
  Cu  Cu8  1  0.32092697  0.66275124  0.01818115  1
  Cu  Cu9  1  0.34159918  0.66905276  0.52505190  1
  Cu  Cu10  1  0.33530565  0.66907674  0.30769300  1
  Cu  Cu11  1  0.32295055  0.67072413  0.81057032  1
  C  C12  1  0.66615483  0.61811340  0.58701363  1
  C  C13  1  0.04775260  0.38249098  0.91574436  1
  C  C14  1  0.33213966  0.95020680  0.91513401  1
  C  C15  1  0.28738124  0.00148869  0.25118660  1
  C  C16  1  0.71389768  0.71270262  0.25118264  1
  C  C17  1  0.99946848  0.28734826  0.25142372  1
  C  C18  1  0.28656198  0.28692836  0.74976840  1
  C  C19  1  0.99879334  0.71376114  0.74999977  1
  C  C20  1  0.71298705  0.99842546  0.75011730  1
  C  C21  1  0.95461683  0.33381962  0.58327883  1
  C  C22  1  0.37918608  0.04686286  0.58336755  1
  C  C23  1  0.95443919  0.62225147  0.08510617  1
  C  C24  1  0.66565605  0.04311183  0.08439165  1
  C  C25  1  0.38016913  0.33613476  0.08491145  1
  C  C26  1  0.61846651  0.66718157  0.91600865  1
  C  C27  1  0.61750130  0.95441528  0.41629567  1
  C  C28  1  0.33360528  0.38151393  0.41647201  1
  C  C29  1  0.04825649  0.66526120  0.41630330  1
  C  C30  1  0.20488764  0.02286164  0.30484037  1
  C  C31  1  0.81720867  0.79561950  0.30455451  1
  C  C32  1  0.97715065  0.18170225  0.30472985  1
  C  C33  1  0.19286419  0.17511303  0.80430866  1
  C  C34  1  0.97797200  0.80064608  0.80365429  1
  C  C35  1  0.82213277  0.01917877  0.80341994  1
  C  C36  1  0.80310331  0.97422340  0.69509473  1
  C  C37  1  0.17323062  0.20198340  0.69627326  1
  C  C38  1  0.02780322  0.82816165  0.69534902  1
  C  C39  1  0.79649830  0.82881222  0.19650357  1
  C  C40  1  0.03228208  0.20409750  0.19677222  1
  C  C41  1  0.17219709  0.96878655  0.19683803  1
  C  C42  1  0.87945848  0.36472181  0.63699633  1
  C  C43  1  0.48767996  0.11469279  0.63677390  1
  C  C44  1  0.62654686  0.49805056  0.64327036  1
  C  C45  1  0.87621058  0.51458501  0.13864388  1
  C  C46  1  0.63632917  0.12138926  0.13782466  1
  C  C47  1  0.48575242  0.36143063  0.13840913  1
  C  C48  1  0.45701951  0.30266487  0.03057445  1
  C  C49  1  0.84592076  0.54572192  0.03086203  1
  C  C50  1  0.70002976  0.15647459  0.03021715  1
  C  C51  1  0.46537605  0.15896053  0.52878677  1
  C  C52  1  0.69814950  0.52640123  0.52470469  1
  C  C53  1  0.84105609  0.30170808  0.52876589  1
  C  C54  1  0.53896251  0.69710284  0.97083869  1
  C  C55  1  0.17109494  0.47005800  0.97522246  1
  C  C56  1  0.30589496  0.82946326  0.97481582  1
  C  C57  1  0.52773963  0.84073602  0.46995073  1
  C  C58  1  0.31082981  0.46912008  0.47013153  1
  C  C59  1  0.15508414  0.68615323  0.46989709  1
  C  C60  1  0.13403975  0.63753336  0.36179927  1
  C  C61  1  0.50233364  0.86508914  0.36225450  1
  C  C62  1  0.36535371  0.49657707  0.36225524  1
  C  C63  1  0.14231133  0.50713671  0.85709863  1
  C  C64  1  0.37175231  0.86293480  0.85661960  1
  C  C65  1  0.50765401  0.63257168  0.86230767  1
  C  C66  1  0.02394989  0.81843037  0.40898558  1
  C  C67  1  0.79137320  0.96934242  0.40944238  1
  C  C68  1  0.17740701  0.20593324  0.40974113  1
  C  C69  1  0.01707488  0.18393042  0.90620023  1
  C  C70  1  0.15653008  0.96780325  0.90589783  1
  C  C71  1  0.79715707  0.82392692  0.90799370  1
  C  C72  1  0.97984117  0.17666665  0.58971062  1
  C  C73  1  0.20105964  0.03059234  0.59027427  1
  C  C74  1  0.84191860  0.81981721  0.59309680  1
  C  C75  1  0.97691196  0.80693987  0.09370973  1
  C  C76  1  0.83233363  0.02751037  0.09332351  1
  C  C77  1  0.19543681  0.17141236  0.09394449  1
  C  C78  1  0.69545926  0.15532662  0.74208647  1
  C  C79  1  0.45826394  0.29637791  0.74636561  1
  C  C80  1  0.84723799  0.53564520  0.74413180  1
  C  C81  1  0.68522152  0.53492618  0.24144123  1
  C  C82  1  0.84942845  0.31419220  0.24116326  1
  C  C83  1  0.46535257  0.15056328  0.24121508  1
  C  C84  1  0.63712599  0.50744965  0.92640021  1
  C  C85  1  0.85547084  0.36714963  0.92832021  1
  C  C86  1  0.50216803  0.14755829  0.92820806  1
  C  C87  1  0.62960478  0.12897280  0.42421065  1
  C  C88  1  0.49712035  0.36552176  0.42392136  1
  C  C89  1  0.87038340  0.49608051  0.42288287  1
  C  C90  1  0.35424842  0.49064923  0.07634839  1
  C  C91  1  0.13740117  0.64836188  0.07709835  1
  C  C92  1  0.51581780  0.86077019  0.07503814  1
  C  C93  1  0.34848868  0.86312572  0.57125151  1
  C  C94  1  0.50062966  0.65301092  0.56916990  1
  C  C95  1  0.13444817  0.49270319  0.57167221  1
  C  C96  1  0.30095047  0.83286282  0.25830279  1
  C  C97  1  0.53189709  0.69944483  0.25833414  1
  C  C98  1  0.16797786  0.46844271  0.25835099  1
  C  C99  1  0.30378660  0.46499539  0.75734179  1
  C  C100  1  0.16859034  0.70595664  0.75439440  1
  C  C101  1  0.53831633  0.83146226  0.75535766  1
