# generated using pymatgen
data_Cu3NiC22
_symmetry_space_group_name_H-M   'P 1'
_cell_length_a   18.71168880
_cell_length_b   9.37493255
_cell_length_c   23.26677447
_cell_angle_alpha   89.98779615
_cell_angle_beta   90.01373851
_cell_angle_gamma   120.12896225
_symmetry_Int_Tables_number   1
_chemical_formula_structural   Cu3NiC22
_chemical_formula_sum   'Cu27 Ni9 C198'
_cell_volume   3530.06007963
_cell_formula_units_Z   9
loop_
 _symmetry_equiv_pos_site_id
 _symmetry_equiv_pos_as_xyz
  1  'x, y, z'
loop_
 _atom_site_type_symbol
 _atom_site_label
 _atom_site_symmetry_multiplicity
 _atom_site_fract_x
 _atom_site_fract_y
 _atom_site_fract_z
 _atom_site_occupancy
  C  C0  1  0.31539418  0.99706254  0.24456920  1
  C  C1  1  0.19070790  0.35534919  0.24954469  1
  C  C2  1  0.49057549  0.63588951  0.25671449  1
  C  C3  1  0.30854933  0.61492295  0.73113154  1
  C  C4  1  0.81555840  0.63591931  0.74271730  1
  C  C5  1  0.99753312  0.33323071  0.75506888  1
  C  C6  1  0.18065214  0.02510345  0.75678257  1
  C  C7  1  0.69012709  0.02561024  0.74983450  1
  C  C8  1  0.17146433  0.35785181  0.59335304  1
  C  C9  1  0.83290068  0.68806972  0.08319806  1
  C  C10  1  0.48543332  0.65694694  0.91763801  1
  C  C11  1  0.35426712  0.04755463  0.91585188  1
  C  C12  1  0.85085487  0.02691576  0.92161235  1
  C  C13  1  0.65826467  0.30771582  0.91460280  1
  C  C14  1  0.98339059  0.31054512  0.41660678  1
  C  C15  1  0.15593564  0.00908221  0.41173564  1
  C  C16  1  0.35158939  0.67073500  0.42431218  1
  C  C17  1  0.85329524  0.66073960  0.41419219  1
  C  C18  1  0.99317937  0.95090934  0.49995912  1
  C  C19  1  0.50520224  0.99636647  0.50483628  1
  C  C20  1  0.01176816  0.03607818  0.00306425  1
  C  C21  1  0.50251839  0.03711504  0.99854195  1
  C  C22  1  0.32620708  0.33352576  0.83643894  1
  C  C23  1  0.83003989  0.32617751  0.82719339  1
  C  C24  1  0.32857224  0.32958932  0.32705519  1
  C  C25  1  0.83146574  0.33828611  0.33684685  1
  C  C26  1  0.16154001  0.67172534  0.16291638  1
  C  C27  1  0.68216496  0.70928819  0.16240612  1
  C  C28  1  0.17624376  0.66985862  0.66244001  1
  C  C29  1  0.66375282  0.65114418  0.66180909  1
  C  C30  1  0.00085738  0.99112466  0.34503891  1
  C  C31  1  0.50396721  0.00475062  0.35150514  1
  C  C32  1  0.00394583  0.00775418  0.85192388  1
  C  C33  1  0.50356169  0.01554306  0.84602964  1
  C  C34  1  0.33752586  0.33853792  0.67906227  1
  C  C35  1  0.83160990  0.32821748  0.67927446  1
  C  C36  1  0.33018408  0.33174657  0.17974748  1
  C  C37  1  0.83378428  0.31901935  0.18104223  1
  C  C38  1  0.33314570  0.33420431  0.98596836  1
  C  C39  1  0.83572593  0.31167912  0.99369576  1
  C  C40  1  0.34176411  0.35060605  0.49018572  1
  C  C41  1  0.83223197  0.33289976  0.48577472  1
  C  C42  1  0.16336829  0.65923952  0.01632735  1
  C  C43  1  0.66271292  0.66465039  0.02047043  1
  C  C44  1  0.16591433  0.67707573  0.52019859  1
  C  C45  1  0.66401606  0.66732925  0.51644163  1
  C  C46  1  0.67019485  0.67087949  0.31427854  1
  C  C47  1  0.16449750  0.65180987  0.81746446  1
  C  C48  1  0.99593381  0.00659149  0.65437564  1
  C  C49  1  0.50281070  0.01186697  0.64812617  1
  C  C50  1  0.00162284  0.99974924  0.15090497  1
  C  C51  1  0.49466201  0.99299107  0.15181926  1
  C  C52  1  0.16009915  0.67292587  0.31058776  1
  C  C53  1  0.66021296  0.64712504  0.81130611  1
  Ni  Ni54  1  0.15223242  0.00537595  0.25433877  1
  Ni  Ni55  1  0.34953479  0.69977654  0.25659079  1
  Ni  Ni56  1  0.15232706  0.29969646  0.74831492  1
  Ni  Ni57  1  0.65289607  0.30052144  0.75375179  1
  Ni  Ni58  1  0.84823082  0.99988893  0.75778180  1
  Ni  Ni59  1  0.33490205  0.64857421  0.58409299  1
  Ni  Ni60  1  0.83596131  0.01975118  0.08044792  1
  Ni  Ni61  1  0.51464605  0.36709150  0.91751724  1
  Ni  Ni62  1  0.01440914  0.66285257  0.41646335  1
  Cu  Cu63  1  0.64599262  0.99570050  0.24814933  1
  Cu  Cu64  1  0.84714669  0.69601186  0.24774268  1
  Cu  Cu65  1  0.00194036  0.29967563  0.25358689  1
  Cu  Cu66  1  0.50300963  0.30077049  0.24712587  1
  Cu  Cu67  1  0.00244192  0.70893218  0.74762283  1
  Cu  Cu68  1  0.50240729  0.70876497  0.75228663  1
  Cu  Cu69  1  0.34828071  0.99383419  0.74977127  1
  Cu  Cu70  1  0.49038844  0.33270377  0.58555132  1
  Cu  Cu71  1  0.98521830  0.31971610  0.58415793  1
  Cu  Cu72  1  0.17414052  0.03104413  0.58568397  1
  Cu  Cu73  1  0.67686770  0.02274635  0.58746387  1
  Cu  Cu74  1  0.83711946  0.65145734  0.58446060  1
  Cu  Cu75  1  0.48541816  0.65005117  0.08639920  1
  Cu  Cu76  1  0.98589559  0.64244783  0.08717624  1
  Cu  Cu77  1  0.33644292  0.02263902  0.08446004  1
  Cu  Cu78  1  0.17731230  0.33159818  0.08792136  1
  Cu  Cu79  1  0.67716990  0.32192164  0.08350724  1
  Cu  Cu80  1  0.31954060  0.66902948  0.91551265  1
  Cu  Cu81  1  0.81082143  0.65805717  0.91457192  1
  Cu  Cu82  1  0.01003849  0.35994304  0.91515921  1
  Cu  Cu83  1  0.16891713  0.96676514  0.91550367  1
  Cu  Cu84  1  0.66650123  0.96124376  0.91237508  1
  Cu  Cu85  1  0.31179818  0.96311204  0.41200727  1
  Cu  Cu86  1  0.81813348  0.96782307  0.41687307  1
  Cu  Cu87  1  0.16678884  0.37315421  0.41446399  1
  Cu  Cu88  1  0.66869077  0.37198645  0.41762864  1
  Cu  Cu89  1  0.51279375  0.66323466  0.41280042  1
  C  C90  1  0.12168698  0.04045234  0.31481638  1
  C  C91  1  0.60763101  0.00706841  0.30162522  1
  C  C92  1  0.40236910  0.77884817  0.31407252  1
  C  C93  1  0.88782010  0.77207525  0.30284637  1
  C  C94  1  0.49592585  0.20576714  0.29897763  1
  C  C95  1  0.99282867  0.21628442  0.30895866  1
  C  C96  1  0.10557532  0.17452785  0.80019417  1
  C  C97  1  0.62286111  0.20355016  0.81417335  1
  C  C98  1  0.49050921  0.77244214  0.80733009  1
  C  C99  1  0.98555652  0.77629773  0.79935388  1
  C  C100  1  0.38795828  0.00576201  0.80571073  1
  C  C101  1  0.89837880  0.02492245  0.81643602  1
  C  C102  1  0.40128040  0.98769370  0.70244502  1
  C  C103  1  0.90283286  0.97477361  0.70345867  1
  C  C104  1  0.09267895  0.19947956  0.68890863  1
  C  C105  1  0.58872407  0.18725230  0.70134773  1
  C  C106  1  0.00844394  0.81334771  0.69618271  1
  C  C107  1  0.51032197  0.82075225  0.70389771  1
  C  C108  1  0.40430323  0.83516664  0.20168478  1
  C  C109  1  0.89969745  0.80497812  0.19836787  1
  C  C110  1  0.00812793  0.20050689  0.20514010  1
  C  C111  1  0.50935846  0.20974986  0.19545780  1
  C  C112  1  0.08943748  0.99342172  0.20155062  1
  C  C113  1  0.59253274  0.99380781  0.19821037  1
  C  C114  1  0.44826298  0.33925729  0.63765677  1
  C  C115  1  0.94541022  0.33530376  0.63638631  1
  C  C116  1  0.22112926  0.11614512  0.63802399  1
  C  C117  1  0.72060839  0.09526307  0.64196443  1
  C  C118  1  0.32288534  0.52919214  0.63891826  1
  C  C119  1  0.83252044  0.55738180  0.63684657  1
  C  C120  1  0.44298914  0.55297265  0.13797136  1
  C  C121  1  0.94534902  0.54821204  0.13879757  1
  C  C122  1  0.33142164  0.10564992  0.13691697  1
  C  C123  1  0.82824939  0.13004908  0.13001752  1
  C  C124  1  0.22128210  0.34795920  0.14241548  1
  C  C125  1  0.73309416  0.34049795  0.13082405  1
  C  C126  1  0.22023476  0.31299514  0.03807841  1
  C  C127  1  0.70878551  0.29815011  0.02743472  1
  C  C128  1  0.43776697  0.57583133  0.03313049  1
  C  C129  1  0.93436032  0.56863561  0.03521468  1
  C  C130  1  0.34448280  0.11749785  0.03167937  1
  C  C131  1  0.85052586  0.10399236  0.01654105  1
  C  C132  1  0.21627815  0.12956048  0.53322871  1
  C  C133  1  0.71982449  0.12723785  0.53766174  1
  C  C134  1  0.34937625  0.57641131  0.52345373  1
  C  C135  1  0.84347787  0.57021921  0.53152167  1
  C  C136  1  0.44258064  0.31113585  0.53287450  1
  C  C137  1  0.93848572  0.30770180  0.53153045  1
  C  C138  1  0.27261561  0.68179328  0.96420143  1
  C  C139  1  0.77248219  0.67564370  0.96725601  1
  C  C140  1  0.06068885  0.46396699  0.96307109  1
  C  C141  1  0.57257417  0.45715725  0.97146979  1
  C  C142  1  0.16863122  0.86545059  0.96411546  1
  C  C143  1  0.66418429  0.86506145  0.96253047  1
  C  C144  1  0.27236047  0.85996470  0.46245249  1
  C  C145  1  0.77529339  0.86694689  0.46779947  1
  C  C146  1  0.16480709  0.45990184  0.46650573  1
  C  C147  1  0.66541526  0.45774468  0.46973482  1
  C  C148  1  0.07267099  0.69059106  0.47045877  1
  C  C149  1  0.56182313  0.66019451  0.46147339  1
  C  C150  1  0.06881494  0.65046866  0.35900139  1
  C  C151  1  0.55255996  0.66380703  0.35720850  1
  C  C152  1  0.26267431  0.87140774  0.35844925  1
  C  C153  1  0.77207379  0.88658740  0.36394871  1
  C  C154  1  0.17408974  0.47426205  0.36177659  1
  C  C155  1  0.67267006  0.46686249  0.36541241  1
  C  C156  1  0.04894351  0.43719516  0.85914816  1
  C  C157  1  0.56751665  0.48703011  0.85949899  1
  C  C158  1  0.17236188  0.89043471  0.85970242  1
  C  C159  1  0.67251983  0.87866481  0.85827387  1
  C  C160  1  0.27770433  0.65972971  0.86030605  1
  C  C161  1  0.75904079  0.65467421  0.86276280  1
  C  C162  1  0.00123591  0.82331550  0.41207508  1
  C  C163  1  0.50361568  0.81299617  0.41831913  1
  C  C164  1  0.39671668  0.99147495  0.40793789  1
  C  C165  1  0.90297281  0.98737393  0.41524852  1
  C  C166  1  0.08908803  0.21052770  0.41219083  1
  C  C167  1  0.59645115  0.20226802  0.41654530  1
  C  C168  1  0.00218786  0.19348572  0.92112795  1
  C  C169  1  0.50229115  0.18056717  0.91351516  1
  C  C170  1  0.09561960  0.98681967  0.91884036  1
  C  C171  1  0.58880480  0.96930271  0.91197551  1
  C  C172  1  0.40431266  0.81899084  0.91617104  1
  C  C173  1  0.89471873  0.80221234  0.90986056  1
  C  C174  1  0.50041631  0.18118316  0.58966196  1
  C  C175  1  0.98883174  0.16098434  0.58734328  1
  C  C176  1  0.09085149  0.02267642  0.58747295  1
  C  C177  1  0.59220400  0.00872190  0.59038843  1
  C  C178  1  0.41866912  0.83646826  0.59674167  1
  C  C179  1  0.91506868  0.81862901  0.58746416  1
  C  C180  1  0.49210266  0.81919671  0.09204959  1
  C  C181  1  0.99373588  0.81246770  0.09235035  1
  C  C182  1  0.41531628  0.01235488  0.08817870  1
  C  C183  1  0.92163137  0.00054866  0.09416169  1
  C  C184  1  0.09292361  0.17650327  0.09107137  1
  C  C185  1  0.59245814  0.17131330  0.09267675  1
  C  C186  1  0.33398817  0.13407690  0.74311184  1
  C  C187  1  0.84025447  0.16279832  0.74607138  1
  C  C188  1  0.24530706  0.32342804  0.74540279  1
  C  C189  1  0.74793066  0.34432372  0.74341851  1
  C  C190  1  0.43337180  0.54103766  0.74363478  1
  C  C191  1  0.93412604  0.53727443  0.73937121  1
  C  C192  1  0.34062658  0.51956989  0.24604860  1
  C  C193  1  0.83833735  0.53175335  0.24282364  1
  C  C194  1  0.42660405  0.31244675  0.24188032  1
  C  C195  1  0.93597241  0.33660507  0.24560634  1
  C  C196  1  0.24741036  0.15290861  0.24502790  1
  C  C197  1  0.73016335  0.13391625  0.24374720  1
  C  C198  1  0.32953189  0.52130554  0.92039973  1
  C  C199  1  0.81034454  0.49941024  0.91341490  1
  C  C200  1  0.42443641  0.35813279  0.91658086  1
  C  C201  1  0.92525842  0.33853592  0.91596652  1
  C  C202  1  0.24747965  0.13123574  0.91824591  1
  C  C203  1  0.73969705  0.13155845  0.91359210  1
  C  C204  1  0.31054475  0.12047991  0.41363412  1
  C  C205  1  0.82908802  0.13667339  0.42047542  1
  C  C206  1  0.24002941  0.34880725  0.41452397  1
  C  C207  1  0.74754572  0.36543057  0.41837981  1
  C  C208  1  0.42726889  0.51447188  0.41312978  1
  C  C209  1  0.92473180  0.49030901  0.41499643  1
  C  C210  1  0.16403622  0.47365045  0.08216023  1
  C  C211  1  0.66931500  0.47097441  0.08216999  1
  C  C212  1  0.07018112  0.66726098  0.08165432  1
  C  C213  1  0.56947638  0.67678816  0.08390258  1
  C  C214  1  0.26470486  0.85356877  0.08195173  1
  C  C215  1  0.76173147  0.82698335  0.08271348  1
  C  C216  1  0.16156086  0.86369080  0.58419172  1
  C  C217  1  0.66311563  0.85394206  0.58202183  1
  C  C218  1  0.25057093  0.65984524  0.58344809  1
  C  C219  1  0.76432609  0.67403445  0.58252081  1
  C  C220  1  0.07191325  0.45697135  0.58176576  1
  C  C221  1  0.57428885  0.47863088  0.58295581  1
  C  C222  1  0.15757423  0.83090254  0.25333071  1
  C  C223  1  0.64285444  0.83299369  0.24495687  1
  C  C224  1  0.25752499  0.68671253  0.25558626  1
  C  C225  1  0.76584275  0.68746769  0.24358043  1
  C  C226  1  0.08590826  0.45859295  0.25290225  1
  C  C227  1  0.57496737  0.47002819  0.24774566  1
  C  C228  1  0.15316771  0.47607832  0.74680380  1
  C  C229  1  0.65762800  0.48498125  0.75368117  1
  C  C230  1  0.08258421  0.71166248  0.75056508  1
  C  C231  1  0.58373055  0.71046435  0.75353884  1
  C  C232  1  0.26699005  0.83667364  0.74625378  1
  C  C233  1  0.75579357  0.82829058  0.75616871  1
