# generated using pymatgen
data_Cu3NiC
_symmetry_space_group_name_H-M   'P 1'
_cell_length_a   6.37766500
_cell_length_b   6.39130944
_cell_length_c   7.78219586
_cell_angle_alpha   95.10298167
_cell_angle_beta   106.33659055
_cell_angle_gamma   118.94557475
_symmetry_Int_Tables_number   1
_chemical_formula_structural   Cu3NiC
_chemical_formula_sum   'Cu6 Ni2 C2'
_cell_volume   256.63418657
_cell_formula_units_Z   2
loop_
 _symmetry_equiv_pos_site_id
 _symmetry_equiv_pos_as_xyz
  1  'x, y, z'
loop_
 _atom_site_type_symbol
 _atom_site_label
 _atom_site_symmetry_multiplicity
 _atom_site_fract_x
 _atom_site_fract_y
 _atom_site_fract_z
 _atom_site_occupancy
  C  C0  1  0.12659800  0.74741700  0.35363200  1
  C  C1  1  0.87340200  0.25258300  0.64636800  1
  Ni  Ni2  1  0.53994400  0.55792500  0.65589900  1
  Ni  Ni3  1  0.46005600  0.44207500  0.34410100  1
  Cu  Cu4  1  0.50662800  0.14750000  0.30212800  1
  Cu  Cu5  1  0.49337200  0.85250000  0.69787200  1
  Cu  Cu6  1  0.09461100  0.34854900  0.20429300  1
  Cu  Cu7  1  0.90538900  0.65145100  0.79570700  1
  Cu  Cu8  1  0.28498100  0.25867700  0.72139600  1
  Cu  Cu9  1  0.71501900  0.74132300  0.27860400  1
