# generated using pymatgen
data_CuNi3C37
_symmetry_space_group_name_H-M   'P 1'
_cell_length_a   9.16462482
_cell_length_b   9.16318110
_cell_length_c   22.81635165
_cell_angle_alpha   90.05448821
_cell_angle_beta   89.91956033
_cell_angle_gamma   120.06472758
_symmetry_Int_Tables_number   1
_chemical_formula_structural   CuNi3C37
_chemical_formula_sum   'Cu3 Ni9 C111'
_cell_volume   1658.26416280
_cell_formula_units_Z   3
loop_
 _symmetry_equiv_pos_site_id
 _symmetry_equiv_pos_as_xyz
  1  'x, y, z'
loop_
 _atom_site_type_symbol
 _atom_site_label
 _atom_site_symmetry_multiplicity
 _atom_site_fract_x
 _atom_site_fract_y
 _atom_site_fract_z
 _atom_site_occupancy
  C  C0  1  0.36969433  0.36522816  0.24939708  1
  C  C1  1  0.63779631  0.63469012  0.74981943  1
  C  C2  1  0.99699784  0.36278736  0.74965507  1
  C  C3  1  0.36525959  0.00288525  0.74973051  1
  C  C4  1  0.30077022  0.33356855  0.58281133  1
  C  C5  1  0.03268693  0.69913320  0.58278137  1
  C  C6  1  0.66646334  0.96720054  0.58277382  1
  C  C7  1  0.30565711  0.96950880  0.08330660  1
  C  C8  1  0.66387663  0.69530053  0.08332128  1
  C  C9  1  0.03088112  0.33599379  0.08292571  1
  C  C10  1  0.96414221  0.66556281  0.91793000  1
  C  C11  1  0.70285417  0.03452858  0.91800759  1
  C  C12  1  0.96683867  0.29868721  0.41546055  1
  C  C13  1  0.33200807  0.03391492  0.41577297  1
  C  C14  1  0.70124517  0.66758133  0.41542898  1
  C  C15  1  0.00014887  0.00011451  0.49892688  1
  C  C16  1  0.00682485  0.00656033  0.99836844  1
  C  C17  1  0.66040801  0.33293014  0.83588443  1
  C  C18  1  0.67286301  0.33318240  0.32946979  1
  C  C19  1  0.33292352  0.67225057  0.16757596  1
  C  C20  1  0.33325250  0.66672458  0.66509858  1
  Ni  Ni21  1  0.99886644  0.99941035  0.35045328  1
  Ni  Ni22  1  0.00475050  0.00433570  0.85328446  1
  Ni  Ni23  1  0.00017961  0.00011400  0.64876636  1
  Ni  Ni24  1  0.66696170  0.33349446  0.68479860  1
  Ni  Ni25  1  0.67133474  0.33297033  0.18741923  1
  Ni  Ni26  1  0.66149999  0.33278864  0.98070622  1
  Ni  Ni27  1  0.66655997  0.33341194  0.48016133  1
  Ni  Ni28  1  0.33301949  0.66555140  0.01860411  1
  Ni  Ni29  1  0.33316648  0.66658083  0.51772304  1
  Cu  Cu30  1  0.99917834  0.99887474  0.14948986  1
  Cu  Cu31  1  0.33322741  0.67038185  0.31098505  1
  Cu  Cu32  1  0.33399112  0.66636012  0.81569055  1
  C  C33  1  0.29149744  0.99784205  0.25035841  1
  C  C34  1  0.70709010  0.70772304  0.25076169  1
  C  C35  1  0.99860840  0.29260316  0.25093876  1
  C  C36  1  0.29324952  0.29469417  0.75001435  1
  C  C37  1  0.00145861  0.70737770  0.75095758  1
  C  C38  1  0.70586369  0.99867835  0.75083570  1
  C  C39  1  0.96004427  0.33309603  0.58312993  1
  C  C40  1  0.37315175  0.03982612  0.58323738  1
  C  C41  1  0.66664632  0.62687703  0.58322988  1
  C  C42  1  0.95802197  0.62644579  0.08333598  1
  C  C43  1  0.66841187  0.04260993  0.08336658  1
  C  C44  1  0.37367673  0.33168111  0.08516921  1
  C  C45  1  0.62433187  0.66411483  0.91662260  1
  C  C46  1  0.04185526  0.37359328  0.91711939  1
  C  C47  1  0.33346578  0.95957816  0.91691714  1
  C  C48  1  0.62378892  0.95634323  0.41593523  1
  C  C49  1  0.33266349  0.37645177  0.41541048  1
  C  C50  1  0.04382590  0.66739356  0.41583498  1
  C  C51  1  0.20518854  0.03067108  0.30777116  1
  C  C52  1  0.82141053  0.79552729  0.30854272  1
  C  C53  1  0.97602528  0.17919454  0.30876662  1
  C  C54  1  0.20258341  0.16812838  0.80480218  1
  C  C55  1  0.96616788  0.79330798  0.80761547  1
  C  C56  1  0.82648595  0.03269124  0.80746247  1
  C  C57  1  0.78818313  0.96085691  0.69280288  1
  C  C58  1  0.17381468  0.21393429  0.69178525  1
  C  C59  1  0.03923962  0.82753722  0.69292139  1
  C  C60  1  0.80362871  0.83135271  0.19297853  1
  C  C61  1  0.03223302  0.19785805  0.19351657  1
  C  C62  1  0.16804427  0.97177302  0.19264909  1
  C  C63  1  0.87393420  0.36685747  0.64101886  1
  C  C64  1  0.49302881  0.12618917  0.64103367  1
  C  C65  1  0.63318967  0.50692136  0.64100412  1
  C  C66  1  0.86836196  0.50131379  0.13820294  1
  C  C67  1  0.63141654  0.13132606  0.13825294  1
  C  C68  1  0.49227691  0.36770640  0.14220019  1
  C  C69  1  0.45955415  0.29254605  0.02843911  1
  C  C70  1  0.83937904  0.54626508  0.02463670  1
  C  C71  1  0.70753640  0.16129307  0.02453334  1
  C  C72  1  0.46032951  0.16124969  0.52584480  1
  C  C73  1  0.70101639  0.53970184  0.52583649  1
  C  C74  1  0.83855089  0.29902539  0.52584410  1
  C  C75  1  0.53913030  0.70061473  0.97347884  1
  C  C76  1  0.15708334  0.46289243  0.97462824  1
  C  C77  1  0.30071714  0.83897995  0.97387034  1
  C  C78  1  0.54068250  0.83992524  0.47456389  1
  C  C79  1  0.29962547  0.46041791  0.47396400  1
  C  C80  1  0.16028626  0.70083354  0.47444592  1
  C  C81  1  0.14332392  0.63673836  0.36089173  1
  C  C82  1  0.49395339  0.85634809  0.36102282  1
  C  C83  1  0.36333380  0.50176419  0.35899129  1
  C  C84  1  0.13938534  0.49928509  0.85951535  1
  C  C85  1  0.36022186  0.86090783  0.85921118  1
  C  C86  1  0.50277663  0.64271657  0.85886392  1
  C  C87  1  0.02472042  0.83510420  0.41039531  1
  C  C88  1  0.81082747  0.97595676  0.41068490  1
  C  C89  1  0.16500366  0.18862119  0.41075387  1
  C  C90  1  0.01461573  0.18499586  0.91038081  1
  C  C91  1  0.16016946  0.96546148  0.90968462  1
  C  C92  1  0.80878529  0.83494131  0.90936782  1
  C  C93  1  0.97671055  0.16343367  0.58922366  1
  C  C94  1  0.18664166  0.02288437  0.58926268  1
  C  C95  1  0.83654611  0.81344856  0.58927581  1
  C  C96  1  0.97735293  0.81645471  0.09181362  1
  C  C97  1  0.83895335  0.02329861  0.09223012  1
  C  C98  1  0.18296033  0.16091327  0.09203652  1
  C  C99  1  0.68432159  0.16508612  0.74444184  1
  C  C100  1  0.48116080  0.31619892  0.74427553  1
  C  C101  1  0.83485126  0.51928016  0.74441939  1
  C  C102  1  0.67685970  0.51856514  0.24344523  1
  C  C103  1  0.83519078  0.31305481  0.24380140  1
  C  C104  1  0.47160451  0.16948332  0.24285246  1
  C  C105  1  0.64882251  0.50018728  0.92010018  1
  C  C106  1  0.85789213  0.36302229  0.92013146  1
  C  C107  1  0.50997228  0.13887048  0.92023369  1
  C  C108  1  0.63852006  0.14194169  0.42082055  1
  C  C109  1  0.50343413  0.36114641  0.42096890  1
  C  C110  1  0.85808539  0.49639529  0.42084822  1
  C  C111  1  0.35089097  0.49760603  0.07765970  1
  C  C112  1  0.14750858  0.65043830  0.07772687  1
  C  C113  1  0.50264213  0.85307943  0.07739387  1
  C  C114  1  0.35555689  0.85318280  0.57822331  1
  C  C115  1  0.49756445  0.64432623  0.57821249  1
  C  C116  1  0.14680696  0.50240589  0.57820864  1
  C  C117  1  0.30599572  0.82678388  0.25758988  1
  C  C118  1  0.51755107  0.68815029  0.25749880  1
  C  C119  1  0.17777841  0.47508608  0.25735794  1
  C  C120  1  0.31088763  0.48301658  0.75819184  1
  C  C121  1  0.17215398  0.68907980  0.75827606  1
  C  C122  1  0.51654850  0.82784241  0.75793219  1
