# generated using pymatgen
data_Cu3(Ni4C35)2
_symmetry_space_group_name_H-M   'P 1'
_cell_length_a   9.34682603
_cell_length_b   9.34952862
_cell_length_c   10.18629801
_cell_angle_alpha   90.00592903
_cell_angle_beta   89.99809241
_cell_angle_gamma   119.99930582
_symmetry_Int_Tables_number   1
_chemical_formula_structural   Cu3(Ni4C35)2
_chemical_formula_sum   'Cu3 Ni8 C70'
_cell_volume   770.91042705
_cell_formula_units_Z   1
loop_
 _symmetry_equiv_pos_site_id
 _symmetry_equiv_pos_as_xyz
  1  'x, y, z'
loop_
 _atom_site_type_symbol
 _atom_site_label
 _atom_site_symmetry_multiplicity
 _atom_site_fract_x
 _atom_site_fract_y
 _atom_site_fract_z
 _atom_site_occupancy
  C  C0  1  0.88933400  0.66507700  0.49876200  1
  C  C1  1  0.55295800  0.66569400  0.49904500  1
  C  C2  1  0.88899100  0.99940700  0.16627100  1
  C  C3  1  0.55380500  0.99958600  0.16683400  1
  C  C4  1  0.88859700  0.33454800  0.16832600  1
  C  C5  1  0.55438300  0.33205700  0.83396400  1
  C  C6  1  0.89032500  0.66633100  0.83495200  1
  C  C7  1  0.88901900  0.00104300  0.83294200  1
  C  C8  1  0.22400000  0.33451600  0.16664500  1
  C  C9  1  0.22472300  0.00098800  0.49915300  1
  Ni  Ni10  1  0.88855300  0.00241900  0.50112600  1
  Ni  Ni11  1  0.22308500  0.33627500  0.83506300  1
  Ni  Ni12  1  0.89083100  0.33349200  0.83113100  1
  Ni  Ni13  1  0.55124800  0.66630100  0.83162000  1
  Ni  Ni14  1  0.55219700  0.99746700  0.83491700  1
  Ni  Ni15  1  0.22361200  0.66814100  0.16416300  1
  Ni  Ni16  1  0.55330300  0.66538700  0.17004600  1
  Ni  Ni17  1  0.89007000  0.66617500  0.16585200  1
  Cu  Cu18  1  0.22425500  0.00011500  0.16987100  1
  Cu  Cu19  1  0.88987200  0.33296100  0.49978300  1
  Cu  Cu20  1  0.55422000  0.33300100  0.16479000  1
  C  C21  1  0.22467000  0.66709700  0.83555500  1
  C  C22  1  0.55485400  0.99963000  0.49864700  1
  C  C23  1  0.55425600  0.33144600  0.50053700  1
  C  C24  1  0.22247500  0.33528800  0.49867500  1
  C  C25  1  0.22504500  0.00028800  0.83151300  1
  C  C26  1  0.22325400  0.66574100  0.50006500  1
  C  C27  1  0.99923800  0.55447300  0.33460600  1
  C  C28  1  0.00020600  0.22314300  0.99925800  1
  C  C29  1  0.33421800  0.22140900  0.00220200  1
  C  C30  1  0.66538500  0.22227400  0.00100400  1
  C  C31  1  0.00071400  0.55604600  0.00134700  1
  C  C32  1  0.33423000  0.55644400  0.99978700  1
  C  C33  1  0.66520500  0.55430900  0.00251800  1
  C  C34  1  0.00248000  0.88945200  0.00377000  1
  C  C35  1  0.33290900  0.89027600  0.00211000  1
  C  C36  1  0.66478600  0.88747300  0.00055500  1
  C  C37  1  0.99861500  0.22254000  0.33649700  1
  C  C38  1  0.33532700  0.22197600  0.32951900  1
  C  C39  1  0.66670500  0.22390200  0.33376800  1
  C  C40  1  0.77647000  0.77761700  0.66488100  1
  C  C41  1  0.44400300  0.77759300  0.66710400  1
  C  C42  1  0.66654600  0.55408300  0.33100300  1
  C  C43  1  0.77634200  0.77608900  0.00143500  1
  C  C44  1  0.11116600  0.11021300  0.33223700  1
  C  C45  1  0.44495400  0.11279100  0.32845900  1
  C  C46  1  0.77812000  0.11278700  0.33559400  1
  C  C47  1  0.10953500  0.44491100  0.33581900  1
  C  C48  1  0.44635100  0.44336400  0.33218000  1
  C  C49  1  0.77688900  0.44318600  0.33318800  1
  C  C50  1  0.11118400  0.77764700  0.32974600  1
  C  C51  1  0.44336000  0.77734900  0.33224300  1
  C  C52  1  0.77781900  0.77701900  0.33335200  1
  C  C53  1  0.11182900  0.11333900  0.66656700  1
  C  C54  1  0.44630200  0.11115200  0.66773200  1
  C  C55  1  0.77809200  0.11343200  0.66451600  1
  C  C56  1  0.11001600  0.44394600  0.66504800  1
  C  C57  1  0.44332800  0.44452100  0.66720600  1
  C  C58  1  0.77865900  0.44214300  0.66436500  1
  C  C59  1  0.11215000  0.77648300  0.66579100  1
  C  C60  1  0.44407300  0.77794700  0.00074500  1
  C  C61  1  0.11291600  0.77944700  0.00404700  1
  C  C62  1  0.77603200  0.44330700  0.00217100  1
  C  C63  1  0.33232300  0.55505500  0.66771400  1
  C  C64  1  0.00048800  0.88865200  0.33155200  1
  C  C65  1  0.33236500  0.88877300  0.33026600  1
  C  C66  1  0.66702300  0.88929600  0.33409000  1
  C  C67  1  0.99981700  0.22439200  0.66413900  1
  C  C68  1  0.33307500  0.22342400  0.66837800  1
  C  C69  1  0.66849200  0.22226500  0.66590900  1
  C  C70  1  0.99985800  0.55259100  0.66432900  1
  C  C71  1  0.66543600  0.55488000  0.66641200  1
  C  C72  1  0.44581800  0.44442800  0.00064500  1
  C  C73  1  0.99998500  0.88916100  0.66488900  1
  C  C74  1  0.33397100  0.88782800  0.66775700  1
  C  C75  1  0.66528000  0.88928700  0.66587800  1
  C  C76  1  0.11371600  0.11072100  0.00086300  1
  C  C77  1  0.44368300  0.11164300  0.00304700  1
  C  C78  1  0.77635200  0.11164700  0.99952200  1
  C  C79  1  0.11126500  0.44530200  0.99902800  1
  C  C80  1  0.33306200  0.55620500  0.33302200  1
