# generated using pymatgen
data_Cu2Ni4C9
_symmetry_space_group_name_H-M   'P 1'
_cell_length_a   6.09694534
_cell_length_b   6.09694803
_cell_length_c   6.43286441
_cell_angle_alpha   61.80686395
_cell_angle_beta   61.80691087
_cell_angle_gamma   58.86027124
_symmetry_Int_Tables_number   1
_chemical_formula_structural   Cu2Ni4C9
_chemical_formula_sum   'Cu2 Ni4 C9'
_cell_volume   171.94255615
_cell_formula_units_Z   1
loop_
 _symmetry_equiv_pos_site_id
 _symmetry_equiv_pos_as_xyz
  1  'x, y, z'
loop_
 _atom_site_type_symbol
 _atom_site_label
 _atom_site_symmetry_multiplicity
 _atom_site_fract_x
 _atom_site_fract_y
 _atom_site_fract_z
 _atom_site_occupancy
  C  C0  1  0.16480500  0.16480500  0.61513500  1
  Ni  Ni1  1  0.95063500  0.95063500  0.09233100  1
  Ni  Ni2  1  0.28009900  0.28009900  0.14973200  1
  Ni  Ni3  1  0.62000600  0.62000600  0.12258700  1
  Ni  Ni4  1  0.62609800  0.62609800  0.63162200  1
  Cu  Cu5  1  0.13246800  0.65723800  0.61475100  1
  Cu  Cu6  1  0.65723800  0.13246800  0.61475100  1
  C  C7  1  0.39166000  0.39166000  0.35657800  1
  C  C8  1  0.37695700  0.88687500  0.39650000  1
  C  C9  1  0.41156500  0.41156400  0.78725400  1
  C  C10  1  0.88687600  0.37695500  0.39650000  1
  C  C11  1  0.36308600  0.86872600  0.87160300  1
  C  C12  1  0.86872400  0.36308700  0.87160300  1
  C  C13  1  0.84130400  0.84130500  0.46102100  1
  C  C14  1  0.84514600  0.84514600  0.90345000  1
