# generated using pymatgen
data_Cu(NiC12)2
_symmetry_space_group_name_H-M   'P 1'
_cell_length_a   6.33392626
_cell_length_b   6.33393521
_cell_length_c   8.06339565
_cell_angle_alpha   113.12558224
_cell_angle_beta   113.12543661
_cell_angle_gamma   89.99981915
_symmetry_Int_Tables_number   1
_chemical_formula_structural   Cu(NiC12)2
_chemical_formula_sum   'Cu1 Ni2 C24'
_cell_volume   269.00543446
_cell_formula_units_Z   1
loop_
 _symmetry_equiv_pos_site_id
 _symmetry_equiv_pos_as_xyz
  1  'x, y, z'
loop_
 _atom_site_type_symbol
 _atom_site_label
 _atom_site_symmetry_multiplicity
 _atom_site_fract_x
 _atom_site_fract_y
 _atom_site_fract_z
 _atom_site_occupancy
  Ni  Ni0  1  0.27737000  0.27737000  0.55474100  1
  Ni  Ni1  1  0.72263400  0.72263300  0.44526600  1
  Cu  Cu2  1  0.00000400  0.00000300  0.00000700  1
  C  C3  1  0.25000700  0.75000500  0.50001400  1
  C  C4  1  0.75000600  0.25000800  0.50001300  1
  C  C5  1  0.40626300  0.24147800  0.11960800  1
  C  C6  1  0.87813200  0.40626100  0.11960800  1
  C  C7  1  0.24147600  0.71334700  0.11960800  1
  C  C8  1  0.71334700  0.87813100  0.11960800  1
  C  C9  1  0.59374000  0.75852400  0.88039600  1
  C  C10  1  0.28665400  0.12187000  0.88039500  1
  C  C11  1  0.12187100  0.59374100  0.88039500  1
  C  C12  1  0.75852400  0.28665500  0.88039500  1
  C  C13  1  0.01447500  0.34598700  0.63708800  1
  C  C14  1  0.37739300  0.70890100  0.36291300  1
  C  C15  1  0.29109800  0.01447500  0.63708700  1
  C  C16  1  0.70890200  0.98551300  0.36291200  1
  C  C17  1  0.98551400  0.65401300  0.36291100  1
  C  C18  1  0.34599000  0.62262000  0.63708900  1
  C  C19  1  0.84507600  0.84507400  0.69014900  1
  C  C20  1  0.25723600  0.20038400  0.00000300  1
  C  C21  1  0.79962000  0.25723900  0.00000300  1
  C  C22  1  0.20038300  0.74276300  0.00000100  1
  C  C23  1  0.74276700  0.79961700  0.00000200  1
  C  C24  1  0.62261900  0.29110000  0.63708700  1
  C  C25  1  0.65401000  0.37739200  0.36291100  1
  C  C26  1  0.15489500  0.15489600  0.30979100  1
