# generated using pymatgen
data_CuNiC3
_symmetry_space_group_name_H-M   'P 1'
_cell_length_a   5.91835197
_cell_length_b   5.91267064
_cell_length_c   5.91267052
_cell_angle_alpha   33.46162542
_cell_angle_beta   33.49558446
_cell_angle_gamma   33.49558573
_symmetry_Int_Tables_number   1
_chemical_formula_structural   CuNiC3
_chemical_formula_sum   'Cu1 Ni1 C3'
_cell_volume   56.08893116
_cell_formula_units_Z   1
loop_
 _symmetry_equiv_pos_site_id
 _symmetry_equiv_pos_as_xyz
  1  'x, y, z'
loop_
 _atom_site_type_symbol
 _atom_site_label
 _atom_site_symmetry_multiplicity
 _atom_site_fract_x
 _atom_site_fract_y
 _atom_site_fract_z
 _atom_site_occupancy
  Ni  Ni0  1  0.24551119  0.24664575  0.24664575  1
  Cu  Cu1  1  0.03883052  0.04666861  0.04666861  1
  C  C2  1  0.48056626  0.48013123  0.48013123  1
  C  C3  1  0.36161872  0.36694782  0.36694782  1
  C  C4  1  0.54014030  0.54016259  0.54016259  1
