# generated using pymatgen
data_Cu7Ni6C61
_symmetry_space_group_name_H-M   'P 1'
_cell_length_a   18.20285369
_cell_length_b   9.08927086
_cell_length_c   24.05518802
_cell_angle_alpha   90.00966292
_cell_angle_beta   89.94886659
_cell_angle_gamma   119.88674322
_symmetry_Int_Tables_number   1
_chemical_formula_structural   Cu7Ni6C61
_chemical_formula_sum   'Cu21 Ni18 C183'
_cell_volume   3450.66044145
_cell_formula_units_Z   3
loop_
 _symmetry_equiv_pos_site_id
 _symmetry_equiv_pos_as_xyz
  1  'x, y, z'
loop_
 _atom_site_type_symbol
 _atom_site_label
 _atom_site_symmetry_multiplicity
 _atom_site_fract_x
 _atom_site_fract_y
 _atom_site_fract_z
 _atom_site_occupancy
  Ni  Ni0  1  0.32238364  0.64306715  0.74915415  1
  Ni  Ni1  1  0.65125293  0.33213444  0.58502336  1
  Ni  Ni2  1  0.98850759  0.66828160  0.91879299  1
  Ni  Ni3  1  0.66414542  0.30234667  0.91546810  1
  Ni  Ni4  1  0.16648307  0.02754296  0.41792328  1
  Ni  Ni5  1  0.66682438  0.02716077  0.41791073  1
  Ni  Ni6  1  0.99343849  0.00248213  0.50253323  1
  Ni  Ni7  1  0.48128042  0.97779628  0.50213594  1
  Ni  Ni8  1  0.00341608  0.01935905  0.00498018  1
  Ni  Ni9  1  0.48957340  0.98210754  0.00129250  1
  Ni  Ni10  1  0.33920220  0.32253183  0.83870261  1
  Ni  Ni11  1  0.82859089  0.31284058  0.82964725  1
  Ni  Ni12  1  0.34168396  0.34921351  0.33538666  1
  Ni  Ni13  1  0.84226705  0.34950253  0.33451483  1
  Ni  Ni14  1  0.16720919  0.66692903  0.16499644  1
  Ni  Ni15  1  0.66598100  0.66597291  0.16518733  1
  Ni  Ni16  1  0.16388057  0.67220020  0.66220614  1
  Ni  Ni17  1  0.66259228  0.67694178  0.67035707  1
  Cu  Cu18  1  0.99492111  0.99914745  0.35090156  1
  Cu  Cu19  1  0.49516398  0.00097870  0.35098420  1
  Cu  Cu20  1  0.00170923  0.01146425  0.85123702  1
  Cu  Cu21  1  0.49679966  0.99566087  0.84874559  1
  Cu  Cu22  1  0.49820256  0.99522085  0.65201580  1
  Cu  Cu23  1  0.33632138  0.32571021  0.67932062  1
  Cu  Cu24  1  0.83254931  0.33297239  0.68326165  1
  Cu  Cu25  1  0.33266579  0.33211245  0.18103736  1
  Cu  Cu26  1  0.83236394  0.33325776  0.18080123  1
  Cu  Cu27  1  0.33373681  0.33629198  0.98855195  1
  Cu  Cu28  1  0.83277314  0.32042939  0.99367194  1
  Cu  Cu29  1  0.33546397  0.33958659  0.48745462  1
  Cu  Cu30  1  0.84583563  0.34818277  0.48881834  1
  Cu  Cu31  1  0.17071183  0.66796497  0.01883193  1
  Cu  Cu32  1  0.66581265  0.67115908  0.01856838  1
  Cu  Cu33  1  0.16577350  0.65834246  0.51810435  1
  Cu  Cu34  1  0.66772500  0.67154752  0.51542345  1
  Cu  Cu35  1  0.16699076  0.66095338  0.31281808  1
  Cu  Cu36  1  0.66693988  0.66073511  0.31251462  1
  Cu  Cu37  1  0.16360427  0.66805633  0.81676502  1
  Cu  Cu38  1  0.66786780  0.67102821  0.81612973  1
  C  C39  1  0.00206063  0.00569643  0.65429656  1
  C  C40  1  0.00084960  0.00167019  0.15379022  1
  C  C41  1  0.49861004  0.99820190  0.15326202  1
  C  C42  1  0.14124849  0.99765859  0.24665142  1
  C  C43  1  0.64094173  0.99777271  0.24658123  1
  C  C44  1  0.35714955  0.71649894  0.24459925  1
  C  C45  1  0.85793542  0.71802359  0.24424390  1
  C  C46  1  0.00110743  0.28598735  0.24440076  1
  C  C47  1  0.50106467  0.28502843  0.24415165  1
  C  C48  1  0.14450204  0.29123009  0.74439792  1
  C  C49  1  0.65257843  0.30446616  0.75023600  1
  C  C50  1  0.00116522  0.71914812  0.74620718  1
  C  C51  1  0.49805977  0.69538004  0.74943917  1
  C  C52  1  0.34695883  0.99531219  0.75032819  1
  C  C53  1  0.85844796  0.99800243  0.74459576  1
  C  C54  1  0.48844955  0.33302160  0.58255488  1
  C  C55  1  0.98533302  0.31314872  0.59031976  1
  C  C56  1  0.16955766  0.02605472  0.58767804  1
  C  C57  1  0.68316956  0.03715534  0.58138424  1
  C  C58  1  0.33270755  0.63754617  0.58627658  1
  C  C59  1  0.84153328  0.65178881  0.58826825  1
  C  C60  1  0.48485372  0.65663966  0.08984955  1
  C  C61  1  0.98592696  0.65696265  0.08721236  1
  C  C62  1  0.34324082  0.03018459  0.08957570  1
  C  C63  1  0.84333382  0.02722580  0.09021727  1
  C  C64  1  0.17148930  0.31286956  0.08975471  1
  C  C65  1  0.67117998  0.31441024  0.08740731  1
  C  C66  1  0.31717681  0.66266792  0.91452624  1
  C  C67  1  0.81733176  0.66216967  0.91784083  1
  C  C68  1  0.01523135  0.37089262  0.91799456  1
  C  C69  1  0.51788397  0.36738024  0.91701190  1
  C  C70  1  0.16551158  0.96597389  0.91737673  1
  C  C71  1  0.66817583  0.97474400  0.91672398  1
  C  C72  1  0.31348814  0.96664017  0.41700390  1
  C  C73  1  0.81450861  0.96816656  0.41637474  1
  C  C74  1  0.16705307  0.36102185  0.41584043  1
  C  C75  1  0.66831859  0.36151743  0.41859092  1
  C  C76  1  0.01917491  0.66917911  0.41565435  1
  C  C77  1  0.51790297  0.66897862  0.41482091  1
  C  C78  1  0.10278294  0.01146942  0.29837486  1
  C  C79  1  0.60277695  0.01159175  0.29855378  1
  C  C80  1  0.40501533  0.79666912  0.29474196  1
  C  C81  1  0.90539709  0.79727955  0.29465479  1
  C  C82  1  0.49409949  0.19074645  0.29459945  1
  C  C83  1  0.99386967  0.19049605  0.29460870  1
  C  C84  1  0.10445899  0.19392744  0.79448159  1
  C  C85  1  0.60872704  0.20768873  0.80096718  1
  C  C86  1  0.49014112  0.78138613  0.79921299  1
  C  C87  1  0.99419962  0.79559212  0.79817379  1
  C  C88  1  0.39582920  0.01111639  0.80085767  1
  C  C89  1  0.90607018  0.01136185  0.79476045  1
  C  C90  1  0.38974427  0.97956280  0.70045337  1
  C  C91  1  0.90416599  0.98026343  0.69271486  1
  C  C92  1  0.08969794  0.20121652  0.69294762  1
  C  C93  1  0.60537631  0.21864549  0.69900672  1
  C  C94  1  0.01106478  0.83415941  0.69532430  1
  C  C95  1  0.50537565  0.79268785  0.69893758  1
  C  C96  1  0.40198562  0.82626881  0.19260702  1
  C  C97  1  0.90335855  0.82893774  0.19262211  1
  C  C98  1  0.01087768  0.19539385  0.19255295  1
  C  C99  1  0.51031291  0.19317490  0.19250545  1
  C  C100  1  0.08439579  0.97940593  0.19578848  1
  C  C101  1  0.58390556  0.97923331  0.19588809  1
  C  C102  1  0.44738081  0.34657892  0.63330308  1
  C  C103  1  0.94246023  0.33363834  0.63836518  1
  C  C104  1  0.22397547  0.11677931  0.63482720  1
  C  C105  1  0.73476098  0.12702310  0.63032448  1
  C  C106  1  0.32797164  0.54610910  0.63857179  1
  C  C107  1  0.82974740  0.54278635  0.63623508  1
  C  C108  1  0.44273040  0.55214602  0.13811329  1
  C  C109  1  0.94043054  0.54706161  0.13386020  1
  C  C110  1  0.33290145  0.11367686  0.13804834  1
  C  C111  1  0.83265328  0.11312575  0.13774691  1
  C  C112  1  0.22324291  0.33245991  0.13821105  1
  C  C113  1  0.72588756  0.33289602  0.13408725  1
  C  C114  1  0.20662450  0.28479930  0.03828907  1
  C  C115  1  0.70568259  0.28972626  0.03432036  1
  C  C116  1  0.43620390  0.58631419  0.03822096  1
  C  C117  1  0.93934592  0.58901063  0.03398136  1
  C  C118  1  0.35633922  0.12792263  0.03806951  1
  C  C119  1  0.85751661  0.12380000  0.03809480  1
  C  C120  1  0.20238347  0.11784622  0.53457843  1
  C  C121  1  0.72478246  0.13466043  0.52976054  1
  C  C122  1  0.33677858  0.54379357  0.53744310  1
  C  C123  1  0.85588823  0.58167413  0.53679369  1
  C  C124  1  0.43933302  0.32081907  0.53268048  1
  C  C125  1  0.93757175  0.28391962  0.53829595  1
  C  C126  1  0.27037923  0.67417680  0.96303234  1
  C  C127  1  0.77610422  0.68019309  0.96806626  1
  C  C128  1  0.06532623  0.45628619  0.96796000  1
  C  C129  1  0.56960461  0.45365880  0.96684112  1
  C  C130  1  0.15579766  0.86008282  0.96665362  1
  C  C131  1  0.66246969  0.87813160  0.96725913  1
  C  C132  1  0.27153073  0.86851977  0.46762636  1
  C  C133  1  0.77342859  0.87023609  0.46699684  1
  C  C134  1  0.16016679  0.44446563  0.46629899  1
  C  C135  1  0.66196292  0.44002067  0.47091720  1
  C  C136  1  0.06892638  0.68330674  0.46601875  1
  C  C137  1  0.56804944  0.68572958  0.46516081  1
  C  C138  1  0.06109170  0.65476875  0.36510903  1
  C  C139  1  0.56067988  0.65510820  0.36455209  1
  C  C140  1  0.26357269  0.88122237  0.36661455  1
  C  C141  1  0.76356738  0.88115445  0.36647594  1
  C  C142  1  0.17321402  0.45738808  0.36536977  1
  C  C143  1  0.67345969  0.46333334  0.36958705  1
  C  C144  1  0.05657536  0.46932968  0.86714789  1
  C  C145  1  0.55926818  0.46575777  0.86643577  1
  C  C146  1  0.17264012  0.88471472  0.86619086  1
  C  C147  1  0.67588158  0.89242679  0.86623153  1
  C  C148  1  0.27179719  0.65106617  0.86164079  1
  C  C149  1  0.76748555  0.64585083  0.86768152  1
  C  C150  1  0.01564057  0.83065348  0.41327866  1
  C  C151  1  0.51429102  0.83040745  0.41216674  1
  C  C152  1  0.39997012  0.99173420  0.41441589  1
  C  C153  1  0.90075294  0.99202884  0.41372048  1
  C  C154  1  0.09143373  0.18545001  0.41369036  1
  C  C155  1  0.59247970  0.18687403  0.41481109  1
  C  C156  1  0.00284094  0.19773374  0.91498479  1
  C  C157  1  0.51483163  0.19944714  0.91398368  1
  C  C158  1  0.08468237  0.97308305  0.91438003  1
  C  C159  1  0.59232210  0.99727410  0.91396605  1
  C  C160  1  0.40250652  0.81720445  0.91428685  1
  C  C161  1  0.90548207  0.80787350  0.91351882  1
  C  C162  1  0.49959464  0.18094627  0.58464880  1
  C  C163  1  0.99138226  0.14923751  0.59775186  1
  C  C164  1  0.08208805  0.01515279  0.59622102  1
  C  C165  1  0.59989978  0.03175977  0.58506350  1
  C  C166  1  0.40981664  0.80785305  0.58554455  1
  C  C167  1  0.91925223  0.82695698  0.59618608  1
  C  C168  1  0.49068966  0.83238449  0.09688008  1
  C  C169  1  0.99162305  0.83110560  0.09528317  1
  C  C170  1  0.42498359  0.01829631  0.09660306  1
  C  C171  1  0.92487640  0.01632229  0.09737134  1
  C  C172  1  0.08353140  0.14971874  0.09698118  1
  C  C173  1  0.58453802  0.15245154  0.09524728  1
  C  C174  1  0.33373622  0.14283857  0.74702597  1
  C  C175  1  0.85204878  0.15261728  0.73935308  1
  C  C176  1  0.22963335  0.31202370  0.73784886  1
  C  C177  1  0.73809795  0.31885553  0.74948535  1
  C  C178  1  0.41698732  0.52718910  0.74697441  1
  C  C179  1  0.92461102  0.55321047  0.73908818  1
  C  C180  1  0.34994895  0.54897943  0.23858553  1
  C  C181  1  0.85081438  0.55053099  0.23822957  1
  C  C182  1  0.42472308  0.30000944  0.23855758  1
  C  C183  1  0.92476628  0.30070974  0.23847628  1
  C  C184  1  0.22438289  0.15073520  0.23960969  1
  C  C185  1  0.72415707  0.15107218  0.23960527  1
  C  C186  1  0.32560143  0.50795998  0.91903898  1
  C  C187  1  0.82366789  0.50306096  0.92227147  1
  C  C188  1  0.43127805  0.34243924  0.92165552  1
  C  C189  1  0.93116871  0.36488823  0.92159275  1
  C  C190  1  0.23971613  0.13829130  0.92208904  1
  C  C191  1  0.74414680  0.15112217  0.92010044  1
  C  C192  1  0.31686465  0.13532280  0.42002959  1
  C  C193  1  0.81825342  0.13692475  0.41957457  1
  C  C194  1  0.24285289  0.33671775  0.41856212  1
  C  C195  1  0.74448724  0.33860875  0.42008109  1
  C  C196  1  0.43130963  0.52061080  0.41820764  1
  C  C197  1  0.93256093  0.52116931  0.41882894  1
  C  C198  1  0.15785769  0.45977786  0.08447924  1
  C  C199  1  0.65922466  0.46376770  0.08351720  1
  C  C200  1  0.07246523  0.68186486  0.08320889  1
  C  C201  1  0.57188863  0.68414626  0.08467712  1
  C  C202  1  0.27032415  0.85567732  0.08450978  1
  C  C203  1  0.76965312  0.85380282  0.08468117  1
  C  C204  1  0.15668139  0.85268758  0.58422540  1
  C  C205  1  0.67104809  0.86412890  0.57980248  1
  C  C206  1  0.25577462  0.65555322  0.58362746  1
  C  C207  1  0.76334059  0.66459049  0.58264299  1
  C  C208  1  0.07164301  0.45982928  0.58500869  1
  C  C209  1  0.57608308  0.48458315  0.58032516  1
  C  C210  1  0.14807146  0.84214878  0.24549187  1
  C  C211  1  0.64823631  0.84272939  0.24566504  1
  C  C212  1  0.27295093  0.70399240  0.24477432  1
  C  C213  1  0.77371965  0.70499795  0.24446843  1
  C  C214  1  0.07888044  0.45442793  0.24441582  1
  C  C215  1  0.57884512  0.45328241  0.24397288  1
  C  C216  1  0.15273467  0.46233896  0.74543805  1
  C  C217  1  0.66140298  0.47605615  0.75154867  1
  C  C218  1  0.07815691  0.70399422  0.74508978  1
  C  C219  1  0.57286443  0.67221321  0.75245711  1
  C  C220  1  0.26365196  0.83190906  0.75279482  1
  C  C221  1  0.77416869  0.84426199  0.74428574  1
