# generated using pymatgen
data_Cu3(NiC16)2
_symmetry_space_group_name_H-M   'P 1'
_cell_length_a   8.56967710
_cell_length_b   8.54884932
_cell_length_c   21.99467160
_cell_angle_alpha   90.25020149
_cell_angle_beta   89.68802441
_cell_angle_gamma   120.08279589
_symmetry_Int_Tables_number   1
_chemical_formula_structural   Cu3(NiC16)2
_chemical_formula_sum   'Cu9 Ni6 C96'
_cell_volume   1394.28026156
_cell_formula_units_Z   3
loop_
 _symmetry_equiv_pos_site_id
 _symmetry_equiv_pos_as_xyz
  1  'x, y, z'
loop_
 _atom_site_type_symbol
 _atom_site_label
 _atom_site_symmetry_multiplicity
 _atom_site_fract_x
 _atom_site_fract_y
 _atom_site_fract_z
 _atom_site_occupancy
  C  C0  1  0.66142320  0.68860358  0.08302092  1
  C  C1  1  0.33289800  0.29768596  0.91719088  1
  C  C2  1  0.33314139  0.03517780  0.41725158  1
  C  C3  1  0.99234539  0.00014438  0.50183996  1
  C  C4  1  0.00489112  0.99698146  0.00133789  1
  C  C5  1  0.68131110  0.33482343  0.83074588  1
  C  C6  1  0.68079664  0.34487581  0.33051715  1
  C  C7  1  0.31461226  0.65859209  0.16519843  1
  C  C8  1  0.33425868  0.67376079  0.66443431  1
  C  C9  1  0.99766045  0.00227111  0.34748497  1
  C  C10  1  0.99479137  0.99393222  0.84699599  1
  C  C11  1  0.67179882  0.33933587  0.98370254  1
  C  C12  1  0.66600817  0.33386613  0.48330513  1
  C  C13  1  0.32092874  0.66128056  0.02389313  1
  C  C14  1  0.33363986  0.67141933  0.52412050  1
  Ni  Ni15  1  0.00845076  0.00042992  0.65413224  1
  Ni  Ni16  1  0.01320388  0.00196765  0.15424346  1
  Ni  Ni17  1  0.66060839  0.32563995  0.68699035  1
  Ni  Ni18  1  0.66884495  0.33985089  0.18679647  1
  Ni  Ni19  1  0.33251335  0.66278891  0.30789276  1
  Ni  Ni20  1  0.33294732  0.67030451  0.80752573  1
  Cu  Cu21  1  0.30038275  0.00309501  0.25222333  1
  Cu  Cu22  1  0.70819221  0.70782375  0.24994435  1
  Cu  Cu23  1  0.99547623  0.29052135  0.24977996  1
  Cu  Cu24  1  0.29605076  0.29505985  0.75177203  1
  Cu  Cu25  1  0.99564620  0.70155202  0.74956603  1
  Cu  Cu26  1  0.71075142  0.00163239  0.74932251  1
  Cu  Cu27  1  0.36829180  0.04409823  0.58502831  1
  Cu  Cu28  1  0.95725918  0.62896608  0.08719449  1
  Cu  Cu29  1  0.36890733  0.32205486  0.08456102  1
  C  C30  1  0.95454679  0.32542396  0.58611742  1
  C  C31  1  0.67390224  0.62888316  0.58637779  1
  C  C32  1  0.67375342  0.04800110  0.08530858  1
  C  C33  1  0.62331745  0.67189529  0.91614405  1
  C  C34  1  0.04288018  0.37937490  0.91440961  1
  C  C35  1  0.33385902  0.95178261  0.91518243  1
  C  C36  1  0.62340937  0.95165308  0.41584211  1
  C  C37  1  0.33308691  0.38318268  0.41588604  1
  C  C38  1  0.04345891  0.66267000  0.41528506  1
  C  C39  1  0.23076047  0.03930697  0.31054714  1
  C  C40  1  0.82014330  0.78450515  0.30533611  1
  C  C41  1  0.96127805  0.18374539  0.30663590  1
  C  C42  1  0.22665580  0.19012144  0.81005522  1
  C  C43  1  0.95780655  0.77323039  0.80631807  1
  C  C44  1  0.81864637  0.03857453  0.80593971  1
  C  C45  1  0.79388924  0.96152346  0.69177797  1
  C  C46  1  0.17040205  0.21034030  0.69559984  1
  C  C47  1  0.03894168  0.82461355  0.69224482  1
  C  C48  1  0.78770402  0.82557790  0.19082881  1
  C  C49  1  0.03625522  0.20788923  0.19216567  1
  C  C50  1  0.17433558  0.95973361  0.19605992  1
  C  C51  1  0.87261510  0.36085306  0.64132918  1
  C  C52  1  0.49538121  0.14004537  0.64043254  1
  C  C53  1  0.64579339  0.51589730  0.64173031  1
  C  C54  1  0.86817276  0.50611220  0.14373376  1
  C  C55  1  0.64124764  0.12765652  0.14104886  1
  C  C56  1  0.50040408  0.35994638  0.13912879  1
  C  C57  1  0.43745216  0.28686971  0.02463112  1
  C  C58  1  0.83773042  0.55780576  0.03111480  1
  C  C59  1  0.70261465  0.15418046  0.03060288  1
  C  C60  1  0.43925817  0.14951109  0.52561800  1
  C  C61  1  0.70676622  0.55286537  0.53127272  1
  C  C62  1  0.84731610  0.29633565  0.53122097  1
  C  C63  1  0.53937119  0.68935983  0.97227133  1
  C  C64  1  0.15710242  0.46256469  0.96766809  1
  C  C65  1  0.31321801  0.84552735  0.96862267  1
  C  C66  1  0.53723068  0.84616410  0.46995167  1
  C  C67  1  0.31226344  0.46836618  0.46954462  1
  C  C68  1  0.15679525  0.69285354  0.46835396  1
  C  C69  1  0.12603653  0.63412734  0.35764431  1
  C  C70  1  0.50304821  0.87028885  0.35950769  1
  C  C71  1  0.36148598  0.49210233  0.35798383  1
  C  C72  1  0.12647198  0.49124238  0.85729077  1
  C  C73  1  0.36170822  0.87038612  0.85707540  1
  C  C74  1  0.50090281  0.63525281  0.86104196  1
  C  C75  1  0.02869427  0.82772616  0.40950416  1
  C  C76  1  0.80091979  0.96854112  0.40941947  1
  C  C77  1  0.17193720  0.19968882  0.41084599  1
  C  C78  1  0.02822720  0.19958852  0.90868591  1
  C  C79  1  0.17240297  0.97268117  0.91028211  1
  C  C80  1  0.80034213  0.83344279  0.90999145  1
  C  C81  1  0.96343540  0.15508387  0.59370771  1
  C  C82  1  0.17992687  0.03439946  0.59490024  1
  C  C83  1  0.84093213  0.81219954  0.59327161  1
  C  C84  1  0.96680842  0.81818336  0.09669858  1
  C  C85  1  0.83796443  0.02842156  0.09178242  1
  C  C86  1  0.18008503  0.15113140  0.09517296  1
  C  C87  1  0.68548991  0.16824257  0.73921713  1
  C  C88  1  0.48661894  0.31956913  0.74053646  1
  C  C89  1  0.82983699  0.51058900  0.73785653  1
  C  C90  1  0.68123185  0.51466322  0.24108009  1
  C  C91  1  0.82894962  0.31374957  0.23928345  1
  C  C92  1  0.48907160  0.16917685  0.23965119  1
  C  C93  1  0.63731455  0.50492283  0.91768050  1
  C  C94  1  0.86420057  0.36244148  0.91933664  1
  C  C95  1  0.49683001  0.13537585  0.91721993  1
  C  C96  1  0.63879484  0.13359901  0.41896052  1
  C  C97  1  0.49618345  0.36261233  0.41772893  1
  C  C98  1  0.86386286  0.50005038  0.41994435  1
  C  C99  1  0.35575838  0.49454034  0.08223809  1
  C  C100  1  0.14474302  0.65571429  0.08288802  1
  C  C101  1  0.51585863  0.86328374  0.08101088  1
  C  C102  1  0.34460022  0.85571432  0.58353597  1
  C  C103  1  0.51384964  0.64780721  0.58228333  1
  C  C104  1  0.13658463  0.48175459  0.58188710  1
  C  C105  1  0.31925230  0.83021263  0.25619827  1
  C  C106  1  0.51476706  0.68551845  0.25463161  1
  C  C107  1  0.16830551  0.48463693  0.25412977  1
  C  C108  1  0.31780848  0.48818215  0.75576313  1
  C  C109  1  0.16796163  0.68135699  0.75438073  1
  C  C110  1  0.51633153  0.83028637  0.75406696  1
