# generated using pymatgen
data_Cu2NiC6
_symmetry_space_group_name_H-M   'P 1'
_cell_length_a   3.36311255
_cell_length_b   3.50273922
_cell_length_c   11.86721599
_cell_angle_alpha   90.00000000
_cell_angle_beta   98.62999091
_cell_angle_gamma   90.00000000
_symmetry_Int_Tables_number   1
_chemical_formula_structural   Cu2NiC6
_chemical_formula_sum   'Cu2 Ni1 C6'
_cell_volume   138.21427868
_cell_formula_units_Z   1
loop_
 _symmetry_equiv_pos_site_id
 _symmetry_equiv_pos_as_xyz
  1  'x, y, z'
loop_
 _atom_site_type_symbol
 _atom_site_label
 _atom_site_symmetry_multiplicity
 _atom_site_fract_x
 _atom_site_fract_y
 _atom_site_fract_z
 _atom_site_occupancy
  C  C0  1  0.35811605  0.75000000  0.72156578  1
  C  C1  1  0.65014051  0.25000000  0.28167060  1
  Ni  Ni2  1  0.74327067  0.75000000  0.50029548  1
  Cu  Cu3  1  0.95718448  0.25000000  0.91173243  1
  Cu  Cu4  1  0.04687927  0.75000000  0.09166711  1
  C  C5  1  0.19025200  0.75000000  0.39662806  1
  C  C6  1  0.79907056  0.25000000  0.60245279  1
  C  C7  1  0.07196210  0.25000000  0.13795306  1
  C  C8  1  0.93312437  0.75000000  0.86384669  1
