# generated using pymatgen
data_Cu3NiC11
_symmetry_space_group_name_H-M   'P 1'
_cell_length_a   5.00228061
_cell_length_b   5.55726086
_cell_length_c   6.71781878
_cell_angle_alpha   102.48897149
_cell_angle_beta   110.95198011
_cell_angle_gamma   88.36420100
_symmetry_Int_Tables_number   1
_chemical_formula_structural   Cu3NiC11
_chemical_formula_sum   'Cu3 Ni1 C11'
_cell_volume   170.03016220
_cell_formula_units_Z   1
loop_
 _symmetry_equiv_pos_site_id
 _symmetry_equiv_pos_as_xyz
  1  'x, y, z'
loop_
 _atom_site_type_symbol
 _atom_site_label
 _atom_site_symmetry_multiplicity
 _atom_site_fract_x
 _atom_site_fract_y
 _atom_site_fract_z
 _atom_site_occupancy
  Ni  Ni0  1  0.23143100  0.86611800  0.95763700  1
  Cu  Cu1  1  0.59794400  0.71192500  0.68939100  1
  Cu  Cu2  1  0.10966300  0.24088100  0.70234900  1
  Cu  Cu3  1  0.87277300  0.75939800  0.28456000  1
  C  C4  1  0.39967300  0.28568200  0.29584900  1
  C  C5  1  0.26907400  0.59628700  0.38704500  1
  C  C6  1  0.64814700  0.48081300  0.22691700  1
  C  C7  1  0.43708100  0.01392000  0.77283800  1
  C  C8  1  0.89878900  0.87218200  0.61485000  1
  C  C9  1  0.32666800  0.54887500  0.79800000  1
  C  C10  1  0.69672500  0.35622900  0.56742400  1
  C  C11  1  0.15722900  0.23725700  0.02027500  1
  C  C12  1  0.89045200  0.73912200  0.99474500  1
  C  C13  1  0.55300000  0.99859100  0.23356700  1
  C  C14  1  0.16135100  0.15521900  0.40825900  1
