# generated using pymatgen
data_Cu3NiC14
_symmetry_space_group_name_H-M   'P 1'
_cell_length_a   8.66469743
_cell_length_b   8.66469716
_cell_length_c   22.54657176
_cell_angle_alpha   90.00000000
_cell_angle_beta   90.00000000
_cell_angle_gamma   120.00000106
_symmetry_Int_Tables_number   1
_chemical_formula_structural   Cu3NiC14
_chemical_formula_sum   'Cu18 Ni6 C84'
_cell_volume   1465.94586719
_cell_formula_units_Z   6
loop_
 _symmetry_equiv_pos_site_id
 _symmetry_equiv_pos_as_xyz
  1  'x, y, z'
loop_
 _atom_site_type_symbol
 _atom_site_label
 _atom_site_symmetry_multiplicity
 _atom_site_fract_x
 _atom_site_fract_y
 _atom_site_fract_z
 _atom_site_occupancy
  C  C0  1  -0.00000000  0.00000000  0.49636548  1
  C  C1  1  -0.00000000  0.00000000  0.99636548  1
  C  C2  1  0.66666700  0.33333300  0.82969848  1
  C  C3  1  0.66666700  0.33333300  0.32969848  1
  C  C4  1  0.33333300  0.66666700  0.16303248  1
  C  C5  1  0.33333300  0.66666700  0.66303248  1
  C  C6  1  -0.00000000  0.00000000  0.64496159  1
  C  C7  1  -0.00000000  0.00000000  0.14496159  1
  C  C8  1  0.66666700  0.33333300  0.97829459  1
  C  C9  1  0.66666700  0.33333300  0.47829459  1
  C  C10  1  0.33333300  0.66666700  0.31162859  1
  C  C11  1  0.33333300  0.66666700  0.81162859  1
  Ni  Ni12  1  -0.00000000  0.00000000  0.35208207  1
  Ni  Ni13  1  -0.00000000  0.00000000  0.85208207  1
  Ni  Ni14  1  0.66666700  0.33333300  0.68541507  1
  Ni  Ni15  1  0.66666700  0.33333300  0.18541507  1
  Ni  Ni16  1  0.33333300  0.66666700  0.01874907  1
  Ni  Ni17  1  0.33333300  0.66666700  0.51874907  1
  Cu  Cu18  1  0.29267283  0.00859743  0.25129128  1
  Cu  Cu19  1  0.71592459  0.70732717  0.25129128  1
  Cu  Cu20  1  0.99140257  0.28407541  0.25129128  1
  Cu  Cu21  1  0.29267283  0.28407541  0.75129128  1
  Cu  Cu22  1  0.99140257  0.70732717  0.75129128  1
  Cu  Cu23  1  0.71592459  0.00859743  0.75129128  1
  Cu  Cu24  1  0.95933983  0.34193043  0.58462428  1
  Cu  Cu25  1  0.38259159  0.04066017  0.58462428  1
  Cu  Cu26  1  0.65806957  0.61740841  0.58462428  1
  Cu  Cu27  1  0.95933983  0.61740841  0.08462428  1
  Cu  Cu28  1  0.65806957  0.04066017  0.08462428  1
  Cu  Cu29  1  0.38259159  0.34193043  0.08462428  1
  Cu  Cu30  1  0.62600583  0.67526443  0.91795828  1
  Cu  Cu31  1  0.04925759  0.37399417  0.91795828  1
  Cu  Cu32  1  0.32473557  0.95074241  0.91795828  1
  Cu  Cu33  1  0.62600583  0.95074241  0.41795828  1
  Cu  Cu34  1  0.32473557  0.37399417  0.41795828  1
  Cu  Cu35  1  0.04925759  0.67526443  0.41795828  1
  C  C36  1  0.20645899  0.03332134  0.30628684  1
  C  C37  1  0.82686235  0.79354101  0.30628684  1
  C  C38  1  0.96667866  0.17313765  0.30628684  1
  C  C39  1  0.20645899  0.17313765  0.80628684  1
  C  C40  1  0.96667866  0.79354101  0.80628684  1
  C  C41  1  0.82686235  0.03332134  0.80628684  1
  C  C42  1  0.79812329  0.96982594  0.69488008  1
  C  C43  1  0.17170265  0.20187671  0.69488008  1
  C  C44  1  0.03017406  0.82829735  0.69488008  1
  C  C45  1  0.79812329  0.82829735  0.19488008  1
  C  C46  1  0.03017406  0.20187671  0.19488008  1
  C  C47  1  0.17170265  0.96982594  0.19488008  1
  C  C48  1  0.87312599  0.36665434  0.63961984  1
  C  C49  1  0.49352935  0.12687401  0.63961984  1
  C  C50  1  0.63334566  0.50647065  0.63961984  1
  C  C51  1  0.87312599  0.50647065  0.13961984  1
  C  C52  1  0.63334566  0.12687401  0.13961984  1
  C  C53  1  0.49352935  0.36665434  0.13961984  1
  C  C54  1  0.46479029  0.30315894  0.02821308  1
  C  C55  1  0.83836965  0.53520971  0.02821308  1
  C  C56  1  0.69684106  0.16163035  0.02821308  1
  C  C57  1  0.46479029  0.16163035  0.52821308  1
  C  C58  1  0.69684106  0.53520971  0.52821308  1
  C  C59  1  0.83836965  0.30315894  0.52821308  1
  C  C60  1  0.53979199  0.69998834  0.97295384  1
  C  C61  1  0.16019535  0.46020801  0.97295384  1
  C  C62  1  0.30001166  0.83980465  0.97295384  1
  C  C63  1  0.53979199  0.83980465  0.47295384  1
  C  C64  1  0.30001166  0.46020801  0.47295384  1
  C  C65  1  0.16019535  0.69998834  0.47295384  1
  C  C66  1  0.13145629  0.63649294  0.36154708  1
  C  C67  1  0.50503565  0.86854371  0.36154708  1
  C  C68  1  0.36350706  0.49496435  0.36154708  1
  C  C69  1  0.13145629  0.49496435  0.86154708  1
  C  C70  1  0.36350706  0.86854371  0.86154708  1
  C  C71  1  0.50503565  0.63649294  0.86154708  1
  C  C72  1  0.02351631  0.83444116  0.40924356  1
  C  C73  1  0.81092486  0.97648369  0.40924356  1
  C  C74  1  0.16555884  0.18907514  0.40924356  1
  C  C75  1  0.02351631  0.18907514  0.90924356  1
  C  C76  1  0.16555884  0.97648369  0.90924356  1
  C  C77  1  0.81092486  0.83444116  0.90924356  1
  C  C78  1  0.97349681  0.16799565  0.59049519  1
  C  C79  1  0.19449883  0.02650319  0.59049519  1
  C  C80  1  0.83200435  0.80550117  0.59049519  1
  C  C81  1  0.97349681  0.80550117  0.09049519  1
  C  C82  1  0.83200435  0.02650319  0.09049519  1
  C  C83  1  0.19449883  0.16799565  0.09049519  1
  C  C84  1  0.69018331  0.16777416  0.74257656  1
  C  C85  1  0.47759186  0.30981669  0.74257656  1
  C  C86  1  0.83222584  0.52240814  0.74257656  1
  C  C87  1  0.69018331  0.52240814  0.24257656  1
  C  C88  1  0.83222584  0.30981669  0.24257656  1
  C  C89  1  0.47759186  0.16777416  0.24257656  1
  C  C90  1  0.64016381  0.50132865  0.92382819  1
  C  C91  1  0.86116583  0.35983619  0.92382819  1
  C  C92  1  0.49867135  0.13883417  0.92382819  1
  C  C93  1  0.64016381  0.13883417  0.42382819  1
  C  C94  1  0.49867135  0.35983619  0.42382819  1
  C  C95  1  0.86116583  0.50132865  0.42382819  1
  C  C96  1  0.35684931  0.50110816  0.07591056  1
  C  C97  1  0.14425786  0.64315069  0.07591056  1
  C  C98  1  0.49889184  0.85574214  0.07591056  1
  C  C99  1  0.35684931  0.85574214  0.57591056  1
  C  C100  1  0.49889184  0.64315069  0.57591056  1
  C  C101  1  0.14425786  0.50110816  0.57591056  1
  C  C102  1  0.30682981  0.83466265  0.25716219  1
  C  C103  1  0.52783183  0.69317019  0.25716219  1
  C  C104  1  0.16533735  0.47216817  0.25716219  1
  C  C105  1  0.30682981  0.47216817  0.75716219  1
  C  C106  1  0.16533735  0.69317019  0.75716219  1
  C  C107  1  0.52783183  0.83466265  0.75716219  1
