# generated using pymatgen
data_Cu2Ni2C3
_symmetry_space_group_name_H-M   'P 1'
_cell_length_a   4.67525125
_cell_length_b   3.64227685
_cell_length_c   17.63032253
_cell_angle_alpha   90.00000000
_cell_angle_beta   90.00000000
_cell_angle_gamma   129.92644128
_symmetry_Int_Tables_number   1
_chemical_formula_structural   Cu2Ni2C3
_chemical_formula_sum   'Cu2 Ni2 C3'
_cell_volume   230.22865477
_cell_formula_units_Z   1
loop_
 _symmetry_equiv_pos_site_id
 _symmetry_equiv_pos_as_xyz
  1  'x, y, z'
loop_
 _atom_site_type_symbol
 _atom_site_label
 _atom_site_symmetry_multiplicity
 _atom_site_fract_x
 _atom_site_fract_y
 _atom_site_fract_z
 _atom_site_occupancy
  C  C0  1  0.85547091  0.71094080  0.50000000  1
  C  C1  1  0.55044422  0.10088743  -0.00000000  1
  C  C2  1  0.32439869  0.64879740  0.50000000  1
  Ni  Ni3  1  0.57450933  0.14901866  0.61111802  1
  Ni  Ni4  1  0.57450933  0.14901866  0.38888198  1
  Cu  Cu5  1  0.22696776  0.45393453  0.08189958  1
  Cu  Cu6  1  0.22696776  0.45393453  0.91810042  1
