# generated using pymatgen
data_Cu2NiC12
_symmetry_space_group_name_H-M   'P 1'
_cell_length_a   3.90958200
_cell_length_b   3.90958200
_cell_length_c   12.09551200
_cell_angle_alpha   90.00000000
_cell_angle_beta   90.00000000
_cell_angle_gamma   90.00000000
_symmetry_Int_Tables_number   1
_chemical_formula_structural   Cu2NiC12
_chemical_formula_sum   'Cu2 Ni1 C12'
_cell_volume   184.87786179
_cell_formula_units_Z   1
loop_
 _symmetry_equiv_pos_site_id
 _symmetry_equiv_pos_as_xyz
  1  'x, y, z'
loop_
 _atom_site_type_symbol
 _atom_site_label
 _atom_site_symmetry_multiplicity
 _atom_site_fract_x
 _atom_site_fract_y
 _atom_site_fract_z
 _atom_site_occupancy
  C  C0  1  0.25000000  0.25000000  0.63686200  1
  C  C1  1  0.75000000  0.75000000  0.36313800  1
  C  C2  1  0.75000000  0.75000000  0.11097400  1
  C  C3  1  0.25000000  0.25000000  0.88902600  1
  Ni  Ni4  1  0.75000000  0.25000000  0.50000000  1
  Cu  Cu5  1  0.25000000  0.25000000  0.25738000  1
  Cu  Cu6  1  0.75000000  0.75000000  0.74262000  1
  C  C7  1  0.75000000  0.75000000  0.92600200  1
  C  C8  1  0.25000000  0.25000000  0.07399800  1
  C  C9  1  0.75000000  0.75000000  0.57056300  1
  C  C10  1  0.25000000  0.25000000  0.42943700  1
  C  C11  1  0.75000000  0.25000000  0.24903400  1
  C  C12  1  0.25000000  0.75000000  0.23272600  1
  C  C13  1  0.75000000  0.25000000  0.75096600  1
  C  C14  1  0.25000000  0.75000000  0.76727400  1
