# generated using pymatgen
data_Cu4Ni6C13
_symmetry_space_group_name_H-M   'P 1'
_cell_length_a   3.95840800
_cell_length_b   17.02271537
_cell_length_c   17.99103748
_cell_angle_alpha   91.10548671
_cell_angle_beta   96.28374906
_cell_angle_gamma   96.58401631
_symmetry_Int_Tables_number   1
_chemical_formula_structural   Cu4Ni6C13
_chemical_formula_sum   'Cu8 Ni12 C26'
_cell_volume   1196.43420258
_cell_formula_units_Z   2
loop_
 _symmetry_equiv_pos_site_id
 _symmetry_equiv_pos_as_xyz
  1  'x, y, z'
loop_
 _atom_site_type_symbol
 _atom_site_label
 _atom_site_symmetry_multiplicity
 _atom_site_fract_x
 _atom_site_fract_y
 _atom_site_fract_z
 _atom_site_occupancy
  Ni  Ni0  1  0.62293800  0.75487600  0.50434400  1
  Ni  Ni1  1  0.79560900  0.90872900  0.70258600  1
  Ni  Ni2  1  0.24967900  0.43258200  0.05303200  1
  Ni  Ni3  1  0.33651000  0.36214900  0.29354200  1
  Ni  Ni4  1  0.24899000  0.15103100  0.34918400  1
  Ni  Ni5  1  0.85113900  0.82401700  0.89394800  1
  Ni  Ni6  1  0.67435700  0.66813300  0.69937200  1
  Ni  Ni7  1  0.15758700  0.21359000  0.10813400  1
  Ni  Ni8  1  0.05484300  0.79872700  0.30542800  1
  Ni  Ni9  1  0.41067900  0.28288600  0.52773600  1
  Ni  Ni10  1  0.08198700  0.29175000  0.87521800  1
  Ni  Ni11  1  0.62294500  0.02239800  0.18759900  1
  Cu  Cu12  1  0.43899100  0.77918400  0.09702600  1
  Cu  Cu13  1  0.23998200  0.96842600  0.50566900  1
  Cu  Cu14  1  0.25677500  0.60898500  0.89733800  1
  Cu  Cu15  1  0.42128600  0.12167100  0.71525100  1
  Cu  Cu16  1  0.07274800  0.45613300  0.68419500  1
  Cu  Cu17  1  0.89116300  0.55919900  0.21505700  1
  Cu  Cu18  1  0.51480400  0.07443900  0.94510700  1
  Cu  Cu19  1  0.97673400  0.49381200  0.45364500  1
  C  C20  1  0.15835300  0.01424400  0.29026700  1
  C  C21  1  0.69867500  0.17064900  0.21706800  1
  C  C22  1  0.94023700  0.25681700  0.61731000  1
  C  C23  1  0.71487500  0.45618100  0.96335700  1
  C  C24  1  0.01853600  0.87000800  0.16796100  1
  C  C25  1  0.11327100  0.60252900  0.61607600  1
  C  C26  1  0.77329900  0.11231200  0.43341200  1
  C  C27  1  0.54993300  0.31411200  0.78643200  1
  C  C28  1  0.49039000  0.71184400  0.26005700  1
  C  C29  1  0.38294500  0.97542700  0.78525500  1
  C  C30  1  0.79538200  0.39498400  0.18979600  1
  C  C31  1  0.87031100  0.33555700  0.40001000  1
  C  C32  1  0.23040600  0.84379200  0.60161700  1
  C  C33  1  0.62269400  0.23382200  0.00902300  1
  C  C34  1  0.27457900  0.73450900  0.80010500  1
  C  C35  1  0.49673500  0.42697200  0.56100600  1
  C  C36  1  0.43302600  0.88777800  0.97528500  1
  C  C37  1  0.06136200  0.69422200  0.42291700  1
  C  C38  1  0.84229800  0.70753200  0.97290200  1
  C  C39  1  0.82957300  0.02902300  0.62623400  1
  C  C40  1  0.33955600  0.56942700  0.10114800  1
  C  C41  1  0.07492500  0.06856000  0.07711000  1
  C  C42  1  0.42124400  0.50291000  0.33375300  1
  C  C43  1  0.66513900  0.54897200  0.77616000  1
  C  C44  1  0.65280600  0.87263600  0.42591400  1
  C  C45  1  0.99770400  0.14596500  0.84491700  1
