# generated using pymatgen
data_Cu4NiC20
_symmetry_space_group_name_H-M   'P 1'
_cell_length_a   10.46715425
_cell_length_b   6.78060311
_cell_length_c   5.24958388
_cell_angle_alpha   88.58725303
_cell_angle_beta   94.21195339
_cell_angle_gamma   94.53542362
_symmetry_Int_Tables_number   1
_chemical_formula_structural   Cu4NiC20
_chemical_formula_sum   'Cu4 Ni1 C20'
_cell_volume   370.34558252
_cell_formula_units_Z   1
loop_
 _symmetry_equiv_pos_site_id
 _symmetry_equiv_pos_as_xyz
  1  'x, y, z'
loop_
 _atom_site_type_symbol
 _atom_site_label
 _atom_site_symmetry_multiplicity
 _atom_site_fract_x
 _atom_site_fract_y
 _atom_site_fract_z
 _atom_site_occupancy
  Ni  Ni0  1  0.15188100  0.46565700  0.17983500  1
  Cu  Cu1  1  0.85499900  0.17687000  0.36085100  1
  Cu  Cu2  1  0.65766300  0.69282400  0.80778600  1
  Cu  Cu3  1  0.36206800  0.19804900  0.17367200  1
  Cu  Cu4  1  0.15962300  0.78161700  0.67053900  1
  C  C5  1  0.07899900  0.95811000  0.15805200  1
  C  C6  1  0.37789300  0.49074100  0.66344500  1
  C  C7  1  0.60514200  0.95380300  0.30328500  1
  C  C8  1  0.92199700  0.44639800  0.86398300  1
  C  C9  1  0.52845900  0.50751900  0.67575900  1
  C  C10  1  0.93961500  0.38464700  0.15708300  1
  C  C11  1  0.87379700  0.26692700  0.70022400  1
  C  C12  1  0.82700000  0.60659200  0.82835600  1
  C  C13  1  0.06231400  0.51853900  0.81288000  1
  C  C14  1  0.06161500  0.94784300  0.86754500  1
  C  C15  1  0.13973400  0.76721600  0.27477000  1
  C  C16  1  0.16465700  0.14811100  0.23944800  1
  C  C17  1  0.33014800  0.68380100  0.75451500  1
  C  C18  1  0.68505200  0.14350500  0.20850300  1
  C  C19  1  0.32599300  0.45172500  0.38058000  1
  C  C20  1  0.46447600  0.99163600  0.31418400  1
  C  C21  1  0.94781300  0.96359000  0.28058800  1
  C  C22  1  0.66902000  0.90909200  0.57406000  1
  C  C23  1  0.62128900  0.77713800  0.13050900  1
  C  C24  1  0.33250100  0.31283700  0.83204700  1
