# generated using pymatgen
data_Cu5NiC32
_symmetry_space_group_name_H-M   'P 1'
_cell_length_a   9.25251021
_cell_length_b   9.27946055
_cell_length_c   23.60954346
_cell_angle_alpha   90.13172079
_cell_angle_beta   89.89447059
_cell_angle_gamma   119.84398493
_symmetry_Int_Tables_number   1
_chemical_formula_structural   Cu5NiC32
_chemical_formula_sum   'Cu15 Ni3 C96'
_cell_volume   1758.24685984
_cell_formula_units_Z   3
loop_
 _symmetry_equiv_pos_site_id
 _symmetry_equiv_pos_as_xyz
  1  'x, y, z'
loop_
 _atom_site_type_symbol
 _atom_site_label
 _atom_site_symmetry_multiplicity
 _atom_site_fract_x
 _atom_site_fract_y
 _atom_site_fract_z
 _atom_site_occupancy
  C  C0  1  0.30427933  0.33743380  0.57553129  1
  C  C1  1  0.66938601  0.97027011  0.59627222  1
  C  C2  1  0.30050573  0.96993366  0.09530259  1
  C  C3  1  0.02756194  0.33219987  0.08349032  1
  C  C4  1  0.33117761  0.05000075  0.40251296  1
  C  C5  1  0.68931896  0.65471680  0.41324255  1
  C  C6  1  0.02005913  0.02666596  0.49507845  1
  C  C7  1  0.98366000  0.98638582  0.99553507  1
  C  C8  1  0.67208674  0.31127275  0.82676812  1
  C  C9  1  0.63896258  0.31475039  0.32620085  1
  C  C10  1  0.34443153  0.68259709  0.16987853  1
  C  C11  1  0.32784197  0.67415690  0.66859579  1
  C  C12  1  0.01196927  0.01655779  0.34644918  1
  C  C13  1  0.99567485  0.00545023  0.84833633  1
  C  C14  1  0.98698187  0.98889044  0.66136556  1
  C  C15  1  0.00560714  0.98717039  0.16036406  1
  C  C16  1  0.66978843  0.33296316  0.68790131  1
  C  C17  1  0.65639719  0.32908884  0.18740948  1
  C  C18  1  0.66569799  0.33605903  0.97654453  1
  C  C19  1  0.66983650  0.33553458  0.47975101  1
  C  C20  1  0.33986857  0.66744689  0.01492809  1
  C  C21  1  0.32090605  0.65772580  0.51610294  1
  C  C22  1  0.32807642  0.65601308  0.31502981  1
  C  C23  1  0.34194654  0.67360724  0.81466846  1
  Ni  Ni24  1  0.31203230  0.99738752  0.25304929  1
  Ni  Ni25  1  0.69718155  0.00639819  0.74948056  1
  Ni  Ni26  1  0.33302883  0.36655039  0.41988676  1
  Cu  Cu27  1  0.68899521  0.69740864  0.25587151  1
  Cu  Cu28  1  0.00763469  0.31348553  0.25006130  1
  Cu  Cu29  1  0.30236729  0.31342584  0.75230580  1
  Cu  Cu30  1  0.01030722  0.69804905  0.75484251  1
  Cu  Cu31  1  0.96770783  0.32944818  0.58441681  1
  Cu  Cu32  1  0.36770707  0.03791236  0.58195447  1
  Cu  Cu33  1  0.66981333  0.63852015  0.58170312  1
  Cu  Cu34  1  0.96630746  0.63232341  0.08233333  1
  Cu  Cu35  1  0.67031162  0.03937148  0.08234533  1
  Cu  Cu36  1  0.36072911  0.32948702  0.08244525  1
  Cu  Cu37  1  0.62477695  0.66480228  0.91350780  1
  Cu  Cu38  1  0.04287463  0.37564990  0.91650947  1
  Cu  Cu39  1  0.33273101  0.95584416  0.91530495  1
  Cu  Cu40  1  0.61865967  0.95001892  0.41533976  1
  Cu  Cu41  1  0.03950958  0.66628632  0.41272753  1
  C  C42  1  0.21751841  0.00991897  0.30864772  1
  C  C43  1  0.78131110  0.77632180  0.30787830  1
  C  C44  1  0.98435666  0.20780588  0.29843448  1
  C  C45  1  0.21884198  0.20416970  0.80008617  1
  C  C46  1  0.99389960  0.78419161  0.80408211  1
  C  C47  1  0.81050634  0.01244653  0.80081480  1
  C  C48  1  0.74194357  0.95737226  0.68822850  1
  C  C49  1  0.20832064  0.25222166  0.69861354  1
  C  C50  1  0.05024786  0.79655956  0.70229249  1
  C  C51  1  0.76033407  0.80192665  0.20515937  1
  C  C52  1  0.03857100  0.24832664  0.19660738  1
  C  C53  1  0.21198289  0.95541966  0.19245632  1
  C  C54  1  0.88189137  0.34144827  0.63499132  1
  C  C55  1  0.47468402  0.12768287  0.63077822  1
  C  C56  1  0.65342781  0.53302730  0.63045669  1
  C  C57  1  0.88466605  0.53428123  0.13324022  1
  C  C58  1  0.65068916  0.12127096  0.13317920  1
  C  C59  1  0.45838999  0.34802858  0.13404390  1
  C  C60  1  0.44489285  0.31341130  0.03153378  1
  C  C61  1  0.87083550  0.54836945  0.03054694  1
  C  C62  1  0.68893119  0.13971811  0.03095157  1
  C  C63  1  0.44490171  0.13019089  0.52823843  1
  C  C64  1  0.68091594  0.56036278  0.52779035  1
  C  C65  1  0.87174488  0.31497743  0.53229891  1
  C  C66  1  0.54822523  0.67933609  0.96625409  1
  C  C67  1  0.12522089  0.45043051  0.97128755  1
  C  C68  1  0.32164356  0.87060159  0.96913925  1
  C  C69  1  0.54554773  0.86266588  0.46890168  1
  C  C70  1  0.32867940  0.45092537  0.47920283  1
  C  C71  1  0.13952451  0.69478881  0.46419308  1
  C  C72  1  0.13686009  0.65713862  0.36243897  1
  C  C73  1  0.50559622  0.85311054  0.36613528  1
  C  C74  1  0.33555141  0.49679541  0.36628130  1
  C  C75  1  0.14786887  0.48548835  0.86833758  1
  C  C76  1  0.33896134  0.84780722  0.86656889  1
  C  C77  1  0.51297213  0.65874917  0.86411991  1
  C  C78  1  0.01034002  0.80911552  0.40704847  1
  C  C79  1  0.78176170  0.95939550  0.40831982  1
  C  C80  1  0.17550261  0.17863254  0.41632562  1
  C  C81  1  0.02848845  0.21002241  0.91269236  1
  C  C82  1  0.18400904  0.97199548  0.90888442  1
  C  C83  1  0.79124373  0.81115393  0.90862160  1
  C  C84  1  0.98593264  0.17615139  0.58655663  1
  C  C85  1  0.20114854  0.02591057  0.58698869  1
  C  C86  1  0.81846897  0.80861481  0.58519251  1
  C  C87  1  0.99138619  0.80471398  0.08449291  1
  C  C88  1  0.82377632  0.02444933  0.08676142  1
  C  C89  1  0.19098971  0.17417729  0.08587471  1
  C  C90  1  0.65160344  0.15224095  0.74996620  1
  C  C91  1  0.47525045  0.35015465  0.74761755  1
  C  C92  1  0.86601743  0.53144531  0.74907435  1
  C  C93  1  0.66735450  0.53093548  0.24914947  1
  C  C94  1  0.87238336  0.35102621  0.24574167  1
  C  C95  1  0.50114897  0.15040886  0.25093525  1
  C  C96  1  0.62798573  0.50805323  0.91044480  1
  C  C97  1  0.87739630  0.36426877  0.91318654  1
  C  C98  1  0.48873503  0.11709604  0.91177105  1
  C  C99  1  0.63008643  0.11506508  0.41429673  1
  C  C100  1  0.51054071  0.36634005  0.41039508  1
  C  C101  1  0.87749488  0.51088516  0.41373731  1
  C  C102  1  0.33156786  0.47422417  0.07932291  1
  C  C103  1  0.13830239  0.64891155  0.07986509  1
  C  C104  1  0.51561512  0.87213518  0.07876583  1
  C  C105  1  0.35479905  0.87065689  0.58032151  1
  C  C106  1  0.51583466  0.65686948  0.58152472  1
  C  C107  1  0.13949705  0.47742703  0.58334911  1
  C  C108  1  0.32448365  0.81881209  0.26733576  1
  C  C109  1  0.51355905  0.67758040  0.26174837  1
  C  C110  1  0.16901412  0.48279695  0.25945494  1
  C  C111  1  0.31096145  0.48315309  0.76351052  1
  C  C112  1  0.16402658  0.67537741  0.76469695  1
  C  C113  1  0.50147422  0.82462077  0.76713902  1
