# generated using pymatgen
data_Cu10Ni9C92
_symmetry_space_group_name_H-M   'P 1'
_cell_length_a   18.38560881
_cell_length_b   9.19887019
_cell_length_c   23.96934026
_cell_angle_alpha   90.04072720
_cell_angle_beta   90.09535437
_cell_angle_gamma   119.88746326
_symmetry_Int_Tables_number   1
_chemical_formula_structural   Cu10Ni9C92
_chemical_formula_sum   'Cu20 Ni18 C184'
_cell_volume   3514.70843086
_cell_formula_units_Z   2
loop_
 _symmetry_equiv_pos_site_id
 _symmetry_equiv_pos_as_xyz
  1  'x, y, z'
loop_
 _atom_site_type_symbol
 _atom_site_label
 _atom_site_symmetry_multiplicity
 _atom_site_fract_x
 _atom_site_fract_y
 _atom_site_fract_z
 _atom_site_occupancy
  Ni  Ni0  1  0.31870550  0.99836746  0.25468539  1
  Ni  Ni1  1  0.81838519  0.99905453  0.24862022  1
  Ni  Ni2  1  0.18007757  0.36449415  0.26358776  1
  Ni  Ni3  1  0.68239211  0.36651879  0.25954333  1
  Ni  Ni4  1  0.68018481  0.99760184  0.75168551  1
  Ni  Ni5  1  0.98805690  0.68426779  0.92448300  1
  Ni  Ni6  1  0.01117693  0.02748165  0.49332222  1
  Ni  Ni7  1  0.51180797  0.02854452  0.49338678  1
  Ni  Ni8  1  0.99742825  0.99805354  0.00162180  1
  Ni  Ni9  1  0.51199699  0.01073722  0.00045879  1
  Ni  Ni10  1  0.33718232  0.34752138  0.82618178  1
  Ni  Ni11  1  0.82657315  0.32535101  0.83583751  1
  Ni  Ni12  1  0.33755050  0.35420048  0.33831932  1
  Ni  Ni13  1  0.83739989  0.35457207  0.33520295  1
  Ni  Ni14  1  0.15033806  0.66260470  0.16549696  1
  Ni  Ni15  1  0.66503601  0.66664565  0.16045226  1
  Ni  Ni16  1  0.16496571  0.65732837  0.65751620  1
  Ni  Ni17  1  0.66434543  0.64653677  0.66549560  1
  Cu  Cu18  1  0.00308606  0.00046723  0.35453600  1
  Cu  Cu19  1  0.50431212  0.00145931  0.35456991  1
  Cu  Cu20  1  0.99862125  0.00513317  0.84801689  1
  Cu  Cu21  1  0.50081452  0.00039221  0.85121966  1
  Cu  Cu22  1  0.00168698  0.00838150  0.64560570  1
  Cu  Cu23  1  0.49703140  0.99894517  0.64370103  1
  Cu  Cu24  1  0.00081421  0.99356559  0.14794387  1
  Cu  Cu25  1  0.50120555  0.99350066  0.14677561  1
  Cu  Cu26  1  0.33352635  0.33445341  0.68520548  1
  Cu  Cu27  1  0.83770712  0.34129318  0.68377822  1
  Cu  Cu28  1  0.33896500  0.34528214  0.18331851  1
  Cu  Cu29  1  0.83480072  0.34085265  0.17844881  1
  Cu  Cu30  1  0.82842135  0.32461593  0.98592130  1
  Cu  Cu31  1  0.16580956  0.66685254  0.01913764  1
  Cu  Cu32  1  0.67244348  0.67302916  0.01599437  1
  Cu  Cu33  1  0.16556910  0.65798662  0.51460445  1
  Cu  Cu34  1  0.66539142  0.65773377  0.51559338  1
  Cu  Cu35  1  0.16414664  0.65302250  0.33015173  1
  Cu  Cu36  1  0.66507904  0.65428294  0.32943925  1
  Cu  Cu37  1  0.66408625  0.65467099  0.81946674  1
  C  C38  1  0.32853085  0.32202121  0.98068496  1
  C  C39  1  0.32959467  0.33311611  0.48218321  1
  C  C40  1  0.82933828  0.33308655  0.48232655  1
  C  C41  1  0.17017791  0.67832289  0.81825318  1
  C  C42  1  0.16633001  0.96158993  0.91917959  1
  C  C43  1  0.16455401  0.35682369  0.41612662  1
  C  C44  1  0.66414532  0.35707624  0.41638766  1
  C  C45  1  0.15279615  0.00034296  0.24898641  1
  C  C46  1  0.65226412  0.99905500  0.24903144  1
  C  C47  1  0.34735237  0.70293444  0.24956162  1
  C  C48  1  0.84757608  0.70055233  0.25035469  1
  C  C49  1  0.00018681  0.29799084  0.24900668  1
  C  C50  1  0.49959209  0.29519341  0.24949391  1
  C  C51  1  0.15195338  0.31536218  0.75376014  1
  C  C52  1  0.64902132  0.29629278  0.74894804  1
  C  C53  1  0.00623843  0.69929194  0.75539313  1
  C  C54  1  0.50117374  0.70299692  0.74991934  1
  C  C55  1  0.34517849  0.99072534  0.75403450  1
  C  C56  1  0.84633826  0.99743983  0.74888947  1
  C  C57  1  0.47716994  0.33234093  0.58175988  1
  C  C58  1  0.97874734  0.33373007  0.58126527  1
  C  C59  1  0.18945643  0.04535383  0.58132347  1
  C  C60  1  0.68883282  0.04452388  0.58204242  1
  C  C61  1  0.33434184  0.62297957  0.58116684  1
  C  C62  1  0.83549939  0.62556443  0.58113482  1
  C  C63  1  0.47718875  0.62274023  0.07715267  1
  C  C64  1  0.98664554  0.63799411  0.08068989  1
  C  C65  1  0.33470290  0.04615428  0.08116960  1
  C  C66  1  0.83393059  0.02861506  0.08586004  1
  C  C67  1  0.18941409  0.33150636  0.08072382  1
  C  C68  1  0.67930755  0.33441960  0.08532445  1
  C  C69  1  0.31099375  0.65543500  0.91717318  1
  C  C70  1  0.81949243  0.66381669  0.91655618  1
  C  C71  1  0.02338146  0.38422371  0.91319330  1
  C  C72  1  0.51066103  0.36384367  0.92171345  1
  C  C73  1  0.66656516  0.96956455  0.91451712  1
  C  C74  1  0.31808949  0.98099712  0.41899198  1
  C  C75  1  0.81767494  0.98053457  0.41944404  1
  C  C76  1  0.00903588  0.65516790  0.42160145  1
  C  C77  1  0.50932096  0.65510010  0.42144425  1
  C  C78  1  0.11087379  0.01732753  0.29876064  1
  C  C79  1  0.61013911  0.01667916  0.29861045  1
  C  C80  1  0.39607969  0.78319101  0.30014753  1
  C  C81  1  0.89567579  0.78025547  0.30137304  1
  C  C82  1  0.48864913  0.19224384  0.29950070  1
  C  C83  1  0.99021927  0.19541695  0.29906910  1
  C  C84  1  0.11009041  0.21000105  0.80225304  1
  C  C85  1  0.60751344  0.19812081  0.79997417  1
  C  C86  1  0.49269023  0.78424136  0.80078512  1
  C  C87  1  0.99684081  0.77780660  0.80612210  1
  C  C88  1  0.39649976  0.01044097  0.80332659  1
  C  C89  1  0.89356039  0.01199923  0.80028205  1
  C  C90  1  0.37747614  0.95977386  0.70246703  1
  C  C91  1  0.89026189  0.98558254  0.69903110  1
  C  C92  1  0.10302781  0.25031114  0.70198019  1
  C  C93  1  0.59918562  0.21090332  0.69867869  1
  C  C94  1  0.02368136  0.80296293  0.70526162  1
  C  C95  1  0.50822483  0.80383589  0.69975615  1
  C  C96  1  0.39027409  0.79894738  0.19877852  1
  C  C97  1  0.89087800  0.79915238  0.20014056  1
  C  C98  1  0.01130577  0.21698783  0.19863654  1
  C  C99  1  0.50763110  0.21151023  0.19886499  1
  C  C100  1  0.10548294  0.98631487  0.19761586  1
  C  C101  1  0.60376668  0.98191978  0.19769638  1
  C  C102  1  0.43621071  0.33866545  0.63377653  1
  C  C103  1  0.93847529  0.34166380  0.63327270  1
  C  C104  1  0.23486783  0.12544456  0.63301730  1
  C  C105  1  0.73206911  0.12048717  0.63513313  1
  C  C106  1  0.32775975  0.53076789  0.63269993  1
  C  C107  1  0.82840074  0.53331450  0.63283477  1
  C  C108  1  0.44011053  0.53493312  0.12959521  1
  C  C109  1  0.93944086  0.54012741  0.12978784  1
  C  C110  1  0.32867603  0.12373313  0.13319023  1
  C  C111  1  0.82897954  0.10746947  0.13899856  1
  C  C112  1  0.23330743  0.34102862  0.13289398  1
  C  C113  1  0.72329177  0.34395141  0.13853922  1
  C  C114  1  0.24359457  0.32777089  0.03094890  1
  C  C115  1  0.72655746  0.32559052  0.03683593  1
  C  C116  1  0.42058864  0.51578043  0.02856887  1
  C  C117  1  0.94319409  0.55526751  0.02765004  1
  C  C118  1  0.33595141  0.15930461  0.03158332  1
  C  C119  1  0.83875249  0.13146279  0.03706511  1
  C  C120  1  0.24117036  0.15465355  0.53164723  1
  C  C121  1  0.74317145  0.15849246  0.53378407  1
  C  C122  1  0.33668828  0.51855197  0.53155163  1
  C  C123  1  0.83825057  0.52057728  0.53178160  1
  C  C124  1  0.42444485  0.32755270  0.53219617  1
  C  C125  1  0.92611342  0.32816146  0.53188725  1
  C  C126  1  0.27212204  0.67434458  0.96718486  1
  C  C127  1  0.77757673  0.67393171  0.96725303  1
  C  C128  1  0.06939874  0.45508499  0.96478721  1
  C  C129  1  0.56424111  0.44825719  0.96954206  1
  C  C130  1  0.15360632  0.84460507  0.97026243  1
  C  C131  1  0.66166859  0.86633269  0.96294109  1
  C  C132  1  0.27140290  0.87376114  0.46545058  1
  C  C133  1  0.77139890  0.87339900  0.46596794  1
  C  C134  1  0.16079249  0.46643491  0.46592093  1
  C  C135  1  0.66063041  0.46634226  0.46640518  1
  C  C136  1  0.06334498  0.68319020  0.46928505  1
  C  C137  1  0.56332342  0.68288678  0.46926683  1
  C  C138  1  0.04043834  0.62006996  0.36954303  1
  C  C139  1  0.54048636  0.61965268  0.36945317  1
  C  C140  1  0.27114987  0.92389699  0.36523165  1
  C  C141  1  0.77087547  0.92398339  0.36585480  1
  C  C142  1  0.18842106  0.44892554  0.35516349  1
  C  C143  1  0.68764077  0.44775023  0.35526707  1
  C  C144  1  0.07744319  0.49928332  0.86433132  1
  C  C145  1  0.54001161  0.45910979  0.86957445  1
  C  C146  1  0.18322211  0.85867732  0.86234395  1
  C  C147  1  0.67023918  0.88949811  0.86123352  1
  C  C148  1  0.25651969  0.63183324  0.86600195  1
  C  C149  1  0.77054412  0.64841117  0.86589503  1
  C  C150  1  0.99054597  0.79199008  0.41579784  1
  C  C151  1  0.49038930  0.79135181  0.41564283  1
  C  C152  1  0.40243325  0.00316473  0.41500651  1
  C  C153  1  0.90240058  0.00355497  0.41535001  1
  C  C154  1  0.09085991  0.16480182  0.41654092  1
  C  C155  1  0.59063464  0.16470393  0.41723062  1
  C  C156  1  0.00980726  0.21613035  0.90476567  1
  C  C157  1  0.49345238  0.19038387  0.91717595  1
  C  C158  1  0.08777630  0.98367114  0.90631979  1
  C  C159  1  0.59058968  0.98931997  0.91583832  1
  C  C160  1  0.39484494  0.79846816  0.90870639  1
  C  C161  1  0.90515144  0.81723060  0.91463352  1
  C  C162  1  0.48183132  0.17574699  0.57913195  1
  C  C163  1  0.98403310  0.17754601  0.57918465  1
  C  C164  1  0.10787206  0.04037462  0.57901665  1
  C  C165  1  0.60742527  0.03939119  0.57827038  1
  C  C166  1  0.41333473  0.78413986  0.57811439  1
  C  C167  1  0.91500671  0.78662250  0.57901923  1
  C  C168  1  0.47889375  0.78481180  0.07420298  1
  C  C169  1  0.99558829  0.80780897  0.08126018  1
  C  C170  1  0.41325154  0.04295630  0.07635529  1
  C  C171  1  0.91063293  0.01226381  0.08492779  1
  C  C172  1  0.10863861  0.17673362  0.07582957  1
  C  C173  1  0.59488220  0.17971148  0.08424205  1
  C  C174  1  0.32716581  0.12914972  0.75060227  1
  C  C175  1  0.83431762  0.14760944  0.74659384  1
  C  C176  1  0.23779709  0.34168360  0.74945969  1
  C  C177  1  0.73264721  0.30383353  0.74684419  1
  C  C178  1  0.42802284  0.53027241  0.74744637  1
  C  C179  1  0.93546901  0.52903103  0.74980678  1
  C  C180  1  0.33145460  0.52657953  0.24651278  1
  C  C181  1  0.83240961  0.52502187  0.24681848  1
  C  C182  1  0.42141472  0.30830678  0.24598841  1
  C  C183  1  0.92219160  0.30994435  0.24472353  1
  C  C184  1  0.23820128  0.15848279  0.24640770  1
  C  C185  1  0.73728214  0.15750204  0.24606652  1
  C  C186  1  0.31680934  0.49522260  0.92180197  1
  C  C187  1  0.83296587  0.51560450  0.91836492  1
  C  C188  1  0.42314595  0.35045360  0.93212863  1
  C  C189  1  0.94491740  0.39204350  0.91044734  1
  C  C190  1  0.25424351  0.15133115  0.93052593  1
  C  C191  1  0.74381441  0.13837396  0.91679306  1
  C  C192  1  0.32842100  0.15593226  0.42923908  1
  C  C193  1  0.82815231  0.15567425  0.43007667  1
  C  C194  1  0.25469872  0.34383255  0.43448931  1
  C  C195  1  0.75441428  0.34340503  0.43490332  1
  C  C196  1  0.42340284  0.49415004  0.43119751  1
  C  C197  1  0.92340779  0.49460018  0.43131983  1
  C  C198  1  0.18360318  0.48323875  0.07469531  1
  C  C199  1  0.67006273  0.48584354  0.08265667  1
  C  C200  1  0.07092471  0.65147892  0.08382018  1
  C  C201  1  0.56077449  0.64181511  0.07125629  1
  C  C202  1  0.26044414  0.88117662  0.07530025  1
  C  C203  1  0.75708651  0.86017885  0.08335428  1
  C  C204  1  0.18136659  0.87984056  0.57565924  1
  C  C205  1  0.68150924  0.88028829  0.57538545  1
  C  C206  1  0.26050870  0.64374766  0.57677490  1
  C  C207  1  0.76169171  0.64538483  0.57620761  1
  C  C208  1  0.06271705  0.48468441  0.57884977  1
  C  C209  1  0.56093999  0.48276417  0.57922052  1
  C  C210  1  0.16726606  0.85461996  0.25256042  1
  C  C211  1  0.66706277  0.85403664  0.25328189  1
  C  C212  1  0.26329257  0.69461897  0.25171277  1
  C  C213  1  0.76326108  0.69176220  0.25229145  1
  C  C214  1  0.07683939  0.46782600  0.25335854  1
  C  C215  1  0.57582974  0.46405303  0.25341580  1
  C  C216  1  0.16088575  0.48924566  0.76397034  1
  C  C217  1  0.66089115  0.46768965  0.75181182  1
  C  C218  1  0.08637986  0.68126718  0.76419899  1
  C  C219  1  0.58112368  0.69601646  0.75248747  1
  C  C220  1  0.25892559  0.82694239  0.76385530  1
  C  C221  1  0.75972758  0.84686397  0.75081267  1
