# generated using pymatgen
data_Cu6NiC12
_symmetry_space_group_name_H-M   'P 1'
_cell_length_a   7.73313955
_cell_length_b   5.83893391
_cell_length_c   5.79496225
_cell_angle_alpha   68.40674960
_cell_angle_beta   71.30684924
_cell_angle_gamma   68.83132792
_symmetry_Int_Tables_number   1
_chemical_formula_structural   Cu6NiC12
_chemical_formula_sum   'Cu6 Ni1 C12'
_cell_volume   221.50657044
_cell_formula_units_Z   1
loop_
 _symmetry_equiv_pos_site_id
 _symmetry_equiv_pos_as_xyz
  1  'x, y, z'
loop_
 _atom_site_type_symbol
 _atom_site_label
 _atom_site_symmetry_multiplicity
 _atom_site_fract_x
 _atom_site_fract_y
 _atom_site_fract_z
 _atom_site_occupancy
  Ni  Ni0  1  0.49913000  0.50487600  0.98075200  1
  Cu  Cu1  1  0.84803700  0.70332500  0.69423200  1
  Cu  Cu2  1  0.68623400  0.33452600  0.36975300  1
  Cu  Cu3  1  0.27258700  0.62671200  0.59316200  1
  Cu  Cu4  1  0.16352500  0.28532400  0.31760100  1
  Cu  Cu5  1  0.49751400  0.99376900  0.99475800  1
  Cu  Cu6  1  0.00689000  0.00245300  0.00373200  1
  C  C7  1  0.66739800  0.03363900  0.65610800  1
  C  C8  1  0.33529000  0.35064200  0.91811600  1
  C  C9  1  0.96109100  0.21075900  0.25207100  1
  C  C10  1  0.03007400  0.80255300  0.76227400  1
  C  C11  1  0.40293700  0.41195900  0.37420900  1
  C  C12  1  0.32820100  0.93870900  0.33726800  1
  C  C13  1  0.66932600  0.64340400  0.06264000  1
  C  C14  1  0.31631700  0.84922600  0.89114200  1
  C  C15  1  0.66274200  0.56139200  0.62227900  1
  C  C16  1  0.69590700  0.14767600  0.07550300  1
  C  C17  1  0.02834900  0.33610500  0.70771300  1
  C  C18  1  0.01773600  0.66771400  0.30335500  1
