# generated using pymatgen
data_CuNiC9
_symmetry_space_group_name_H-M   'P 1'
_cell_length_a   7.19420408
_cell_length_b   6.44218160
_cell_length_c   5.77059983
_cell_angle_alpha   116.60087071
_cell_angle_beta   113.42440531
_cell_angle_gamma   108.76603440
_symmetry_Int_Tables_number   1
_chemical_formula_structural   CuNiC9
_chemical_formula_sum   'Cu1 Ni1 C9'
_cell_volume   174.03289202
_cell_formula_units_Z   1
loop_
 _symmetry_equiv_pos_site_id
 _symmetry_equiv_pos_as_xyz
  1  'x, y, z'
loop_
 _atom_site_type_symbol
 _atom_site_label
 _atom_site_symmetry_multiplicity
 _atom_site_fract_x
 _atom_site_fract_y
 _atom_site_fract_z
 _atom_site_occupancy
  C  C0  1  0.70043351  0.30278722  0.50107091  1
  C  C1  1  0.29956649  0.69721278  0.49892909  1
  C  C2  1  0.00000000  0.00000000  0.50000000  1
  Ni  Ni3  1  0.00000000  0.00000000  0.00000000  1
  Cu  Cu4  1  0.50000000  0.50000000  0.00000000  1
  C  C5  1  0.71608558  0.85246811  0.03788678  1
  C  C6  1  0.17677846  0.48231771  -0.17192029  1
  C  C7  1  0.82322154  0.51768229  0.17192029  1
  C  C8  1  0.28391542  0.14753189  0.96211322  1
  C  C9  1  0.28724972  0.14749224  0.47361046  1
  C  C10  1  0.71274928  0.85250776  0.52638954  1
