# generated using pymatgen
data_Cu2NiC14
_symmetry_space_group_name_H-M   'P 1'
_cell_length_a   3.94772637
_cell_length_b   3.94768519
_cell_length_c   18.87978566
_cell_angle_alpha   90.00000000
_cell_angle_beta   90.00000000
_cell_angle_gamma   90.00000000
_symmetry_Int_Tables_number   1
_chemical_formula_structural   Cu2NiC14
_chemical_formula_sum   'Cu2 Ni1 C14'
_cell_volume   294.22977151
_cell_formula_units_Z   1
loop_
 _symmetry_equiv_pos_site_id
 _symmetry_equiv_pos_as_xyz
  1  'x, y, z'
loop_
 _atom_site_type_symbol
 _atom_site_label
 _atom_site_symmetry_multiplicity
 _atom_site_fract_x
 _atom_site_fract_y
 _atom_site_fract_z
 _atom_site_occupancy
  C  C0  1  0.75000000  0.75000000  0.25491507  1
  C  C1  1  0.25000000  0.25000000  0.78373999  1
  C  C2  1  0.75000000  0.75000000  0.44917241  1
  C  C3  1  0.25000000  0.25000000  0.58997090  1
  Ni  Ni4  1  0.75000000  0.75000000  0.06007423  1
  Cu  Cu5  1  0.25000000  0.25000000  0.35090072  1
  Cu  Cu6  1  0.75000000  0.75000000  0.68509117  1
  C  C7  1  0.75000000  0.25000000  0.94691125  1
  C  C8  1  0.25000000  0.75000000  0.94691129  1
  C  C9  1  0.25000000  0.25000000  0.03099863  1
  C  C10  1  0.75000000  0.75000000  0.87569784  1
  C  C11  1  0.75000000  0.25000000  0.32677829  1
  C  C12  1  0.25000000  0.75000000  0.32677748  1
  C  C13  1  0.25000000  0.75000000  0.70391264  1
  C  C14  1  0.75000000  0.25000000  0.70391181  1
  C  C15  1  0.25000000  0.25000000  0.45943007  1
  C  C16  1  0.75000000  0.75000000  0.57563920  1
