# generated using pymatgen
data_Cu6Ni2C
_symmetry_space_group_name_H-M   'P 1'
_cell_length_a   5.27456400
_cell_length_b   5.64894600
_cell_length_c   9.32840694
_cell_angle_alpha   82.70116028
_cell_angle_beta   90.00000000
_cell_angle_gamma   90.00000000
_symmetry_Int_Tables_number   1
_chemical_formula_structural   Cu6Ni2C
_chemical_formula_sum   'Cu12 Ni4 C2'
_cell_volume   275.69447084
_cell_formula_units_Z   2
loop_
 _symmetry_equiv_pos_site_id
 _symmetry_equiv_pos_as_xyz
  1  'x, y, z'
loop_
 _atom_site_type_symbol
 _atom_site_label
 _atom_site_symmetry_multiplicity
 _atom_site_fract_x
 _atom_site_fract_y
 _atom_site_fract_z
 _atom_site_occupancy
  C  C0  1  0.59932800  0.21939000  0.25395400  1
  C  C1  1  0.09932800  0.78061000  0.74604600  1
  Ni  Ni2  1  0.49912200  0.73347700  0.06553700  1
  Ni  Ni3  1  0.99912200  0.26652300  0.93446300  1
  Ni  Ni4  1  0.00810800  0.74155500  0.40219300  1
  Ni  Ni5  1  0.50810800  0.25844500  0.59780700  1
  Cu  Cu6  1  0.34221300  0.54418100  0.58207700  1
  Cu  Cu7  1  0.84221300  0.45581900  0.41792300  1
  Cu  Cu8  1  0.40231200  0.13420400  0.43296700  1
  Cu  Cu9  1  0.90231200  0.86579600  0.56703300  1
  Cu  Cu10  1  0.28126000  0.08868000  0.72766000  1
  Cu  Cu11  1  0.78126000  0.91132000  0.27234000  1
  Cu  Cu12  1  0.79318900  0.35814400  0.08156200  1
  Cu  Cu13  1  0.29318900  0.64185600  0.91843800  1
  Cu  Cu14  1  0.87579700  0.49827200  0.79166100  1
  Cu  Cu15  1  0.37579700  0.50172800  0.20833900  1
  Cu  Cu16  1  0.80809000  0.02019200  0.88410600  1
  Cu  Cu17  1  0.30809000  0.97980800  0.11589400  1
