# generated using pymatgen
data_Cu2NiC10
_symmetry_space_group_name_H-M   'P 1'
_cell_length_a   6.08671593
_cell_length_b   6.08671593
_cell_length_c   6.23635248
_cell_angle_alpha   106.04354119
_cell_angle_beta   106.04354119
_cell_angle_gamma   115.62756357
_symmetry_Int_Tables_number   1
_chemical_formula_structural   Cu2NiC10
_chemical_formula_sum   'Cu2 Ni1 C10'
_cell_volume   178.08429398
_cell_formula_units_Z   1
loop_
 _symmetry_equiv_pos_site_id
 _symmetry_equiv_pos_as_xyz
  1  'x, y, z'
loop_
 _atom_site_type_symbol
 _atom_site_label
 _atom_site_symmetry_multiplicity
 _atom_site_fract_x
 _atom_site_fract_y
 _atom_site_fract_z
 _atom_site_occupancy
  C  C0  1  0.84646400  0.15353600  0.25000000  1
  C  C1  1  0.12857300  0.87142700  0.75000000  1
  Ni  Ni2  1  0.14108000  0.85892000  0.25000000  1
  Cu  Cu3  1  0.62117500  0.37882500  0.75000000  1
  Cu  Cu4  1  0.40536100  0.59463900  0.25000000  1
  C  C5  1  0.25437300  0.18461100  0.53843600  1
  C  C6  1  0.18944900  0.23424000  0.06984000  1
  C  C7  1  0.19067700  0.63533600  0.41204500  1
  C  C8  1  0.60657300  0.19412100  0.93313100  1
  C  C9  1  0.76576000  0.81055100  0.43016000  1
  C  C10  1  0.81538900  0.74562700  0.96156400  1
  C  C11  1  0.80587900  0.39342700  0.56686900  1
  C  C12  1  0.36466400  0.80932300  0.08795500  1
