# generated using pymatgen
data_Cu3Ni3C31
_symmetry_space_group_name_H-M   'P 1'
_cell_length_a   8.82735995
_cell_length_b   8.88181949
_cell_length_c   22.54062186
_cell_angle_alpha   89.78761261
_cell_angle_beta   90.35442655
_cell_angle_gamma   120.17767997
_symmetry_Int_Tables_number   1
_chemical_formula_structural   Cu3Ni3C31
_chemical_formula_sum   'Cu9 Ni9 C93'
_cell_volume   1527.70863339
_cell_formula_units_Z   3
loop_
 _symmetry_equiv_pos_site_id
 _symmetry_equiv_pos_as_xyz
  1  'x, y, z'
loop_
 _atom_site_type_symbol
 _atom_site_label
 _atom_site_symmetry_multiplicity
 _atom_site_fract_x
 _atom_site_fract_y
 _atom_site_fract_z
 _atom_site_occupancy
  C  C0  1  0.35602150  0.35766198  0.24352552  1
  C  C1  1  0.63398563  0.62741731  0.75310366  1
  C  C2  1  0.96858142  0.29017778  0.41478855  1
  C  C3  1  0.99534982  0.99898488  0.50052386  1
  C  C4  1  0.99677214  0.99197762  0.99960151  1
  C  C5  1  0.66638532  0.33091167  0.83369473  1
  C  C6  1  0.67316464  0.32688121  0.33079999  1
  C  C7  1  0.31286278  0.66422274  0.16368665  1
  C  C8  1  0.30417377  0.65553530  0.66510238  1
  C  C9  1  0.00550374  0.98656984  0.85392233  1
  C  C10  1  0.01589115  0.01889492  0.64764968  1
  C  C11  1  0.01529095  0.01820625  0.14133655  1
  C  C12  1  0.66479934  0.36229915  0.98155456  1
  C  C13  1  0.66036338  0.31162020  0.47832706  1
  C  C14  1  0.33852018  0.66081009  0.02147901  1
  C  C15  1  0.33384924  0.65132567  0.51840776  1
  C  C16  1  0.33957250  0.65814506  0.31517572  1
  C  C17  1  0.32090656  0.64871946  0.81179913  1
  C  C18  1  0.99530992  0.00289825  0.35499767  1
  C  C19  1  0.67722608  0.33832405  0.68706288  1
  C  C20  1  0.68713541  0.34575789  0.17893987  1
  Ni  Ni21  1  0.99633461  0.29588202  0.25115735  1
  Ni  Ni22  1  0.28609288  0.28460053  0.75298991  1
  Ni  Ni23  1  0.01128533  0.72005364  0.74894073  1
  Ni  Ni24  1  0.96162758  0.33247461  0.58273338  1
  Ni  Ni25  1  0.96995668  0.63941803  0.08197719  1
  Ni  Ni26  1  0.37857707  0.33878999  0.08461042  1
  Ni  Ni27  1  0.62302619  0.67451403  0.91523633  1
  Ni  Ni28  1  0.61239324  0.94572164  0.41817828  1
  Ni  Ni29  1  0.34667509  0.37736559  0.41773558  1
  Cu  Cu30  1  0.28824869  0.99199552  0.24888535  1
  Cu  Cu31  1  0.70645773  0.71117154  0.25039126  1
  Cu  Cu32  1  0.71382040  0.99593798  0.75208176  1
  Cu  Cu33  1  0.37159740  0.03647337  0.58243546  1
  Cu  Cu34  1  0.66767314  0.62893552  0.58220820  1
  Cu  Cu35  1  0.66572427  0.03894455  0.08036451  1
  Cu  Cu36  1  0.04189117  0.37528381  0.91721178  1
  Cu  Cu37  1  0.33887842  0.95582133  0.91605689  1
  Cu  Cu38  1  0.04685911  0.66270034  0.41762493  1
  C  C39  1  0.21007937  0.01808468  0.30342412  1
  C  C40  1  0.80802721  0.78148867  0.30579581  1
  C  C41  1  0.97862711  0.19968750  0.31417122  1
  C  C42  1  0.18118926  0.16663790  0.80983499  1
  C  C43  1  0.97884641  0.81288840  0.80794476  1
  C  C44  1  0.81912572  0.01599565  0.80580922  1
  C  C45  1  0.79504157  0.97226390  0.69747144  1
  C  C46  1  0.16640283  0.20050056  0.69214122  1
  C  C47  1  0.02850998  0.84217461  0.69126437  1
  C  C48  1  0.79454670  0.81362926  0.19754079  1
  C  C49  1  0.02861401  0.18916787  0.19525469  1
  C  C50  1  0.17829038  0.97196161  0.19537315  1
  C  C51  1  0.88804567  0.37330800  0.64157234  1
  C  C52  1  0.47409567  0.11168594  0.63711809  1
  C  C53  1  0.63124223  0.53138774  0.63929991  1
  C  C54  1  0.91552341  0.52153908  0.14057183  1
  C  C55  1  0.62846033  0.10225036  0.13592445  1
  C  C56  1  0.47809040  0.36828794  0.14725631  1
  C  C57  1  0.47705673  0.30799240  0.02818398  1
  C  C58  1  0.83261367  0.53316703  0.02559776  1
  C  C59  1  0.69335742  0.15151548  0.02880345  1
  C  C60  1  0.46039141  0.15104567  0.52971801  1
  C  C61  1  0.68554707  0.53288309  0.53211751  1
  C  C62  1  0.83465875  0.30630189  0.52353174  1
  C  C63  1  0.51941269  0.69238237  0.97169972  1
  C  C64  1  0.15226702  0.46358225  0.96973222  1
  C  C65  1  0.30983299  0.85015338  0.96983840  1
  C  C66  1  0.50669073  0.83325962  0.47564993  1
  C  C67  1  0.30914634  0.47656520  0.47222914  1
  C  C68  1  0.15019361  0.68536892  0.47177765  1
  C  C69  1  0.12733259  0.63380721  0.36374026  1
  C  C70  1  0.49281090  0.85486828  0.35831130  1
  C  C71  1  0.36545005  0.49528522  0.35714343  1
  C  C72  1  0.12465231  0.48558936  0.86262307  1
  C  C73  1  0.35395254  0.86812476  0.86254513  1
  C  C74  1  0.50077239  0.64483042  0.85567412  1
  C  C75  1  0.02709802  0.81677553  0.41231718  1
  C  C76  1  0.80753313  0.97325234  0.41905977  1
  C  C77  1  0.17228570  0.18802272  0.41706201  1
  C  C78  1  0.02895959  0.20404673  0.91161922  1
  C  C79  1  0.17851081  0.97662739  0.91100437  1
  C  C80  1  0.81883548  0.84684024  0.90926721  1
  C  C81  1  0.97662271  0.15392855  0.58940697  1
  C  C82  1  0.19655618  0.02471523  0.58574575  1
  C  C83  1  0.82646981  0.80324526  0.58650223  1
  C  C84  1  0.97566145  0.82560522  0.09194912  1
  C  C85  1  0.82482255  0.02057701  0.08770255  1
  C  C86  1  0.18154394  0.16337868  0.08835244  1
  C  C87  1  0.69060865  0.14825816  0.74904645  1
  C  C88  1  0.48093296  0.31337001  0.74763868  1
  C  C89  1  0.83300475  0.53260084  0.74991613  1
  C  C90  1  0.66700580  0.52748112  0.24783461  1
  C  C91  1  0.82465783  0.31506216  0.24717749  1
  C  C92  1  0.46225934  0.15302446  0.24390578  1
  C  C93  1  0.63955605  0.49612418  0.92270315  1
  C  C94  1  0.86608087  0.35668847  0.92203911  1
  C  C95  1  0.49703006  0.13107851  0.92087952  1
  C  C96  1  0.63720494  0.14567264  0.42408965  1
  C  C97  1  0.52660004  0.37362731  0.42729853  1
  C  C98  1  0.87136036  0.50036805  0.42216639  1
  C  C99  1  0.34990016  0.50476086  0.07274159  1
  C  C100  1  0.16278072  0.66945920  0.06456727  1
  C  C101  1  0.51206569  0.86038800  0.07269556  1
  C  C102  1  0.34700502  0.86126262  0.57479349  1
  C  C103  1  0.51110947  0.65222390  0.57465156  1
  C  C104  1  0.15649489  0.50424535  0.57216982  1
  C  C105  1  0.30444427  0.83514607  0.25330535  1
  C  C106  1  0.53040811  0.70183668  0.25447239  1
  C  C107  1  0.18376221  0.48917988  0.25564689  1
  C  C108  1  0.30533774  0.48076344  0.75907573  1
  C  C109  1  0.18702671  0.70603929  0.75922723  1
  C  C110  1  0.53881505  0.83260336  0.75565187  1
