# generated using pymatgen
data_Cu2Ni10C7
_symmetry_space_group_name_H-M   'P 1'
_cell_length_a   5.04265087
_cell_length_b   5.05818768
_cell_length_c   8.73258525
_cell_angle_alpha   90.88281286
_cell_angle_beta   87.61142982
_cell_angle_gamma   101.19616562
_symmetry_Int_Tables_number   1
_chemical_formula_structural   Cu2Ni10C7
_chemical_formula_sum   'Cu2 Ni10 C7'
_cell_volume   218.30414960
_cell_formula_units_Z   1
loop_
 _symmetry_equiv_pos_site_id
 _symmetry_equiv_pos_as_xyz
  1  'x, y, z'
loop_
 _atom_site_type_symbol
 _atom_site_label
 _atom_site_symmetry_multiplicity
 _atom_site_fract_x
 _atom_site_fract_y
 _atom_site_fract_z
 _atom_site_occupancy
  C  C0  1  0.05315058  0.51427352  0.49355894  1
  C  C1  1  0.99620243  0.00739666  0.00765563  1
  C  C2  1  0.96662656  0.00595657  0.32073424  1
  C  C3  1  0.98800187  0.99791069  0.68320340  1
  C  C4  1  0.55913997  0.43013125  0.16176670  1
  C  C5  1  0.42742002  0.59003759  0.84321416  1
  C  C6  1  0.54165430  0.39403967  0.51214303  1
  Ni  Ni7  1  0.16212754  0.86940299  0.16277878  1
  Ni  Ni8  1  0.18833781  0.85369050  0.84132902  1
  Ni  Ni9  1  0.28376915  0.32558763  0.00298331  1
  Ni  Ni10  1  0.28869818  0.33873134  0.34406651  1
  Ni  Ni11  1  0.24979434  0.36162440  0.66450425  1
  Ni  Ni12  1  0.69530541  0.69815000  0.00490880  1
  Ni  Ni13  1  0.76762591  0.62895752  0.35245004  1
  Ni  Ni14  1  0.73115456  0.64685704  0.66532502  1
  Ni  Ni15  1  0.79088172  0.16395245  0.16498173  1
  Ni  Ni16  1  0.80163108  0.15095242  0.50619326  1
  Cu  Cu17  1  0.22437700  0.88356974  0.50566738  1
  Cu  Cu18  1  0.79799054  0.15266704  0.84825081  1
