# generated using pymatgen
data_Cu2Ni2C9
_symmetry_space_group_name_H-M   'P 1'
_cell_length_a   3.40368800
_cell_length_b   3.40360119
_cell_length_c   45.09642117
_cell_angle_alpha   90.01192580
_cell_angle_beta   89.99999492
_cell_angle_gamma   120.00084372
_symmetry_Int_Tables_number   1
_chemical_formula_structural   Cu2Ni2C9
_chemical_formula_sum   'Cu2 Ni2 C9'
_cell_volume   452.43627175
_cell_formula_units_Z   1
loop_
 _symmetry_equiv_pos_site_id
 _symmetry_equiv_pos_as_xyz
  1  'x, y, z'
loop_
 _atom_site_type_symbol
 _atom_site_label
 _atom_site_symmetry_multiplicity
 _atom_site_fract_x
 _atom_site_fract_y
 _atom_site_fract_z
 _atom_site_occupancy
  C  C0  1  0.00065900  0.00131700  0.55095700  1
  C  C1  1  0.33344100  0.66688200  0.32372500  1
  C  C2  1  0.33333500  0.66667000  0.70690400  1
  C  C3  1  0.33330100  0.66660400  0.24021500  1
  C  C4  1  0.33318500  0.66637100  0.62320300  1
  Ni  Ni5  1  0.33334900  0.66669800  0.09373800  1
  Ni  Ni6  1  0.33313400  0.66626600  0.46219400  1
  Cu  Cu7  1  0.66670500  0.33341100  0.28196300  1
  Cu  Cu8  1  0.66659300  0.33318500  0.66518400  1
  C  C9  1  0.66660800  0.33321700  0.05719100  1
  C  C10  1  0.66674700  0.33349500  0.13029300  1
  C  C11  1  0.66634500  0.33268900  0.42928600  1
  C  C12  1  0.66659800  0.33319700  0.49598100  1
