# generated using pymatgen
data_Cu5Ni7C58
_symmetry_space_group_name_H-M   'P 1'
_cell_length_a   17.60699423
_cell_length_b   8.78516147
_cell_length_c   22.72459245
_cell_angle_alpha   90.17039615
_cell_angle_beta   89.83289811
_cell_angle_gamma   119.98999974
_symmetry_Int_Tables_number   1
_chemical_formula_structural   Cu5Ni7C58
_chemical_formula_sum   'Cu15 Ni21 C174'
_cell_volume   3044.40865098
_cell_formula_units_Z   3
loop_
 _symmetry_equiv_pos_site_id
 _symmetry_equiv_pos_as_xyz
  1  'x, y, z'
loop_
 _atom_site_type_symbol
 _atom_site_label
 _atom_site_symmetry_multiplicity
 _atom_site_fract_x
 _atom_site_fract_y
 _atom_site_fract_z
 _atom_site_occupancy
  C  C0  1  0.99607670  0.99966482  0.49865442  1
  C  C1  1  0.49581311  0.99056814  0.00297818  1
  C  C2  1  0.32900680  0.33161475  0.83879093  1
  C  C3  1  0.82853028  0.33066980  0.83800557  1
  C  C4  1  0.33104955  0.32771587  0.33570603  1
  C  C5  1  0.82781055  0.32456070  0.33751652  1
  C  C6  1  0.50492668  0.02014018  0.35745749  1
  C  C7  1  0.00609724  0.00163884  0.85982304  1
  C  C8  1  0.50143343  0.01415303  0.64150922  1
  C  C9  1  0.00184845  0.98958977  0.14176555  1
  C  C10  1  0.33296228  0.34270364  0.68626533  1
  C  C11  1  0.83374985  0.34580064  0.68674834  1
  C  C12  1  0.33802817  0.32290853  0.18960501  1
  C  C13  1  0.83258144  0.32359816  0.18717566  1
  C  C14  1  0.17276901  0.68807091  0.02403276  1
  C  C15  1  0.66905957  0.68504129  0.02399378  1
  C  C16  1  0.17003720  0.65413534  0.52279542  1
  C  C17  1  0.67204433  0.65651330  0.52189718  1
  C  C18  1  0.00722577  0.01512535  0.35863937  1
  C  C19  1  0.50859493  0.00120289  0.85920753  1
  C  C20  1  0.00089961  0.01918236  0.64239726  1
  C  C21  1  0.50235801  -0.00033172  0.14756028  1
  C  C22  1  0.33740286  0.33856897  0.97989646  1
  C  C23  1  0.83448571  0.33586500  0.97890402  1
  C  C24  1  0.33826400  0.33903095  0.47598666  1
  C  C25  1  0.83744815  0.33605220  0.47632093  1
  C  C26  1  0.17753173  0.68667396  0.31362436  1
  C  C27  1  0.66964891  0.67239314  0.30981805  1
  C  C28  1  0.17697042  0.66722779  0.81436690  1
  C  C29  1  0.67563296  0.66586004  0.81490457  1
  Ni  Ni30  1  0.14267899  0.99603728  0.25247097  1
  Ni  Ni31  1  0.64218205  0.99469083  0.25000392  1
  Ni  Ni32  1  0.50598703  0.29285731  0.24920099  1
  Ni  Ni33  1  0.14269022  0.29098466  0.74969896  1
  Ni  Ni34  1  0.64299275  0.29018431  0.75261227  1
  Ni  Ni35  1  0.47584376  0.34187019  0.58083821  1
  Ni  Ni36  1  0.97543738  0.33682819  0.58183772  1
  Ni  Ni37  1  0.33611475  0.62140004  0.58058263  1
  Ni  Ni38  1  0.83896859  0.62790089  0.58106063  1
  Ni  Ni39  1  0.47560925  0.62422535  0.08320136  1
  Ni  Ni40  1  0.97531752  0.61027657  0.08153578  1
  Ni  Ni41  1  0.34080516  0.05356418  0.08208194  1
  Ni  Ni42  1  0.83688397  0.05182077  0.08100982  1
  Ni  Ni43  1  0.31417101  0.66657410  0.91721656  1
  Ni  Ni44  1  0.81035784  0.66139832  0.91829180  1
  Ni  Ni45  1  0.17363888  0.95755408  0.91512972  1
  Ni  Ni46  1  0.67094933  0.95757536  0.91444446  1
  Ni  Ni47  1  0.31143885  0.95817005  0.41818714  1
  Ni  Ni48  1  0.81110734  0.95466555  0.41452938  1
  Ni  Ni49  1  0.17066818  0.38302629  0.41371901  1
  Ni  Ni50  1  0.67274693  0.38670788  0.41421828  1
  Cu  Cu51  1  0.35590463  0.71290864  0.25007784  1
  Cu  Cu52  1  0.85704110  0.71489317  0.25068657  1
  Cu  Cu53  1  0.00206356  0.28944538  0.25075999  1
  Cu  Cu54  1  0.00299241  0.71571016  0.74983382  1
  Cu  Cu55  1  0.50213960  0.71488086  0.75074697  1
  Cu  Cu56  1  0.35660741  0.99951593  0.75090191  1
  Cu  Cu57  1  0.85615690  0.99895926  0.74989535  1
  Cu  Cu58  1  0.18894966  0.04611009  0.58240137  1
  Cu  Cu59  1  0.69045492  0.04700358  0.58276155  1
  Cu  Cu60  1  0.19046316  0.33506556  0.08340250  1
  Cu  Cu61  1  0.68929063  0.33247327  0.08231394  1
  Cu  Cu62  1  0.02336305  0.38268530  0.91587087  1
  Cu  Cu63  1  0.52345964  0.37944169  0.91584808  1
  Cu  Cu64  1  0.02389656  0.66785954  0.41580104  1
  Cu  Cu65  1  0.52392375  0.66754193  0.41596618  1
  C  C66  1  0.09188539  0.02572911  0.30809919  1
  C  C67  1  0.59547981  0.02693454  0.30730235  1
  C  C68  1  0.41002078  0.78745972  0.30319680  1
  C  C69  1  0.91215416  0.79198627  0.30254235  1
  C  C70  1  0.48216231  0.16259392  0.30692546  1
  C  C71  1  0.98210523  0.17631873  0.30321096  1
  C  C72  1  0.09431061  0.16236957  0.80640970  1
  C  C73  1  0.59327935  0.15898842  0.80797480  1
  C  C74  1  0.48217671  0.78844853  0.80324964  1
  C  C75  1  0.98269181  0.79141784  0.80323460  1
  C  C76  1  0.41102343  0.03096927  0.80262216  1
  C  C77  1  0.91121666  0.03043108  0.80248192  1
  C  C78  1  0.39747883  0.97218505  0.69649510  1
  C  C79  1  0.89594534  0.97116079  0.69643704  1
  C  C80  1  0.08134859  0.18659149  0.69270463  1
  C  C81  1  0.58341749  0.18948947  0.69423623  1
  C  C82  1  0.01170443  0.81822286  0.69699423  1
  C  C83  1  0.51166578  0.81875252  0.69731718  1
  C  C84  1  0.39453183  0.81899223  0.19680485  1
  C  C85  1  0.89896669  0.82376031  0.19630103  1
  C  C86  1  0.01161519  0.20449045  0.19723314  1
  C  C87  1  0.51291133  0.18979754  0.19192070  1
  C  C88  1  0.08210023  0.97462778  0.19416237  1
  C  C89  1  0.58299530  0.97257741  0.19187678  1
  C  C90  1  0.42780334  0.35732652  0.64113177  1
  C  C91  1  0.92783071  0.35607422  0.64180112  1
  C  C92  1  0.24416014  0.12740674  0.63689521  1
  C  C93  1  0.74461019  0.12770616  0.63723951  1
  C  C94  1  0.31707486  0.49757923  0.64024029  1
  C  C95  1  0.81829492  0.50020625  0.64044738  1
  C  C96  1  0.42709304  0.49860480  0.14048259  1
  C  C97  1  0.92798530  0.49806086  0.14104814  1
  C  C98  1  0.31680769  0.13539442  0.14007885  1
  C  C99  1  0.81715093  0.13775140  0.14005150  1
  C  C100  1  0.24320168  0.36494118  0.13668125  1
  C  C101  1  0.74471496  0.36282767  0.13627931  1
  C  C102  1  0.22634208  0.29729723  0.03044888  1
  C  C103  1  0.72960405  0.30223323  0.02979948  1
  C  C104  1  0.41355425  0.52710719  0.02538308  1
  C  C105  1  0.91251012  0.52509152  0.02490544  1
  C  C106  1  0.34759863  0.17151992  0.02507449  1
  C  C107  1  0.84831811  0.17290628  0.02505524  1
  C  C108  1  0.22731519  0.15610418  0.53062249  1
  C  C109  1  0.72648706  0.15637527  0.53118120  1
  C  C110  1  0.34842924  0.52344540  0.52535565  1
  C  C111  1  0.84979692  0.52618379  0.52577748  1
  C  C112  1  0.41190740  0.29882585  0.52532978  1
  C  C113  1  0.91260524  0.29760926  0.52569216  1
  C  C114  1  0.26318873  0.69244270  0.97340873  1
  C  C115  1  0.76147046  0.69048016  0.97401920  1
  C  C116  1  0.07628334  0.45249289  0.96923096  1
  C  C117  1  0.57684328  0.45457568  0.96939060  1
  C  C118  1  0.15011186  0.83024996  0.97308912  1
  C  C119  1  0.64982927  0.83229393  0.97312291  1
  C  C120  1  0.26001525  0.83247920  0.47431417  1
  C  C121  1  0.76366294  0.83554882  0.47413717  1
  C  C122  1  0.14967531  0.46597154  0.47334322  1
  C  C123  1  0.65100818  0.46784678  0.47387602  1
  C  C124  1  0.07652611  0.69784550  0.46997033  1
  C  C125  1  0.57663514  0.69700601  0.47019770  1
  C  C126  1  0.06290802  0.63771221  0.36312923  1
  C  C127  1  0.56154170  0.63378912  0.36361379  1
  C  C128  1  0.24912807  0.86560955  0.35965886  1
  C  C129  1  0.74869535  0.86185725  0.35831353  1
  C  C130  1  0.17938395  0.50363176  0.35747858  1
  C  C131  1  0.68376901  0.50655391  0.35834522  1
  C  C132  1  0.06290998  0.48853979  0.86273982  1
  C  C133  1  0.56329432  0.48792653  0.86285211  1
  C  C134  1  0.17970006  0.85403115  0.85740116  1
  C  C135  1  0.67937181  0.85513231  0.85727906  1
  C  C136  1  0.25056255  0.63592808  0.85915029  1
  C  C137  1  0.74926285  0.63296738  0.85928802  1
  C  C138  1  0.01230086  0.82431167  0.41007248  1
  C  C139  1  0.51156162  0.82100196  0.40848284  1
  C  C140  1  0.40335823  0.96362403  0.40615905  1
  C  C141  1  0.90815240  0.97248203  0.40511036  1
  C  C142  1  0.08130582  0.18689873  0.40859020  1
  C  C143  1  0.58431108  0.19125396  0.40899464  1
  C  C144  1  0.01178667  0.20102879  0.90706302  1
  C  C145  1  0.51232278  0.20014007  0.90909087  1
  C  C146  1  0.08349938  0.97244656  0.90640632  1
  C  C147  1  0.58166134  0.97524725  0.90830196  1
  C  C148  1  0.40794350  0.84469266  0.90436989  1
  C  C149  1  0.90388289  0.83762695  0.90245118  1
  C  C150  1  0.48706386  0.16792112  0.59353561  1
  C  C151  1  0.98844521  0.16428068  0.59157240  1
  C  C152  1  0.10049929  0.02563606  0.59171732  1
  C  C153  1  0.60136316  0.02576523  0.59387850  1
  C  C154  1  0.42046034  0.81015794  0.59746800  1
  C  C155  1  0.92366255  0.81851950  0.59532454  1
  C  C156  1  0.48912961  0.81920277  0.09099265  1
  C  C157  1  0.98705459  0.80679146  0.09277271  1
  C  C158  1  0.42343511  0.02634251  0.09103613  1
  C  C159  1  0.92082461  0.03116742  0.09686910  1
  C  C160  1  0.10056709  0.17714333  0.09299235  1
  C  C161  1  0.60237609  0.17521661  0.08919722  1
  C  C162  1  0.34623457  0.15778089  0.74194116  1
  C  C163  1  0.84626424  0.15848517  0.74295464  1
  C  C164  1  0.23991356  0.30531254  0.74225404  1
  C  C165  1  0.74028250  0.30532383  0.74304639  1
  C  C166  1  0.41959044  0.53238795  0.74323597  1
  C  C167  1  0.91938206  0.53311473  0.74421360  1
  C  C168  1  0.34370664  0.53260015  0.24254078  1
  C  C169  1  0.84760317  0.53586553  0.24168539  1
  C  C170  1  0.41603134  0.31091808  0.24366406  1
  C  C171  1  0.91969296  0.30680228  0.24326806  1
  C  C172  1  0.23784256  0.17543632  0.24261351  1
  C  C173  1  0.74009608  0.17719724  0.24182224  1
  C  C174  1  0.32279588  0.49255692  0.92409513  1
  C  C175  1  0.82260800  0.49158951  0.92401147  1
  C  C176  1  0.43514413  0.36070321  0.92144589  1
  C  C177  1  0.93445641  0.35871901  0.92148157  1
  C  C178  1  0.25546412  0.15198771  0.92407459  1
  C  C179  1  0.75453343  0.15088937  0.92439094  1
  C  C180  1  0.32145929  0.15107738  0.42493555  1
  C  C181  1  0.82336801  0.15072589  0.42560475  1
  C  C182  1  0.25429856  0.35805724  0.42501335  1
  C  C183  1  0.75575036  0.35852267  0.42606299  1
  C  C184  1  0.43483832  0.50829608  0.42281090  1
  C  C185  1  0.93521230  0.50930073  0.42173189  1
  C  C186  1  0.17720799  0.48612128  0.07447633  1
  C  C187  1  0.68062635  0.48963401  0.07526080  1
  C  C188  1  0.07071868  0.62990555  0.07233736  1
  C  C189  1  0.56913049  0.63004517  0.07186802  1
  C  C190  1  0.25109448  0.85922632  0.07510181  1
  C  C191  1  0.75037222  0.85714934  0.07516868  1
  C  C192  1  0.17928457  0.87069603  0.57624790  1
  C  C193  1  0.67845236  0.87019746  0.57659845  1
  C  C194  1  0.25024429  0.64466463  0.57535156  1
  C  C195  1  0.75108541  0.64595792  0.57542897  1
  C  C196  1  0.07063776  0.51012254  0.57333103  1
  C  C197  1  0.57154766  0.51280761  0.57305257  1
  C  C198  1  0.15144006  0.82248105  0.26228953  1
  C  C199  1  0.65587501  0.82955574  0.26109765  1
  C  C200  1  0.26773900  0.69362273  0.25748902  1
  C  C201  1  0.77035821  0.69537403  0.25480842  1
  C  C202  1  0.07728606  0.46412433  0.25785847  1
  C  C203  1  0.58749553  0.48360081  0.26212449  1
  C  C204  1  0.15226571  0.48153071  0.76127747  1
  C  C205  1  0.65242497  0.48155985  0.76196069  1
  C  C206  1  0.07651169  0.69015150  0.75874499  1
  C  C207  1  0.57720443  0.69047071  0.75773129  1
  C  C208  1  0.26873785  0.84359548  0.75586635  1
  C  C209  1  0.76830888  0.84365661  0.75694024  1
