# generated using pymatgen
data_Cu4Ni8C7
_symmetry_space_group_name_H-M   'P 1'
_cell_length_a   11.57318500
_cell_length_b   6.70270561
_cell_length_c   3.05903900
_cell_angle_alpha   90.00000000
_cell_angle_beta   90.00000000
_cell_angle_gamma   105.42694656
_symmetry_Int_Tables_number   1
_chemical_formula_structural   Cu4Ni8C7
_chemical_formula_sum   'Cu4 Ni8 C7'
_cell_volume   228.74507655
_cell_formula_units_Z   1
loop_
 _symmetry_equiv_pos_site_id
 _symmetry_equiv_pos_as_xyz
  1  'x, y, z'
loop_
 _atom_site_type_symbol
 _atom_site_label
 _atom_site_symmetry_multiplicity
 _atom_site_fract_x
 _atom_site_fract_y
 _atom_site_fract_z
 _atom_site_occupancy
  C  C0  1  0.83288200  0.16938500  0.00000000  1
  C  C1  1  0.05515500  0.03371800  0.00000000  1
  C  C2  1  0.33322400  0.17112100  0.50000000  1
  C  C3  1  0.04474300  0.54432200  0.50000000  1
  C  C4  1  0.61120400  0.30744900  0.00000000  1
  C  C5  1  0.33256500  0.67089600  0.00000000  1
  C  C6  1  0.62036500  0.79619500  0.50000000  1
  Ni  Ni7  1  0.16019800  0.09431600  0.50000000  1
  Ni  Ni8  1  0.00932900  0.33682700  0.00000000  1
  Ni  Ni9  1  0.02547900  0.72075300  0.00000000  1
  Ni  Ni10  1  0.65620100  0.00358600  0.00000000  1
  Ni  Ni11  1  0.50627600  0.24718700  0.50000000  1
  Ni  Ni12  1  0.22150200  0.61654600  0.50000000  1
  Ni  Ni13  1  0.44370300  0.72511800  0.50000000  1
  Ni  Ni14  1  0.63984600  0.61994700  0.00000000  1
  Cu  Cu15  1  0.33466000  0.36579100  0.00000000  1
  Cu  Cu16  1  0.77777100  0.33173200  0.50000000  1
  Cu  Cu17  1  0.33197100  0.97652300  0.00000000  1
  Cu  Cu18  1  0.88792600  0.00817300  0.50000000  1
