# generated using pymatgen
data_Cu3Ni3C29
_symmetry_space_group_name_H-M   'P 1'
_cell_length_a   8.74029493
_cell_length_b   8.73611382
_cell_length_c   22.56121571
_cell_angle_alpha   89.87221705
_cell_angle_beta   90.25167412
_cell_angle_gamma   119.87702304
_symmetry_Int_Tables_number   1
_chemical_formula_structural   Cu3Ni3C29
_chemical_formula_sum   'Cu9 Ni9 C87'
_cell_volume   1493.72329583
_cell_formula_units_Z   3
loop_
 _symmetry_equiv_pos_site_id
 _symmetry_equiv_pos_as_xyz
  1  'x, y, z'
loop_
 _atom_site_type_symbol
 _atom_site_label
 _atom_site_symmetry_multiplicity
 _atom_site_fract_x
 _atom_site_fract_y
 _atom_site_fract_z
 _atom_site_occupancy
  C  C0  1  0.98943674  0.00017909  -0.00001992  1
  C  C1  1  0.67695326  0.34470185  0.83526801  1
  C  C2  1  0.65791826  0.32786584  0.34110842  1
  C  C3  1  0.99940440  0.99726813  0.35619269  1
  C  C4  1  0.00087474  0.99896843  0.64479327  1
  C  C5  1  0.66012059  0.32479045  0.19070375  1
  C  C6  1  0.33976899  0.66632902  0.02431878  1
  C  C7  1  0.33311060  0.65897651  0.51763797  1
  C  C8  1  0.32613585  0.65923896  0.81106602  1
  C  C9  1  0.98890537  0.99152441  0.85602949  1
  C  C10  1  0.99080170  0.99183326  0.15076303  1
  C  C11  1  0.68519448  0.34373244  0.68321604  1
  C  C12  1  0.67838913  0.33712786  0.97866339  1
  C  C13  1  0.66593972  0.32170155  0.48110029  1
  C  C14  1  0.35155240  0.67714400  0.31108834  1
  Ni  Ni15  1  0.27940126  0.98983241  0.24863902  1
  Ni  Ni16  1  0.70984698  0.71258467  0.24823861  1
  Ni  Ni17  1  0.99307951  0.70930271  0.75275687  1
  Ni  Ni18  1  0.95490037  0.33626418  0.58316174  1
  Ni  Ni19  1  0.67576649  0.05036617  0.08097133  1
  Ni  Ni20  1  0.62367679  0.66410806  0.91684252  1
  Ni  Ni21  1  0.04233445  0.37310105  0.91757835  1
  Ni  Ni22  1  0.62135701  0.96022427  0.41466378  1
  Ni  Ni23  1  0.33986797  0.37734445  0.41318145  1
  Cu  Cu24  1  0.00593184  0.29324496  0.24969567  1
  Cu  Cu25  1  0.29215122  0.28573413  0.75131872  1
  Cu  Cu26  1  0.70996507  0.00232158  0.75120321  1
  Cu  Cu27  1  0.37844361  0.04181491  0.58404305  1
  Cu  Cu28  1  0.66485509  0.62174724  0.58342035  1
  Cu  Cu29  1  0.95499665  0.62428523  0.08198955  1
  Cu  Cu30  1  0.37585658  0.32723501  0.08188217  1
  Cu  Cu31  1  0.33343540  0.95451276  0.91678484  1
  Cu  Cu32  1  0.04264955  0.66286455  0.41461553  1
  C  C33  1  0.19772655  0.03390961  0.30470440  1
  C  C34  1  0.83569721  0.80069604  0.30456946  1
  C  C35  1  0.96404100  0.17266505  0.30313801  1
  C  C36  1  0.21130945  0.18283710  0.80394728  1
  C  C37  1  0.97262856  0.79809418  0.80653759  1
  C  C38  1  0.81861828  0.03302927  0.80347436  1
  C  C39  1  0.79524118  0.97225549  0.69710496  1
  C  C40  1  0.17631360  0.20465964  0.69687017  1
  C  C41  1  0.02453826  0.82973947  0.69579643  1
  C  C42  1  0.79033627  0.81737808  0.19351331  1
  C  C43  1  0.02698160  0.21448471  0.19568583  1
  C  C44  1  0.18258645  0.98051881  0.19237518  1
  C  C45  1  0.88871147  0.37385878  0.63966571  1
  C  C46  1  0.48105060  0.11391170  0.63807140  1
  C  C47  1  0.62806219  0.51763883  0.63725048  1
  C  C48  1  0.87370404  0.51067439  0.13572587  1
  C  C49  1  0.64135763  0.13851315  0.13745005  1
  C  C50  1  0.49115979  0.36301211  0.13627967  1
  C  C51  1  0.45718351  0.30644143  0.02901980  1
  C  C52  1  0.84895262  0.54665824  0.02896269  1
  C  C53  1  0.69412928  0.15708589  0.02639548  1
  C  C54  1  0.44266077  0.14981104  0.53135228  1
  C  C55  1  0.70320649  0.55464265  0.53054691  1
  C  C56  1  0.84425652  0.29407758  0.52812305  1
  C  C57  1  0.52249467  0.68544172  0.97211283  1
  C  C58  1  0.16280700  0.47702683  0.97191006  1
  C  C59  1  0.31167446  0.84174304  0.97030615  1
  C  C60  1  0.53016444  0.83782243  0.47166045  1
  C  C61  1  0.30590433  0.46663653  0.47115329  1
  C  C62  1  0.15714053  0.69503040  0.46998302  1
  C  C63  1  0.12163414  0.63682833  0.36284716  1
  C  C64  1  0.50825782  0.87657757  0.36136335  1
  C  C65  1  0.35935415  0.48795801  0.36044676  1
  C  C66  1  0.14320606  0.49568478  0.86102937  1
  C  C67  1  0.35456247  0.86267152  0.86255901  1
  C  C68  1  0.50385264  0.64822971  0.86125339  1
  C  C69  1  0.03434727  0.83228754  0.41054880  1
  C  C70  1  0.80582565  0.96872848  0.40727892  1
  C  C71  1  0.16481908  0.19315434  0.40719286  1
  C  C72  1  0.04013124  0.19953580  0.91217620  1
  C  C73  1  0.17252410  0.96444473  0.91287185  1
  C  C74  1  0.79894847  0.83388789  0.91478716  1
  C  C75  1  0.98528523  0.17306935  0.59719161  1
  C  C76  1  0.19265538  0.01743415  0.59476474  1
  C  C77  1  0.82211203  0.80728955  0.59412198  1
  C  C78  1  0.98687750  0.80350875  0.08887756  1
  C  C79  1  0.82964078  0.01927325  0.08962667  1
  C  C80  1  0.19861732  0.18031865  0.09017641  1
  C  C81  1  0.67947440  0.15036665  0.74197962  1
  C  C82  1  0.46801560  0.31186804  0.74124788  1
  C  C83  1  0.83780864  0.52521250  0.74410727  1
  C  C84  1  0.70185917  0.52429786  0.24052167  1
  C  C85  1  0.83282867  0.30222318  0.24344708  1
  C  C86  1  0.47271700  0.17048964  0.24191109  1
  C  C87  1  0.62648857  0.49274086  0.92061237  1
  C  C88  1  0.86672525  0.36766364  0.91812068  1
  C  C89  1  0.49426062  0.12486213  0.91960222  1
  C  C90  1  0.65281847  0.14457576  0.42359418  1
  C  C91  1  0.49648608  0.35324609  0.42605431  1
  C  C92  1  0.86525823  0.51641410  0.42466838  1
  C  C93  1  0.36407758  0.49625211  0.07647309  1
  C  C94  1  0.13374037  0.63472816  0.07462084  1
  C  C95  1  0.49897728  0.86334765  0.07327413  1
  C  C96  1  0.34791495  0.85943084  0.57408015  1
  C  C97  1  0.51055024  0.65197890  0.57432156  1
  C  C98  1  0.14594356  0.49633115  0.57078927  1
  C  C99  1  0.30984501  0.84022997  0.25992757  1
  C  C100  1  0.52625784  0.67484756  0.25842184  1
  C  C101  1  0.14754121  0.46671371  0.26003176  1
  C  C102  1  0.30427738  0.46587375  0.75637726  1
  C  C103  1  0.16904649  0.69848958  0.75950851  1
  C  C104  1  0.53410925  0.83503542  0.75725701  1
