# generated using pymatgen
data_Cu3NiC13
_symmetry_space_group_name_H-M   'P 1'
_cell_length_a   4.11917548
_cell_length_b   4.12968578
_cell_length_c   15.43449873
_cell_angle_alpha   90.00000000
_cell_angle_beta   90.00000000
_cell_angle_gamma   90.00000000
_symmetry_Int_Tables_number   1
_chemical_formula_structural   Cu3NiC13
_chemical_formula_sum   'Cu3 Ni1 C13'
_cell_volume   262.55472070
_cell_formula_units_Z   1
loop_
 _symmetry_equiv_pos_site_id
 _symmetry_equiv_pos_as_xyz
  1  'x, y, z'
loop_
 _atom_site_type_symbol
 _atom_site_label
 _atom_site_symmetry_multiplicity
 _atom_site_fract_x
 _atom_site_fract_y
 _atom_site_fract_z
 _atom_site_occupancy
  C  C0  1  0.50000000  0.27727873  0.50000000  1
  C  C1  1  0.50000000  0.50006492  0.85987707  1
  C  C2  1  0.50000000  0.50006492  0.14012293  1
  Ni  Ni3  1  -0.00000000  0.80156419  0.50000000  1
  Cu  Cu4  1  -0.00000000  0.00064568  0.73308414  1
  Cu  Cu5  1  -0.00000000  0.00064568  0.26691586  1
  Cu  Cu6  1  -0.00000000  0.00319482  0.00000000  1
  C  C7  1  0.00000000  0.02256557  0.61018854  1
  C  C8  1  0.00000000  0.02256557  0.38981146  1
  C  C9  1  0.50000000  0.00639307  0.75005427  1
  C  C10  1  -0.00000000  0.51549469  0.74983101  1
  C  C11  1  0.50000000  0.00639307  0.24994573  1
  C  C12  1  -0.00000000  0.51549469  0.25016899  1
  C  C13  1  0.00000000  0.51161170  0.00000000  1
  C  C14  1  0.50000000  0.00486134  0.00000000  1
  C  C15  1  0.00000000  0.02224717  0.12800067  1
  C  C16  1  -0.00000000  0.02224717  0.87199933  1
