# generated using pymatgen
data_CuNiC6
_symmetry_space_group_name_H-M   'P 1'
_cell_length_a   3.92092970
_cell_length_b   3.92092964
_cell_length_c   10.02172452
_cell_angle_alpha   101.28103806
_cell_angle_beta   101.28103907
_cell_angle_gamma   90.00000389
_symmetry_Int_Tables_number   1
_chemical_formula_structural   CuNiC6
_chemical_formula_sum   'Cu1 Ni1 C6'
_cell_volume   148.05757630
_cell_formula_units_Z   1
loop_
 _symmetry_equiv_pos_site_id
 _symmetry_equiv_pos_as_xyz
  1  'x, y, z'
loop_
 _atom_site_type_symbol
 _atom_site_label
 _atom_site_symmetry_multiplicity
 _atom_site_fract_x
 _atom_site_fract_y
 _atom_site_fract_z
 _atom_site_occupancy
  C  C0  1  0.68726882  0.68726882  0.37453664  1
  C  C1  1  0.31273118  0.31273118  0.62546336  1
  Ni  Ni2  1  0.50000000  0.50000000  0.00000000  1
  Cu  Cu3  1  -0.00000000  -0.00000000  0.00000000  1
  C  C4  1  0.80793435  0.80793435  0.61586871  1
  C  C5  1  0.19206565  0.19206565  0.38413129  1
  C  C6  1  -0.00000000  0.50000000  0.00000000  1
  C  C7  1  0.50000000  -0.00000000  0.00000000  1
