# generated using pymatgen
data_Cu2Ni4C7
_symmetry_space_group_name_H-M   'P 1'
_cell_length_a   3.40004400
_cell_length_b   3.40036649
_cell_length_c   45.13774202
_cell_angle_alpha   90.00351891
_cell_angle_beta   90.00000000
_cell_angle_gamma   119.99677334
_symmetry_Int_Tables_number   1
_chemical_formula_structural   Cu2Ni4C7
_chemical_formula_sum   'Cu2 Ni4 C7'
_cell_volume   451.95463527
_cell_formula_units_Z   1
loop_
 _symmetry_equiv_pos_site_id
 _symmetry_equiv_pos_as_xyz
  1  'x, y, z'
loop_
 _atom_site_type_symbol
 _atom_site_label
 _atom_site_symmetry_multiplicity
 _atom_site_fract_x
 _atom_site_fract_y
 _atom_site_fract_z
 _atom_site_occupancy
  C  C0  1  0.00004400  0.00008900  0.36628300  1
  Ni  Ni1  1  0.33338500  0.66677100  0.69990000  1
  Ni  Ni2  1  0.66646800  0.33293600  0.43251200  1
  Ni  Ni3  1  0.66650800  0.33301500  0.51578900  1
  Ni  Ni4  1  0.33334000  0.66668000  0.61690500  1
  C  C5  1  0.33341200  0.66682400  0.09392400  1
  C  C6  1  0.33315100  0.66630300  0.47438600  1
  C  C7  1  0.66671000  0.33342100  0.27553700  1
  C  C8  1  0.66669500  0.33339200  0.65838900  1
  Cu  Cu9  1  0.66672300  0.33344500  0.05744500  1
  Cu  Cu10  1  0.66676300  0.33352500  0.13042500  1
  C  C11  1  0.33344500  0.66689100  0.30925600  1
  C  C12  1  0.33335500  0.66671100  0.24257900  1
