# generated using pymatgen
data_Cu5(NiC)7
_symmetry_space_group_name_H-M   'P 1'
_cell_length_a   8.31287189
_cell_length_b   5.74117789
_cell_length_c   5.93027106
_cell_angle_alpha   66.15131282
_cell_angle_beta   61.35719274
_cell_angle_gamma   63.75965063
_symmetry_Int_Tables_number   1
_chemical_formula_structural   Cu5(NiC)7
_chemical_formula_sum   'Cu5 Ni7 C7'
_cell_volume   216.03738293
_cell_formula_units_Z   1
loop_
 _symmetry_equiv_pos_site_id
 _symmetry_equiv_pos_as_xyz
  1  'x, y, z'
loop_
 _atom_site_type_symbol
 _atom_site_label
 _atom_site_symmetry_multiplicity
 _atom_site_fract_x
 _atom_site_fract_y
 _atom_site_fract_z
 _atom_site_occupancy
  C  C0  1  0.50880600  0.96858900  0.50230300  1
  C  C1  1  0.85946200  0.67712900  0.66580200  1
  C  C2  1  0.30006800  0.61709900  0.65940700  1
  C  C3  1  0.66872100  0.36466200  0.30586900  1
  C  C4  1  0.19765400  0.35419300  0.34147200  1
  C  C5  1  0.48975300  0.99937700  0.99684800  1
  C  C6  1  0.01196700  0.00264600  0.99188200  1
  Ni  Ni7  1  0.33027400  0.35400900  0.98349900  1
  Ni  Ni8  1  0.66574800  0.02512000  0.63603700  1
  Ni  Ni9  1  0.38721400  0.38009400  0.43842800  1
  Ni  Ni10  1  0.33278600  0.96907200  0.36017100  1
  Ni  Ni11  1  0.66485500  0.64606800  0.01768000  1
  Ni  Ni12  1  0.00918300  0.31974200  0.68295000  1
  Ni  Ni13  1  0.02851700  0.69431400  0.30885900  1
  Cu  Cu14  1  0.62151700  0.58026400  0.53720100  1
  Cu  Cu15  1  0.31156600  0.89769000  0.86205200  1
  Cu  Cu16  1  0.94424800  0.23668500  0.22157500  1
  Cu  Cu17  1  0.01722500  0.77607300  0.78846200  1
  Cu  Cu18  1  0.70876500  0.07765000  0.13997600  1
