# generated using pymatgen
data_Cu4NiC14
_symmetry_space_group_name_H-M   'P 1'
_cell_length_a   8.26966097
_cell_length_b   8.26966097
_cell_length_c   7.52399054
_cell_angle_alpha   88.02399483
_cell_angle_beta   88.02399483
_cell_angle_gamma   112.81817429
_symmetry_Int_Tables_number   1
_chemical_formula_structural   Cu4NiC14
_chemical_formula_sum   'Cu8 Ni2 C28'
_cell_volume   473.35513003
_cell_formula_units_Z   2
loop_
 _symmetry_equiv_pos_site_id
 _symmetry_equiv_pos_as_xyz
  1  'x, y, z'
loop_
 _atom_site_type_symbol
 _atom_site_label
 _atom_site_symmetry_multiplicity
 _atom_site_fract_x
 _atom_site_fract_y
 _atom_site_fract_z
 _atom_site_occupancy
  C  C0  1  0.51384300  0.82171700  0.80823500  1
  C  C1  1  0.48615700  0.17828300  0.19176500  1
  C  C2  1  0.17828300  0.48615700  0.69176500  1
  C  C3  1  0.82171700  0.51384300  0.30823500  1
  Ni  Ni4  1  0.13110900  0.86889100  0.25000000  1
  Ni  Ni5  1  0.86889100  0.13110900  0.75000000  1
  Cu  Cu6  1  0.22704300  0.56277400  0.11302800  1
  Cu  Cu7  1  0.22468100  0.07312300  0.81632500  1
  Cu  Cu8  1  0.92687700  0.77531900  0.68367500  1
  Cu  Cu9  1  0.77531900  0.92687700  0.18367500  1
  Cu  Cu10  1  0.77295700  0.43722600  0.88697200  1
  Cu  Cu11  1  0.07312300  0.22468100  0.31632500  1
  Cu  Cu12  1  0.56277400  0.22704300  0.61302800  1
  Cu  Cu13  1  0.43722600  0.77295700  0.38697200  1
  C  C14  1  0.87810000  0.12190000  0.25000000  1
  C  C15  1  0.17102100  0.10367700  0.32652400  1
  C  C16  1  0.82897900  0.89632300  0.67347600  1
  C  C17  1  0.89632300  0.82897900  0.17347600  1
  C  C18  1  0.93543400  0.67546700  0.52471700  1
  C  C19  1  0.67546700  0.93543400  0.02471700  1
  C  C20  1  0.84405700  0.64524200  0.85803800  1
  C  C21  1  0.64524200  0.84405700  0.35803800  1
  C  C22  1  0.91396400  0.37470900  0.81908800  1
  C  C23  1  0.37470900  0.91396400  0.31908800  1
  C  C24  1  0.38841400  0.69856700  0.57400000  1
  C  C25  1  0.61730400  0.38269600  0.75000000  1
  C  C26  1  0.12190000  0.87810000  0.75000000  1
  C  C27  1  0.06456600  0.32453300  0.47528300  1
  C  C28  1  0.30143300  0.61158600  0.92600000  1
  C  C29  1  0.69856700  0.38841400  0.07400000  1
  C  C30  1  0.38269600  0.61730400  0.25000000  1
  C  C31  1  0.61158600  0.30143300  0.42600000  1
  C  C32  1  0.62529100  0.08603600  0.68091200  1
  C  C33  1  0.08603600  0.62529100  0.18091200  1
  C  C34  1  0.35475800  0.15594300  0.64196200  1
  C  C35  1  0.15594300  0.35475800  0.14196200  1
  C  C36  1  0.32453300  0.06456600  0.97528300  1
  C  C37  1  0.10367700  0.17102100  0.82652400  1
