# generated using pymatgen
data_Cu2Ni2C9
_symmetry_space_group_name_H-M   'P 1'
_cell_length_a   3.38769800
_cell_length_b   3.38798111
_cell_length_c   46.55104214
_cell_angle_alpha   90.00802123
_cell_angle_beta   90.00000000
_cell_angle_gamma   119.99721625
_symmetry_Int_Tables_number   1
_chemical_formula_structural   Cu2Ni2C9
_chemical_formula_sum   'Cu2 Ni2 C9'
_cell_volume   462.71958722
_cell_formula_units_Z   1
loop_
 _symmetry_equiv_pos_site_id
 _symmetry_equiv_pos_as_xyz
  1  'x, y, z'
loop_
 _atom_site_type_symbol
 _atom_site_label
 _atom_site_symmetry_multiplicity
 _atom_site_fract_x
 _atom_site_fract_y
 _atom_site_fract_z
 _atom_site_occupancy
  C  C0  1  0.00006600  0.00013300  0.19123800  1
  C  C1  1  0.33343100  0.66686500  0.69805800  1
  C  C2  1  0.66646200  0.33292400  0.04724000  1
  C  C3  1  0.66653000  0.33306000  0.12827300  1
  C  C4  1  0.33330000  0.66660300  0.61693100  1
  C  C5  1  0.33319000  0.66638000  0.08753000  1
  C  C6  1  0.33337600  0.66675300  0.46978700  1
  C  C7  1  0.66673100  0.33346100  0.29081700  1
  C  C8  1  0.66668000  0.33336000  0.65749900  1
  Ni  Ni9  1  0.66664300  0.33328600  0.43416200  1
  Ni  Ni10  1  0.66678800  0.33357600  0.50544600  1
  Cu  Cu11  1  0.33344800  0.66689700  0.32310700  1
  Cu  Cu12  1  0.33335200  0.66670600  0.25831700  1
