# generated using pymatgen
data_CuNiC
_symmetry_space_group_name_H-M   'P 1'
_cell_length_a   8.36400575
_cell_length_b   8.36400575
_cell_length_c   8.36400549
_cell_angle_alpha   113.43106354
_cell_angle_beta   113.43106354
_cell_angle_gamma   113.43106023
_symmetry_Int_Tables_number   1
_chemical_formula_structural   CuNiC
_chemical_formula_sum   'Cu6 Ni6 C6'
_cell_volume   370.00591064
_cell_formula_units_Z   6
loop_
 _symmetry_equiv_pos_site_id
 _symmetry_equiv_pos_as_xyz
  1  'x, y, z'
loop_
 _atom_site_type_symbol
 _atom_site_label
 _atom_site_symmetry_multiplicity
 _atom_site_fract_x
 _atom_site_fract_y
 _atom_site_fract_z
 _atom_site_occupancy
  C  C0  1  0.41667700  0.76722500  0.29710800  1
  C  C1  1  0.76722500  0.29710800  0.41667700  1
  C  C2  1  0.29710800  0.41667700  0.76722500  1
  C  C3  1  0.58332300  0.23277500  0.70289200  1
  C  C4  1  0.23277500  0.70289200  0.58332300  1
  C  C5  1  0.70289200  0.58332300  0.23277500  1
  Ni  Ni6  1  0.91240200  0.86642200  0.61692500  1
  Ni  Ni7  1  0.61692500  0.91240200  0.86642200  1
  Ni  Ni8  1  0.86642200  0.61692500  0.91240200  1
  Ni  Ni9  1  0.08759800  0.13357800  0.38307500  1
  Ni  Ni10  1  0.38307500  0.08759800  0.13357800  1
  Ni  Ni11  1  0.13357800  0.38307500  0.08759800  1
  Cu  Cu12  1  0.53170900  0.69028500  0.12929000  1
  Cu  Cu13  1  0.69028500  0.12929000  0.53170900  1
  Cu  Cu14  1  0.12929000  0.53170900  0.69028500  1
  Cu  Cu15  1  0.46829100  0.30971500  0.87071000  1
  Cu  Cu16  1  0.30971500  0.87071000  0.46829100  1
  Cu  Cu17  1  0.87071000  0.46829100  0.30971500  1
