# generated using pymatgen
data_Cu4NiC10
_symmetry_space_group_name_H-M   'P 1'
_cell_length_a   6.66831053
_cell_length_b   6.25943499
_cell_length_c   6.45913937
_cell_angle_alpha   56.76197277
_cell_angle_beta   54.31010108
_cell_angle_gamma   54.67230523
_symmetry_Int_Tables_number   1
_chemical_formula_structural   Cu4NiC10
_chemical_formula_sum   'Cu4 Ni1 C10'
_cell_volume   169.36901662
_cell_formula_units_Z   1
loop_
 _symmetry_equiv_pos_site_id
 _symmetry_equiv_pos_as_xyz
  1  'x, y, z'
loop_
 _atom_site_type_symbol
 _atom_site_label
 _atom_site_symmetry_multiplicity
 _atom_site_fract_x
 _atom_site_fract_y
 _atom_site_fract_z
 _atom_site_occupancy
  Ni  Ni0  1  -0.00000000  0.00000000  -0.00000000  1
  C  C1  1  -0.00000000  0.50000000  0.50000000  1
  C  C2  1  0.50000000  0.00000000  0.50000000  1
  Cu  Cu3  1  0.13887822  0.18047964  0.14335572  1
  Cu  Cu4  1  0.50000000  0.50000000  -0.00000000  1
  Cu  Cu5  1  0.50000000  0.50000000  0.50000000  1
  Cu  Cu6  1  0.86112178  0.81952036  0.85664428  1
  C  C7  1  0.28563107  0.23862835  0.27831965  1
  C  C8  1  0.21675017  0.25250303  0.75378182  1
  C  C9  1  0.21123462  0.74675181  0.25772769  1
  C  C10  1  0.72895487  0.24730559  0.25925362  1
  C  C11  1  0.27104513  0.75269441  0.74074638  1
  C  C12  1  0.78876538  0.25324819  0.74227231  1
  C  C13  1  0.78324983  0.74749697  0.24621818  1
  C  C14  1  0.71436893  0.76137165  0.72168035  1
