# generated using pymatgen
data_Cu12Ni5C57
_symmetry_space_group_name_H-M   'P 1'
_cell_length_a   17.16358623
_cell_length_b   8.58175352
_cell_length_c   22.08834437
_cell_angle_alpha   90.04413673
_cell_angle_beta   89.97159077
_cell_angle_gamma   120.00427417
_symmetry_Int_Tables_number   1
_chemical_formula_structural   Cu12Ni5C57
_chemical_formula_sum   'Cu36 Ni15 C171'
_cell_volume   2817.46824670
_cell_formula_units_Z   3
loop_
 _symmetry_equiv_pos_site_id
 _symmetry_equiv_pos_as_xyz
  1  'x, y, z'
loop_
 _atom_site_type_symbol
 _atom_site_label
 _atom_site_symmetry_multiplicity
 _atom_site_fract_x
 _atom_site_fract_y
 _atom_site_fract_z
 _atom_site_occupancy
  C  C0  1  0.68446742  0.36575850  0.24909398  1
  C  C1  1  0.99820158  0.63046790  0.24915752  1
  C  C2  1  0.99893592  0.36358559  0.74723553  1
  C  C3  1  0.49897448  0.36358915  0.74738607  1
  C  C4  1  0.18239370  0.99943719  0.74734506  1
  C  C5  1  0.68234634  0.99944278  0.74761914  1
  C  C6  1  0.00003514  0.99942096  0.50502801  1
  C  C7  1  0.49969533  0.99973887  0.50518073  1
  C  C8  1  0.99821582  0.99725512  0.00544835  1
  C  C9  1  0.50159321  0.00299927  0.00493867  1
  C  C10  1  0.33311203  0.34100967  0.83543549  1
  C  C11  1  0.83259853  0.34017626  0.83606763  1
  C  C12  1  0.33323931  0.33363113  0.33882427  1
  C  C13  1  0.83297478  0.32426738  0.33615614  1
  C  C14  1  0.16949682  0.66517747  0.17037726  1
  C  C15  1  0.66793800  0.67735254  0.17011707  1
  C  C16  1  0.17089936  0.66568330  0.66670744  1
  C  C17  1  0.67083839  0.66552731  0.66687778  1
  C  C18  1  0.99897818  0.00249212  0.35578485  1
  C  C19  1  0.50091791  0.99869034  0.35642305  1
  C  C20  1  0.99967026  0.99865214  0.85485345  1
  C  C21  1  0.49994751  0.99874252  0.85519454  1
  C  C22  1  0.33346279  0.33605711  0.18835716  1
  C  C23  1  0.16460140  0.66612352  0.02395583  1
  C  C24  1  0.66922392  0.66731117  0.02470445  1
  C  C25  1  0.16683134  0.66709279  0.52441555  1
  C  C26  1  0.66669624  0.66698495  0.52475583  1
  Ni  Ni27  1  0.99919903  0.99911969  0.64416862  1
  Ni  Ni28  1  0.49912688  0.99895796  0.64427347  1
  Ni  Ni29  1  0.99744289  0.99933344  0.14623552  1
  Ni  Ni30  1  0.50183355  0.00017042  0.14656372  1
  Ni  Ni31  1  0.33296911  0.33816378  0.68278532  1
  Ni  Ni32  1  0.83290336  0.33819349  0.68279711  1
  Ni  Ni33  1  0.83286023  0.32591077  0.18492570  1
  Ni  Ni34  1  0.33374607  0.33378332  0.97995570  1
  Ni  Ni35  1  0.83308711  0.33236135  0.98219640  1
  Ni  Ni36  1  0.33323998  0.33342181  0.48196682  1
  Ni  Ni37  1  0.83359576  0.33428474  0.48174637  1
  Ni  Ni38  1  0.16876537  0.66511336  0.31477765  1
  Ni  Ni39  1  0.66674713  0.67371583  0.31451513  1
  Ni  Ni40  1  0.16950196  0.66563765  0.81503934  1
  Ni  Ni41  1  0.66898903  0.66580910  0.81525344  1
  Cu  Cu42  1  0.14211830  0.99356089  0.24849734  1
  Cu  Cu43  1  0.64574750  0.99497287  0.24670708  1
  Cu  Cu44  1  0.35399737  0.72031680  0.24802780  1
  Cu  Cu45  1  0.85300893  0.71127594  0.24673784  1
  Cu  Cu46  1  0.00042627  0.29087545  0.24618052  1
  Cu  Cu47  1  0.50309712  0.29093083  0.24872335  1
  Cu  Cu48  1  0.14731382  0.29569234  0.74690033  1
  Cu  Cu49  1  0.64732325  0.29577259  0.74691076  1
  Cu  Cu50  1  0.99803807  0.70656311  0.74645000  1
  Cu  Cu51  1  0.49797742  0.70675338  0.74649173  1
  Cu  Cu52  1  0.35308836  0.99422716  0.74660735  1
  Cu  Cu53  1  0.85293215  0.99415960  0.74646769  1
  Cu  Cu54  1  0.47070134  0.32162073  0.58457274  1
  Cu  Cu55  1  0.97083493  0.32193006  0.58456295  1
  Cu  Cu56  1  0.19012416  0.05866679  0.58468979  1
  Cu  Cu57  1  0.69016620  0.05890094  0.58465471  1
  Cu  Cu58  1  0.33911789  0.61949414  0.58401264  1
  Cu  Cu59  1  0.83917674  0.61942334  0.58400542  1
  Cu  Cu60  1  0.47414690  0.62686203  0.08103369  1
  Cu  Cu61  1  0.97001988  0.61966608  0.08482551  1
  Cu  Cu62  1  0.33981370  0.05300665  0.08142313  1
  Cu  Cu63  1  0.83946376  0.05993420  0.08406996  1
  Cu  Cu64  1  0.18630486  0.32028493  0.08103827  1
  Cu  Cu65  1  0.69042007  0.32099479  0.08490350  1
  Cu  Cu66  1  0.30716999  0.65539977  0.91587615  1
  Cu  Cu67  1  0.80780524  0.65455978  0.91526885  1
  Cu  Cu68  1  0.01963813  0.38411423  0.91482063  1
  Cu  Cu69  1  0.52056685  0.38550142  0.91532556  1
  Cu  Cu70  1  0.17229230  0.96026781  0.91486455  1
  Cu  Cu71  1  0.67263104  0.95941615  0.91546183  1
  Cu  Cu72  1  0.30692453  0.95903265  0.41525102  1
  Cu  Cu73  1  0.80649799  0.95940272  0.41571469  1
  Cu  Cu74  1  0.17284115  0.38612414  0.41553531  1
  Cu  Cu75  1  0.67295137  0.38677244  0.41507397  1
  Cu  Cu76  1  0.02019801  0.65577292  0.41497036  1
  Cu  Cu77  1  0.52055998  0.65324679  0.41555564  1
  C  C78  1  0.10160549  0.03023916  0.30605239  1
  C  C79  1  0.60293118  0.03492298  0.30432406  1
  C  C80  1  0.41347853  0.79809990  0.30563213  1
  C  C81  1  0.91467178  0.79470048  0.30461149  1
  C  C82  1  0.48478882  0.17262997  0.30609768  1
  C  C83  1  0.98432180  0.17267335  0.30479361  1
  C  C84  1  0.10369640  0.17146522  0.80481183  1
  C  C85  1  0.60373031  0.17154717  0.80479303  1
  C  C86  1  0.48347880  0.79433219  0.80532651  1
  C  C87  1  0.98352251  0.79429108  0.80532571  1
  C  C88  1  0.41445061  0.03370545  0.80475582  1
  C  C89  1  0.91445567  0.03379980  0.80468229  1
  C  C90  1  0.39958708  0.96658214  0.69297161  1
  C  C91  1  0.89971527  0.96665042  0.69300933  1
  C  C92  1  0.08293586  0.20473129  0.69389181  1
  C  C93  1  0.58296326  0.20478344  0.69382501  1
  C  C94  1  0.01886004  0.83618262  0.69391560  1
  C  C95  1  0.51881993  0.83611843  0.69386685  1
  C  C96  1  0.39956040  0.83310109  0.19248565  1
  C  C97  1  0.89915629  0.83077868  0.19265291  1
  C  C98  1  0.01656164  0.20016582  0.19240484  1
  C  C99  1  0.51837809  0.20283979  0.19364514  1
  C  C100  1  0.08278428  0.96278412  0.19346609  1
  C  C101  1  0.58463122  0.96672644  0.19262179  1
  C  C102  1  0.43415984  0.36162304  0.64301594  1
  C  C103  1  0.93411031  0.36154448  0.64303913  1
  C  C104  1  0.24681947  0.13152976  0.64302605  1
  C  C105  1  0.74685510  0.13165851  0.64301967  1
  C  C106  1  0.31826198  0.50293073  0.64086274  1
  C  C107  1  0.81821468  0.50295854  0.64084080  1
  C  C108  1  0.43438149  0.50709985  0.13871419  1
  C  C109  1  0.93371712  0.50550735  0.14271945  1
  C  C110  1  0.31928694  0.13265591  0.13902838  1
  C  C111  1  0.81807863  0.13419906  0.14050673  1
  C  C112  1  0.24644354  0.36197548  0.13881691  1
  C  C113  1  0.74736593  0.36211036  0.14269377  1
  C  C114  1  0.23291921  0.29985750  0.02588600  1
  C  C115  1  0.73337359  0.29995796  0.02740090  1
  C  C116  1  0.41708844  0.53417525  0.02587916  1
  C  C117  1  0.91665337  0.53284649  0.02733347  1
  C  C118  1  0.34994539  0.16545377  0.02593774  1
  C  C119  1  0.85029489  0.16573001  0.02608304  1
  C  C120  1  0.23366769  0.16710576  0.52784261  1
  C  C121  1  0.73372032  0.16727384  0.52775074  1
  C  C122  1  0.35015654  0.53466643  0.52653321  1
  C  C123  1  0.85009622  0.53466221  0.52649415  1
  C  C124  1  0.41650479  0.30067691  0.52774961  1
  C  C125  1  0.91647817  0.30060687  0.52777722  1
  C  C126  1  0.26706144  0.69528081  0.97293066  1
  C  C127  1  0.76841940  0.69595988  0.97254366  1
  C  C128  1  0.08060084  0.46604349  0.97149208  1
  C  C129  1  0.58108554  0.46711154  0.97188631  1
  C  C130  1  0.15261710  0.83930431  0.97157698  1
  C  C131  1  0.65255853  0.83754014  0.97186406  1
  C  C132  1  0.26751436  0.83931144  0.47252053  1
  C  C133  1  0.76721701  0.83946699  0.47290840  1
  C  C134  1  0.15237458  0.46518393  0.47273318  1
  C  C135  1  0.65251158  0.46735460  0.47167211  1
  C  C136  1  0.08096092  0.69514282  0.47165732  1
  C  C137  1  0.58038277  0.69537473  0.47278145  1
  C  C138  1  0.06439754  0.63445671  0.35752866  1
  C  C139  1  0.56583677  0.63269033  0.35943059  1
  C  C140  1  0.25054218  0.86772965  0.35925925  1
  C  C141  1  0.75099608  0.86856901  0.35959340  1
  C  C142  1  0.18332386  0.49770181  0.35939933  1
  C  C143  1  0.68263868  0.49458145  0.35738272  1
  C  C144  1  0.06460085  0.49484859  0.85771494  1
  C  C145  1  0.56427852  0.49454689  0.85770506  1
  C  C146  1  0.18257775  0.87080712  0.85758242  1
  C  C147  1  0.68245062  0.87070923  0.85763879  1
  C  C148  1  0.25099449  0.63339466  0.85977606  1
  C  C149  1  0.75101890  0.63337563  0.85954876  1
  C  C150  1  0.01193392  0.82972733  0.40917295  1
  C  C151  1  0.51246384  0.82777517  0.40968414  1
  C  C152  1  0.40231906  0.97548422  0.40929273  1
  C  C153  1  0.90165263  0.97537973  0.40981031  1
  C  C154  1  0.08558337  0.19565004  0.40971546  1
  C  C155  1  0.58563276  0.19550802  0.40963097  1
  C  C156  1  0.01229686  0.19452394  0.90922315  1
  C  C157  1  0.51205776  0.19487517  0.90925428  1
  C  C158  1  0.08527073  0.97595943  0.90972073  1
  C  C159  1  0.58529852  0.97567056  0.90962551  1
  C  C160  1  0.40232954  0.82929811  0.90972427  1
  C  C161  1  0.90244663  0.82921052  0.90938350  1
  C  C162  1  0.48591378  0.16131445  0.59185643  1
  C  C163  1  0.98591783  0.16136776  0.59188871  1
  C  C164  1  0.09483776  0.02885268  0.59225377  1
  C  C165  1  0.59481556  0.02890328  0.59222824  1
  C  C166  1  0.41965940  0.81014190  0.59172306  1
  C  C167  1  0.91958652  0.81014024  0.59172008  1
  C  C168  1  0.48601176  0.81215686  0.09078847  1
  C  C169  1  0.98634385  0.81156629  0.09185197  1
  C  C170  1  0.42029073  0.02812495  0.09131576  1
  C  C171  1  0.91944499  0.02829784  0.09117919  1
  C  C172  1  0.09377744  0.15957645  0.09092918  1
  C  C173  1  0.59445737  0.16087939  0.09192193  1
  C  C174  1  0.34392237  0.16625890  0.74215709  1
  C  C175  1  0.84400610  0.16638339  0.74215983  1
  C  C176  1  0.23978489  0.30829245  0.74151821  1
  C  C177  1  0.73980483  0.30836202  0.74144968  1
  C  C178  1  0.41566670  0.51729473  0.74134692  1
  C  C179  1  0.91570191  0.51740145  0.74139124  1
  C  C180  1  0.34522867  0.52942838  0.24286664  1
  C  C181  1  0.84416518  0.52120808  0.24178918  1
  C  C182  1  0.41794800  0.31016846  0.24358309  1
  C  C183  1  0.91668624  0.31349155  0.24126137  1
  C  C184  1  0.23693652  0.16423298  0.24342089  1
  C  C185  1  0.73866924  0.16939013  0.24137591  1
  C  C186  1  0.31962669  0.49345237  0.92445450  1
  C  C187  1  0.81997511  0.49303099  0.92458502  1
  C  C188  1  0.42701217  0.36095383  0.92398281  1
  C  C189  1  0.92697007  0.36104780  0.92400666  1
  C  C190  1  0.25370161  0.14649028  0.92393099  1
  C  C191  1  0.75343161  0.14612969  0.92409555  1
  C  C192  1  0.31974501  0.14586823  0.42456141  1
  C  C193  1  0.81966702  0.14638331  0.42481570  1
  C  C194  1  0.25343708  0.36039058  0.42457180  1
  C  C195  1  0.75333087  0.36055986  0.42408689  1
  C  C196  1  0.42690323  0.49279089  0.42450330  1
  C  C197  1  0.92716888  0.49328258  0.42411834  1
  C  C198  1  0.17872843  0.49538456  0.07666078  1
  C  C199  1  0.67973836  0.49409328  0.07716149  1
  C  C200  1  0.06723423  0.64051673  0.07677928  1
  C  C201  1  0.56913532  0.64238432  0.07676636  1
  C  C202  1  0.25216494  0.86255368  0.07675934  1
  C  C203  1  0.75316445  0.86522967  0.07663174  1
  C  C204  1  0.17968114  0.86434068  0.57765316  1
  C  C205  1  0.67976632  0.86451179  0.57772908  1
  C  C206  1  0.25265146  0.64121287  0.57714465  1
  C  C207  1  0.75260963  0.64089936  0.57707936  1
  C  C208  1  0.06795520  0.49571721  0.57761510  1
  C  C209  1  0.56787912  0.49515066  0.57761700  1
  C  C210  1  0.15205104  0.82656672  0.25741311  1
  C  C211  1  0.65424681  0.82840406  0.25769082  1
  C  C212  1  0.26021324  0.69377146  0.25736023  1
  C  C213  1  0.75879377  0.68636616  0.25716474  1
  C  C214  1  0.08364694  0.48038119  0.25698597  1
  C  C215  1  0.58659975  0.47741202  0.25747641  1
  C  C216  1  0.15342452  0.47919327  0.75817595  1
  C  C217  1  0.65350267  0.47937743  0.75816389  1
  C  C218  1  0.08365663  0.68898239  0.75720457  1
  C  C219  1  0.58363915  0.68892385  0.75708942  1
  C  C220  1  0.25861658  0.83064329  0.75743685  1
  C  C221  1  0.75864972  0.83062301  0.75741755  1
