# generated using pymatgen
data_CuNiC9
_symmetry_space_group_name_H-M   'P 1'
_cell_length_a   5.80216108
_cell_length_b   5.80217827
_cell_length_c   5.18501563
_cell_angle_alpha   88.33907007
_cell_angle_beta   91.66782812
_cell_angle_gamma   73.37941882
_symmetry_Int_Tables_number   1
_chemical_formula_structural   CuNiC9
_chemical_formula_sum   'Cu1 Ni1 C9'
_cell_volume   167.06379553
_cell_formula_units_Z   1
loop_
 _symmetry_equiv_pos_site_id
 _symmetry_equiv_pos_as_xyz
  1  'x, y, z'
loop_
 _atom_site_type_symbol
 _atom_site_label
 _atom_site_symmetry_multiplicity
 _atom_site_fract_x
 _atom_site_fract_y
 _atom_site_fract_z
 _atom_site_occupancy
  Ni  Ni0  1  0.17036544  0.17038549  0.50000944  1
  Cu  Cu1  1  0.00137452  0.00135001  0.00000113  1
  C  C2  1  0.26645704  0.67379627  0.55393739  1
  C  C3  1  0.67382220  0.26645627  0.44607119  1
  C  C4  1  0.81707307  0.15874420  0.69728554  1
  C  C5  1  0.14865775  0.48730826  0.64512620  1
  C  C6  1  0.86668032  0.26959944  0.24511759  1
  C  C7  1  0.26962288  0.86673180  0.75488207  1
  C  C8  1  0.54690467  0.54689816  0.50001114  1
  C  C9  1  0.15873165  0.81702866  0.30268400  1
  C  C10  1  0.48724346  0.14863445  0.35487331  1
