# generated using pymatgen
data_Cu4Ni8C7
_symmetry_space_group_name_H-M   'P 1'
_cell_length_a   4.99474576
_cell_length_b   7.84259764
_cell_length_c   5.62188571
_cell_angle_alpha   96.07286314
_cell_angle_beta   89.58991098
_cell_angle_gamma   88.68099236
_symmetry_Int_Tables_number   1
_chemical_formula_structural   Cu4Ni8C7
_chemical_formula_sum   'Cu4 Ni8 C7'
_cell_volume   218.91522596
_cell_formula_units_Z   1
loop_
 _symmetry_equiv_pos_site_id
 _symmetry_equiv_pos_as_xyz
  1  'x, y, z'
loop_
 _atom_site_type_symbol
 _atom_site_label
 _atom_site_symmetry_multiplicity
 _atom_site_fract_x
 _atom_site_fract_y
 _atom_site_fract_z
 _atom_site_occupancy
  C  C0  1  0.00273600  0.83699400  0.33462100  1
  C  C1  1  0.49646900  0.00536200  0.49004500  1
  C  C2  1  0.53540000  0.64618900  0.15909600  1
  C  C3  1  0.46385600  0.33271500  0.84075400  1
  C  C4  1  0.01044400  0.65329000  0.71677700  1
  C  C5  1  0.99244000  0.30839200  0.32145400  1
  C  C6  1  0.00072500  0.01210400  0.95163900  1
  Ni  Ni7  1  0.85702300  0.77837700  0.98966200  1
  Ni  Ni8  1  0.83286900  0.06835500  0.28669400  1
  Ni  Ni9  1  0.67277000  0.75923900  0.46840400  1
  Ni  Ni10  1  0.67865200  0.42040800  0.12799800  1
  Ni  Ni11  1  0.32722600  0.56312600  0.87463900  1
  Ni  Ni12  1  0.32152300  0.23630800  0.53041400  1
  Ni  Ni13  1  0.17113200  0.22814400  0.02766300  1
  Ni  Ni14  1  0.17637300  0.90930700  0.65456300  1
  Cu  Cu15  1  0.82258500  0.41466300  0.62851000  1
  Cu  Cu16  1  0.66039200  0.11022800  0.81243300  1
  Cu  Cu17  1  0.33579600  0.87814300  0.16036300  1
  Cu  Cu18  1  0.15547900  0.58865600  0.37427000  1
