# generated using pymatgen
data_Cu2NiC7
_symmetry_space_group_name_H-M   'P 1'
_cell_length_a   3.07737400
_cell_length_b   4.83548019
_cell_length_c   6.50603164
_cell_angle_alpha   92.91021536
_cell_angle_beta   103.68016353
_cell_angle_gamma   90.00000000
_symmetry_Int_Tables_number   1
_chemical_formula_structural   Cu2NiC7
_chemical_formula_sum   'Cu2 Ni1 C7'
_cell_volume   93.93852458
_cell_formula_units_Z   1
loop_
 _symmetry_equiv_pos_site_id
 _symmetry_equiv_pos_as_xyz
  1  'x, y, z'
loop_
 _atom_site_type_symbol
 _atom_site_label
 _atom_site_symmetry_multiplicity
 _atom_site_fract_x
 _atom_site_fract_y
 _atom_site_fract_z
 _atom_site_occupancy
  Ni  Ni0  1  0.00000000  0.00000000  0.00000000  1
  Cu  Cu1  1  0.85198900  0.55888600  0.70397500  1
  Cu  Cu2  1  0.14801100  0.44111400  0.29602500  1
  C  C3  1  0.65803000  0.95756100  0.31606000  1
  C  C4  1  0.34197000  0.04243900  0.68394000  1
  C  C5  1  0.00000000  0.50000000  0.00000000  1
  C  C6  1  0.69977800  0.68039200  0.39955700  1
  C  C7  1  0.30022200  0.31960800  0.60044300  1
  C  C8  1  0.39396400  0.87985300  0.78792700  1
  C  C9  1  0.60603600  0.12014700  0.21207300  1
