# generated using pymatgen
data_Cu10Ni2C105
_symmetry_space_group_name_H-M   'P 1'
_cell_length_a   18.01973058
_cell_length_b   9.01594468
_cell_length_c   22.48528560
_cell_angle_alpha   90.04718429
_cell_angle_beta   89.98285618
_cell_angle_gamma   120.03287319
_symmetry_Int_Tables_number   1
_chemical_formula_structural   Cu10Ni2C105
_chemical_formula_sum   'Cu20 Ni4 C210'
_cell_volume   3162.60143963
_cell_formula_units_Z   2
loop_
 _symmetry_equiv_pos_site_id
 _symmetry_equiv_pos_as_xyz
  1  'x, y, z'
loop_
 _atom_site_type_symbol
 _atom_site_label
 _atom_site_symmetry_multiplicity
 _atom_site_fract_x
 _atom_site_fract_y
 _atom_site_fract_z
 _atom_site_occupancy
  C  C0  1  0.31558769  0.98190169  0.25538838  1
  C  C1  1  0.18483349  0.38926706  0.25709803  1
  C  C2  1  0.68011800  0.38379321  0.25323012  1
  C  C3  1  0.50507266  0.63454597  0.26032556  1
  C  C4  1  0.31319255  0.64186696  0.75808909  1
  C  C5  1  0.00397892  0.38741528  0.75654319  1
  C  C6  1  0.18435770  0.97845978  0.75524381  1
  C  C7  1  0.65046845  0.33249755  0.58373626  1
  C  C8  1  0.64378358  0.96823841  0.08610860  1
  C  C9  1  0.33994383  0.71961068  0.08977531  1
  C  C10  1  0.51829196  0.31656835  0.09005170  1
  C  C11  1  0.99025704  0.66129303  0.91357091  1
  C  C12  1  0.34403628  0.02540881  0.91519491  1
  C  C13  1  0.66572653  0.29814527  0.91572883  1
  C  C14  1  0.48843717  0.31790417  0.41401492  1
  C  C15  1  0.99109510  0.32325094  0.41398850  1
  C  C16  1  0.34094571  0.66084622  0.41463276  1
  C  C17  1  0.84217699  0.65841591  0.41385798  1
  C  C18  1  0.01001106  0.00625602  0.50103303  1
  C  C19  1  0.50102840  0.98785546  0.50220213  1
  C  C20  1  0.00618289  0.01697921  0.00202095  1
  C  C21  1  0.49791782  0.99050124  0.00628914  1
  C  C22  1  0.33980384  0.34587754  0.83728172  1
  C  C23  1  0.82910108  0.32147881  0.83125394  1
  C  C24  1  0.32968948  0.32667959  0.33695217  1
  C  C25  1  0.83470651  0.32503057  0.33341576  1
  C  C26  1  0.15746328  0.65456349  0.17137115  1
  C  C27  1  0.67583749  0.66838873  0.17398449  1
  C  C28  1  0.16720031  0.67893532  0.66566032  1
  C  C29  1  0.66793165  0.67642426  0.66675658  1
  Ni  Ni30  1  0.49715788  0.00385496  0.14477130  1
  Ni  Ni31  1  0.16418406  0.65673907  0.31597159  1
  Ni  Ni32  1  0.66961465  0.66534483  0.31572755  1
  Ni  Ni33  1  0.16790506  0.67636533  0.81668850  1
  Cu  Cu34  1  0.99345370  0.99537797  0.35702662  1
  Cu  Cu35  1  0.49457732  0.99705116  0.35534431  1
  Cu  Cu36  1  0.99429796  0.99370179  0.85799870  1
  Cu  Cu37  1  0.49811003  0.99480965  0.85540239  1
  Cu  Cu38  1  0.99399664  0.98764358  0.64087489  1
  Cu  Cu39  1  0.49872753  0.99488395  0.64511408  1
  Cu  Cu40  1  0.99414250  0.99894214  0.14236902  1
  Cu  Cu41  1  0.34077886  0.33556800  0.68467329  1
  Cu  Cu42  1  0.83048503  0.33165657  0.68947942  1
  Cu  Cu43  1  0.33748144  0.33780489  0.18528709  1
  Cu  Cu44  1  0.84045324  0.34510711  0.18709302  1
  Cu  Cu45  1  0.33085057  0.33805249  0.97910138  1
  Cu  Cu46  1  0.83541446  0.32911154  0.97861966  1
  Cu  Cu47  1  0.33126545  0.32999435  0.48097412  1
  Cu  Cu48  1  0.83354431  0.33036575  0.48045769  1
  Cu  Cu49  1  0.16423912  0.66504460  0.02010919  1
  Cu  Cu50  1  0.66935187  0.66670248  0.02210683  1
  Cu  Cu51  1  0.16503833  0.66571100  0.52170431  1
  Cu  Cu52  1  0.66670659  0.67158934  0.51957568  1
  Cu  Cu53  1  0.66542609  0.66408026  0.80975582  1
  C  C54  1  0.35285316  0.70801167  0.24595614  1
  C  C55  1  0.85294892  0.70858571  0.24960843  1
  C  C56  1  0.99936708  0.29108624  0.24958831  1
  C  C57  1  0.50149537  0.29479217  0.24642686  1
  C  C58  1  0.64331277  0.28661599  0.75001773  1
  C  C59  1  0.99990133  0.71033443  0.74945395  1
  C  C60  1  0.50010074  0.71019555  0.74974062  1
  C  C61  1  0.35458256  0.00202630  0.75021275  1
  C  C62  1  0.85511864  0.99875925  0.74957885  1
  C  C63  1  0.48121639  0.33280861  0.58087740  1
  C  C64  1  0.97893323  0.33700922  0.58576369  1
  C  C65  1  0.18859982  0.04195368  0.58538661  1
  C  C66  1  0.68937692  0.04044249  0.58466907  1
  C  C67  1  0.33166943  0.62213428  0.58413010  1
  C  C68  1  0.83189426  0.61939313  0.58260978  1
  C  C69  1  0.48086545  0.62705802  0.08247170  1
  C  C70  1  0.97967903  0.62555990  0.08120977  1
  C  C71  1  0.33096471  0.04072204  0.08133284  1
  C  C72  1  0.83170473  0.04523974  0.08472635  1
  C  C73  1  0.18745932  0.33258895  0.08445458  1
  C  C74  1  0.69034151  0.33516811  0.08377405  1
  C  C75  1  0.30883124  0.66347539  0.91333574  1
  C  C76  1  0.80920526  0.66399572  0.91594631  1
  C  C77  1  0.02432173  0.37846424  0.91295402  1
  C  C78  1  0.52130708  0.38041330  0.91661666  1
  C  C79  1  0.16757198  0.96014912  0.91399142  1
  C  C80  1  0.66644380  0.95121555  0.91662954  1
  C  C81  1  0.30548867  0.95472235  0.41298481  1
  C  C82  1  0.80655378  0.95542244  0.41398754  1
  C  C83  1  0.16707143  0.37560853  0.41474888  1
  C  C84  1  0.66740708  0.37415275  0.41475667  1
  C  C85  1  0.02449822  0.66838571  0.41516762  1
  C  C86  1  0.52232314  0.66883714  0.41368645  1
  C  C87  1  0.14172727  0.99848258  0.24885778  1
  C  C88  1  0.64545918  0.00410814  0.24890997  1
  C  C89  1  0.14309692  0.28400220  0.74951321  1
  C  C90  1  0.10100315  0.02513126  0.30254650  1
  C  C91  1  0.60066026  0.02811642  0.30165941  1
  C  C92  1  0.41615540  0.80023234  0.30675193  1
  C  C93  1  0.91294939  0.80128369  0.30954621  1
  C  C94  1  0.48674509  0.16756246  0.30631291  1
  C  C95  1  0.98857995  0.16985826  0.30905254  1
  C  C96  1  0.10275174  0.17695862  0.80339416  1
  C  C97  1  0.59696687  0.16931045  0.80932250  1
  C  C98  1  0.48320702  0.80365006  0.80689229  1
  C  C99  1  0.99017926  0.80903697  0.80920606  1
  C  C100  1  0.41324241  0.02812344  0.81024320  1
  C  C101  1  0.91911498  0.03054314  0.80694323  1
  C  C102  1  0.40921105  0.98636657  0.69401076  1
  C  C103  1  0.90516095  0.97902107  0.69213170  1
  C  C104  1  0.09073210  0.20032805  0.69595483  1
  C  C105  1  0.58723110  0.19643423  0.69002745  1
  C  C106  1  0.01173058  0.84004377  0.69400187  1
  C  C107  1  0.51210130  0.82868082  0.69164294  1
  C  C108  1  0.40043781  0.81627778  0.18824922  1
  C  C109  1  0.91053631  0.82760080  0.19330607  1
  C  C110  1  0.00878031  0.18115528  0.19370070  1
  C  C111  1  0.51658874  0.21072407  0.18859761  1
  C  C112  1  0.09216706  0.98449297  0.19457774  1
  C  C113  1  0.59643841  0.98285137  0.19369246  1
  C  C114  1  0.43261496  0.35895382  0.63957910  1
  C  C115  1  0.93145313  0.36061950  0.64430341  1
  C  C116  1  0.24788365  0.13828888  0.64483122  1
  C  C117  1  0.74887679  0.13587908  0.64293122  1
  C  C118  1  0.32093638  0.50303850  0.64338085  1
  C  C119  1  0.81742951  0.49514857  0.63963789  1
  C  C120  1  0.43451524  0.50144338  0.14239935  1
  C  C121  1  0.93168440  0.50125891  0.13937655  1
  C  C122  1  0.31886940  0.13698651  0.14152388  1
  C  C123  1  0.81570899  0.13826543  0.14125932  1
  C  C124  1  0.24920495  0.36346522  0.14353099  1
  C  C125  1  0.74943511  0.36017990  0.14308424  1
  C  C126  1  0.23577766  0.30837316  0.02726590  1
  C  C127  1  0.74052755  0.31549874  0.02520555  1
  C  C128  1  0.41655872  0.52259638  0.02800579  1
  C  C129  1  0.92064340  0.53576669  0.02211136  1
  C  C130  1  0.34298174  0.16440450  0.02462445  1
  C  C131  1  0.84589602  0.16414224  0.02614536  1
  C  C132  1  0.23815550  0.16591035  0.52880783  1
  C  C133  1  0.73694045  0.16836694  0.52831633  1
  C  C134  1  0.34609729  0.52961307  0.52614903  1
  C  C135  1  0.84624368  0.53346900  0.52351344  1
  C  C136  1  0.42259011  0.31012820  0.52328071  1
  C  C137  1  0.91986446  0.30721457  0.52656296  1
  C  C138  1  0.26419508  0.69930582  0.97223678  1
  C  C139  1  0.76506613  0.69374637  0.97478837  1
  C  C140  1  0.08377656  0.47242469  0.97186699  1
  C  C141  1  0.58333951  0.46989801  0.97528373  1
  C  C142  1  0.14862379  0.82753887  0.97047241  1
  C  C143  1  0.65383387  0.83814019  0.97708019  1
  C  C144  1  0.26267428  0.82657309  0.47045749  1
  C  C145  1  0.76557174  0.83056413  0.47344854  1
  C  C146  1  0.14850898  0.46894707  0.47168770  1
  C  C147  1  0.64950832  0.46352343  0.47414102  1
  C  C148  1  0.08300346  0.69714215  0.47526182  1
  C  C149  1  0.58372354  0.69254521  0.47214542  1
  C  C150  1  0.05938768  0.61316624  0.35975743  1
  C  C151  1  0.55576993  0.62155118  0.35523602  1
  C  C152  1  0.25757169  0.88602257  0.35138362  1
  C  C153  1  0.75282403  0.87597733  0.35644266  1
  C  C154  1  0.19215728  0.48723963  0.35536709  1
  C  C155  1  0.68992622  0.48808881  0.35614197  1
  C  C156  1  0.05714626  0.49170365  0.85389058  1
  C  C157  1  0.56997318  0.50006415  0.85929308  1
  C  C158  1  0.18984211  0.89469219  0.85423094  1
  C  C159  1  0.68007945  0.85699324  0.85945101  1
  C  C160  1  0.25792711  0.63373550  0.85258318  1
  C  C161  1  0.74776811  0.63140946  0.85917636  1
  C  C162  1  0.00998740  0.83607670  0.40947196  1
  C  C163  1  0.50935661  0.83772940  0.41012407  1
  C  C164  1  0.40486852  0.97344186  0.40946552  1
  C  C165  1  0.90542051  0.97395585  0.41147293  1
  C  C166  1  0.07955347  0.18469280  0.40948216  1
  C  C167  1  0.57880564  0.18485554  0.40883151  1
  C  C168  1  0.01328103  0.18580229  0.90912366  1
  C  C169  1  0.51454179  0.19101892  0.91116938  1
  C  C170  1  0.07949931  0.97416093  0.90982079  1
  C  C171  1  0.58300518  0.97880470  0.91003927  1
  C  C172  1  0.40511663  0.84343508  0.91136487  1
  C  C173  1  0.90611769  0.83201784  0.91062455  1
  C  C174  1  0.49244512  0.16500708  0.58769457  1
  C  C175  1  0.99019593  0.16749634  0.59316074  1
  C  C176  1  0.09474355  0.02797359  0.59211241  1
  C  C177  1  0.59615230  0.03052148  0.58925539  1
  C  C178  1  0.41800405  0.81141982  0.59054114  1
  C  C179  1  0.91723466  0.81050786  0.58837528  1
  C  C180  1  0.49265131  0.81375840  0.08671972  1
  C  C181  1  0.99014021  0.81437137  0.09027263  1
  C  C182  1  0.41565247  0.02404008  0.08333137  1
  C  C183  1  0.91595054  0.02252447  0.08963147  1
  C  C184  1  0.09377890  0.16214654  0.09192449  1
  C  C185  1  0.59732510  0.16585231  0.08465636  1
  C  C186  1  0.34326475  0.17407810  0.74489986  1
  C  C187  1  0.85109977  0.17620782  0.74545884  1
  C  C188  1  0.22995105  0.29924318  0.74588246  1
  C  C189  1  0.73843648  0.30461723  0.74489054  1
  C  C190  1  0.40959749  0.52359557  0.74465093  1
  C  C191  1  0.91253487  0.52143819  0.74485055  1
  C  C192  1  0.34505163  0.51195176  0.24578020  1
  C  C193  1  0.84477711  0.51527682  0.24498606  1
  C  C194  1  0.40677153  0.29410231  0.24582802  1
  C  C195  1  0.90946045  0.29639850  0.24340947  1
  C  C196  1  0.22861432  0.16246850  0.24567229  1
  C  C197  1  0.73070000  0.16732360  0.24726183  1
  C  C198  1  0.32533576  0.50280927  0.92532495  1
  C  C199  1  0.82116124  0.49554939  0.92118501  1
  C  C200  1  0.42427055  0.34770872  0.92243423  1
  C  C201  1  0.92800300  0.35660573  0.92515019  1
  C  C202  1  0.25093789  0.14955326  0.92609023  1
  C  C203  1  0.74963262  0.14750097  0.92268837  1
  C  C204  1  0.32919864  0.15440238  0.42475307  1
  C  C205  1  0.83044361  0.15486403  0.42514367  1
  C  C206  1  0.25059671  0.35098307  0.42734736  1
  C  C207  1  0.75101281  0.35056797  0.42698462  1
  C  C208  1  0.42438970  0.50338250  0.42591942  1
  C  C209  1  0.92540006  0.50307987  0.42671467  1
  C  C210  1  0.18400334  0.50929537  0.07687725  1
  C  C211  1  0.68091776  0.50738414  0.07751430  1
  C  C212  1  0.07243470  0.63790698  0.07615494  1
  C  C213  1  0.57290852  0.63196813  0.07812100  1
  C  C214  1  0.24525529  0.85076451  0.07637291  1
  C  C215  1  0.74452637  0.85899367  0.07819146  1
  C  C216  1  0.18070907  0.85578833  0.57771103  1
  C  C217  1  0.67930000  0.85202639  0.57658352  1
  C  C218  1  0.24684056  0.63975775  0.57705438  1
  C  C219  1  0.74518475  0.63240732  0.57697912  1
  C  C220  1  0.07334141  0.50633249  0.57799983  1
  C  C221  1  0.57630514  0.50165790  0.57790031  1
  C  C222  1  0.15449129  0.85217689  0.25248921  1
  C  C223  1  0.65476558  0.85309703  0.25605543  1
  C  C224  1  0.25936647  0.68816979  0.25209773  1
  C  C225  1  0.75926788  0.68366719  0.24942232  1
  C  C226  1  0.08435145  0.47350918  0.25063475  1
  C  C227  1  0.57955805  0.48834260  0.25338460  1
  C  C228  1  0.15266995  0.45492990  0.75350647  1
  C  C229  1  0.65323643  0.47675557  0.75648448  1
  C  C230  1  0.08346256  0.68891935  0.75014554  1
  C  C231  1  0.58324334  0.68682680  0.75584567  1
  C  C232  1  0.26214102  0.83028899  0.74940842  1
  C  C233  1  0.76141921  0.82880340  0.75657490  1
