# generated using pymatgen
data_CuNiC19
_symmetry_space_group_name_H-M   'P 1'
_cell_length_a   9.13112213
_cell_length_b   9.17750716
_cell_length_c   22.27932653
_cell_angle_alpha   89.56474437
_cell_angle_beta   90.00000000
_cell_angle_gamma   119.83294846
_symmetry_Int_Tables_number   1
_chemical_formula_structural   CuNiC19
_chemical_formula_sum   'Cu6 Ni6 C114'
_cell_volume   1619.54686738
_cell_formula_units_Z   6
loop_
 _symmetry_equiv_pos_site_id
 _symmetry_equiv_pos_as_xyz
  1  'x, y, z'
loop_
 _atom_site_type_symbol
 _atom_site_label
 _atom_site_symmetry_multiplicity
 _atom_site_fract_x
 _atom_site_fract_y
 _atom_site_fract_z
 _atom_site_occupancy
  C  C0  1  0.63815209  0.01851447  0.24756105  1
  C  C1  1  0.37385123  0.35363096  0.24840818  1
  C  C2  1  0.98610736  0.62545119  0.24220255  1
  C  C3  1  0.63934382  0.62545119  0.74220255  1
  C  C4  1  0.97977973  0.35363096  0.74840818  1
  C  C5  1  0.38036238  0.01851447  0.74756105  1
  C  C6  1  0.31275021  0.35362296  0.58188731  1
  C  C7  1  0.03683123  0.69117151  0.57865626  1
  C  C8  1  0.64682033  0.94899040  0.57784038  1
  C  C9  1  0.30217107  0.94899040  0.07784038  1
  C  C10  1  0.65434128  0.69117151  0.07865626  1
  C  C11  1  0.04087375  0.35362296  0.08188731  1
  C  C12  1  0.98055744  0.68886022  0.91653552  1
  C  C13  1  0.70567299  0.02660616  0.90946921  1
  C  C14  1  0.31532289  0.28543483  0.91229465  1
  C  C15  1  0.97011094  0.28543483  0.41229465  1
  C  C16  1  0.32093217  0.02660616  0.40946921  1
  C  C17  1  0.70830178  0.68886022  0.41653552  1
  C  C18  1  0.99209670  0.99527771  0.49247035  1
  C  C19  1  0.00318102  0.99527771  0.99247035  1
  C  C20  1  0.66339813  0.32484249  0.82594273  1
  C  C21  1  0.66144536  0.32484249  0.32594273  1
  C  C22  1  0.32654779  0.66788020  0.15964881  1
  C  C23  1  0.34133140  0.66788020  0.65964881  1
  C  C24  1  0.99320840  0.99565918  0.64858672  1
  C  C25  1  0.00245078  0.99565918  0.14858672  1
  C  C26  1  0.66681458  0.33433013  0.98216881  1
  C  C27  1  0.66751655  0.33433013  0.48216881  1
  C  C28  1  0.33660980  0.67462911  0.31558948  1
  C  C29  1  0.33801831  0.67462911  0.81558948  1
  Ni  Ni30  1  0.99981654  0.00058812  0.34598108  1
  Ni  Ni31  1  0.00077157  0.00058812  0.84598108  1
  Ni  Ni32  1  0.66448533  0.32952699  0.67963675  1
  Ni  Ni33  1  0.66504265  0.32952699  0.17963675  1
  Ni  Ni34  1  0.32083761  0.66989009  0.01286838  1
  Ni  Ni35  1  0.34905148  0.66989009  0.51286838  1
  Cu  Cu36  1  0.29888704  0.00324494  0.25290438  1
  Cu  Cu37  1  0.70435790  0.00324494  0.75290438  1
  Cu  Cu38  1  0.66570783  0.62737900  0.58619680  1
  Cu  Cu39  1  0.96167217  0.62737900  0.08619680  1
  Cu  Cu40  1  0.33070532  0.96691813  0.91825848  1
  Cu  Cu41  1  0.63621181  0.96691813  0.41825848  1
  C  C42  1  0.70361508  0.70489433  0.25249847  1
  C  C43  1  0.00221738  0.29560262  0.25169913  1
  C  C44  1  0.29338524  0.29560262  0.75169913  1
  C  C45  1  0.00127926  0.70489433  0.75249847  1
  C  C46  1  0.96324215  0.33400036  0.58522105  1
  C  C47  1  0.36945229  0.03806446  0.58552523  1
  C  C48  1  0.66861317  0.03806446  0.08552523  1
  C  C49  1  0.37075921  0.33400036  0.08522105  1
  C  C50  1  0.62413149  0.66371463  0.91986466  1
  C  C51  1  0.03874711  0.37254589  0.91897777  1
  C  C52  1  0.33379778  0.37254589  0.41897777  1
  C  C53  1  0.03958213  0.66371463  0.41986466  1
  C  C54  1  0.21521528  0.03265432  0.31188677  1
  C  C55  1  0.80867331  0.78524914  0.30833526  1
  C  C56  1  0.97514072  0.18936810  0.30813537  1
  C  C57  1  0.21422738  0.18936810  0.80813537  1
  C  C58  1  0.97657583  0.78524914  0.80833526  1
  C  C59  1  0.81743904  0.03265432  0.81188677  1
  C  C60  1  0.79681784  0.97116028  0.69388743  1
  C  C61  1  0.18081508  0.20736011  0.69530611  1
  C  C62  1  0.03242102  0.82144786  0.69589412  1
  C  C63  1  0.78902684  0.82144786  0.19589412  1
  C  C64  1  0.02654503  0.20736011  0.19530611  1
  C  C65  1  0.17434245  0.97116028  0.19388743  1
  C  C66  1  0.88316034  0.35782824  0.64165726  1
  C  C67  1  0.47650131  0.11419811  0.64147231  1
  C  C68  1  0.63900869  0.51438967  0.64519193  1
  C  C69  1  0.87538198  0.51438967  0.14519193  1
  C  C70  1  0.63769780  0.11419811  0.14147231  1
  C  C71  1  0.47466890  0.35782824  0.14165726  1
  C  C72  1  0.45675546  0.30239729  0.02933504  1
  C  C73  1  0.84006509  0.53738601  0.02654121  1
  C  C74  1  0.69313255  0.15334499  0.02914140  1
  C  C75  1  0.46021343  0.15334499  0.52914140  1
  C  C76  1  0.69732191  0.53738601  0.52654121  1
  C  C77  1  0.84564283  0.30239729  0.52933504  1
  C  C78  1  0.54039070  0.68535874  0.97565875  1
  C  C79  1  0.14562458  0.45087110  0.97483582  1
  C  C80  1  0.29923810  0.85488703  0.97788393  1
  C  C81  1  0.55564793  0.85488703  0.47788393  1
  C  C82  1  0.30524552  0.45087110  0.47483582  1
  C  C83  1  0.14496704  0.68535874  0.47565875  1
  C  C84  1  0.12587137  0.63622392  0.36308038  1
  C  C85  1  0.50891218  0.87241677  0.35986701  1
  C  C86  1  0.36052799  0.48586905  0.36223005  1
  C  C87  1  0.12534006  0.48586905  0.86223005  1
  C  C88  1  0.36350359  0.87241677  0.85986701  1
  C  C89  1  0.51035154  0.63622392  0.86308038  1
  C  C90  1  0.01455585  0.81645157  0.41328880  1
  C  C91  1  0.82437044  0.99044107  0.41108784  1
  C  C92  1  0.18291712  0.19413656  0.41382500  1
  C  C93  1  0.01121944  0.19413656  0.91382500  1
  C  C94  1  0.16607062  0.99044107  0.91108784  1
  C  C95  1  0.80189572  0.81645157  0.91328880  1
  C  C96  1  0.97982608  0.17107266  0.58870745  1
  C  C97  1  0.19561110  0.03384828  0.58849761  1
  C  C98  1  0.84328826  0.81578021  0.58828651  1
  C  C99  1  0.97249195  0.81578021  0.08828651  1
  C  C100  1  0.83823718  0.03384828  0.08849761  1
  C  C101  1  0.19124658  0.17107266  0.08870745  1
  C  C102  1  0.67692571  0.16473706  0.74561402  1
  C  C103  1  0.47256828  0.32139462  0.74641467  1
  C  C104  1  0.84807943  0.52832567  0.74616971  1
  C  C105  1  0.68024724  0.52832567  0.24616971  1
  C  C106  1  0.84882734  0.32139462  0.24641467  1
  C  C107  1  0.48781234  0.16473706  0.24561402  1
  C  C108  1  0.63693781  0.49868644  0.92216998  1
  C  C109  1  0.86160886  0.36358220  0.92249288  1
  C  C110  1  0.50719996  0.15334029  0.92099048  1
  C  C111  1  0.64614132  0.15334029  0.42099048  1
  C  C112  1  0.50197434  0.36358220  0.42249288  1
  C  C113  1  0.86174963  0.49868644  0.42216998  1
  C  C114  1  0.34976878  0.48868961  0.07731355  1
  C  C115  1  0.15059828  0.65154956  0.08165361  1
  C  C116  1  0.52023763  0.85857513  0.07893866  1
  C  C117  1  0.33833650  0.85857513  0.57893866  1
  C  C118  1  0.50095028  0.65154956  0.58165361  1
  C  C119  1  0.13891982  0.48868961  0.57731355  1
  C  C120  1  0.30668646  0.82460853  0.25478398  1
  C  C121  1  0.52425949  0.69002669  0.25549532  1
  C  C122  1  0.16937178  0.47107208  0.25503559  1
  C  C123  1  0.30169929  0.47107208  0.75503559  1
  C  C124  1  0.16576620  0.69002669  0.75549532  1
  C  C125  1  0.51792107  0.82460853  0.75478398  1
