# generated using pymatgen
data_Cu3Ni5C31
_symmetry_space_group_name_H-M   'P 1'
_cell_length_a   9.00636675
_cell_length_b   8.99487193
_cell_length_c   22.92342879
_cell_angle_alpha   89.92876374
_cell_angle_beta   89.99196245
_cell_angle_gamma   120.02030062
_symmetry_Int_Tables_number   1
_chemical_formula_structural   Cu3Ni5C31
_chemical_formula_sum   'Cu9 Ni15 C93'
_cell_volume   1607.92371734
_cell_formula_units_Z   3
loop_
 _symmetry_equiv_pos_site_id
 _symmetry_equiv_pos_as_xyz
  1  'x, y, z'
loop_
 _atom_site_type_symbol
 _atom_site_label
 _atom_site_symmetry_multiplicity
 _atom_site_fract_x
 _atom_site_fract_y
 _atom_site_fract_z
 _atom_site_occupancy
  Ni  Ni0  1  0.63517443  0.99909626  0.25225735  1
  Ni  Ni1  1  0.36383555  0.36485902  0.25265449  1
  Ni  Ni2  1  0.00075587  0.63640400  0.25237307  1
  Ni  Ni3  1  0.64060590  0.63465580  0.74877662  1
  Ni  Ni4  1  0.99658158  0.36017046  0.74893669  1
  Ni  Ni5  1  0.03210831  0.69971212  0.58215949  1
  Ni  Ni6  1  0.66532573  0.96698530  0.58197362  1
  Ni  Ni7  1  0.66559799  0.69910451  0.08224850  1
  Ni  Ni8  1  0.03243685  0.33209425  0.08231567  1
  Ni  Ni9  1  0.00804557  0.00877692  0.49616106  1
  Ni  Ni10  1  0.00782900  0.99922690  0.99544735  1
  Ni  Ni11  1  0.65834066  0.32448469  0.83303305  1
  Ni  Ni12  1  0.66664603  0.33343558  0.33711575  1
  Ni  Ni13  1  0.33272389  0.67452908  0.16560228  1
  Ni  Ni14  1  0.33325242  0.66579711  0.66328125  1
  C  C15  1  0.66552191  0.33296314  0.97856268  1
  C  C16  1  0.66463678  0.33287110  0.47878068  1
  C  C17  1  0.33378032  0.67333806  0.81682579  1
  Cu  Cu18  1  0.99961224  0.99942416  0.35529073  1
  Cu  Cu19  1  0.00163436  0.00087356  0.85330133  1
  Cu  Cu20  1  0.00841665  0.00711323  0.64906312  1
  Cu  Cu21  1  0.00647522  0.99930238  0.14940898  1
  Cu  Cu22  1  0.65854170  0.32661901  0.68328311  1
  Cu  Cu23  1  0.66528643  0.33143319  0.18237655  1
  Cu  Cu24  1  0.33292262  0.67285500  0.01555802  1
  Cu  Cu25  1  0.33264199  0.65924119  0.51487440  1
  Cu  Cu26  1  0.33319015  0.66669078  0.32093316  1
  C  C27  1  0.29213046  -0.00017200  0.25071964  1
  C  C28  1  0.70796072  0.70809701  0.24940968  1
  C  C29  1  0.00011111  0.29210731  0.24945536  1
  C  C30  1  0.29254803  0.29060882  0.75116403  1
  C  C31  1  0.99911288  0.70812725  0.74933691  1
  C  C32  1  0.71064416  0.00130261  0.74945065  1
  C  C33  1  0.95960513  0.33408277  0.58455030  1
  C  C34  1  0.37251479  0.03900128  0.58306120  1
  C  C35  1  0.66544453  0.62688840  0.58473961  1
  C  C36  1  0.96053210  0.62648340  0.08406089  1
  C  C37  1  0.66553439  0.03808167  0.08435723  1
  C  C38  1  0.37222439  0.33316104  0.08385056  1
  C  C39  1  0.62896641  0.67047937  0.91747066  1
  C  C40  1  0.04108778  0.37110321  0.91778224  1
  C  C41  1  0.32957540  0.96013474  0.91768667  1
  C  C42  1  0.62820690  0.95898063  0.41688511  1
  C  C43  1  0.33081883  0.37147299  0.41554458  1
  C  C44  1  0.04093997  0.66880002  0.41706719  1
  C  C45  1  0.20900063  0.03327504  0.30322371  1
  C  C46  1  0.82541427  0.79321966  0.30158705  1
  C  C47  1  0.96792804  0.17452642  0.30166590  1
  C  C48  1  0.20691070  0.18134217  0.80466589  1
  C  C49  1  0.96920245  0.79356961  0.80205636  1
  C  C50  1  0.82491244  0.03012894  0.80250833  1
  C  C51  1  0.78633362  0.96747581  0.69355369  1
  C  C52  1  0.17802631  0.21217949  0.69683260  1
  C  C53  1  0.02704149  0.81372178  0.69304751  1
  C  C54  1  0.78659538  0.81742416  0.19329772  1
  C  C55  1  0.03091034  0.21369888  0.19340274  1
  C  C56  1  0.17825096  0.96765128  0.19616829  1
  C  C57  1  0.87865406  0.36358886  0.64008219  1
  C  C58  1  0.48862477  0.12341943  0.63672437  1
  C  C59  1  0.64117171  0.51986294  0.64050108  1
  C  C60  1  0.87913910  0.51543841  0.13955594  1
  C  C61  1  0.64090708  0.12060297  0.14007757  1
  C  C62  1  0.48363401  0.36370729  0.13907737  1
  C  C63  1  0.46414943  0.30926731  0.03091100  1
  C  C64  1  0.84089377  0.53648726  0.03131064  1
  C  C65  1  0.69581708  0.15852530  0.03181459  1
  C  C66  1  0.46159485  0.15350359  0.52953821  1
  C  C67  1  0.69579318  0.53750613  0.53204454  1
  C  C68  1  0.84051962  0.30417426  0.53155299  1
  C  C69  1  0.54241140  0.69053018  0.97257940  1
  C  C70  1  0.14801561  0.45762801  0.97279714  1
  C  C71  1  0.30759626  0.84906591  0.97125372  1
  C  C72  1  0.54235749  0.85178199  0.47210154  1
  C  C73  1  0.30861633  0.46109345  0.46911569  1
  C  C74  1  0.14818115  0.69032580  0.47219191  1
  C  C75  1  0.12093847  0.64027509  0.36100272  1
  C  C76  1  0.51959534  0.87878465  0.36089935  1
  C  C77  1  0.36014805  0.47887775  0.35918266  1
  C  C78  1  0.12517564  0.48370000  0.86220683  1
  C  C79  1  0.35943206  0.87492591  0.86312782  1
  C  C80  1  0.51671449  0.64240677  0.86199172  1
  C  C81  1  0.02179565  0.82814853  0.41075267  1
  C  C82  1  0.80652387  0.97808995  0.41064788  1
  C  C83  1  0.17143700  0.19303722  0.41037117  1
  C  C84  1  0.02162971  0.19339294  0.91097101  1
  C  C85  1  0.17112665  0.97811299  0.91078980  1
  C  C86  1  0.80660216  0.82872534  0.91060889  1
  C  C87  1  0.96944575  0.16786362  0.58980064  1
  C  C88  1  0.19084077  0.01436426  0.58903369  1
  C  C89  1  0.83036973  0.80690641  0.58939781  1
  C  C90  1  0.96958065  0.80188608  0.08931041  1
  C  C91  1  0.83032078  0.02361938  0.08922248  1
  C  C92  1  0.19008346  0.17608600  0.08893680  1
  C  C93  1  0.69486686  0.16462203  0.74346366  1
  C  C94  1  0.47728131  0.32187534  0.74433880  1
  C  C95  1  0.83790822  0.52490329  0.74403706  1
  C  C96  1  0.68705453  0.52557818  0.24315822  1
  C  C97  1  0.83859180  0.31297347  0.24330570  1
  C  C98  1  0.47372042  0.16132754  0.24333556  1
  C  C99  1  0.64269760  0.50495248  0.92282000  1
  C  C100  1  0.86197694  0.35726139  0.92320597  1
  C  C101  1  0.49506922  0.13832705  0.92298647  1
  C  C102  1  0.64420744  0.13931127  0.42276470  1
  C  C103  1  0.49515252  0.35675245  0.42258134  1
  C  C104  1  0.86080257  0.50454452  0.42316520  1
  C  C105  1  0.35639457  0.49694852  0.07771615  1
  C  C106  1  0.13561967  0.63657212  0.07739550  1
  C  C107  1  0.50972015  0.85577915  0.07798496  1
  C  C108  1  0.35571219  0.85889580  0.57746226  1
  C  C109  1  0.50991417  0.65386309  0.57803881  1
  C  C110  1  0.13550493  0.49887128  0.57748091  1
  C  C111  1  0.31267990  0.83789091  0.25567506  1
  C  C112  1  0.52584935  0.68799205  0.25521916  1
  C  C113  1  0.16186930  0.47469868  0.25519036  1
  C  C114  1  0.31116644  0.47479727  0.75679375  1
  C  C115  1  0.15660804  0.68001463  0.75604359  1
  C  C116  1  0.53135796  0.83515698  0.75648745  1
