# generated using pymatgen
data_Cu2NiC6
_symmetry_space_group_name_H-M   'P 1'
_cell_length_a   5.06318834
_cell_length_b   7.15352123
_cell_length_c   6.91666400
_cell_angle_alpha   111.91826949
_cell_angle_beta   111.59013117
_cell_angle_gamma   91.28634888
_symmetry_Int_Tables_number   1
_chemical_formula_structural   Cu2NiC6
_chemical_formula_sum   'Cu2 Ni1 C6'
_cell_volume   212.36424053
_cell_formula_units_Z   1
loop_
 _symmetry_equiv_pos_site_id
 _symmetry_equiv_pos_as_xyz
  1  'x, y, z'
loop_
 _atom_site_type_symbol
 _atom_site_label
 _atom_site_symmetry_multiplicity
 _atom_site_fract_x
 _atom_site_fract_y
 _atom_site_fract_z
 _atom_site_occupancy
  C  C0  1  0.67878575  0.58282439  0.37606324  1
  C  C1  1  0.34189716  0.41863244  0.74919028  1
  Ni  Ni2  1  0.17543854  0.94970213  0.33538179  1
  Cu  Cu3  1  0.23343334  0.01171149  0.98857366  1
  Cu  Cu4  1  0.73911682  0.01065748  0.99450936  1
  C  C5  1  0.33224028  0.89335418  0.68419950  1
  C  C6  1  0.00796027  0.26297555  0.02497083  1
  C  C7  1  0.95046689  0.73790135  0.93752502  1
  C  C8  1  0.64066096  0.07668498  0.29847532  1
