# generated using pymatgen
data_Cu(NiC3)3
_symmetry_space_group_name_H-M   'P 1'
_cell_length_a   3.38992200
_cell_length_b   3.38966381
_cell_length_c   46.43423008
_cell_angle_alpha   90.00584795
_cell_angle_beta   90.00000000
_cell_angle_gamma   120.00250023
_symmetry_Int_Tables_number   1
_chemical_formula_structural   Cu(NiC3)3
_chemical_formula_sum   'Cu1 Ni3 C9'
_cell_volume   462.06627001
_cell_formula_units_Z   1
loop_
 _symmetry_equiv_pos_site_id
 _symmetry_equiv_pos_as_xyz
  1  'x, y, z'
loop_
 _atom_site_type_symbol
 _atom_site_label
 _atom_site_symmetry_multiplicity
 _atom_site_fract_x
 _atom_site_fract_y
 _atom_site_fract_z
 _atom_site_occupancy
  C  C0  1  0.99999200  0.99998400  0.37832600  1
  C  C1  1  0.33340200  0.66680400  0.31603100  1
  C  C2  1  0.33331300  0.66662600  0.69795100  1
  C  C3  1  0.33338800  0.66677700  0.23482000  1
  C  C4  1  0.33322500  0.66645100  0.61714700  1
  Ni  Ni5  1  0.33337600  0.66675200  0.09389400  1
  Ni  Ni6  1  0.66673200  0.33346600  0.27518800  1
  Ni  Ni7  1  0.66661400  0.33322700  0.65755200  1
  Cu  Cu8  1  0.33329000  0.66658100  0.47914900  1
  C  C9  1  0.66666800  0.33333600  0.05831600  1
  C  C10  1  0.66675000  0.33349800  0.12944900  1
  C  C11  1  0.66659000  0.33317800  0.44659000  1
  C  C12  1  0.66666100  0.33332100  0.51148700  1
