# generated using pymatgen
data_CuNi4C35
_symmetry_space_group_name_H-M   'P 1'
_cell_length_a   8.95678591
_cell_length_b   8.93515285
_cell_length_c   22.24363853
_cell_angle_alpha   89.67778448
_cell_angle_beta   90.06967469
_cell_angle_gamma   120.20647056
_symmetry_Int_Tables_number   1
_chemical_formula_structural   CuNi4C35
_chemical_formula_sum   'Cu3 Ni12 C105'
_cell_volume   1538.42272556
_cell_formula_units_Z   3
loop_
 _symmetry_equiv_pos_site_id
 _symmetry_equiv_pos_as_xyz
  1  'x, y, z'
loop_
 _atom_site_type_symbol
 _atom_site_label
 _atom_site_symmetry_multiplicity
 _atom_site_fract_x
 _atom_site_fract_y
 _atom_site_fract_z
 _atom_site_occupancy
  C  C0  1  0.62198446  0.00022544  0.24987706  1
  C  C1  1  0.35871234  0.34123795  0.25254917  1
  C  C2  1  0.01616829  0.65519676  0.24602427  1
  C  C3  1  0.63790534  0.65122227  0.74121119  1
  C  C4  1  0.98253611  0.34383504  0.75491004  1
  C  C5  1  0.37826015  0.00024541  0.75138309  1
  C  C6  1  0.32200299  0.34833774  0.58495622  1
  C  C7  1  0.01259240  0.69373371  0.57866945  1
  C  C8  1  0.67085099  0.95391167  0.58972959  1
  C  C9  1  0.29843291  0.96849680  0.09031341  1
  C  C10  1  0.70127002  0.03147358  0.91027152  1
  C  C11  1  0.69812013  0.66384952  0.42483409  1
  C  C12  1  0.99786011  0.99707726  0.49874010  1
  C  C13  1  0.00000351  0.99991016  0.00031918  1
  C  C14  1  0.66844639  0.33250995  0.83439355  1
  C  C15  1  0.64686856  0.30608665  0.33429050  1
  C  C16  1  0.33029870  0.66794170  0.16586546  1
  C  C17  1  0.36127137  0.67713441  0.66704736  1
  Ni  Ni18  1  0.01875081  0.01064594  0.34938251  1
  Ni  Ni19  1  0.99472414  0.00237357  0.85035457  1
  Ni  Ni20  1  0.98098554  0.98633515  0.65116704  1
  Ni  Ni21  1  0.00328485  0.99736700  0.15055975  1
  Ni  Ni22  1  0.66434923  0.33380316  0.68232950  1
  Ni  Ni23  1  0.66184100  0.32973705  0.18085382  1
  Ni  Ni24  1  0.66894781  0.34105604  0.98378911  1
  Ni  Ni25  1  0.66925360  0.33607684  0.48339595  1
  Ni  Ni26  1  0.33102159  0.65901288  0.01655725  1
  Ni  Ni27  1  0.33964088  0.66696697  0.51506966  1
  Ni  Ni28  1  0.33127331  0.67534915  0.31799246  1
  Ni  Ni29  1  0.33988031  0.67023816  0.81951219  1
  Cu  Cu30  1  0.30028315  0.00060384  0.24757293  1
  Cu  Cu31  1  0.69783582  0.00224664  0.75145206  1
  Cu  Cu32  1  0.66709670  0.63121466  0.58203562  1
  C  C33  1  0.70702126  0.70727250  0.25141724  1
  C  C34  1  0.99921622  0.29146171  0.24995517  1
  C  C35  1  0.29026443  0.28988461  0.74990072  1
  C  C36  1  0.00301953  0.70719983  0.75081788  1
  C  C37  1  0.96281566  0.33526587  0.58302148  1
  C  C38  1  0.37122907  0.03891831  0.58314075  1
  C  C39  1  0.96064023  0.62787881  0.08324986  1
  C  C40  1  0.66969005  0.03664319  0.08191493  1
  C  C41  1  0.37150595  0.33703842  0.08297866  1
  C  C42  1  0.62831672  0.66293555  0.91699105  1
  C  C43  1  0.03926272  0.37236140  0.91673008  1
  C  C44  1  0.33034501  0.96317605  0.91804656  1
  C  C45  1  0.63381195  0.96761230  0.41637759  1
  C  C46  1  0.32930023  0.36917451  0.41640848  1
  C  C47  1  0.03536004  0.66354140  0.41685357  1
  C  C48  1  0.21068053  0.04248837  0.30308893  1
  C  C49  1  0.80785672  0.78495177  0.30704478  1
  C  C50  1  0.95917511  0.17898990  0.30368875  1
  C  C51  1  0.20636712  0.17551442  0.80216839  1
  C  C52  1  0.98026872  0.79521336  0.80290857  1
  C  C53  1  0.81894635  0.03823553  0.81084865  1
  C  C54  1  0.78186117  0.96803997  0.69160365  1
  C  C55  1  0.19152989  0.21209508  0.69374285  1
  C  C56  1  0.03902565  0.81340510  0.69495967  1
  C  C57  1  0.78556754  0.82345798  0.19891867  1
  C  C58  1  0.02440547  0.21033518  0.19614000  1
  C  C59  1  0.18278387  0.96103151  0.18675674  1
  C  C60  1  0.88665536  0.35976962  0.63883536  1
  C  C61  1  0.47741435  0.10924978  0.63836046  1
  C  C62  1  0.63274191  0.51189038  0.64239780  1
  C  C63  1  0.88243868  0.53004462  0.13982633  1
  C  C64  1  0.64356314  0.11933003  0.13592778  1
  C  C65  1  0.47003990  0.35830334  0.13938426  1
  C  C66  1  0.46024414  0.30923550  0.03163087  1
  C  C67  1  0.85492447  0.53609742  0.03071909  1
  C  C68  1  0.68961933  0.14110491  0.02705276  1
  C  C69  1  0.45844434  0.14846629  0.53022672  1
  C  C70  1  0.69723290  0.54259219  0.52277880  1
  C  C71  1  0.84583763  0.29786206  0.53136067  1
  C  C72  1  0.54022586  0.69115415  0.96829953  1
  C  C73  1  0.14516606  0.46382373  0.96908460  1
  C  C74  1  0.31062575  0.85861577  0.97270959  1
  C  C75  1  0.54848083  0.85786792  0.47037657  1
  C  C76  1  0.31514633  0.45533972  0.47130716  1
  C  C77  1  0.13781473  0.68245767  0.47177038  1
  C  C78  1  0.12123358  0.64910736  0.36228289  1
  C  C79  1  0.53088789  0.88442481  0.36156920  1
  C  C80  1  0.35408656  0.47933430  0.36241237  1
  C  C81  1  0.11740921  0.46992479  0.86003361  1
  C  C82  1  0.35656800  0.88071759  0.86387680  1
  C  C83  1  0.52992155  0.64154321  0.86060027  1
  C  C84  1  0.00952530  0.81663752  0.41340761  1
  C  C85  1  0.80495479  0.97666841  0.41175833  1
  C  C86  1  0.17156104  0.19730457  0.41298767  1
  C  C87  1  0.02034375  0.19624959  0.91497823  1
  C  C88  1  0.17788026  0.98416341  0.91151187  1
  C  C89  1  0.80287417  0.82336503  0.91293377  1
  C  C90  1  0.99674564  0.18883081  0.58862329  1
  C  C91  1  0.20107657  0.02965170  0.58959308  1
  C  C92  1  0.84415203  0.82480491  0.58471819  1
  C  C93  1  0.97865937  0.80339062  0.08487439  1
  C  C94  1  0.82205532  0.01555820  0.08842598  1
  C  C95  1  0.19712706  0.17699887  0.08676679  1
  C  C96  1  0.67722535  0.17613696  0.74528787  1
  C  C97  1  0.46782528  0.31631924  0.74644798  1
  C  C98  1  0.84306972  0.53496144  0.74523222  1
  C  C99  1  0.69797308  0.53701571  0.24343738  1
  C  C100  1  0.85218492  0.32392172  0.24243153  1
  C  C101  1  0.49718874  0.17315205  0.24303903  1
  C  C102  1  0.64699544  0.50850199  0.92408640  1
  C  C103  1  0.86039517  0.34685457  0.92120859  1
  C  C104  1  0.49406048  0.13598593  0.92261637  1
  C  C105  1  0.65341112  0.14125707  0.42235243  1
  C  C106  1  0.48802877  0.35384116  0.41979769  1
  C  C107  1  0.86028288  0.50529244  0.41960067  1
  C  C108  1  0.35346873  0.49181074  0.07585968  1
  C  C109  1  0.13943194  0.65325857  0.07867148  1
  C  C110  1  0.50597980  0.86395614  0.07722900  1
  C  C111  1  0.34093267  0.85970015  0.57613322  1
  C  C112  1  0.49408786  0.65384800  0.57753673  1
  C  C113  1  0.13245987  0.49784324  0.57473193  1
  C  C114  1  0.32091152  0.82645413  0.25455492  1
  C  C115  1  0.52696071  0.67503970  0.25726178  1
  C  C116  1  0.16112703  0.46280583  0.25752349  1
  C  C117  1  0.30186011  0.46195283  0.75642881  1
  C  C118  1  0.15214864  0.67871251  0.75821683  1
  C  C119  1  0.50392565  0.82658736  0.75649358  1
