# generated using pymatgen
data_Cu16Ni5C2
_symmetry_space_group_name_H-M   'P 1'
_cell_length_a   9.45309500
_cell_length_b   11.14156900
_cell_length_c   14.86214400
_cell_angle_alpha   90.00000000
_cell_angle_beta   90.00000000
_cell_angle_gamma   90.00000000
_symmetry_Int_Tables_number   1
_chemical_formula_structural   Cu16Ni5C2
_chemical_formula_sum   'Cu64 Ni20 C8'
_cell_volume   1565.31534070
_cell_formula_units_Z   4
loop_
 _symmetry_equiv_pos_site_id
 _symmetry_equiv_pos_as_xyz
  1  'x, y, z'
loop_
 _atom_site_type_symbol
 _atom_site_label
 _atom_site_symmetry_multiplicity
 _atom_site_fract_x
 _atom_site_fract_y
 _atom_site_fract_z
 _atom_site_occupancy
  C  C0  1  0.24006200  0.01062400  0.04826900  1
  C  C1  1  0.74006200  0.48937600  0.95173100  1
  C  C2  1  0.75993800  0.01062400  0.45173100  1
  C  C3  1  0.25993800  0.48937600  0.54826900  1
  C  C4  1  0.75993800  0.98937600  0.95173100  1
  C  C5  1  0.25993800  0.51062400  0.04826900  1
  C  C6  1  0.24006200  0.98937600  0.54826900  1
  C  C7  1  0.74006200  0.51062400  0.45173100  1
  Ni  Ni8  1  0.00000000  0.16896400  0.25000000  1
  Ni  Ni9  1  0.50000000  0.33103600  0.75000000  1
  Ni  Ni10  1  0.00000000  0.83103600  0.75000000  1
  Ni  Ni11  1  0.50000000  0.66896400  0.25000000  1
  Ni  Ni12  1  0.21843500  0.34805600  0.29525900  1
  Ni  Ni13  1  0.71843500  0.15194400  0.70474100  1
  Ni  Ni14  1  0.78156500  0.34805600  0.20474100  1
  Ni  Ni15  1  0.28156500  0.15194400  0.79525900  1
  Ni  Ni16  1  0.93178700  0.75086300  0.07120900  1
  Ni  Ni17  1  0.43178700  0.74913700  0.92879100  1
  Ni  Ni18  1  0.06821300  0.75086300  0.42879100  1
  Ni  Ni19  1  0.56821300  0.74913700  0.57120900  1
  Ni  Ni20  1  0.06821300  0.24913700  0.92879100  1
  Ni  Ni21  1  0.56821300  0.25086300  0.07120900  1
  Ni  Ni22  1  0.93178700  0.24913700  0.57120900  1
  Ni  Ni23  1  0.43178700  0.25086300  0.42879100  1
  Ni  Ni24  1  0.71843500  0.84805600  0.20474100  1
  Ni  Ni25  1  0.21843500  0.65194400  0.79525900  1
  Ni  Ni26  1  0.28156500  0.84805600  0.29525900  1
  Ni  Ni27  1  0.78156500  0.65194400  0.70474100  1
  Cu  Cu28  1  0.60242000  0.60672800  0.30284100  1
  Cu  Cu29  1  0.10242000  0.89327200  0.69715900  1
  Cu  Cu30  1  0.39758000  0.60672800  0.19715900  1
  Cu  Cu31  1  0.89758000  0.89327200  0.80284100  1
  Cu  Cu32  1  0.39758000  0.39327200  0.69715900  1
  Cu  Cu33  1  0.89758000  0.10672800  0.30284100  1
  Cu  Cu34  1  0.60242000  0.39327200  0.80284100  1
  Cu  Cu35  1  0.10242000  0.10672800  0.19715900  1
  Cu  Cu36  1  0.70818500  0.87379600  0.29869100  1
  Cu  Cu37  1  0.20818500  0.62620400  0.70130900  1
  Cu  Cu38  1  0.29181500  0.87379600  0.20130900  1
  Cu  Cu39  1  0.79181500  0.62620400  0.79869100  1
  Cu  Cu40  1  0.29181500  0.12620400  0.70130900  1
  Cu  Cu41  1  0.79181500  0.37379600  0.29869100  1
  Cu  Cu42  1  0.70818500  0.12620400  0.79869100  1
  Cu  Cu43  1  0.20818500  0.37379600  0.20130900  1
  Cu  Cu44  1  0.70170700  0.93973800  0.13823000  1
  Cu  Cu45  1  0.20170700  0.56026200  0.86177000  1
  Cu  Cu46  1  0.29829300  0.93973800  0.36177000  1
  Cu  Cu47  1  0.79829300  0.56026200  0.63823000  1
  Cu  Cu48  1  0.29829300  0.06026200  0.86177000  1
  Cu  Cu49  1  0.79829300  0.43973800  0.13823000  1
  Cu  Cu50  1  0.97245700  0.34422700  0.90542900  1
  Cu  Cu51  1  0.70170700  0.06026200  0.63823000  1
  Cu  Cu52  1  0.02754300  0.65577300  0.09457100  1
  Cu  Cu53  1  0.52754300  0.84422700  0.90542900  1
  Cu  Cu54  1  0.97245700  0.65577300  0.40542900  1
  Cu  Cu55  1  0.47245700  0.84422700  0.59457100  1
  Cu  Cu56  1  0.07573600  0.25758000  0.32040500  1
  Cu  Cu57  1  0.57573600  0.24242000  0.67959500  1
  Cu  Cu58  1  0.92426400  0.25758000  0.17959500  1
  Cu  Cu59  1  0.42426400  0.24242000  0.82040500  1
  Cu  Cu60  1  0.92426400  0.74242000  0.67959500  1
  Cu  Cu61  1  0.42426400  0.75758000  0.32040500  1
  Cu  Cu62  1  0.07573600  0.74242000  0.82040500  1
  Cu  Cu63  1  0.57573600  0.75758000  0.17959500  1
  Cu  Cu64  1  0.34375200  0.26479800  0.31248200  1
  Cu  Cu65  1  0.84375200  0.23520200  0.68751800  1
  Cu  Cu66  1  0.65624800  0.26479800  0.18751800  1
  Cu  Cu67  1  0.15624800  0.23520200  0.81248200  1
  Cu  Cu68  1  0.65624800  0.73520200  0.68751800  1
  Cu  Cu69  1  0.15624800  0.76479800  0.31248200  1
  Cu  Cu70  1  0.34375200  0.73520200  0.81248200  1
  Cu  Cu71  1  0.84375200  0.76479800  0.18751800  1
  Cu  Cu72  1  0.48824400  0.37061700  0.43978200  1
  Cu  Cu73  1  0.98824400  0.12938300  0.56021800  1
  Cu  Cu74  1  0.51175600  0.37061700  0.06021800  1
  Cu  Cu75  1  0.01175600  0.12938300  0.93978200  1
  Cu  Cu76  1  0.51175600  0.62938300  0.56021800  1
  Cu  Cu77  1  0.01175600  0.87061700  0.43978200  1
  Cu  Cu78  1  0.48824400  0.62938300  0.93978200  1
  Cu  Cu79  1  0.98824400  0.87061700  0.06021800  1
  Cu  Cu80  1  0.31101600  0.22140800  0.48449300  1
  Cu  Cu81  1  0.81101600  0.27859200  0.51550700  1
  Cu  Cu82  1  0.68898400  0.22140800  0.01550700  1
  Cu  Cu83  1  0.18898400  0.27859200  0.98449300  1
  Cu  Cu84  1  0.68898400  0.77859200  0.51550700  1
  Cu  Cu85  1  0.18898400  0.72140800  0.48449300  1
  Cu  Cu86  1  0.31101600  0.77859200  0.98449300  1
  Cu  Cu87  1  0.81101600  0.72140800  0.01550700  1
  Cu  Cu88  1  0.52754300  0.15577300  0.40542900  1
  Cu  Cu89  1  0.02754300  0.34422700  0.59457100  1
  Cu  Cu90  1  0.47245700  0.15577300  0.09457100  1
  Cu  Cu91  1  0.20170700  0.43973800  0.36177000  1
