# generated using pymatgen
data_Cu2Ni2C9
_symmetry_space_group_name_H-M   'P 1'
_cell_length_a   3.38831200
_cell_length_b   3.38835894
_cell_length_c   46.34436763
_cell_angle_alpha   90.01757144
_cell_angle_beta   90.00000000
_cell_angle_gamma   119.99952217
_symmetry_Int_Tables_number   1
_chemical_formula_structural   Cu2Ni2C9
_chemical_formula_sum   'Cu2 Ni2 C9'
_cell_volume   460.78937982
_cell_formula_units_Z   1
loop_
 _symmetry_equiv_pos_site_id
 _symmetry_equiv_pos_as_xyz
  1  'x, y, z'
loop_
 _atom_site_type_symbol
 _atom_site_label
 _atom_site_symmetry_multiplicity
 _atom_site_fract_x
 _atom_site_fract_y
 _atom_site_fract_z
 _atom_site_occupancy
  C  C0  1  0.00005000  0.00010000  0.55950000  1
  C  C1  1  0.33362600  0.66725400  0.70433700  1
  C  C2  1  0.66629000  0.33257900  0.05337900  1
  C  C3  1  0.66649700  0.33299100  0.13438600  1
  C  C4  1  0.33339000  0.66678100  0.62298900  1
  C  C5  1  0.33302100  0.66604200  0.09388800  1
  C  C6  1  0.66670200  0.33340400  0.28209400  1
  C  C7  1  0.66684300  0.33368600  0.66390800  1
  C  C8  1  0.33342300  0.66684700  0.46064700  1
  Ni  Ni9  1  0.33343600  0.66687200  0.31773300  1
  Ni  Ni10  1  0.33323200  0.66646500  0.24644900  1
  Cu  Cu11  1  0.66666000  0.33331900  0.42824400  1
  Cu  Cu12  1  0.66683100  0.33366000  0.49327500  1
