# generated using pymatgen
data_Cu2NiC12
_symmetry_space_group_name_H-M   'P 1'
_cell_length_a   7.40089328
_cell_length_b   9.78915625
_cell_length_c   6.25038437
_cell_angle_alpha   109.11826496
_cell_angle_beta   99.67441676
_cell_angle_gamma   117.34522345
_symmetry_Int_Tables_number   1
_chemical_formula_structural   Cu2NiC12
_chemical_formula_sum   'Cu2 Ni1 C12'
_cell_volume   351.61466725
_cell_formula_units_Z   1
loop_
 _symmetry_equiv_pos_site_id
 _symmetry_equiv_pos_as_xyz
  1  'x, y, z'
loop_
 _atom_site_type_symbol
 _atom_site_label
 _atom_site_symmetry_multiplicity
 _atom_site_fract_x
 _atom_site_fract_y
 _atom_site_fract_z
 _atom_site_occupancy
  C  C0  1  0.04624312  0.15806449  0.65720947  1
  C  C1  1  0.03173981  0.80451814  0.32799034  1
  C  C2  1  0.56003885  0.15772750  0.85813326  1
  C  C3  1  0.51303780  0.92210538  0.17758368  1
  C  C4  1  0.24185132  0.50498141  0.48946699  1
  C  C5  1  0.72019745  0.46653617  0.59127303  1
  Ni  Ni6  1  0.51128264  0.57757699  0.14411645  1
  Cu  Cu7  1  0.78342884  0.83945598  0.81764472  1
  Cu  Cu8  1  0.20931717  0.13483720  0.14772674  1
  C  C9  1  0.39941103  0.35069909  0.13166218  1
  C  C10  1  0.61774523  0.66093570  0.92073221  1
  C  C11  1  0.12321556  0.93474049  0.85463309  1
  C  C12  1  0.35798775  0.13730641  0.42758900  1
  C  C13  1  0.62845528  0.76740544  0.47159753  1
  C  C14  1  0.92271617  0.09236860  0.12153030  1
