# generated using pymatgen
data_Cu5NiC29
_symmetry_space_group_name_H-M   'P 1'
_cell_length_a   8.53867742
_cell_length_b   8.53845133
_cell_length_c   22.38765801
_cell_angle_alpha   89.98373098
_cell_angle_beta   90.05974519
_cell_angle_gamma   119.89005395
_symmetry_Int_Tables_number   1
_chemical_formula_structural   Cu5NiC29
_chemical_formula_sum   'Cu15 Ni3 C87'
_cell_volume   1415.10557653
_cell_formula_units_Z   3
loop_
 _symmetry_equiv_pos_site_id
 _symmetry_equiv_pos_as_xyz
  1  'x, y, z'
loop_
 _atom_site_type_symbol
 _atom_site_label
 _atom_site_symmetry_multiplicity
 _atom_site_fract_x
 _atom_site_fract_y
 _atom_site_fract_z
 _atom_site_occupancy
  C  C0  1  0.99928858  0.99377087  0.99803883  1
  C  C1  1  0.66048893  0.33231618  0.83525995  1
  C  C2  1  0.67145852  0.33238165  0.33349662  1
  C  C3  1  0.99950573  0.99366315  0.85275447  1
  C  C4  1  0.00230105  0.00818110  0.15164405  1
  C  C5  1  0.67381960  0.33377895  0.18970769  1
  C  C6  1  0.66103424  0.33360836  0.97835544  1
  C  C7  1  0.33804780  0.67293343  0.01913184  1
  C  C8  1  0.34112188  0.67259646  0.81081628  1
  C  C9  1  0.99765290  0.00494626  0.35348010  1
  C  C10  1  0.00048764  0.00044923  0.64548265  1
  C  C11  1  0.66596361  0.33325868  0.68198540  1
  C  C12  1  0.66658091  0.33338915  0.48361915  1
  C  C13  1  0.33318575  0.66692937  0.51973626  1
  C  C14  1  0.32860752  0.66136050  0.31351579  1
  Ni  Ni15  1  0.00922047  0.29538803  0.25661687  1
  Ni  Ni16  1  0.62582596  0.66752591  0.91568359  1
  Ni  Ni17  1  0.33351108  0.95879134  0.91571347  1
  Cu  Cu18  1  0.28557734  0.99087080  0.25621753  1
  Cu  Cu19  1  0.70501043  0.71462683  0.25614902  1
  Cu  Cu20  1  0.29432977  0.28501425  0.74400180  1
  Cu  Cu21  1  0.98979810  0.70341347  0.74360794  1
  Cu  Cu22  1  0.71638900  0.01146942  0.74379998  1
  Cu  Cu23  1  0.95526707  0.33399240  0.58259639  1
  Cu  Cu24  1  0.37861335  0.04474573  0.58256984  1
  Cu  Cu25  1  0.66612115  0.62149940  0.58259221  1
  Cu  Cu26  1  0.96026682  0.62825562  0.08386470  1
  Cu  Cu27  1  0.66826103  0.04091932  0.08377039  1
  Cu  Cu28  1  0.37250550  0.33239103  0.08459357  1
  Cu  Cu29  1  0.04232951  0.37522540  0.91565893  1
  Cu  Cu30  1  0.61924283  0.95300317  0.41738749  1
  Cu  Cu31  1  0.33474345  0.37955245  0.41775685  1
  Cu  Cu32  1  0.04538890  0.66750043  0.41746886  1
  C  C33  1  0.19600933  0.02208700  0.30794164  1
  C  C34  1  0.82795763  0.80071976  0.30781024  1
  C  C35  1  0.97312836  0.16648851  0.30961548  1
  C  C36  1  0.22189953  0.17750880  0.79906400  1
  C  C37  1  0.95386550  0.77579034  0.79878257  1
  C  C38  1  0.82299975  0.04602297  0.79903010  1
  C  C39  1  0.80749372  0.98290985  0.69191635  1
  C  C40  1  0.17552352  0.19316678  0.69189353  1
  C  C41  1  0.01840026  0.82387350  0.69191711  1
  C  C42  1  0.77971809  0.81690501  0.20038316  1
  C  C43  1  0.03835020  0.21620658  0.19858583  1
  C  C44  1  0.18129738  0.95877579  0.20049793  1
  C  C45  1  0.87268473  0.36962116  0.63556512  1
  C  C46  1  0.49685962  0.12721381  0.63559266  1
  C  C47  1  0.63041146  0.50323081  0.63557516  1
  C  C48  1  0.87337733  0.51930447  0.13798290  1
  C  C49  1  0.64541628  0.12682405  0.13784602  1
  C  C50  1  0.48143480  0.35486329  0.13841874  1
  C  C51  1  0.45422601  0.30314246  0.03080629  1
  C  C52  1  0.84904078  0.54589547  0.03031075  1
  C  C53  1  0.69782604  0.15174732  0.03029896  1
  C  C54  1  0.46182445  0.16355983  0.52932938  1
  C  C55  1  0.70173254  0.53806273  0.52936019  1
  C  C56  1  0.83622966  0.29828290  0.52926458  1
  C  C57  1  0.54193112  0.69265767  0.97253142  1
  C  C58  1  0.14790829  0.45377713  0.97035906  1
  C  C59  1  0.30152168  0.84683292  0.97237712  1
  C  C60  1  0.53517880  0.83896473  0.47124532  1
  C  C61  1  0.30298419  0.46328713  0.47142017  1
  C  C62  1  0.15996812  0.69800720  0.47136177  1
  C  C63  1  0.12658370  0.63117695  0.36440321  1
  C  C64  1  0.50268022  0.87239464  0.36405667  1
  C  C65  1  0.37212097  0.49702848  0.36464102  1
  C  C66  1  0.12323947  0.48280303  0.86149121  1
  C  C67  1  0.35747643  0.87177538  0.85914701  1
  C  C68  1  0.51193805  0.63663296  0.85926482  1
  C  C69  1  0.02502152  0.82759890  0.40730531  1
  C  C70  1  0.79925341  0.97117505  0.40825026  1
  C  C71  1  0.17532191  0.19892378  0.40808374  1
  C  C72  1  0.02369354  0.19498688  0.91046911  1
  C  C73  1  0.16756946  0.98290816  0.91086338  1
  C  C74  1  0.81128030  0.83859484  0.91071190  1
  C  C75  1  0.97460605  0.17307993  0.59309054  1
  C  C76  1  0.19849173  0.02541624  0.59308666  1
  C  C77  1  0.82670430  0.80134128  0.59318612  1
  C  C78  1  0.97762019  0.80839209  0.08972482  1
  C  C79  1  0.83028784  0.02121368  0.08882454  1
  C  C80  1  0.19289994  0.16704435  0.08879791  1
  C  C81  1  0.69618490  0.17409423  0.73493484  1
  C  C82  1  0.47713390  0.30437313  0.73514656  1
  C  C83  1  0.82585926  0.52198953  0.73481444  1
  C  C84  1  0.68442961  0.53245182  0.25031419  1
  C  C85  1  0.83770654  0.31278491  0.25007029  1
  C  C86  1  0.46480610  0.15558002  0.25013122  1
  C  C87  1  0.65006664  0.50203541  0.91977907  1
  C  C88  1  0.86226551  0.35658281  0.92063656  1
  C  C89  1  0.50428811  0.14393073  0.92009250  1
  C  C90  1  0.63944147  0.13722634  0.42665979  1
  C  C91  1  0.49935529  0.36031021  0.42720197  1
  C  C92  1  0.86211691  0.50272876  0.42680812  1
  C  C93  1  0.35283707  0.49129788  0.07884798  1
  C  C94  1  0.13642928  0.64165484  0.07894855  1
  C  C95  1  0.50662960  0.86361189  0.07974559  1
  C  C96  1  0.36035935  0.86466363  0.57164262  1
  C  C97  1  0.50438394  0.63997785  0.57158184  1
  C  C98  1  0.13517664  0.49539706  0.57159739  1
  C  C99  1  0.30799527  0.83288514  0.26588465  1
  C  C100  1  0.52766397  0.69902488  0.26595916  1
  C  C101  1  0.17480388  0.48078719  0.26667188  1
  C  C102  1  0.31004026  0.46256065  0.75004805  1
  C  C103  1  0.14955084  0.68483907  0.75029914  1
  C  C104  1  0.53787505  0.84991309  0.74929385  1
