# generated using pymatgen
data_Cu3Ni9C70
_symmetry_space_group_name_H-M   'P 1'
_cell_length_a   18.16778167
_cell_length_b   9.07508263
_cell_length_c   22.29191277
_cell_angle_alpha   90.01647694
_cell_angle_beta   89.78354794
_cell_angle_gamma   120.01913491
_symmetry_Int_Tables_number   1
_chemical_formula_structural   Cu3Ni9C70
_chemical_formula_sum   'Cu9 Ni27 C210'
_cell_volume   3182.31263340
_cell_formula_units_Z   3
loop_
 _symmetry_equiv_pos_site_id
 _symmetry_equiv_pos_as_xyz
  1  'x, y, z'
loop_
 _atom_site_type_symbol
 _atom_site_label
 _atom_site_symmetry_multiplicity
 _atom_site_fract_x
 _atom_site_fract_y
 _atom_site_fract_z
 _atom_site_occupancy
  C  C0  1  0.81931877  0.00715495  0.25378929  1
  C  C1  1  0.17688770  0.35717435  0.25396880  1
  C  C2  1  0.68958005  0.36972380  0.25220558  1
  C  C3  1  0.99860129  0.62998519  0.24826126  1
  C  C4  1  0.49957911  0.63808785  0.24972230  1
  C  C5  1  0.31866952  0.62945060  0.75151616  1
  C  C6  1  0.99733090  0.35786809  0.74444753  1
  C  C7  1  0.49918674  0.36797732  0.74600044  1
  C  C8  1  0.18818265  0.00969537  0.74940394  1
  C  C9  1  0.68227870  0.00274067  0.75036206  1
  C  C10  1  0.14809381  0.32446703  0.58254190  1
  C  C11  1  0.65081524  0.32888827  0.58162179  1
  C  C12  1  0.33627925  0.98401622  0.58645370  1
  C  C13  1  0.83370226  0.97123821  0.58234522  1
  C  C14  1  0.14652606  0.97014147  0.08179448  1
  C  C15  1  0.65108744  0.97286092  0.07995166  1
  C  C16  1  0.33366423  0.69253037  0.08175070  1
  C  C17  1  0.83633243  0.68951097  0.08651556  1
  C  C18  1  0.48100279  0.67570008  0.91551280  1
  C  C19  1  0.98024871  0.67456995  0.92143436  1
  C  C20  1  0.34675133  0.02679693  0.90984694  1
  C  C21  1  0.84650810  0.02586367  0.91132964  1
  C  C22  1  0.17104617  0.29682422  0.91225010  1
  C  C23  1  0.66805448  0.29009452  0.91250123  1
  C  C24  1  0.48306341  0.29222466  0.42433258  1
  C  C25  1  0.97864217  0.28404834  0.41893164  1
  C  C26  1  0.16743438  0.04635132  0.41508279  1
  C  C27  1  0.67342233  0.04722693  0.41686305  1
  C  C28  1  0.34732828  0.66750139  0.41429427  1
  C  C29  1  0.84645429  0.66455956  0.41799489  1
  C  C30  1  0.99855278  0.99443950  0.50195920  1
  C  C31  1  0.50435907  0.00880719  0.50421393  1
  C  C32  1  0.00248631  0.99750560  0.00293028  1
  C  C33  1  0.50279038  0.00177602  0.99870436  1
  C  C34  1  0.32975072  0.33364140  0.82798452  1
  C  C35  1  0.82521012  0.33194196  0.82842136  1
  C  C36  1  0.32569612  0.31609836  0.33382303  1
  C  C37  1  0.82965134  0.32579480  0.33230923  1
  C  C38  1  0.15947683  0.65663486  0.16795315  1
  C  C39  1  0.66418171  0.65756727  0.16661663  1
  C  C40  1  0.16297594  0.66892823  0.66603267  1
  C  C41  1  0.66237259  0.66317866  0.66520713  1
  C  C42  1  0.00016477  0.00804900  0.35095303  1
  C  C43  1  0.50099779  0.00285781  0.35250734  1
  C  C44  1  0.00008048  0.99833270  0.85005198  1
  C  C45  1  0.50086455  0.99330442  0.84965907  1
  C  C46  1  0.33602930  0.32418116  0.68464015  1
  C  C47  1  0.83661063  0.34823966  0.18510579  1
  C  C48  1  0.32841292  0.33908625  0.98313383  1
  C  C49  1  0.82577595  0.33984378  0.98324129  1
  C  C50  1  0.32711084  0.31346799  0.48347952  1
  C  C51  1  0.82891367  0.32787220  0.48566777  1
  C  C52  1  0.67581696  0.67772228  0.31439089  1
  C  C53  1  0.17530438  0.67294665  0.81217382  1
  C  C54  1  0.99754986  0.01187167  0.64355600  1
  C  C55  1  0.50928258  0.01522976  0.65381666  1
  C  C56  1  0.00826448  0.00355408  0.15424909  1
  C  C57  1  0.50401249  0.98607418  0.14750674  1
  C  C58  1  0.82618512  0.32140060  0.67944228  1
  C  C59  1  0.32812438  0.34922903  0.18460449  1
  C  C60  1  0.16577031  0.67056152  0.01968630  1
  C  C61  1  0.66618899  0.66575796  0.01922477  1
  C  C62  1  0.16492722  0.66524386  0.52000921  1
  C  C63  1  0.67478734  0.66030819  0.52547103  1
  C  C64  1  0.17779702  0.67421193  0.30848164  1
  C  C65  1  0.67883459  0.68334236  0.80653814  1
  Ni  Ni66  1  0.15167012  0.00158417  0.25152871  1
  Ni  Ni67  1  0.64693392  0.99678767  0.25095681  1
  Ni  Ni68  1  0.35667385  0.71386942  0.24933452  1
  Ni  Ni69  1  0.85570037  0.71169323  0.24965071  1
  Ni  Ni70  1  0.00071665  0.29508713  0.25085615  1
  Ni  Ni71  1  0.14453849  0.29190010  0.74914983  1
  Ni  Ni72  1  0.65174687  0.30133897  0.75238016  1
  Ni  Ni73  1  0.50107836  0.70703618  0.75094181  1
  Ni  Ni74  1  0.35589252  0.00013133  0.74958958  1
  Ni  Ni75  1  0.85723635  0.00871005  0.74974353  1
  Ni  Ni76  1  0.48329270  0.33378011  0.58249602  1
  Ni  Ni77  1  0.98071799  0.34262560  0.58384777  1
  Ni  Ni78  1  0.18073099  0.02825901  0.58421163  1
  Ni  Ni79  1  0.68048099  0.02830648  0.58256059  1
  Ni  Ni80  1  0.83926793  0.62874547  0.58280845  1
  Ni  Ni81  1  0.48157651  0.62164104  0.08417715  1
  Ni  Ni82  1  0.98348384  0.63277970  0.08240666  1
  Ni  Ni83  1  0.18081202  0.33407604  0.08285262  1
  Ni  Ni84  1  0.67979566  0.33297435  0.08453121  1
  Ni  Ni85  1  0.31347771  0.66913615  0.91857412  1
  Ni  Ni86  1  0.80945913  0.66734686  0.91584880  1
  Ni  Ni87  1  0.16737466  0.95956743  0.91633225  1
  Ni  Ni88  1  0.66798193  0.95454055  0.91651062  1
  Ni  Ni89  1  0.30936834  0.95183365  0.41644087  1
  Ni  Ni90  1  0.81383633  0.96077373  0.41873235  1
  Ni  Ni91  1  0.16784006  0.38115005  0.41664234  1
  Ni  Ni92  1  0.66722588  0.37478583  0.41635824  1
  Cu  Cu93  1  0.49581083  0.28660302  0.24823032  1
  Cu  Cu94  1  0.99681697  0.70451617  0.74900230  1
  Cu  Cu95  1  0.33397792  0.63040998  0.58200957  1
  Cu  Cu96  1  0.33521058  0.04455575  0.08362420  1
  Cu  Cu97  1  0.83436349  0.03792723  0.08197293  1
  Cu  Cu98  1  0.02198965  0.37841435  0.91796802  1
  Cu  Cu99  1  0.52375020  0.38175960  0.91715356  1
  Cu  Cu100  1  0.02510985  0.66587662  0.41578507  1
  Cu  Cu101  1  0.52204112  0.66619585  0.41775633  1
  C  C102  1  0.11469916  0.04994689  0.30996500  1
  C  C103  1  0.60368895  0.03261462  0.30896308  1
  C  C104  1  0.41397163  0.78493356  0.30879982  1
  C  C105  1  0.91332798  0.79402456  0.30917618  1
  C  C106  1  0.48434639  0.19059092  0.30490997  1
  C  C107  1  0.98333345  0.18154046  0.31125560  1
  C  C108  1  0.10474654  0.17680015  0.81026220  1
  C  C109  1  0.61143189  0.18085378  0.81137802  1
  C  C110  1  0.48291897  0.78293783  0.81227561  1
  C  C111  1  0.98599101  0.77852934  0.80643265  1
  C  C112  1  0.41161831  0.03025356  0.81037369  1
  C  C113  1  0.91272129  0.04035741  0.81054989  1
  C  C114  1  0.40521533  0.97380531  0.69143586  1
  C  C115  1  0.90323981  0.98024694  0.69150377  1
  C  C116  1  0.08119015  0.18620188  0.69260006  1
  C  C117  1  0.58760200  0.20811838  0.69381239  1
  C  C118  1  0.01052601  0.81691583  0.69804297  1
  C  C119  1  0.51903913  0.84580142  0.69640377  1
  C  C120  1  0.40258391  0.83009907  0.18982059  1
  C  C121  1  0.90543285  0.83630163  0.19080942  1
  C  C122  1  0.01921313  0.19295598  0.19574327  1
  C  C123  1  0.50863465  0.19946828  0.19671033  1
  C  C124  1  0.08796794  0.96837121  0.19284183  1
  C  C125  1  0.58262229  0.97434684  0.19254249  1
  C  C126  1  0.44166890  0.36418886  0.64212195  1
  C  C127  1  0.93254199  0.36200921  0.64340923  1
  C  C128  1  0.24389481  0.10994402  0.64130178  1
  C  C129  1  0.74656875  0.12667952  0.64039025  1
  C  C130  1  0.31942860  0.52368596  0.63550013  1
  C  C131  1  0.81861537  0.48994408  0.63748703  1
  C  C132  1  0.43100002  0.50235567  0.14310917  1
  C  C133  1  0.94296459  0.51929871  0.14201598  1
  C  C134  1  0.32175355  0.13022100  0.13538977  1
  C  C135  1  0.81934189  0.11485334  0.13555772  1
  C  C136  1  0.24852501  0.36677325  0.14010378  1
  C  C137  1  0.74208536  0.37312113  0.14159388  1
  C  C138  1  0.22292891  0.29210706  0.02549411  1
  C  C139  1  0.71834274  0.28548006  0.02523577  1
  C  C140  1  0.42268587  0.54550265  0.02547305  1
  C  C141  1  0.92323578  0.54631539  0.02324041  1
  C  C142  1  0.34681059  0.14003780  0.02750323  1
  C  C143  1  0.84392245  0.13859307  0.02743658  1
  C  C144  1  0.22080831  0.15164436  0.52457201  1
  C  C145  1  0.72049494  0.15262308  0.52451761  1
  C  C146  1  0.34359921  0.54899331  0.52722219  1
  C  C147  1  0.85266486  0.55468263  0.52066481  1
  C  C148  1  0.42191027  0.29617850  0.52343725  1
  C  C149  1  0.92305638  0.29862030  0.52440158  1
  C  C150  1  0.25899605  0.68559986  0.97638087  1
  C  C151  1  0.75958801  0.68798526  0.97538444  1
  C  C152  1  0.07737509  0.46524206  0.97064378  1
  C  C153  1  0.57761045  0.46755035  0.97085382  1
  C  C154  1  0.15580200  0.83305000  0.97505656  1
  C  C155  1  0.65526477  0.83142752  0.97607468  1
  C  C156  1  0.26010751  0.83127458  0.47520779  1
  C  C157  1  0.76035648  0.83306674  0.47574548  1
  C  C158  1  0.15550916  0.47958321  0.47546413  1
  C  C159  1  0.65519874  0.47478803  0.47473013  1
  C  C160  1  0.07812963  0.68817161  0.46969679  1
  C  C161  1  0.57597483  0.68982212  0.46906269  1
  C  C162  1  0.06433264  0.64388538  0.36080932  1
  C  C163  1  0.55692950  0.63864926  0.36068709  1
  C  C164  1  0.24689247  0.85304243  0.35864022  1
  C  C165  1  0.75550508  0.88089335  0.35814414  1
  C  C166  1  0.17796620  0.50167332  0.35749520  1
  C  C167  1  0.67642088  0.48429394  0.35573755  1
  C  C168  1  0.05815125  0.47831765  0.86260745  1
  C  C169  1  0.56058023  0.48200348  0.86225398  1
  C  C170  1  0.17819885  0.86872572  0.85688904  1
  C  C171  1  0.67824651  0.85456743  0.85814212  1
  C  C172  1  0.25424954  0.63009781  0.85921001  1
  C  C173  1  0.74614666  0.63908273  0.85919098  1
  C  C174  1  0.01797306  0.82237114  0.41371414  1
  C  C175  1  0.51310312  0.82177951  0.41365758  1
  C  C176  1  0.40252793  0.96666184  0.41299318  1
  C  C177  1  0.90556199  0.96608861  0.41775947  1
  C  C178  1  0.08426932  0.19139898  0.41638611  1
  C  C179  1  0.58018383  0.18522836  0.41598135  1
  C  C180  1  0.01522220  0.20799166  0.91548933  1
  C  C181  1  0.51680630  0.21125235  0.91541091  1
  C  C182  1  0.08144348  0.97641265  0.91722653  1
  C  C183  1  0.58422703  0.97688298  0.91716391  1
  C  C184  1  0.40515623  0.84546296  0.91929982  1
  C  C185  1  0.90291000  0.83897682  0.91415203  1
  C  C186  1  0.49127926  0.15913842  0.58931675  1
  C  C187  1  0.99146654  0.17017318  0.59143450  1
  C  C188  1  0.08819551  0.01549205  0.59326265  1
  C  C189  1  0.58907171  0.01949259  0.59323757  1
  C  C190  1  0.40804773  0.80383631  0.58658103  1
  C  C191  1  0.91650432  0.82249210  0.59369492  1
  C  C192  1  0.48921004  0.81448525  0.09180344  1
  C  C193  1  0.99225025  0.82376617  0.08856558  1
  C  C194  1  0.40839509  0.01630396  0.08993780  1
  C  C195  1  0.90831576  0.01252145  0.08668763  1
  C  C196  1  0.08983979  0.16092968  0.09266276  1
  C  C197  1  0.58499447  0.16023816  0.09398897  1
  C  C198  1  0.34445674  0.16731891  0.74669901  1
  C  C199  1  0.84472289  0.17588091  0.74317013  1
  C  C200  1  0.23986953  0.31968436  0.74235823  1
  C  C201  1  0.74342967  0.31151179  0.74084997  1
  C  C202  1  0.41654432  0.52204561  0.74327862  1
  C  C203  1  0.92183875  0.53132667  0.74455753  1
  C  C204  1  0.34455947  0.51783907  0.24137524  1
  C  C205  1  0.84423355  0.52165752  0.24575947  1
  C  C206  1  0.42051562  0.30941097  0.24258170  1
  C  C207  1  0.91622709  0.31022241  0.24272971  1
  C  C208  1  0.24510193  0.17293834  0.23650623  1
  C  C209  1  0.74058877  0.16006760  0.24214290  1
  C  C210  1  0.32524559  0.50131874  0.92225695  1
  C  C211  1  0.81926739  0.49701338  0.91865610  1
  C  C212  1  0.43731921  0.35889361  0.92455118  1
  C  C213  1  0.93565754  0.35556056  0.92507132  1
  C  C214  1  0.25504657  0.14354297  0.92220946  1
  C  C215  1  0.75632671  0.13913049  0.92018432  1
  C  C216  1  0.31903569  0.14158808  0.41774627  1
  C  C217  1  0.82609324  0.15182801  0.42167291  1
  C  C218  1  0.25631166  0.37393331  0.41893749  1
  C  C219  1  0.75330053  0.36049089  0.41907813  1
  C  C220  1  0.43432022  0.51475334  0.42313126  1
  C  C221  1  0.93952788  0.51349682  0.42085907  1
  C  C222  1  0.18094143  0.51424338  0.07811324  1
  C  C223  1  0.67531682  0.50837972  0.07349649  1
  C  C224  1  0.08145050  0.66210497  0.07428218  1
  C  C225  1  0.57941768  0.65876942  0.07926471  1
  C  C226  1  0.25529626  0.87074506  0.08028696  1
  C  C227  1  0.75475882  0.86316166  0.07786485  1
  C  C228  1  0.17618374  0.84331530  0.57290462  1
  C  C229  1  0.67887155  0.84747438  0.57745316  1
  C  C230  1  0.25439361  0.64524688  0.57800818  1
  C  C231  1  0.75032336  0.64205727  0.57979674  1
  C  C232  1  0.07917818  0.50352099  0.57789261  1
  C  C233  1  0.57975561  0.49863870  0.57433120  1
  C  C234  1  0.15278783  0.82288130  0.25635189  1
  C  C235  1  0.64579172  0.81600551  0.25026904  1
  C  C236  1  0.25950860  0.68189049  0.25324530  1
  C  C237  1  0.76093875  0.69444380  0.24919176  1
  C  C238  1  0.08690667  0.48445335  0.25570042  1
  C  C239  1  0.57342130  0.45928556  0.25192538  1
  C  C240  1  0.14575913  0.47411493  0.75089100  1
  C  C241  1  0.65242480  0.48266207  0.75737284  1
  C  C242  1  0.07474462  0.68739706  0.75363043  1
  C  C243  1  0.58736312  0.69021146  0.75638487  1
  C  C244  1  0.26090639  0.82760268  0.74938235  1
  C  C245  1  0.76062363  0.83827303  0.75422183  1
