# generated using pymatgen
data_Cu7Ni5C62
_symmetry_space_group_name_H-M   'P 1'
_cell_length_a   17.18843196
_cell_length_b   8.64493584
_cell_length_c   22.13255401
_cell_angle_alpha   89.99640137
_cell_angle_beta   90.31849158
_cell_angle_gamma   120.23517007
_symmetry_Int_Tables_number   1
_chemical_formula_structural   Cu7Ni5C62
_chemical_formula_sum   'Cu21 Ni15 C186'
_cell_volume   2841.30113106
_cell_formula_units_Z   3
loop_
 _symmetry_equiv_pos_site_id
 _symmetry_equiv_pos_as_xyz
  1  'x, y, z'
loop_
 _atom_site_type_symbol
 _atom_site_label
 _atom_site_symmetry_multiplicity
 _atom_site_fract_x
 _atom_site_fract_y
 _atom_site_fract_z
 _atom_site_occupancy
  C  C0  1  0.98882344  0.67461944  0.91143180  1
  C  C1  1  0.34757040  0.03095132  0.91508896  1
  C  C2  1  0.16892474  0.30432933  0.91319068  1
  C  C3  1  0.48853984  0.30460836  0.41948237  1
  C  C4  1  0.66828717  0.03184162  0.41653922  1
  C  C5  1  0.84590142  0.66280512  0.41799505  1
  C  C6  1  0.99943493  0.00369849  0.49500568  1
  C  C7  1  0.49628227  0.99375546  0.49864150  1
  C  C8  1  0.99697119  0.00443642  0.99627736  1
  C  C9  1  0.49916603  0.99499003  0.99320107  1
  C  C10  1  0.33739133  0.34261876  0.83501203  1
  C  C11  1  0.82999728  0.32544388  0.82453340  1
  C  C12  1  0.33128385  0.33667751  0.32768347  1
  C  C13  1  0.83587714  0.32957534  0.33930551  1
  C  C14  1  0.17233497  0.67472742  0.16553072  1
  C  C15  1  0.66476504  0.66703120  0.16823575  1
  C  C16  1  0.16725848  0.66409462  0.66723656  1
  C  C17  1  0.66428287  0.66025778  0.66092917  1
  C  C18  1  0.99789706  0.98863471  0.64925160  1
  C  C19  1  0.49841597  0.01221986  0.63933572  1
  C  C20  1  0.99829967  0.99497209  0.14343484  1
  C  C21  1  0.49721145  0.00640254  0.14929290  1
  C  C22  1  0.16484767  0.67236623  0.31158761  1
  C  C23  1  0.66264334  0.65495297  0.80891511  1
  C  C24  1  0.00530989  0.99448125  0.36117310  1
  C  C25  1  0.49825255  0.00945114  0.34928457  1
  C  C26  1  0.00094698  0.98894872  0.84626039  1
  C  C27  1  0.50328158  0.01448783  0.85777750  1
  C  C28  1  0.33818971  0.34887594  0.67769665  1
  C  C29  1  0.83413295  0.33392319  0.69533081  1
  C  C30  1  0.33545426  0.33494363  0.19684377  1
  C  C31  1  0.82762828  0.31596324  0.18286408  1
  C  C32  1  0.33816612  0.34664004  0.97110715  1
  C  C33  1  0.83065554  0.31597415  0.98236435  1
  C  C34  1  0.33690716  0.34620485  0.48759913  1
  C  C35  1  0.83623914  0.32611487  0.47270091  1
  C  C36  1  0.17320964  0.68435727  0.00973602  1
  C  C37  1  0.66601447  0.67111873  0.02026204  1
  C  C38  1  0.16585153  0.66286425  0.52162274  1
  C  C39  1  0.66592739  0.64854593  0.51524534  1
  C  C40  1  0.66809749  0.65395123  0.31904790  1
  C  C41  1  0.17338096  0.68923399  0.81527383  1
  Ni  Ni42  1  0.14342621  0.01168133  0.25333200  1
  Ni  Ni43  1  0.35857756  0.70692676  0.25463122  1
  Ni  Ni44  1  0.50499641  0.30825671  0.25523078  1
  Ni  Ni45  1  0.64353511  0.27167126  0.75296125  1
  Ni  Ni46  1  0.00444595  0.69998914  0.75444930  1
  Ni  Ni47  1  0.85970117  0.01138108  0.75460104  1
  Ni  Ni48  1  0.48055590  0.35702628  0.57999260  1
  Ni  Ni49  1  0.32384989  0.60925529  0.58232663  1
  Ni  Ni50  1  0.82472654  0.03979366  0.08160091  1
  Ni  Ni51  1  0.31194726  0.67062913  0.91366321  1
  Ni  Ni52  1  0.52512576  0.37921777  0.92270087  1
  Ni  Ni53  1  0.16375352  0.95715121  0.91780772  1
  Ni  Ni54  1  0.80937714  0.94741308  0.41544377  1
  Ni  Ni55  1  0.66418017  0.36959138  0.41666194  1
  Ni  Ni56  1  0.02400262  0.66781313  0.42299809  1
  Cu  Cu57  1  0.64905292  0.00449258  0.25096338  1
  Cu  Cu58  1  0.85370929  0.70075898  0.25012700  1
  Cu  Cu59  1  0.99399686  0.28272692  0.25085653  1
  Cu  Cu60  1  0.14970927  0.29420541  0.75140126  1
  Cu  Cu61  1  0.49362735  0.70888520  0.75094699  1
  Cu  Cu62  1  0.35424231  0.00459917  0.75060057  1
  Cu  Cu63  1  0.97521038  0.33726360  0.58269709  1
  Cu  Cu64  1  0.19264386  0.04764994  0.58245868  1
  Cu  Cu65  1  0.69580131  0.04917293  0.58292672  1
  Cu  Cu66  1  0.83087852  0.61116454  0.58258561  1
  Cu  Cu67  1  0.47511672  0.61294185  0.08265608  1
  Cu  Cu68  1  0.97689748  0.61022619  0.08257192  1
  Cu  Cu69  1  0.32888548  0.04649082  0.08226659  1
  Cu  Cu70  1  0.19379211  0.34432923  0.08253490  1
  Cu  Cu71  1  0.69332954  0.33849242  0.08228918  1
  Cu  Cu72  1  0.81077836  0.66277024  0.92052803  1
  Cu  Cu73  1  0.01970418  0.37772801  0.91829637  1
  Cu  Cu74  1  0.66844860  0.95989685  0.91861765  1
  Cu  Cu75  1  0.31097494  0.95867425  0.42001461  1
  Cu  Cu76  1  0.16922742  0.37658722  0.41887063  1
  Cu  Cu77  1  0.51933859  0.66449433  0.41630237  1
  C  C78  1  0.09208872  0.03511788  0.30891228  1
  C  C79  1  0.60828661  0.03289234  0.30483153  1
  C  C80  1  0.42149047  0.80899839  0.31087954  1
  C  C81  1  0.90986781  0.78072555  0.30338170  1
  C  C82  1  0.48598220  0.17696275  0.31166044  1
  C  C83  1  0.98060023  0.17703317  0.30421324  1
  C  C84  1  0.10705338  0.18328048  0.80603195  1
  C  C85  1  0.59492510  0.15271508  0.81068571  1
  C  C86  1  0.48317376  0.79007194  0.80580306  1
  C  C87  1  0.98581805  0.79133577  0.81231117  1
  C  C88  1  0.40994045  0.03394665  0.80510998  1
  C  C89  1  0.92225743  0.03536915  0.81168484  1
  C  C90  1  0.39592550  0.97380959  0.69557960  1
  C  C91  1  0.90226650  0.96721283  0.69311909  1
  C  C92  1  0.09029667  0.20487011  0.69601476  1
  C  C93  1  0.58053582  0.19206915  0.69266828  1
  C  C94  1  0.02153915  0.83819432  0.69415447  1
  C  C95  1  0.50958806  0.81626676  0.69630246  1
  C  C96  1  0.40184519  0.83657818  0.19281024  1
  C  C97  1  0.89747263  0.81831260  0.19415214  1
  C  C98  1  0.00904643  0.20089080  0.19509063  1
  C  C99  1  0.52157800  0.20526929  0.19343815  1
  C  C100  1  0.08040222  0.96660258  0.19154724  1
  C  C101  1  0.59104521  0.97737490  0.19489553  1
  C  C102  1  0.43241497  0.36520062  0.64132410  1
  C  C103  1  0.93465800  0.36009205  0.63732092  1
  C  C104  1  0.24442529  0.12922812  0.63824939  1
  C  C105  1  0.74893609  0.13687990  0.63731601  1
  C  C106  1  0.30908904  0.49416361  0.64294536  1
  C  C107  1  0.82232897  0.50905654  0.63709525  1
  C  C108  1  0.43410963  0.50822897  0.13719279  1
  C  C109  1  0.93227385  0.50822245  0.13738656  1
  C  C110  1  0.31974760  0.12997877  0.13696673  1
  C  C111  1  0.81523621  0.13254440  0.14225929  1
  C  C112  1  0.24674434  0.36566524  0.13693644  1
  C  C113  1  0.74647080  0.36175702  0.13796662  1
  C  C114  1  0.22884985  0.30684075  0.02760209  1
  C  C115  1  0.73510733  0.31281365  0.02806439  1
  C  C116  1  0.41880249  0.53386374  0.02840184  1
  C  C117  1  0.92214151  0.53724327  0.02686461  1
  C  C118  1  0.34436350  0.15200726  0.02738991  1
  C  C119  1  0.84976046  0.16900257  0.02399686  1
  C  C120  1  0.23195346  0.15583023  0.52777221  1
  C  C121  1  0.73151174  0.15873806  0.52773713  1
  C  C122  1  0.34668162  0.53287956  0.52308311  1
  C  C123  1  0.84639879  0.53701374  0.52736958  1
  C  C124  1  0.41871809  0.30282417  0.51913205  1
  C  C125  1  0.91925206  0.30342748  0.52837590  1
  C  C126  1  0.27014707  0.71432372  0.97405975  1
  C  C127  1  0.76961263  0.69189589  0.97388511  1
  C  C128  1  0.07755152  0.45945723  0.97333495  1
  C  C129  1  0.59059980  0.48106336  0.97871890  1
  C  C130  1  0.13590497  0.82092125  0.97573049  1
  C  C131  1  0.65683450  0.85047124  0.97241105  1
  C  C132  1  0.26954503  0.84696805  0.47267442  1
  C  C133  1  0.76409416  0.81737590  0.47439564  1
  C  C134  1  0.15590813  0.46277889  0.47158514  1
  C  C135  1  0.63727405  0.45065609  0.47339625  1
  C  C136  1  0.09112982  0.69850297  0.47761275  1
  C  C137  1  0.57634134  0.69951715  0.47064077  1
  C  C138  1  0.06854384  0.63058120  0.36118972  1
  C  C139  1  0.55907449  0.63031740  0.36206821  1
  C  C140  1  0.25601617  0.87277971  0.36321426  1
  C  C141  1  0.74237211  0.86166460  0.35649252  1
  C  C142  1  0.18536293  0.48822876  0.36287206  1
  C  C143  1  0.68821643  0.49955688  0.35858601  1
  C  C144  1  0.05793747  0.48854419  0.86426124  1
  C  C145  1  0.57004839  0.50758728  0.86224806  1
  C  C146  1  0.18683452  0.87126067  0.86087298  1
  C  C147  1  0.68659820  0.88411904  0.86378005  1
  C  C148  1  0.24168428  0.62168726  0.85728460  1
  C  C149  1  0.75620965  0.63191013  0.86468100  1
  C  C150  1  0.01348904  0.84181919  0.41196553  1
  C  C151  1  0.51104537  0.82638453  0.40932178  1
  C  C152  1  0.40099571  0.97823961  0.41257962  1
  C  C153  1  0.90933380  0.97070287  0.40383710  1
  C  C154  1  0.08585345  0.20188868  0.41091176  1
  C  C155  1  0.57655329  0.16411100  0.40727989  1
  C  C156  1  0.00992908  0.19896039  0.91291776  1
  C  C157  1  0.51305440  0.18286487  0.91177804  1
  C  C158  1  0.07655739  0.98869316  0.90796318  1
  C  C159  1  0.58650060  0.97115361  0.91191202  1
  C  C160  1  0.41077102  0.84677272  0.90344876  1
  C  C161  1  0.90123572  0.82260538  0.91381789  1
  C  C162  1  0.48965181  0.17027025  0.58702601  1
  C  C163  1  0.98782401  0.17468625  0.58862470  1
  C  C164  1  0.10053882  0.03280301  0.58725726  1
  C  C165  1  0.60120191  0.02447840  0.58914386  1
  C  C166  1  0.41630300  0.80997588  0.59236594  1
  C  C167  1  0.91647171  0.80053672  0.58790218  1
  C  C168  1  0.48776512  0.80066138  0.08849838  1
  C  C169  1  0.98626524  0.79604373  0.08752527  1
  C  C170  1  0.41343018  0.02638262  0.08760707  1
  C  C171  1  0.91631384  0.01751018  0.09087831  1
  C  C172  1  0.09861264  0.17606833  0.08964797  1
  C  C173  1  0.60255709  0.16908109  0.08694555  1
  C  C174  1  0.34359184  0.16239395  0.74209119  1
  C  C175  1  0.84706811  0.17617230  0.74067737  1
  C  C176  1  0.23672310  0.30202074  0.74362837  1
  C  C177  1  0.74207002  0.30842752  0.74111903  1
  C  C178  1  0.41586665  0.52486270  0.74468263  1
  C  C179  1  0.91504164  0.51805798  0.73904225  1
  C  C180  1  0.34672240  0.51738168  0.24051890  1
  C  C181  1  0.84616646  0.52373760  0.23818839  1
  C  C182  1  0.41542612  0.31070418  0.23908768  1
  C  C183  1  0.91727899  0.31281555  0.24121714  1
  C  C184  1  0.24108262  0.17428676  0.24017717  1
  C  C185  1  0.73749567  0.17331082  0.24238630  1
  C  C186  1  0.31892377  0.49257757  0.92494504  1
  C  C187  1  0.82262638  0.50227819  0.92708646  1
  C  C188  1  0.42484646  0.35039956  0.92697897  1
  C  C189  1  0.92905607  0.36527423  0.92572530  1
  C  C190  1  0.25171839  0.15240058  0.92955033  1
  C  C191  1  0.74858974  0.14521119  0.92505209  1
  C  C192  1  0.31881555  0.13708103  0.42236261  1
  C  C193  1  0.81892873  0.14262090  0.42559057  1
  C  C194  1  0.24824173  0.35186675  0.42458754  1
  C  C195  1  0.75217133  0.34918296  0.42778928  1
  C  C196  1  0.42835051  0.49911978  0.42180966  1
  C  C197  1  0.92402837  0.49646295  0.42724801  1
  C  C198  1  0.17819016  0.49722264  0.07617388  1
  C  C199  1  0.68162846  0.49426582  0.07813423  1
  C  C200  1  0.06672699  0.63171593  0.07851811  1
  C  C201  1  0.56635123  0.63739295  0.07646124  1
  C  C202  1  0.24973146  0.86177656  0.07731108  1
  C  C203  1  0.74085504  0.83792809  0.07329826  1
  C  C204  1  0.17979410  0.86716844  0.57762748  1
  C  C205  1  0.68410706  0.87055303  0.57658172  1
  C  C206  1  0.24054006  0.64611116  0.57349498  1
  C  C207  1  0.75398520  0.64027084  0.57801509  1
  C  C208  1  0.06624597  0.49552983  0.57635656  1
  C  C209  1  0.58095950  0.52781369  0.57424089  1
  C  C210  1  0.15103151  0.82651545  0.25799944  1
  C  C211  1  0.65774610  0.84653029  0.25378119  1
  C  C212  1  0.25848291  0.68752321  0.25877432  1
  C  C213  1  0.76643047  0.69032907  0.25300723  1
  C  C214  1  0.07891326  0.46194073  0.25388199  1
  C  C215  1  0.59391849  0.50411674  0.25976241  1
  C  C216  1  0.15609088  0.46827891  0.75526300  1
  C  C217  1  0.65165329  0.47353888  0.75846648  1
  C  C218  1  0.09387913  0.68431725  0.75998273  1
  C  C219  1  0.57872410  0.69522648  0.75594803  1
  C  C220  1  0.26633754  0.83770348  0.75523586  1
  C  C221  1  0.76013155  0.82988125  0.76072272  1
