# generated using pymatgen
data_Cu2NiC4
_symmetry_space_group_name_H-M   'P 1'
_cell_length_a   5.80529191
_cell_length_b   6.26442415
_cell_length_c   5.80528999
_cell_angle_alpha   62.35499022
_cell_angle_beta   90.07962347
_cell_angle_gamma   117.64500938
_symmetry_Int_Tables_number   1
_chemical_formula_structural   Cu2NiC4
_chemical_formula_sum   'Cu4 Ni2 C8'
_cell_volume   159.39469639
_cell_formula_units_Z   2
loop_
 _symmetry_equiv_pos_site_id
 _symmetry_equiv_pos_as_xyz
  1  'x, y, z'
loop_
 _atom_site_type_symbol
 _atom_site_label
 _atom_site_symmetry_multiplicity
 _atom_site_fract_x
 _atom_site_fract_y
 _atom_site_fract_z
 _atom_site_occupancy
  Ni  Ni0  1  0.62500000  0.75000000  0.62500000  1
  Ni  Ni1  1  0.37500000  0.25000000  0.37500000  1
  Cu  Cu2  1  0.00000000  0.50000000  0.00000000  1
  Cu  Cu3  1  0.00000000  0.00000000  0.00000000  1
  Cu  Cu4  1  0.00000000  0.50000000  0.50000000  1
  Cu  Cu5  1  0.50000100  0.00000100  0.00000000  1
  C  C6  1  0.77735400  0.50769100  0.24624800  1
  C  C7  1  0.24624800  0.99230800  0.77735500  1
  C  C8  1  0.24605700  0.99230800  0.23033700  1
  C  C9  1  0.22264600  0.49230800  0.75375200  1
  C  C10  1  0.76966300  0.49230800  0.75394300  1
  C  C11  1  0.75375200  0.00769100  0.22264600  1
  C  C12  1  0.23033700  0.50769100  0.24605800  1
  C  C13  1  0.75394300  0.00769100  0.76966300  1
