# generated using pymatgen
data_Cu2NiC23
_symmetry_space_group_name_H-M   'P 1'
_cell_length_a   7.34915100
_cell_length_b   7.34915172
_cell_length_c   12.57245800
_cell_angle_alpha   90.00000000
_cell_angle_beta   90.00000000
_cell_angle_gamma   120.00000128
_symmetry_Int_Tables_number   1
_chemical_formula_structural   Cu2NiC23
_chemical_formula_sum   'Cu4 Ni2 C46'
_cell_volume   588.06482557
_cell_formula_units_Z   2
loop_
 _symmetry_equiv_pos_site_id
 _symmetry_equiv_pos_as_xyz
  1  'x, y, z'
loop_
 _atom_site_type_symbol
 _atom_site_label
 _atom_site_symmetry_multiplicity
 _atom_site_fract_x
 _atom_site_fract_y
 _atom_site_fract_z
 _atom_site_occupancy
  C  C0  1  0.66666700  0.33333300  0.15170300  1
  C  C1  1  0.25482400  0.51168000  0.14918400  1
  C  C2  1  0.74314400  0.25482400  0.64918400  1
  C  C3  1  0.51168000  0.25685600  0.64918400  1
  C  C4  1  0.33333400  0.66666700  0.65170200  1
  C  C5  1  0.66666700  0.33333300  0.53992300  1
  C  C6  1  0.33333400  0.66666700  0.03992400  1
  C  C7  1  0.40321300  0.81951800  0.76256900  1
  C  C8  1  0.58369400  0.40321200  0.26256900  1
  C  C9  1  0.48832000  0.74314400  0.14918400  1
  C  C10  1  0.18048300  0.58369400  0.76256900  1
  C  C11  1  0.41630500  0.59678700  0.76256900  1
  C  C12  1  0.59678800  0.18048200  0.26256900  1
  C  C13  1  0.74517600  0.48832000  0.64918400  1
  C  C14  1  0.25685600  0.74517600  0.14918400  1
  C  C15  1  0.81951800  0.41630500  0.26256900  1
  C  C16  1  0.83272000  0.66110700  0.89431900  1
  C  C17  1  0.82838700  0.16727900  0.89431900  1
  C  C18  1  0.66110800  0.82838700  0.39431900  1
  C  C19  1  0.16728000  0.33889200  0.39431900  1
  C  C20  1  0.33889200  0.17161300  0.89431900  1
  C  C21  1  0.17161300  0.83272000  0.39431900  1
  Ni  Ni22  1  0.00000000  0.00000000  0.66503500  1
  Ni  Ni23  1  0.00000000  0.00000000  0.16503500  1
  Cu  Cu24  1  0.66666700  0.33333300  0.23419200  1
  Cu  Cu25  1  0.33333400  0.66666700  0.73419200  1
  Cu  Cu26  1  0.66666700  0.33333300  0.62144800  1
  Cu  Cu27  1  0.33333400  0.66666700  0.12144800  1
  C  C28  1  0.20495200  0.80015100  0.53036400  1
  C  C29  1  0.79504800  0.19984900  0.03036400  1
  C  C30  1  0.80015100  0.59519900  0.03036400  1
  C  C31  1  0.59519800  0.79504800  0.53036400  1
  C  C32  1  0.54114900  0.08456400  0.84847000  1
  C  C33  1  0.45658500  0.54114900  0.34847000  1
  C  C34  1  0.19984900  0.40480100  0.53036400  1
  C  C35  1  0.91543600  0.45658500  0.84847000  1
  C  C36  1  0.54341600  0.45885100  0.84847000  1
  C  C37  1  0.45885100  0.91543500  0.34847000  1
  C  C38  1  0.24914900  0.12752700  0.72386500  1
  C  C39  1  0.12162100  0.24914900  0.22386500  1
  C  C40  1  0.12752700  0.87837900  0.22386500  1
  C  C41  1  0.87247200  0.12162100  0.72386500  1
  C  C42  1  0.87837800  0.75085100  0.72386500  1
  C  C43  1  0.75085100  0.87247300  0.22386500  1
  C  C44  1  0.08456400  0.54341500  0.34847000  1
  C  C45  1  0.87459400  0.12317800  0.40466200  1
  C  C46  1  0.75141500  0.87459300  0.90466200  1
  C  C47  1  0.12317800  0.24858500  0.90466200  1
  C  C48  1  0.87682100  0.75141400  0.40466200  1
  C  C49  1  0.24858500  0.12540600  0.40466200  1
  C  C50  1  0.12540700  0.87682100  0.90466200  1
  C  C51  1  0.40480100  0.20495200  0.03036400  1
