# generated using pymatgen
data_Cu8NiC5
_symmetry_space_group_name_H-M   'P 1'
_cell_length_a   6.32324500
_cell_length_b   7.07480800
_cell_length_c   18.16531800
_cell_angle_alpha   90.00000000
_cell_angle_beta   90.00000000
_cell_angle_gamma   90.00000000
_symmetry_Int_Tables_number   1
_chemical_formula_structural   Cu8NiC5
_chemical_formula_sum   'Cu32 Ni4 C20'
_cell_volume   812.63902139
_cell_formula_units_Z   4
loop_
 _symmetry_equiv_pos_site_id
 _symmetry_equiv_pos_as_xyz
  1  'x, y, z'
loop_
 _atom_site_type_symbol
 _atom_site_label
 _atom_site_symmetry_multiplicity
 _atom_site_fract_x
 _atom_site_fract_y
 _atom_site_fract_z
 _atom_site_occupancy
  C  C0  1  0.87311400  0.47718200  0.40939100  1
  C  C1  1  0.37311400  0.02281800  0.59060900  1
  C  C2  1  0.62688600  0.97718200  0.09060900  1
  C  C3  1  0.12688600  0.52281800  0.90939100  1
  C  C4  1  0.12688600  0.52281800  0.59060900  1
  C  C5  1  0.62688600  0.97718200  0.40939100  1
  C  C6  1  0.37311400  0.02281800  0.90939100  1
  C  C7  1  0.87311400  0.47718200  0.09060900  1
  C  C8  1  0.88467000  0.80583000  0.75000000  1
  C  C9  1  0.38467000  0.69417000  0.25000000  1
  C  C10  1  0.61533000  0.30583000  0.75000000  1
  C  C11  1  0.11533000  0.19417000  0.25000000  1
  C  C12  1  0.37889800  0.46756500  0.09993400  1
  C  C13  1  0.87889800  0.03243500  0.90006600  1
  C  C14  1  0.12110200  0.96756500  0.40006600  1
  C  C15  1  0.62110200  0.53243500  0.59993400  1
  C  C16  1  0.37889800  0.46756500  0.40006600  1
  C  C17  1  0.87889800  0.03243500  0.59993400  1
  C  C18  1  0.12110200  0.96756500  0.09993400  1
  C  C19  1  0.62110200  0.53243500  0.90006600  1
  Ni  Ni20  1  0.76199200  0.44493400  0.25000000  1
  Ni  Ni21  1  0.26199200  0.05506600  0.75000000  1
  Ni  Ni22  1  0.73800800  0.94493400  0.25000000  1
  Ni  Ni23  1  0.23800800  0.55506600  0.75000000  1
  Cu  Cu24  1  0.21393400  0.48223400  0.46891400  1
  Cu  Cu25  1  0.71393400  0.01776600  0.53108600  1
  Cu  Cu26  1  0.28606600  0.98223400  0.03108600  1
  Cu  Cu27  1  0.78606600  0.51776600  0.96891400  1
  Cu  Cu28  1  0.78606600  0.51776600  0.53108600  1
  Cu  Cu29  1  0.28606600  0.98223400  0.46891400  1
  Cu  Cu30  1  0.71393400  0.01776600  0.96891400  1
  Cu  Cu31  1  0.21393400  0.48223400  0.03108600  1
  Cu  Cu32  1  0.22527600  0.45477600  0.32506800  1
  Cu  Cu33  1  0.72527600  0.04522400  0.67493200  1
  Cu  Cu34  1  0.27472400  0.95477600  0.17493200  1
  Cu  Cu35  1  0.77472400  0.54522400  0.82506800  1
  Cu  Cu36  1  0.77472400  0.54522400  0.67493200  1
  Cu  Cu37  1  0.27472400  0.95477600  0.32506800  1
  Cu  Cu38  1  0.72527600  0.04522400  0.82506800  1
  Cu  Cu39  1  0.22527600  0.45477600  0.17493200  1
  Cu  Cu40  1  0.55087800  0.29662900  0.40541400  1
  Cu  Cu41  1  0.05087800  0.20337100  0.59458600  1
  Cu  Cu42  1  0.94912200  0.79662900  0.09458600  1
  Cu  Cu43  1  0.44912200  0.70337100  0.90541400  1
  Cu  Cu44  1  0.44912200  0.70337100  0.59458600  1
  Cu  Cu45  1  0.94912200  0.79662900  0.40541400  1
  Cu  Cu46  1  0.05087800  0.20337100  0.90541400  1
  Cu  Cu47  1  0.55087800  0.29662900  0.09458600  1
  Cu  Cu48  1  0.97013300  0.15454000  0.11856200  1
  Cu  Cu49  1  0.47013300  0.34546000  0.88143800  1
  Cu  Cu50  1  0.52986700  0.65454000  0.38143800  1
  Cu  Cu51  1  0.02986700  0.84546000  0.61856200  1
  Cu  Cu52  1  0.02986700  0.84546000  0.88143800  1
  Cu  Cu53  1  0.52986700  0.65454000  0.11856200  1
  Cu  Cu54  1  0.47013300  0.34546000  0.61856200  1
  Cu  Cu55  1  0.97013300  0.15454000  0.38143800  1
