# generated using pymatgen
data_Cu3NiC16
_symmetry_space_group_name_H-M   'P 1'
_cell_length_a   3.89986618
_cell_length_b   3.89986428
_cell_length_c   18.38251938
_cell_angle_alpha   96.17055960
_cell_angle_beta   96.17090148
_cell_angle_gamma   89.99189794
_symmetry_Int_Tables_number   1
_chemical_formula_structural   Cu3NiC16
_chemical_formula_sum   'Cu3 Ni1 C16'
_cell_volume   276.33000403
_cell_formula_units_Z   1
loop_
 _symmetry_equiv_pos_site_id
 _symmetry_equiv_pos_as_xyz
  1  'x, y, z'
loop_
 _atom_site_type_symbol
 _atom_site_label
 _atom_site_symmetry_multiplicity
 _atom_site_fract_x
 _atom_site_fract_y
 _atom_site_fract_z
 _atom_site_occupancy
  C  C0  1  0.08435500  0.08435800  0.17205400  1
  C  C1  1  0.91567700  0.91567700  0.82802300  1
  Ni  Ni2  1  0.00001000  0.00000800  0.00002100  1
  Cu  Cu3  1  0.36366500  0.36366200  0.72614900  1
  Cu  Cu4  1  0.49999800  0.49999700  0.99999600  1
  Cu  Cu5  1  0.63629600  0.63629500  0.27374600  1
  C  C6  1  0.21553300  0.21553100  0.43191300  1
  C  C7  1  0.78443900  0.78443400  0.56806800  1
  C  C8  1  0.68495000  0.68495200  0.37029700  1
  C  C9  1  0.12078500  0.62058100  0.24283100  1
  C  C10  1  0.24999200  0.74999300  0.49998400  1
  C  C11  1  0.74999500  0.24999100  0.49998400  1
  C  C12  1  0.00000200  0.50000000  0.00000100  1
  C  C13  1  0.62058000  0.12078500  0.24283100  1
  C  C14  1  0.87923200  0.37944500  0.75720600  1
  C  C15  1  0.37944200  0.87923500  0.75720600  1
  C  C16  1  0.31502900  0.31503000  0.62965400  1
  C  C17  1  0.55756300  0.55756100  0.11397200  1
  C  C18  1  0.44246200  0.44246500  0.88606500  1
  C  C19  1  0.50000000  0.00000100  0.00000100  1
