# generated using pymatgen
data_Cu2Ni5C3
_symmetry_space_group_name_H-M   'P 1'
_cell_length_a   6.78745900
_cell_length_b   8.19295200
_cell_length_c   14.85800600
_cell_angle_alpha   90.00000000
_cell_angle_beta   90.00000000
_cell_angle_gamma   90.00000000
_symmetry_Int_Tables_number   1
_chemical_formula_structural   Cu2Ni5C3
_chemical_formula_sum   'Cu8 Ni20 C12'
_cell_volume   826.24369623
_cell_formula_units_Z   4
loop_
 _symmetry_equiv_pos_site_id
 _symmetry_equiv_pos_as_xyz
  1  'x, y, z'
loop_
 _atom_site_type_symbol
 _atom_site_label
 _atom_site_symmetry_multiplicity
 _atom_site_fract_x
 _atom_site_fract_y
 _atom_site_fract_z
 _atom_site_occupancy
  C  C0  1  0.71104500  0.73970000  0.26027000  1
  C  C1  1  0.71104500  0.26030000  0.73973000  1
  C  C2  1  0.78895500  0.23970000  0.23973000  1
  C  C3  1  0.78895500  0.76030000  0.76027000  1
  C  C4  1  0.28895500  0.26030000  0.73973000  1
  C  C5  1  0.28895500  0.73970000  0.26027000  1
  C  C6  1  0.21104500  0.76030000  0.76027000  1
  C  C7  1  0.21104500  0.23970000  0.23973000  1
  C  C8  1  0.50000000  0.47305500  0.63562200  1
  C  C9  1  0.50000000  0.52694500  0.36437800  1
  C  C10  1  0.00000000  0.97305500  0.86437800  1
  C  C11  1  0.00000000  0.02694500  0.13562200  1
  Ni  Ni12  1  0.50000000  0.17394800  0.61314100  1
  Ni  Ni13  1  0.50000000  0.82605200  0.38685900  1
  Ni  Ni14  1  0.00000000  0.67394800  0.88685900  1
  Ni  Ni15  1  0.00000000  0.32605200  0.11314100  1
  Ni  Ni16  1  0.23697700  0.00000000  0.00000000  1
  Ni  Ni17  1  0.26302300  0.50000000  0.50000000  1
  Ni  Ni18  1  0.76302300  0.00000000  0.00000000  1
  Ni  Ni19  1  0.73697700  0.50000000  0.50000000  1
  Ni  Ni20  1  0.00000000  0.20966600  0.37114400  1
  Ni  Ni21  1  0.00000000  0.79033400  0.62885600  1
  Ni  Ni22  1  0.50000000  0.70966600  0.12885600  1
  Ni  Ni23  1  0.50000000  0.29033400  0.87114400  1
  Ni  Ni24  1  0.50000000  0.20668800  0.35697700  1
  Ni  Ni25  1  0.50000000  0.79331200  0.64302300  1
  Ni  Ni26  1  0.00000000  0.70668800  0.14302300  1
  Ni  Ni27  1  0.00000000  0.29331200  0.85697700  1
  Ni  Ni28  1  0.50000000  0.27417200  0.13113100  1
  Ni  Ni29  1  0.50000000  0.72582800  0.86886900  1
  Ni  Ni30  1  0.00000000  0.77417200  0.36886900  1
  Ni  Ni31  1  0.00000000  0.22582800  0.63113100  1
  Cu  Cu32  1  0.72113100  0.49078600  0.27402500  1
  Cu  Cu33  1  0.72113100  0.50921400  0.72597500  1
  Cu  Cu34  1  0.77886900  0.99078600  0.22597500  1
  Cu  Cu35  1  0.77886900  0.00921400  0.77402500  1
  Cu  Cu36  1  0.27886900  0.50921400  0.72597500  1
  Cu  Cu37  1  0.27886900  0.49078600  0.27402500  1
  Cu  Cu38  1  0.22113100  0.00921400  0.77402500  1
  Cu  Cu39  1  0.22113100  0.99078600  0.22597500  1
