# generated using pymatgen
data_Cu4Ni8C7
_symmetry_space_group_name_H-M   'P 1'
_cell_length_a   5.11682027
_cell_length_b   14.16967522
_cell_length_c   3.04501144
_cell_angle_alpha   89.79239583
_cell_angle_beta   89.75416213
_cell_angle_gamma   92.05231678
_symmetry_Int_Tables_number   1
_chemical_formula_structural   Cu4Ni8C7
_chemical_formula_sum   'Cu4 Ni8 C7'
_cell_volume   220.62931550
_cell_formula_units_Z   1
loop_
 _symmetry_equiv_pos_site_id
 _symmetry_equiv_pos_as_xyz
  1  'x, y, z'
loop_
 _atom_site_type_symbol
 _atom_site_label
 _atom_site_symmetry_multiplicity
 _atom_site_fract_x
 _atom_site_fract_y
 _atom_site_fract_z
 _atom_site_occupancy
  C  C0  1  0.37989900  0.98786200  0.99713000  1
  C  C1  1  0.87004900  0.03426900  0.99780800  1
  C  C2  1  0.00685100  0.34406900  0.00118600  1
  C  C3  1  0.11040500  0.64575900  0.00065700  1
  C  C4  1  0.39440000  0.17761600  0.50077100  1
  C  C5  1  0.59596300  0.50586000  0.50114500  1
  C  C6  1  0.56256300  0.80473400  0.49911200  1
  Ni  Ni7  1  0.17153800  0.28161400  0.50164600  1
  Ni  Ni8  1  0.27981000  0.58762200  0.50115500  1
  Ni  Ni9  1  0.20041000  0.11422800  0.98835100  1
  Ni  Ni10  1  0.37730600  0.74728900  0.00026700  1
  Ni  Ni11  1  0.77861800  0.56596300  0.00091800  1
  Ni  Ni12  1  0.65757100  0.89261600  0.99806800  1
  Ni  Ni13  1  0.60447000  0.06091500  0.49841300  1
  Ni  Ni14  1  0.83407600  0.40276800  0.50152000  1
  Cu  Cu15  1  0.14640500  0.94748800  0.49773500  1
  Cu  Cu16  1  0.39123100  0.43864700  0.00066700  1
  Cu  Cu17  1  0.63599900  0.22982300  0.01432500  1
  Cu  Cu18  1  0.91632600  0.72159300  0.49912100  1
