# generated using pymatgen
data_Cu(NiC3)2
_symmetry_space_group_name_H-M   'P 1'
_cell_length_a   6.20979396
_cell_length_b   6.58464962
_cell_length_c   7.63503151
_cell_angle_alpha   91.02312367
_cell_angle_beta   99.42131228
_cell_angle_gamma   118.49208358
_symmetry_Int_Tables_number   1
_chemical_formula_structural   Cu(NiC3)2
_chemical_formula_sum   'Cu1 Ni2 C6'
_cell_volume   269.01620071
_cell_formula_units_Z   1
loop_
 _symmetry_equiv_pos_site_id
 _symmetry_equiv_pos_as_xyz
  1  'x, y, z'
loop_
 _atom_site_type_symbol
 _atom_site_label
 _atom_site_symmetry_multiplicity
 _atom_site_fract_x
 _atom_site_fract_y
 _atom_site_fract_z
 _atom_site_occupancy
  C  C0  1  0.88475521  0.86796741  0.90707256  1
  C  C1  1  0.38791875  0.21642808  0.36959777  1
  Ni  Ni2  1  0.54651256  0.17960463  0.76775782  1
  Ni  Ni3  1  0.47876803  0.82370019  0.26745343  1
  Cu  Cu4  1  0.02145068  0.52597801  0.52374972  1
  C  C5  1  0.99759925  0.43764417  0.82641824  1
  C  C6  1  0.46496781  0.11468993  0.09816160  1
  C  C7  1  0.45050051  0.58525815  0.50454364  1
  C  C8  1  0.13752721  0.94872943  0.56524522  1
