# generated using pymatgen
data_CuNi4
_symmetry_space_group_name_H-M   'P 1'
_cell_length_a   6.68663363
_cell_length_b   6.68663363
_cell_length_c   6.52988400
_cell_angle_alpha   90.00000000
_cell_angle_beta   90.00000000
_cell_angle_gamma   121.23283861
_symmetry_Int_Tables_number   1
_chemical_formula_structural   CuNi4
_chemical_formula_sum   'Cu2 Ni8'
_cell_volume   249.64379691
_cell_formula_units_Z   2
loop_
 _symmetry_equiv_pos_site_id
 _symmetry_equiv_pos_as_xyz
  1  'x, y, z'
loop_
 _atom_site_type_symbol
 _atom_site_label
 _atom_site_symmetry_multiplicity
 _atom_site_fract_x
 _atom_site_fract_y
 _atom_site_fract_z
 _atom_site_occupancy
  Ni  Ni0  1  0.20283600  0.45613900  0.32892900  1
  Ni  Ni1  1  0.54386100  0.79716400  0.67107100  1
  Ni  Ni2  1  0.45613900  0.20283600  0.67107100  1
  Ni  Ni3  1  0.79716400  0.54386100  0.32892900  1
  Ni  Ni4  1  0.95613900  0.70283600  0.82892900  1
  Ni  Ni5  1  0.29716400  0.04386100  0.17107100  1
  Ni  Ni6  1  0.70283600  0.95613900  0.17107100  1
  Ni  Ni7  1  0.04386100  0.29716400  0.82892900  1
  Cu  Cu8  1  0.50000000  0.50000000  0.00000000  1
  Cu  Cu9  1  0.00000000  0.00000000  0.50000000  1
