# generated using pymatgen
data_Cu2NiC6
_symmetry_space_group_name_H-M   'P 1'
_cell_length_a   5.09741310
_cell_length_b   9.00344075
_cell_length_c   7.74391848
_cell_angle_alpha   125.54367769
_cell_angle_beta   109.21558828
_cell_angle_gamma   90.00000000
_symmetry_Int_Tables_number   1
_chemical_formula_structural   Cu2NiC6
_chemical_formula_sum   'Cu2 Ni1 C6'
_cell_volume   264.46753501
_cell_formula_units_Z   1
loop_
 _symmetry_equiv_pos_site_id
 _symmetry_equiv_pos_as_xyz
  1  'x, y, z'
loop_
 _atom_site_type_symbol
 _atom_site_label
 _atom_site_symmetry_multiplicity
 _atom_site_fract_x
 _atom_site_fract_y
 _atom_site_fract_z
 _atom_site_occupancy
  C  C0  1  0.29666475  0.43929863  0.59332950  1
  C  C1  1  0.70333525  0.84596914  0.40667050  1
  Ni  Ni2  1  0.50000000  0.22476920  1.00000000  1
  Cu  Cu3  1  0.75320194  0.96291754  0.00000000  1
  Cu  Cu4  1  0.24679806  0.96291754  0.00000000  1
  C  C5  1  0.65090600  0.14927338  0.30181101  1
  C  C6  1  0.34909400  0.84746138  0.69818900  1
  C  C7  1  0.00000000  0.17298291  0.00000000  1
  C  C8  1  1.00000000  0.77404028  1.00000000  1
