# generated using pymatgen
data_Cu2NiC4
_symmetry_space_group_name_H-M   'P 1'
_cell_length_a   4.00376400
_cell_length_b   12.06357600
_cell_length_c   14.40180700
_cell_angle_alpha   90.00000000
_cell_angle_beta   90.00000000
_cell_angle_gamma   90.00000000
_symmetry_Int_Tables_number   1
_chemical_formula_structural   Cu2NiC4
_chemical_formula_sum   'Cu8 Ni4 C16'
_cell_volume   695.60312030
_cell_formula_units_Z   4
loop_
 _symmetry_equiv_pos_site_id
 _symmetry_equiv_pos_as_xyz
  1  'x, y, z'
loop_
 _atom_site_type_symbol
 _atom_site_label
 _atom_site_symmetry_multiplicity
 _atom_site_fract_x
 _atom_site_fract_y
 _atom_site_fract_z
 _atom_site_occupancy
  Ni  Ni0  1  0.25000000  0.25792900  0.83809300  1
  Ni  Ni1  1  0.75000000  0.74207100  0.16190700  1
  Ni  Ni2  1  0.25000000  0.75792900  0.66190700  1
  Ni  Ni3  1  0.75000000  0.24207100  0.33809300  1
  Cu  Cu4  1  0.25000000  0.93223300  0.88985800  1
  Cu  Cu5  1  0.75000000  0.06776700  0.11014200  1
  Cu  Cu6  1  0.25000000  0.43223300  0.61014200  1
  Cu  Cu7  1  0.75000000  0.56776700  0.38985800  1
  Cu  Cu8  1  0.25000000  0.41938000  0.10081300  1
  Cu  Cu9  1  0.75000000  0.58062000  0.89918700  1
  Cu  Cu10  1  0.25000000  0.91938000  0.39918700  1
  Cu  Cu11  1  0.75000000  0.08062000  0.60081300  1
  C  C12  1  0.25000000  0.13018700  0.47311700  1
  C  C13  1  0.75000000  0.86981300  0.52688300  1
  C  C14  1  0.25000000  0.63018700  0.02688300  1
  C  C15  1  0.75000000  0.36981300  0.97311700  1
  C  C16  1  0.75000000  0.79260900  0.82530400  1
  C  C17  1  0.25000000  0.20739100  0.17469600  1
  C  C18  1  0.75000000  0.29260900  0.67469600  1
  C  C19  1  0.25000000  0.70739100  0.32530400  1
  C  C20  1  0.75000000  0.08586600  0.92150500  1
  C  C21  1  0.25000000  0.91413400  0.07849500  1
  C  C22  1  0.75000000  0.58586600  0.57849500  1
  C  C23  1  0.25000000  0.41413400  0.42150500  1
  C  C24  1  0.75000000  0.47765400  0.21585200  1
  C  C25  1  0.25000000  0.52234600  0.78414800  1
  C  C26  1  0.75000000  0.97765400  0.28414800  1
  C  C27  1  0.25000000  0.02234600  0.71585200  1
