# generated using pymatgen
data_Cu10Ni2C3
_symmetry_space_group_name_H-M   'P 1'
_cell_length_a   5.20436988
_cell_length_b   5.54938483
_cell_length_c   7.36105654
_cell_angle_alpha   110.90073778
_cell_angle_beta   113.35168565
_cell_angle_gamma   90.75510966
_symmetry_Int_Tables_number   1
_chemical_formula_structural   Cu10Ni2C3
_chemical_formula_sum   'Cu10 Ni2 C3'
_cell_volume   179.35216828
_cell_formula_units_Z   1
loop_
 _symmetry_equiv_pos_site_id
 _symmetry_equiv_pos_as_xyz
  1  'x, y, z'
loop_
 _atom_site_type_symbol
 _atom_site_label
 _atom_site_symmetry_multiplicity
 _atom_site_fract_x
 _atom_site_fract_y
 _atom_site_fract_z
 _atom_site_occupancy
  C  C0  1  0.50000000  0.50000000  0.50000000  1
  C  C1  1  0.50000000  0.00000000  0.50000000  1
  C  C2  1  0.00000000  0.00000000  0.00000000  1
  Ni  Ni3  1  0.85739200  0.60223300  0.22620500  1
  Ni  Ni4  1  0.14260800  0.39776700  0.77379500  1
  Cu  Cu5  1  0.66112600  0.67066100  0.33298500  1
  Cu  Cu6  1  0.80763400  0.31580100  0.11995000  1
  Cu  Cu7  1  0.33887400  0.32933900  0.66701500  1
  Cu  Cu8  1  0.19236600  0.68419900  0.88005000  1
  Cu  Cu9  1  0.83805200  0.30311700  0.59898900  1
  Cu  Cu10  1  0.19005900  0.26427400  0.92083900  1
  Cu  Cu11  1  0.16194800  0.69688300  0.40101100  1
  Cu  Cu12  1  0.80994100  0.73572600  0.07916100  1
  Cu  Cu13  1  0.32092200  0.12386000  0.27898600  1
  Cu  Cu14  1  0.67907800  0.87614000  0.72101400  1
