# generated using pymatgen
data_Cu2NiC14
_symmetry_space_group_name_H-M   'P 1'
_cell_length_a   4.06634019
_cell_length_b   4.06634019
_cell_length_c   16.10127119
_cell_angle_alpha   90.00000000
_cell_angle_beta   90.00000000
_cell_angle_gamma   90.00000000
_symmetry_Int_Tables_number   1
_chemical_formula_structural   Cu2NiC14
_chemical_formula_sum   'Cu2 Ni1 C14'
_cell_volume   266.23649219
_cell_formula_units_Z   1
loop_
 _symmetry_equiv_pos_site_id
 _symmetry_equiv_pos_as_xyz
  1  'x, y, z'
loop_
 _atom_site_type_symbol
 _atom_site_label
 _atom_site_symmetry_multiplicity
 _atom_site_fract_x
 _atom_site_fract_y
 _atom_site_fract_z
 _atom_site_occupancy
  Ni  Ni0  1  0.50000000  0.50000000  0.43307855  1
  Cu  Cu1  1  0.50000000  0.50000000  0.14761989  1
  Cu  Cu2  1  0.50000000  0.50000000  0.88859029  1
  C  C3  1  0.50000000  0.50000000  0.67246304  1
  C  C4  1  -0.00000000  -0.00000000  0.00444114  1
  C  C5  1  -0.00000000  0.00000000  0.27137923  1
  C  C6  1  0.00000000  -0.00000000  0.73854127  1
  C  C7  1  0.00000000  -0.00000000  0.62181571  1
  C  C8  1  -0.00000000  0.00000000  0.38466705  1
  C  C9  1  0.50000000  -0.00000000  0.74378618  1
  C  C10  1  0.00000000  0.50000000  0.74378618  1
  C  C11  1  0.50000000  0.00000000  0.24991780  1
  C  C12  1  -0.00000000  0.50000000  0.24991780  1
  C  C13  1  -0.00000000  0.50000000  0.99799329  1
  C  C14  1  0.50000000  0.00000000  0.99799329  1
  C  C15  1  -0.00000000  -0.00000000  0.12581917  1
  C  C16  1  0.00000000  0.00000000  0.87402312  1
