# generated using pymatgen
data_Cu(NiC)3
_symmetry_space_group_name_H-M   'P 1'
_cell_length_a   14.54130075
_cell_length_b   14.54130075
_cell_length_c   3.14221500
_cell_angle_alpha   90.00000000
_cell_angle_beta   90.00000000
_cell_angle_gamma   167.04405781
_symmetry_Int_Tables_number   1
_chemical_formula_structural   Cu(NiC)3
_chemical_formula_sum   'Cu2 Ni6 C6'
_cell_volume   148.96402366
_cell_formula_units_Z   2
loop_
 _symmetry_equiv_pos_site_id
 _symmetry_equiv_pos_as_xyz
  1  'x, y, z'
loop_
 _atom_site_type_symbol
 _atom_site_label
 _atom_site_symmetry_multiplicity
 _atom_site_fract_x
 _atom_site_fract_y
 _atom_site_fract_z
 _atom_site_occupancy
  C  C0  1  0.54676300  0.45323700  0.25000000  1
  C  C1  1  0.45323700  0.54676300  0.75000000  1
  C  C2  1  0.21258300  0.78741700  0.25000000  1
  C  C3  1  0.78741700  0.21258300  0.75000000  1
  C  C4  1  0.63789000  0.36211000  0.75000000  1
  C  C5  1  0.36211000  0.63789000  0.25000000  1
  Ni  Ni6  1  0.98455200  0.01544800  0.25000000  1
  Ni  Ni7  1  0.01544800  0.98455200  0.75000000  1
  Ni  Ni8  1  0.11211300  0.88788700  0.25000000  1
  Ni  Ni9  1  0.88788700  0.11211300  0.75000000  1
  Ni  Ni10  1  0.92096000  0.07904000  0.25000000  1
  Ni  Ni11  1  0.07904000  0.92096000  0.75000000  1
  Cu  Cu12  1  0.28778700  0.71221300  0.25000000  1
  Cu  Cu13  1  0.71221300  0.28778700  0.75000000  1
