# generated using pymatgen
data_Cu3Ni3C32
_symmetry_space_group_name_H-M   'P 1'
_cell_length_a   9.25326261
_cell_length_b   9.23568487
_cell_length_c   23.59477443
_cell_angle_alpha   90.14058123
_cell_angle_beta   89.87974769
_cell_angle_gamma   119.79840429
_symmetry_Int_Tables_number   1
_chemical_formula_structural   Cu3Ni3C32
_chemical_formula_sum   'Cu9 Ni9 C96'
_cell_volume   1749.79663381
_cell_formula_units_Z   3
loop_
 _symmetry_equiv_pos_site_id
 _symmetry_equiv_pos_as_xyz
  1  'x, y, z'
loop_
 _atom_site_type_symbol
 _atom_site_label
 _atom_site_symmetry_multiplicity
 _atom_site_fract_x
 _atom_site_fract_y
 _atom_site_fract_z
 _atom_site_occupancy
  C  C0  1  0.98840775  0.64695049  0.25355037  1
  C  C1  1  0.99278665  0.35033450  0.73876838  1
  C  C2  1  0.65960699  0.98200108  0.59274006  1
  C  C3  1  0.66949413  0.69531488  0.07945621  1
  C  C4  1  0.33844082  0.31080473  0.90047577  1
  C  C5  1  0.31631477  0.01551180  0.42214475  1
  C  C6  1  0.01285420  0.99204067  0.50679453  1
  C  C7  1  0.97972985  0.97077419  0.99622484  1
  C  C8  1  0.64861666  0.31876574  0.81894965  1
  C  C9  1  0.65749016  0.34796831  0.33368680  1
  C  C10  1  0.32657404  0.67768555  0.17245290  1
  C  C11  1  0.31924396  0.66682690  0.65944673  1
  C  C12  1  0.99667338  0.98972706  0.35144726  1
  C  C13  1  0.98699810  0.98958070  0.84908837  1
  C  C14  1  0.65260515  0.32475953  0.68428538  1
  C  C15  1  0.66223821  0.33062339  0.18791615  1
  C  C16  1  0.32884191  0.67259179  0.01801529  1
  C  C17  1  0.31196827  0.65526383  0.52040753  1
  C  C18  1  0.01638056  0.02105864  0.64789013  1
  C  C19  1  0.99657132  0.97999103  0.15266873  1
  C  C20  1  0.68094233  0.35320961  0.98094581  1
  C  C21  1  0.68014572  0.33736168  0.48586663  1
  C  C22  1  0.32970379  0.66953972  0.31328343  1
  C  C23  1  0.36186553  0.67493205  0.80925843  1
  Ni  Ni24  1  0.29671231  0.99629634  0.25394955  1
  Ni  Ni25  1  0.69480219  0.70301081  0.24938893  1
  Ni  Ni26  1  0.29611480  0.29627808  0.75661638  1
  Ni  Ni27  1  0.70933570  0.00252907  0.74707538  1
  Ni  Ni28  1  0.96316505  0.33026907  0.58892801  1
  Ni  Ni29  1  0.36912609  0.03984933  0.57923401  1
  Ni  Ni30  1  0.96589918  0.63376572  0.08712704  1
  Ni  Ni31  1  0.63090950  0.66863766  0.92171802  1
  Ni  Ni32  1  0.02881147  0.65813211  0.41489182  1
  Cu  Cu33  1  0.00799468  0.29617498  0.24882135  1
  Cu  Cu34  1  0.00843401  0.70639411  0.75018125  1
  Cu  Cu35  1  0.67598131  0.63528089  0.58212577  1
  Cu  Cu36  1  0.67485183  0.04294301  0.08150683  1
  Cu  Cu37  1  0.36864468  0.32627312  0.08115988  1
  Cu  Cu38  1  0.03625609  0.37413827  0.91679316  1
  Cu  Cu39  1  0.34013854  0.96881546  0.91680436  1
  Cu  Cu40  1  0.62155343  0.96203772  0.41714011  1
  Cu  Cu41  1  0.34112509  0.37528859  0.41498647  1
  C  C42  1  0.21941090  0.02256123  0.31134363  1
  C  C43  1  0.82085422  0.79922548  0.30038486  1
  C  C44  1  0.98815691  0.20190283  0.30056063  1
  C  C45  1  0.21828057  0.19951813  0.81586823  1
  C  C46  1  0.98825607  0.78240895  0.80237333  1
  C  C47  1  0.81767639  0.02026352  0.80276259  1
  C  C48  1  0.79594663  0.97360450  0.69001569  1
  C  C49  1  0.16880402  0.19541734  0.70240677  1
  C  C50  1  0.02831966  0.80904234  0.69970779  1
  C  C51  1  0.78508517  0.81725330  0.18974757  1
  C  C52  1  0.02255877  0.20935504  0.19752022  1
  C  C53  1  0.16495140  0.96781529  0.19926706  1
  C  C54  1  0.88467717  0.35437315  0.64645117  1
  C  C55  1  0.48848747  0.13201124  0.63245519  1
  C  C56  1  0.65145139  0.53840743  0.63398878  1
  C  C57  1  0.87623341  0.52983052  0.14293506  1
  C  C58  1  0.65243070  0.11800659  0.13296773  1
  C  C59  1  0.47426924  0.34929204  0.13066430  1
  C  C60  1  0.45022195  0.30447244  0.02885459  1
  C  C61  1  0.83688790  0.53041519  0.03122807  1
  C  C62  1  0.68183401  0.14095883  0.03040871  1
  C  C63  1  0.45745266  0.15348863  0.52018899  1
  C  C64  1  0.69033983  0.54403361  0.53138390  1
  C  C65  1  0.83659139  0.30947062  0.53387908  1
  C  C66  1  0.54592020  0.67875195  0.98058132  1
  C  C67  1  0.13897597  0.46063420  0.96684238  1
  C  C68  1  0.31814078  0.86924857  0.96819375  1
  C  C69  1  0.55261371  0.86586721  0.46907620  1
  C  C70  1  0.33272548  0.45788040  0.46673916  1
  C  C71  1  0.15627813  0.69127405  0.46612185  1
  C  C72  1  0.12336036  0.63837068  0.35613561  1
  C  C73  1  0.51176646  0.86895403  0.36716245  1
  C  C74  1  0.35424996  0.47742936  0.36398029  1
  C  C75  1  0.10731086  0.47274879  0.86507813  1
  C  C76  1  0.35324945  0.88280752  0.86596642  1
  C  C77  1  0.50161571  0.63934454  0.86760354  1
  C  C78  1  0.01745098  0.83016797  0.41371594  1
  C  C79  1  0.79269565  0.99670205  0.40893645  1
  C  C80  1  0.18917565  0.20744891  0.41185964  1
  C  C81  1  0.02582954  0.20865816  0.91464107  1
  C  C82  1  0.19711513  0.99932444  0.91422341  1
  C  C83  1  0.81848183  0.82171707  0.91658424  1
  C  C84  1  0.95923358  0.14715073  0.58864823  1
  C  C85  1  0.18103769  0.01556750  0.58835743  1
  C  C86  1  0.83077440  0.80005468  0.58514200  1
  C  C87  1  0.96628894  0.81663159  0.08725513  1
  C  C88  1  0.83029100  0.03118529  0.08392868  1
  C  C89  1  0.20054590  0.17932331  0.08670058  1
  C  C90  1  0.69570510  0.17097483  0.74639806  1
  C  C91  1  0.48478145  0.33731347  0.74929064  1
  C  C92  1  0.86321655  0.53652535  0.74568800  1
  C  C93  1  0.68872880  0.52374570  0.24519380  1
  C  C94  1  0.86430938  0.32477789  0.24367326  1
  C  C95  1  0.48266124  0.14533723  0.24372056  1
  C  C96  1  0.63086896  0.48345367  0.92478418  1
  C  C97  1  0.86349077  0.34881296  0.92517517  1
  C  C98  1  0.49545130  0.13646960  0.92226514  1
  C  C99  1  0.62017775  0.12463017  0.41949230  1
  C  C100  1  0.48989938  0.35172430  0.41589386  1
  C  C101  1  0.84309643  0.48882017  0.42239741  1
  C  C102  1  0.35862293  0.48187450  0.07647024  1
  C  C103  1  0.15113554  0.66161339  0.07959679  1
  C  C104  1  0.53118471  0.86835202  0.07767687  1
  C  C105  1  0.36896117  0.86259098  0.57603814  1
  C  C106  1  0.53348142  0.66360951  0.57484306  1
  C  C107  1  0.15158680  0.48016103  0.58166723  1
  C  C108  1  0.29120619  0.81207405  0.25547316  1
  C  C109  1  0.50960462  0.68344944  0.25671189  1
  C  C110  1  0.16247111  0.46483694  0.25169687  1
  C  C111  1  0.28924431  0.47594348  0.75952574  1
  C  C112  1  0.16115738  0.68893862  0.75615528  1
  C  C113  1  0.52030132  0.83386727  0.75512209  1
