# generated using pymatgen
data_Cu6NiC12
_symmetry_space_group_name_H-M   'P 1'
_cell_length_a   8.31019175
_cell_length_b   5.78454397
_cell_length_c   6.06084254
_cell_angle_alpha   65.85662770
_cell_angle_beta   62.60680759
_cell_angle_gamma   65.67260886
_symmetry_Int_Tables_number   1
_chemical_formula_structural   Cu6NiC12
_chemical_formula_sum   'Cu6 Ni1 C12'
_cell_volume   226.87078828
_cell_formula_units_Z   1
loop_
 _symmetry_equiv_pos_site_id
 _symmetry_equiv_pos_as_xyz
  1  'x, y, z'
loop_
 _atom_site_type_symbol
 _atom_site_label
 _atom_site_symmetry_multiplicity
 _atom_site_fract_x
 _atom_site_fract_y
 _atom_site_fract_z
 _atom_site_occupancy
  Ni  Ni0  1  0.16302600  0.31806400  0.85426400  1
  Cu  Cu1  1  0.82050500  0.66278500  0.66346900  1
  Cu  Cu2  1  0.65476000  0.33553300  0.34218400  1
  Cu  Cu3  1  0.33983200  0.68725800  0.65371200  1
  Cu  Cu4  1  0.18787000  0.34822300  0.34086800  1
  Cu  Cu5  1  0.51795200  0.00277900  0.00491500  1
  Cu  Cu6  1  0.96943800  0.95153300  0.99270900  1
  C  C7  1  0.67667800  0.03509100  0.64112000  1
  C  C8  1  0.33563300  0.36409000  0.97358700  1
  C  C9  1  0.07902400  0.72489100  0.77100900  1
  C  C10  1  0.37333000  0.43933500  0.48504900  1
  C  C11  1  0.34034500  0.98514000  0.35830300  1
  C  C12  1  0.67132100  0.63887200  0.03370600  1
  C  C13  1  0.00232300  0.29496000  0.70004300  1
  C  C14  1  0.99006000  0.67769400  0.30334600  1
  C  C15  1  0.28589200  0.92675700  0.87391000  1
  C  C16  1  0.61283100  0.59395200  0.56521400  1
  C  C17  1  0.95272900  0.21488800  0.18644800  1
  C  C18  1  0.68755900  0.10767700  0.11725200  1
