# generated using pymatgen
data_Cu5NiC2
_symmetry_space_group_name_H-M   'P 1'
_cell_length_a   11.26007300
_cell_length_b   11.26007300
_cell_length_c   9.06729200
_cell_angle_alpha   90.00000000
_cell_angle_beta   90.00000000
_cell_angle_gamma   90.00000000
_symmetry_Int_Tables_number   1
_chemical_formula_structural   Cu5NiC2
_chemical_formula_sum   'Cu40 Ni8 C16'
_cell_volume   1149.63509749
_cell_formula_units_Z   8
loop_
 _symmetry_equiv_pos_site_id
 _symmetry_equiv_pos_as_xyz
  1  'x, y, z'
loop_
 _atom_site_type_symbol
 _atom_site_label
 _atom_site_symmetry_multiplicity
 _atom_site_fract_x
 _atom_site_fract_y
 _atom_site_fract_z
 _atom_site_occupancy
  C  C0  1  0.51749200  0.21387600  0.74336600  1
  C  C1  1  0.48250800  0.78612400  0.74336600  1
  C  C2  1  0.21387600  0.48250800  0.25663400  1
  C  C3  1  0.78612400  0.51749200  0.25663400  1
  C  C4  1  0.71387600  0.01749200  0.24336600  1
  C  C5  1  0.98250800  0.71387600  0.75663400  1
  C  C6  1  0.01749200  0.28612400  0.75663400  1
  C  C7  1  0.28612400  0.98250800  0.24336600  1
  C  C8  1  0.65919600  0.50642100  0.63516900  1
  C  C9  1  0.34080400  0.49357900  0.63516900  1
  C  C10  1  0.50642100  0.34080400  0.36483100  1
  C  C11  1  0.49357900  0.65919600  0.36483100  1
  C  C12  1  0.00642100  0.15919600  0.13516900  1
  C  C13  1  0.84080400  0.00642100  0.86483100  1
  C  C14  1  0.15919600  0.99357900  0.86483100  1
  C  C15  1  0.99357900  0.84080400  0.13516900  1
  Ni  Ni16  1  0.79292600  0.20981900  0.50784700  1
  Ni  Ni17  1  0.20707400  0.79018100  0.50784700  1
  Ni  Ni18  1  0.20981900  0.20707400  0.49215300  1
  Ni  Ni19  1  0.79018100  0.79292600  0.49215300  1
  Ni  Ni20  1  0.70981900  0.29292600  0.00784700  1
  Ni  Ni21  1  0.70707400  0.70981900  0.99215300  1
  Ni  Ni22  1  0.29292600  0.29018100  0.99215300  1
  Ni  Ni23  1  0.29018100  0.70707400  0.00784700  1
  Cu  Cu24  1  0.81752500  0.16488900  0.35291400  1
  Cu  Cu25  1  0.18247500  0.83511100  0.35291400  1
  Cu  Cu26  1  0.16488900  0.18247500  0.64708600  1
  Cu  Cu27  1  0.83511100  0.81752500  0.64708600  1
  Cu  Cu28  1  0.66488900  0.31752500  0.85291400  1
  Cu  Cu29  1  0.68247500  0.66488900  0.14708600  1
  Cu  Cu30  1  0.31752500  0.33511100  0.14708600  1
  Cu  Cu31  1  0.33511100  0.68247500  0.85291400  1
  Cu  Cu32  1  0.89218500  0.16958900  0.60540200  1
  Cu  Cu33  1  0.10781500  0.83041100  0.60540200  1
  Cu  Cu34  1  0.16958900  0.10781500  0.39459800  1
  Cu  Cu35  1  0.83041100  0.89218500  0.39459800  1
  Cu  Cu36  1  0.66958900  0.39218500  0.10540200  1
  Cu  Cu37  1  0.60781500  0.66958900  0.89459800  1
  Cu  Cu38  1  0.39218500  0.33041100  0.89459800  1
  Cu  Cu39  1  0.67863100  0.15731100  0.55736100  1
  Cu  Cu40  1  0.33041100  0.60781500  0.10540200  1
  Cu  Cu41  1  0.21194200  0.65851300  0.50275400  1
  Cu  Cu42  1  0.34148700  0.21194200  0.49724600  1
  Cu  Cu43  1  0.65851300  0.78805800  0.49724600  1
  Cu  Cu44  1  0.84148700  0.28805800  0.00275400  1
  Cu  Cu45  1  0.71194200  0.84148700  0.99724600  1
  Cu  Cu46  1  0.28805800  0.15851300  0.99724600  1
  Cu  Cu47  1  0.15851300  0.71194200  0.00275400  1
  Cu  Cu48  1  0.12478200  0.98481500  0.11315300  1
  Cu  Cu49  1  0.01518500  0.12478200  0.88684700  1
  Cu  Cu50  1  0.98481500  0.87521800  0.88684700  1
  Cu  Cu51  1  0.87521800  0.01518500  0.11315300  1
  Cu  Cu52  1  0.62478200  0.51518500  0.38684700  1
  Cu  Cu53  1  0.37521800  0.48481500  0.38684700  1
  Cu  Cu54  1  0.48481500  0.62478200  0.61315300  1
  Cu  Cu55  1  0.51518500  0.37521800  0.61315300  1
  Cu  Cu56  1  0.34268900  0.82136900  0.05736100  1
  Cu  Cu57  1  0.17863100  0.34268900  0.94263900  1
  Cu  Cu58  1  0.82136900  0.65731100  0.94263900  1
  Cu  Cu59  1  0.65731100  0.17863100  0.05736100  1
  Cu  Cu60  1  0.84268900  0.67863100  0.44263900  1
  Cu  Cu61  1  0.15731100  0.32136900  0.44263900  1
  Cu  Cu62  1  0.32136900  0.84268900  0.55736100  1
  Cu  Cu63  1  0.78805800  0.34148700  0.50275400  1
