# generated using pymatgen
data_Cu5(NiC10)7
_symmetry_space_group_name_H-M   'P 1'
_cell_length_a   17.81992906
_cell_length_b   8.91028753
_cell_length_c   21.92920207
_cell_angle_alpha   90.06772529
_cell_angle_beta   88.95822482
_cell_angle_gamma   120.00747548
_symmetry_Int_Tables_number   1
_chemical_formula_structural   Cu5(NiC10)7
_chemical_formula_sum   'Cu15 Ni21 C210'
_cell_volume   3014.59177615
_cell_formula_units_Z   3
loop_
 _symmetry_equiv_pos_site_id
 _symmetry_equiv_pos_as_xyz
  1  'x, y, z'
loop_
 _atom_site_type_symbol
 _atom_site_label
 _atom_site_symmetry_multiplicity
 _atom_site_fract_x
 _atom_site_fract_y
 _atom_site_fract_z
 _atom_site_occupancy
  C  C0  1  0.80793783  0.98962922  0.25464713  1
  C  C1  1  0.18088533  0.35469920  0.25537103  1
  C  C2  1  0.68944138  0.36778854  0.25385208  1
  C  C3  1  0.99575482  0.63553991  0.24721230  1
  C  C4  1  0.49827547  0.63601118  0.25119832  1
  C  C5  1  0.31029591  0.62707979  0.74318610  1
  C  C6  1  0.99809720  0.35978667  0.74694407  1
  C  C7  1  0.49828401  0.36046353  0.74269700  1
  C  C8  1  0.18892343  0.01039699  0.74942685  1
  C  C9  1  0.68243890  0.00769482  0.75131402  1
  C  C10  1  0.14982392  0.33131055  0.58428504  1
  C  C11  1  0.65960461  0.33943900  0.57885259  1
  C  C12  1  0.33795584  0.98218813  0.58046606  1
  C  C13  1  0.83556275  0.98012440  0.57974354  1
  C  C14  1  0.15766866  0.97824112  0.08395388  1
  C  C15  1  0.64974871  0.96897717  0.08873383  1
  C  C16  1  0.33562812  0.68940884  0.08663634  1
  C  C17  1  0.83659263  0.69626975  0.08469710  1
  C  C18  1  0.48353679  0.67211038  0.92287915  1
  C  C19  1  0.97355005  0.66602129  0.92101087  1
  C  C20  1  0.35420934  0.03990690  0.91557184  1
  C  C21  1  0.85094915  0.03592611  0.91206374  1
  C  C22  1  0.16597067  0.28935957  0.91439335  1
  C  C23  1  0.67053690  0.28886188  0.90954550  1
  C  C24  1  0.47616830  0.28644917  0.42198051  1
  C  C25  1  0.97477057  0.27671371  0.42325634  1
  C  C26  1  0.16973826  0.05439527  0.40946455  1
  C  C27  1  0.67195454  0.03796129  0.41235450  1
  C  C28  1  0.35287603  0.66782283  0.41233375  1
  C  C29  1  0.85123273  0.67540986  0.41802826  1
  C  C30  1  0.99464603  0.99552824  0.49800064  1
  C  C31  1  0.50156796  0.99698372  0.50099919  1
  C  C32  1  0.99793865  0.00113304  0.00279908  1
  C  C33  1  0.50249039  0.00576868  0.00290594  1
  C  C34  1  0.32781279  0.32191811  0.82411209  1
  C  C35  1  0.82576868  0.33657660  0.83071783  1
  C  C36  1  0.32728313  0.31717853  0.33301613  1
  C  C37  1  0.82579867  0.31966743  0.33054699  1
  C  C38  1  0.16572578  0.66915675  0.17010358  1
  C  C39  1  0.66429365  0.66314127  0.17131047  1
  C  C40  1  0.16379400  0.66462300  0.66851106  1
  C  C41  1  0.66607595  0.66295603  0.66606730  1
  C  C42  1  0.00070423  0.00195908  0.35297307  1
  C  C43  1  0.49478288  0.98847078  0.34898117  1
  C  C44  1  0.99282277  0.99830453  0.84700708  1
  C  C45  1  0.50797014  0.00915240  0.84756864  1
  C  C46  1  0.33766795  0.33115478  0.68332712  1
  C  C47  1  0.83662701  0.34080526  0.18546183  1
  C  C48  1  0.33275723  0.32808506  0.99343254  1
  C  C49  1  0.83215025  0.33872820  0.98058575  1
  C  C50  1  0.33344885  0.32853183  0.48007892  1
  C  C51  1  0.83039117  0.32514254  0.48826158  1
  C  C52  1  0.67131219  0.68327023  0.31086981  1
  C  C53  1  0.16788744  0.66252777  0.80789183  1
  Ni  Ni54  1  0.15323316  0.99898029  0.25278187  1
  Ni  Ni55  1  0.64392117  0.00253518  0.24929936  1
  Ni  Ni56  1  0.35158011  0.69543768  0.25057279  1
  Ni  Ni57  1  0.85588497  0.70929721  0.25131606  1
  Ni  Ni58  1  0.14425859  0.28363782  0.75038295  1
  Ni  Ni59  1  0.65504305  0.31116373  0.75218633  1
  Ni  Ni60  1  0.35706980  0.00138456  0.75211759  1
  Ni  Ni61  1  0.85240654  0.01008330  0.75044533  1
  Ni  Ni62  1  0.48341257  0.34503201  0.58086246  1
  Ni  Ni63  1  0.98174599  0.34459570  0.58322446  1
  Ni  Ni64  1  0.67939544  0.03438828  0.58491986  1
  Ni  Ni65  1  0.84214113  0.63193580  0.58253480  1
  Ni  Ni66  1  0.48115833  0.62060937  0.08232587  1
  Ni  Ni67  1  0.97967586  0.62348130  0.08193895  1
  Ni  Ni68  1  0.34203588  0.04904961  0.08197951  1
  Ni  Ni69  1  0.18010270  0.32332022  0.08352123  1
  Ni  Ni70  1  0.81141809  0.66712644  0.91962551  1
  Ni  Ni71  1  0.66505366  0.95208676  0.91426440  1
  Ni  Ni72  1  0.31128681  0.95632424  0.41980828  1
  Ni  Ni73  1  0.81100027  0.96166832  0.41645360  1
  Ni  Ni74  1  0.16645632  0.38004006  0.41437371  1
  C  C75  1  0.98953631  0.00894391  0.64883215  1
  C  C76  1  0.50990748  0.04772424  0.65022011  1
  C  C77  1  0.00953093  0.97663620  0.15205091  1
  C  C78  1  0.48927063  0.97241386  0.15085022  1
  C  C79  1  0.82694969  0.32221099  0.67861950  1
  C  C80  1  0.32702680  0.33064502  0.17996941  1
  C  C81  1  0.16839071  0.66568430  0.03158729  1
  C  C82  1  0.66156993  0.67247525  0.01592047  1
  C  C83  1  0.15956065  0.65086427  0.51429685  1
  C  C84  1  0.67675072  0.68199451  0.52931918  1
  C  C85  1  0.18703924  0.69425073  0.31310029  1
  C  C86  1  0.68844849  0.68245919  0.81189292  1
  Cu  Cu87  1  0.00071572  0.28792859  0.24982473  1
  Cu  Cu88  1  0.49577096  0.28276655  0.24964154  1
  Cu  Cu89  1  0.99703049  0.70903760  0.75078665  1
  Cu  Cu90  1  0.50022262  0.71050495  0.75130890  1
  Cu  Cu91  1  0.18294183  0.03217559  0.58292228  1
  Cu  Cu92  1  0.33394600  0.62931722  0.58236661  1
  Cu  Cu93  1  0.83337300  0.03931153  0.08079041  1
  Cu  Cu94  1  0.68270195  0.33490148  0.08193067  1
  Cu  Cu95  1  0.30995989  0.66271507  0.91733385  1
  Cu  Cu96  1  0.02624500  0.38431011  0.91920005  1
  Cu  Cu97  1  0.52188091  0.38053070  0.91642674  1
  Cu  Cu98  1  0.16769198  0.95485258  0.91681296  1
  Cu  Cu99  1  0.66554879  0.37715638  0.41613142  1
  Cu  Cu100  1  0.02421660  0.66482045  0.41560121  1
  Cu  Cu101  1  0.52412350  0.66746171  0.41816138  1
  C  C102  1  0.11373137  0.04690346  0.31035518  1
  C  C103  1  0.60463402  0.04504042  0.30922081  1
  C  C104  1  0.40790387  0.77079485  0.31007314  1
  C  C105  1  0.91629227  0.79661801  0.30899409  1
  C  C106  1  0.48266166  0.18416446  0.30651668  1
  C  C107  1  0.98981793  0.19194521  0.30677163  1
  C  C108  1  0.10632843  0.16759644  0.81202828  1
  C  C109  1  0.61711125  0.18801260  0.81114018  1
  C  C110  1  0.48795504  0.78347755  0.80895057  1
  C  C111  1  0.98550929  0.78278952  0.80830118  1
  C  C112  1  0.41276570  0.02777528  0.81254330  1
  C  C113  1  0.90719596  0.04653447  0.81105411  1
  C  C114  1  0.40739743  0.96634368  0.69020558  1
  C  C115  1  0.89374750  0.97108267  0.68949151  1
  C  C116  1  0.07966843  0.18054598  0.69002786  1
  C  C117  1  0.58953747  0.23089882  0.69285686  1
  C  C118  1  0.01220436  0.82274216  0.69714827  1
  C  C119  1  0.51678280  0.82737779  0.69891651  1
  C  C120  1  0.39148499  0.81409440  0.18831622  1
  C  C121  1  0.90548032  0.84584936  0.18813424  1
  C  C122  1  0.01870089  0.20587907  0.19640734  1
  C  C123  1  0.51019818  0.19790032  0.19525779  1
  C  C124  1  0.09131067  0.95139018  0.19094658  1
  C  C125  1  0.58007677  0.97897936  0.18761800  1
  C  C126  1  0.44706131  0.37550497  0.64391544  1
  C  C127  1  0.93580340  0.36808448  0.64572098  1
  C  C128  1  0.23677494  0.11156811  0.63704739  1
  C  C129  1  0.74602981  0.11939622  0.64312756  1
  C  C130  1  0.32146271  0.52395896  0.63750989  1
  C  C131  1  0.81754051  0.49209358  0.63917600  1
  C  C132  1  0.43324686  0.49952944  0.14305155  1
  C  C133  1  0.94322555  0.51618073  0.14361291  1
  C  C134  1  0.31442103  0.13896517  0.13667054  1
  C  C135  1  0.82035362  0.11870422  0.13581324  1
  C  C136  1  0.24733984  0.37323148  0.14068776  1
  C  C137  1  0.73644398  0.36209684  0.13570804  1
  C  C138  1  0.21520561  0.27780098  0.02216684  1
  C  C139  1  0.72201344  0.30525806  0.02647261  1
  C  C140  1  0.42429126  0.55432542  0.02197687  1
  C  C141  1  0.92261197  0.55190514  0.02188628  1
  C  C142  1  0.35479517  0.14114569  0.01718612  1
  C  C143  1  0.83902078  0.13642482  0.02507156  1
  C  C144  1  0.22286225  0.14147840  0.52787486  1
  C  C145  1  0.71286812  0.15525434  0.52531803  1
  C  C146  1  0.33951094  0.54205367  0.52683213  1
  C  C147  1  0.85458127  0.55995282  0.51889950  1
  C  C148  1  0.42155757  0.29336316  0.52300210  1
  C  C149  1  0.92432139  0.29691463  0.52420856  1
  C  C150  1  0.26911558  0.68918076  0.97474542  1
  C  C151  1  0.75937233  0.69452955  0.98003913  1
  C  C152  1  0.08290877  0.47058124  0.97306241  1
  C  C153  1  0.57632231  0.46168608  0.97187956  1
  C  C154  1  0.15882122  0.85202077  0.97363359  1
  C  C155  1  0.64524820  0.82842145  0.97657478  1
  C  C156  1  0.25921482  0.82499214  0.48056867  1
  C  C157  1  0.76206404  0.82876710  0.47911937  1
  C  C158  1  0.14710008  0.46333722  0.47729840  1
  C  C159  1  0.65399332  0.45793363  0.47268298  1
  C  C160  1  0.07885998  0.69388191  0.47169899  1
  C  C161  1  0.57827413  0.68985903  0.47144207  1
  C  C162  1  0.06581695  0.63834132  0.36048668  1
  C  C163  1  0.55966526  0.63635888  0.36120309  1
  C  C164  1  0.24866035  0.87058721  0.36023511  1
  C  C165  1  0.75166434  0.87745385  0.35792438  1
  C  C166  1  0.17905286  0.50839862  0.35446262  1
  C  C167  1  0.67232760  0.47826188  0.36097355  1
  C  C168  1  0.06509655  0.48841639  0.86338780  1
  C  C169  1  0.56298252  0.48566713  0.86095825  1
  C  C170  1  0.17668523  0.86815876  0.86227656  1
  C  C171  1  0.67695102  0.84715970  0.85473566  1
  C  C172  1  0.25681300  0.64173207  0.86409192  1
  C  C173  1  0.74844262  0.62821697  0.86034763  1
  C  C174  1  0.01889411  0.82444406  0.41357003  1
  C  C175  1  0.51683983  0.82710545  0.41497124  1
  C  C176  1  0.40484632  0.96699816  0.41684688  1
  C  C177  1  0.90487505  0.97133766  0.41742336  1
  C  C178  1  0.08154270  0.19050871  0.41341810  1
  C  C179  1  0.58712713  0.20064825  0.41510294  1
  C  C180  1  0.01837357  0.21029026  0.91666857  1
  C  C181  1  0.51308962  0.20602238  0.91497121  1
  C  C182  1  0.08844427  0.96996570  0.91639142  1
  C  C183  1  0.57828727  0.96926212  0.91353067  1
  C  C184  1  0.39722153  0.81887982  0.91421834  1
  C  C185  1  0.90541301  0.84377955  0.91656367  1
  C  C186  1  0.49385963  0.16387480  0.58778989  1
  C  C187  1  0.99716230  0.17244357  0.59141423  1
  C  C188  1  0.09571532  0.01347694  0.58907667  1
  C  C189  1  0.58235825  0.01251075  0.60055299  1
  C  C190  1  0.40991089  0.80496370  0.58443176  1
  C  C191  1  0.92585275  0.83260682  0.59422638  1
  C  C192  1  0.49542449  0.82175038  0.09055783  1
  C  C193  1  0.99320877  0.82629123  0.08806115  1
  C  C194  1  0.42461305  0.01612647  0.09380014  1
  C  C195  1  0.90888209  0.01474594  0.08280779  1
  C  C196  1  0.08358620  0.15272869  0.09824671  1
  C  C197  1  0.59514033  0.18001387  0.08758279  1
  C  C198  1  0.34675431  0.17142741  0.74469387  1
  C  C199  1  0.84270461  0.18460811  0.74114366  1
  C  C200  1  0.24240667  0.31788860  0.74005905  1
  C  C201  1  0.74830252  0.32150329  0.73916038  1
  C  C202  1  0.42037397  0.53900374  0.74562410  1
  C  C203  1  0.92145918  0.53259858  0.74591907  1
  C  C204  1  0.34249298  0.50156897  0.24034799  1
  C  C205  1  0.84548402  0.51815080  0.24436680  1
  C  C206  1  0.41966638  0.30771157  0.24364511  1
  C  C207  1  0.92094557  0.29884387  0.24347363  1
  C  C208  1  0.24748725  0.17503729  0.23882966  1
  C  C209  1  0.74162286  0.16403664  0.23867801  1
  C  C210  1  0.31827265  0.50496943  0.92107062  1
  C  C211  1  0.81909430  0.49421396  0.92024579  1
  C  C212  1  0.43499894  0.36525160  0.92122046  1
  C  C213  1  0.93840515  0.36146367  0.92553429  1
  C  C214  1  0.24647564  0.13113981  0.91808297  1
  C  C215  1  0.75376523  0.13686402  0.91819081  1
  C  C216  1  0.31868713  0.14414659  0.42076269  1
  C  C217  1  0.82144923  0.15424955  0.42244054  1
  C  C218  1  0.25572831  0.37470376  0.41845567  1
  C  C219  1  0.74551982  0.36442477  0.41793827  1
  C  C220  1  0.43498192  0.51525299  0.42463166  1
  C  C221  1  0.93803086  0.51030277  0.42092858  1
  C  C222  1  0.17722759  0.50676396  0.07742881  1
  C  C223  1  0.67706043  0.49781770  0.07682075  1
  C  C224  1  0.08337559  0.66720898  0.07460903  1
  C  C225  1  0.58216418  0.64631265  0.07734695  1
  C  C226  1  0.25228330  0.84520303  0.07797428  1
  C  C227  1  0.75071239  0.85785276  0.07987286  1
  C  C228  1  0.17691033  0.85825233  0.57765110  1
  C  C229  1  0.67510688  0.84555423  0.58059216  1
  C  C230  1  0.25218213  0.64568278  0.58157436  1
  C  C231  1  0.75253939  0.65326763  0.58201984  1
  C  C232  1  0.08337882  0.52025478  0.57793489  1
  C  C233  1  0.58620033  0.50530291  0.57129263  1
  C  C234  1  0.15352930  0.81095016  0.25884110  1
  C  C235  1  0.64369445  0.81916513  0.24776043  1
  C  C236  1  0.25254287  0.67065806  0.25255669  1
  C  C237  1  0.75957795  0.68846552  0.24863819  1
  C  C238  1  0.07706774  0.46753128  0.25188858  1
  C  C239  1  0.57547927  0.45681427  0.25267004  1
  C  C240  1  0.14647841  0.46968628  0.75088615  1
  C  C241  1  0.65378522  0.49808143  0.75897481  1
  C  C242  1  0.07734640  0.69416269  0.75414511  1
  C  C243  1  0.57678772  0.68476564  0.75399384  1
  C  C244  1  0.26080802  0.82816050  0.75057135  1
  C  C245  1  0.75329648  0.83642341  0.75245142  1
