# generated using pymatgen
data_Cu3Ni4C31
_symmetry_space_group_name_H-M   'P 1'
_cell_length_a   9.16115311
_cell_length_b   9.21807596
_cell_length_c   23.55923384
_cell_angle_alpha   90.31255648
_cell_angle_beta   89.70635350
_cell_angle_gamma   120.28234607
_symmetry_Int_Tables_number   1
_chemical_formula_structural   Cu3Ni4C31
_chemical_formula_sum   'Cu9 Ni12 C93'
_cell_volume   1718.03282278
_cell_formula_units_Z   3
loop_
 _symmetry_equiv_pos_site_id
 _symmetry_equiv_pos_as_xyz
  1  'x, y, z'
loop_
 _atom_site_type_symbol
 _atom_site_label
 _atom_site_symmetry_multiplicity
 _atom_site_fract_x
 _atom_site_fract_y
 _atom_site_fract_z
 _atom_site_occupancy
  Ni  Ni0  1  0.35953053  0.35920454  0.25153577  1
  Ni  Ni1  1  0.31909881  0.34885400  0.58768997  1
  Ni  Ni2  1  0.02821267  0.69628114  0.58087816  1
  Ni  Ni3  1  0.99138094  0.68468625  0.92274601  1
  Ni  Ni4  1  0.69553612  0.01933484  0.91194807  1
  Ni  Ni5  1  0.30979835  0.29766454  0.92010387  1
  Ni  Ni6  1  0.96295817  0.98226386  0.49844216  1
  Ni  Ni7  1  0.02048235  0.01603043  0.00125814  1
  Ni  Ni8  1  0.66127265  0.32944404  0.82486890  1
  Ni  Ni9  1  0.68256795  0.32291170  0.33449759  1
  Ni  Ni10  1  0.32677826  0.67962584  0.16987375  1
  Ni  Ni11  1  0.38096038  0.68047904  0.66885522  1
  Cu  Cu12  1  0.99243373  0.99258610  0.35138753  1
  Cu  Cu13  1  0.00251805  0.00468423  0.84464694  1
  Cu  Cu14  1  0.97771505  0.99102973  0.65014502  1
  Cu  Cu15  1  0.99617158  0.99252484  0.14504275  1
  Cu  Cu16  1  0.66312563  0.33124319  0.68625633  1
  Cu  Cu17  1  0.67722248  0.33419748  0.18501999  1
  Cu  Cu18  1  0.32768886  0.65937373  0.01888223  1
  Cu  Cu19  1  0.34815460  0.67515842  0.51281614  1
  Cu  Cu20  1  0.33632920  0.68033002  0.32267564  1
  C  C21  1  0.66966680  0.31829173  0.98012667  1
  C  C22  1  0.66556303  0.34471685  0.48420149  1
  C  C23  1  0.31308556  0.67316822  0.82294089  1
  C  C24  1  0.66708841  0.62827474  0.58306317  1
  C  C25  1  0.03370246  0.37265290  0.91842389  1
  C  C26  1  0.33699677  0.96635768  0.91956435  1
  C  C27  1  0.29904688  0.00068283  0.24944128  1
  C  C28  1  0.69030230  0.69391608  0.24971723  1
  C  C29  1  0.00790951  0.30196160  0.25070258  1
  C  C30  1  0.30869184  0.32687188  0.75380237  1
  C  C31  1  0.01270230  0.69211185  0.75399669  1
  C  C32  1  0.67164296  0.98193073  0.75677252  1
  C  C33  1  0.95515228  0.33416715  0.57843704  1
  C  C34  1  0.37464345  0.04595354  0.57990088  1
  C  C35  1  0.94917999  0.62223561  0.07767431  1
  C  C36  1  0.67470121  0.04795128  0.07844280  1
  C  C37  1  0.38346369  0.32900335  0.07951888  1
  C  C38  1  0.62117271  0.65577405  0.91564598  1
  C  C39  1  0.64427976  0.99356912  0.41978307  1
  C  C40  1  0.34545672  0.35630116  0.42001417  1
  C  C41  1  0.01313942  0.65389925  0.42310050  1
  C  C42  1  0.21135068  0.01250149  0.30055604  1
  C  C43  1  0.78518511  0.77835443  0.30109853  1
  C  C44  1  0.99590606  0.20558138  0.30186138  1
  C  C45  1  0.22043184  0.22477840  0.80402670  1
  C  C46  1  0.99296666  0.77370703  0.80479119  1
  C  C47  1  0.76703463  0.99892114  0.80891762  1
  C  C48  1  0.75822352  0.96582323  0.70567352  1
  C  C49  1  0.21382934  0.24682561  0.70046393  1
  C  C50  1  0.03400223  0.78876373  0.70144499  1
  C  C51  1  0.77573041  0.78784406  0.19787306  1
  C  C52  1  0.02032386  0.21630026  0.19875295  1
  C  C53  1  0.20323773  0.98820262  0.19745600  1
  C  C54  1  0.87624108  0.34349658  0.63134253  1
  C  C55  1  0.46927158  0.11152142  0.63249336  1
  C  C56  1  0.64760332  0.51245263  0.63594957  1
  C  C57  1  0.86223006  0.53544318  0.12950382  1
  C  C58  1  0.66670515  0.13401663  0.12913660  1
  C  C59  1  0.46521417  0.32976680  0.13284590  1
  C  C60  1  0.48858245  0.32675179  0.02839816  1
  C  C61  1  0.85084383  0.51884925  0.02590870  1
  C  C62  1  0.67545852  0.14969501  0.02549825  1
  C  C63  1  0.47694200  0.14967510  0.52966517  1
  C  C64  1  0.67088515  0.50345304  0.52648527  1
  C  C65  1  0.84576325  0.31836104  0.52827129  1
  C  C66  1  0.55959316  0.69224345  0.96771510  1
  C  C67  1  0.16482221  0.43891404  0.96898201  1
  C  C68  1  0.30184800  0.84492355  0.97120985  1
  C  C69  1  0.56055424  0.88995674  0.46971490  1
  C  C70  1  0.32732712  0.44126569  0.47039687  1
  C  C71  1  0.10960231  0.67353343  0.47510369  1
  C  C72  1  0.09450061  0.63096670  0.37241453  1
  C  C73  1  0.54546757  0.91743532  0.36754441  1
  C  C74  1  0.37420913  0.45598959  0.36775137  1
  C  C75  1  0.13408257  0.51469034  0.86399187  1
  C  C76  1  0.36587932  0.86529662  0.86237829  1
  C  C77  1  0.50809794  0.63335442  0.86635256  1
  C  C78  1  0.98303401  0.79577025  0.41746453  1
  C  C79  1  0.81667009  0.01785368  0.41582343  1
  C  C80  1  0.20039251  0.18524045  0.41579438  1
  C  C81  1  0.97971705  0.18099184  0.90415313  1
  C  C82  1  0.18508855  0.00474665  0.90957770  1
  C  C83  1  0.79680785  0.79616442  0.90604515  1
  C  C84  1  0.98456776  0.18958896  0.57798315  1
  C  C85  1  0.21523547  0.05479538  0.58130329  1
  C  C86  1  0.84881602  0.80240302  0.57826476  1
  C  C87  1  0.95755060  0.78688738  0.07260692  1
  C  C88  1  0.83351563  0.04475324  0.07402927  1
  C  C89  1  0.21534269  0.17487064  0.07454824  1
  C  C90  1  0.64850093  0.12936738  0.75233183  1
  C  C91  1  0.47987447  0.34716554  0.75232928  1
  C  C92  1  0.87072667  0.51792953  0.75081031  1
  C  C93  1  0.66537093  0.51955543  0.24838233  1
  C  C94  1  0.86003603  0.32641921  0.24903417  1
  C  C95  1  0.46699135  0.16111751  0.24822422  1
  C  C96  1  0.62668857  0.49446301  0.91991369  1
  C  C97  1  0.85195032  0.37602896  0.92920130  1
  C  C98  1  0.51944920  0.15361411  0.92723920  1
  C  C99  1  0.65926255  0.16315560  0.42658071  1
  C  C100  1  0.50312270  0.34027544  0.42746993  1
  C  C101  1  0.84168630  0.49229221  0.42783408  1
  C  C102  1  0.37180920  0.48234075  0.07705581  1
  C  C103  1  0.11916067  0.64205890  0.07796716  1
  C  C104  1  0.52512846  0.87978930  0.07564703  1
  C  C105  1  0.32834945  0.86883567  0.57260821  1
  C  C106  1  0.49622504  0.63899090  0.57846179  1
  C  C107  1  0.12136336  0.49243743  0.57329609  1
  C  C108  1  0.32397136  0.85390596  0.25216340  1
  C  C109  1  0.51525631  0.67011857  0.25191746  1
  C  C110  1  0.16836719  0.47014228  0.25316593  1
  C  C111  1  0.32289231  0.49613500  0.75996619  1
  C  C112  1  0.17569052  0.68641038  0.76043647  1
  C  C113  1  0.50254964  0.82329671  0.76022556  1
