# generated using pymatgen
data_Cu3Ni9C70
_symmetry_space_group_name_H-M   'P 1'
_cell_length_a   17.97861335
_cell_length_b   9.02108612
_cell_length_c   22.12176687
_cell_angle_alpha   90.24425442
_cell_angle_beta   89.94155467
_cell_angle_gamma   120.10446057
_symmetry_Int_Tables_number   1
_chemical_formula_structural   Cu3Ni9C70
_chemical_formula_sum   'Cu9 Ni27 C210'
_cell_volume   3103.86660065
_cell_formula_units_Z   3
loop_
 _symmetry_equiv_pos_site_id
 _symmetry_equiv_pos_as_xyz
  1  'x, y, z'
loop_
 _atom_site_type_symbol
 _atom_site_label
 _atom_site_symmetry_multiplicity
 _atom_site_fract_x
 _atom_site_fract_y
 _atom_site_fract_z
 _atom_site_occupancy
  C  C0  1  0.31378824  0.00293974  0.24669083  1
  C  C1  1  0.81492893  0.01138025  0.24757380  1
  C  C2  1  0.18788399  0.36907636  0.25292391  1
  C  C3  1  0.69095145  0.36795829  0.24941605  1
  C  C4  1  0.99427720  0.62218442  0.25222180  1
  C  C5  1  0.49680792  0.63181745  0.24875511  1
  C  C6  1  0.31527311  0.61772887  0.74384655  1
  C  C7  1  0.81433717  0.62617023  0.74358398  1
  C  C8  1  0.99517091  0.35520258  0.74424955  1
  C  C9  1  0.49509990  0.36992645  0.74979185  1
  C  C10  1  0.19136178  0.01842990  0.74595857  1
  C  C11  1  0.68947675  0.00628004  0.75017074  1
  C  C12  1  0.15422377  0.33929089  0.58479054  1
  C  C13  1  0.65633343  0.34856738  0.57951676  1
  C  C14  1  0.01250396  0.69470716  0.58181740  1
  C  C15  1  0.51509739  0.69568333  0.57617589  1
  C  C16  1  0.33047320  0.96646502  0.58365165  1
  C  C17  1  0.83007289  0.95564716  0.57654762  1
  C  C18  1  0.15596674  0.96478932  0.08356635  1
  C  C19  1  0.65493945  0.96986425  0.08648357  1
  C  C20  1  0.33318257  0.70445582  0.08429974  1
  C  C21  1  0.83077609  0.69554480  0.08573131  1
  C  C22  1  0.01364417  0.33033959  0.07978479  1
  C  C23  1  0.51463351  0.33149719  0.08491244  1
  C  C24  1  0.98396754  0.67121255  0.91840668  1
  C  C25  1  0.34972207  0.03544602  0.91523601  1
  C  C26  1  0.16431690  0.29515628  0.91620708  1
  C  C27  1  0.48618293  0.30066050  0.41800830  1
  C  C28  1  0.66829512  0.03323804  0.41637145  1
  C  C29  1  0.84813674  0.66995045  0.41954116  1
  C  C30  1  0.00072904  0.00083941  0.49559705  1
  C  C31  1  0.49518727  0.98980561  0.49453261  1
  C  C32  1  0.99315050  0.99912543  0.99567654  1
  C  C33  1  0.50636281  0.00876118  0.00033781  1
  C  C34  1  0.33606914  0.33828913  0.82787485  1
  C  C35  1  0.82818124  0.32156328  0.83348850  1
  C  C36  1  0.32831707  0.33467476  0.33355515  1
  C  C37  1  0.83516261  0.32916101  0.33072827  1
  C  C38  1  0.17105857  0.67521012  0.16941383  1
  C  C39  1  0.66870471  0.67435448  0.16779855  1
  C  C40  1  0.16840031  0.66232173  0.66294281  1
  C  C41  1  0.67239541  0.66781733  0.66571534  1
  C  C42  1  0.32795176  0.33202482  0.68745571  1
  C  C43  1  0.83379329  0.33357081  0.68387401  1
  C  C44  1  0.33410821  0.33266741  0.18560816  1
  C  C45  1  0.82738730  0.32326937  0.18850423  1
  C  C46  1  0.16541521  0.67233581  0.01435030  1
  C  C47  1  0.67086482  0.66493237  0.51140828  1
  C  C48  1  0.99658253  0.99367434  0.35056264  1
  C  C49  1  0.49817184  0.97878605  0.35761761  1
  C  C50  1  0.99680565  0.01618077  0.85700925  1
  C  C51  1  0.50440250  0.01234292  0.84774099  1
  C  C52  1  0.99593951  0.01355044  0.64103449  1
  C  C53  1  0.49471669  0.98420230  0.65394700  1
  C  C54  1  0.99504326  0.00332798  0.15542848  1
  C  C55  1  0.49762021  0.98064043  0.14416134  1
  C  C56  1  0.34656564  0.32820775  0.98004834  1
  C  C57  1  0.82598202  0.31556845  0.97813153  1
  C  C58  1  0.32625493  0.33711618  0.47742582  1
  C  C59  1  0.84692132  0.35401407  0.47475073  1
  C  C60  1  0.66933693  0.65375778  0.02115985  1
  C  C61  1  0.16922378  0.68394256  0.52018335  1
  C  C62  1  0.16619016  0.68339261  0.31122549  1
  C  C63  1  0.67171533  0.67998830  0.32079266  1
  C  C64  1  0.16371985  0.66699485  0.81573416  1
  C  C65  1  0.66654877  0.65045176  0.81137551  1
  Ni  Ni66  1  0.14472440  0.00470653  0.24987395  1
  Ni  Ni67  1  0.64283913  0.99446943  0.25186684  1
  Ni  Ni68  1  0.35425135  0.70877542  0.25011998  1
  Ni  Ni69  1  0.85065133  0.70426273  0.25158595  1
  Ni  Ni70  1  0.00177406  0.29530651  0.25313195  1
  Ni  Ni71  1  0.14240246  0.28861266  0.75204440  1
  Ni  Ni72  1  0.64672355  0.28948512  0.74717334  1
  Ni  Ni73  1  0.50180041  0.70939564  0.75358868  1
  Ni  Ni74  1  0.35210908  0.99684163  0.75222208  1
  Ni  Ni75  1  0.85410284  0.99940708  0.74994376  1
  Ni  Ni76  1  0.97926855  0.34002387  0.58369526  1
  Ni  Ni77  1  0.18906130  0.04620125  0.58539046  1
  Ni  Ni78  1  0.33474729  0.62723155  0.58389646  1
  Ni  Ni79  1  0.83015270  0.62300828  0.58627953  1
  Ni  Ni80  1  0.47934115  0.62011289  0.08368375  1
  Ni  Ni81  1  0.33109659  0.03205678  0.08681960  1
  Ni  Ni82  1  0.83521242  0.04205669  0.08325102  1
  Ni  Ni83  1  0.68892865  0.33175804  0.08540605  1
  Ni  Ni84  1  0.81150905  0.66254497  0.91652586  1
  Ni  Ni85  1  0.01927621  0.37806796  0.92009122  1
  Ni  Ni86  1  0.52541611  0.37490798  0.91588666  1
  Ni  Ni87  1  0.16591583  0.96325481  0.91770235  1
  Ni  Ni88  1  0.31167391  0.96037919  0.41666324  1
  Ni  Ni89  1  0.81900178  0.97057709  0.41996524  1
  Ni  Ni90  1  0.66509457  0.37088028  0.41732371  1
  Ni  Ni91  1  0.02649000  0.67688908  0.41569501  1
  Ni  Ni92  1  0.51941698  0.65982632  0.41983881  1
  Cu  Cu93  1  0.50095538  0.28883094  0.25000246  1
  Cu  Cu94  1  0.00111046  0.71231466  0.75117011  1
  Cu  Cu95  1  0.47861846  0.33245963  0.58381320  1
  Cu  Cu96  1  0.68543142  0.04015323  0.58388186  1
  Cu  Cu97  1  0.97879348  0.62392850  0.08356660  1
  Cu  Cu98  1  0.18745162  0.33275620  0.08263160  1
  Cu  Cu99  1  0.31386008  0.66650019  0.91679834  1
  Cu  Cu100  1  0.66448856  0.95343223  0.91654796  1
  Cu  Cu101  1  0.16579850  0.37834449  0.41656092  1
  C  C102  1  0.09410421  0.02864564  0.30644664  1
  C  C103  1  0.59378412  0.02260792  0.30911749  1
  C  C104  1  0.41905829  0.81449424  0.30568056  1
  C  C105  1  0.91456908  0.80284518  0.30896287  1
  C  C106  1  0.48809297  0.18442347  0.30445155  1
  C  C107  1  0.98644286  0.16072661  0.30682446  1
  C  C108  1  0.09417519  0.16462886  0.81007136  1
  C  C109  1  0.59592022  0.16530213  0.80550882  1
  C  C110  1  0.48701362  0.81484754  0.80841743  1
  C  C111  1  0.98966302  0.79240718  0.80575320  1
  C  C112  1  0.41505338  0.02353694  0.81047552  1
  C  C113  1  0.91873202  0.02366714  0.80617986  1
  C  C114  1  0.39845610  0.95950448  0.69292310  1
  C  C115  1  0.89889506  0.96295980  0.69018157  1
  C  C116  1  0.08038502  0.19813159  0.69193107  1
  C  C117  1  0.58153446  0.19731282  0.68896955  1
  C  C118  1  0.01601853  0.81636470  0.69631804  1
  C  C119  1  0.51807400  0.83511481  0.69274958  1
  C  C120  1  0.39868873  0.83350309  0.18927331  1
  C  C121  1  0.89848794  0.83674559  0.19225871  1
  C  C122  1  0.01887415  0.20306316  0.19124491  1
  C  C123  1  0.51306388  0.20784918  0.19467555  1
  C  C124  1  0.08204054  0.96683514  0.18866061  1
  C  C125  1  0.58041411  0.96743340  0.19122496  1
  C  C126  1  0.43893258  0.35548659  0.63911746  1
  C  C127  1  0.94491625  0.37876224  0.64523450  1
  C  C128  1  0.24828672  0.11097881  0.64470581  1
  C  C129  1  0.73765903  0.11756941  0.63894571  1
  C  C130  1  0.31617124  0.51558787  0.64413381  1
  C  C131  1  0.81386280  0.50761399  0.64546775  1
  C  C132  1  0.44282521  0.50750361  0.14336079  1
  C  C133  1  0.93966116  0.52290318  0.13774027  1
  C  C134  1  0.31104370  0.11737024  0.14319323  1
  C  C135  1  0.81576422  0.11831433  0.14268528  1
  C  C136  1  0.23899733  0.36019163  0.13687523  1
  C  C137  1  0.74932223  0.38602649  0.14359419  1
  C  C138  1  0.22797802  0.30848087  0.02724303  1
  C  C139  1  0.73784685  0.30031527  0.02664292  1
  C  C140  1  0.41164699  0.52437743  0.02599745  1
  C  C141  1  0.92561511  0.54517792  0.02833134  1
  C  C142  1  0.34862387  0.16251291  0.02538617  1
  C  C143  1  0.85163386  0.17385152  0.02510177  1
  C  C144  1  0.23767322  0.17614205  0.52756505  1
  C  C145  1  0.72521868  0.14524183  0.52961682  1
  C  C146  1  0.35213513  0.53026704  0.52606562  1
  C  C147  1  0.84829728  0.53003564  0.52606776  1
  C  C148  1  0.42534823  0.30402849  0.52953450  1
  C  C149  1  0.91283842  0.29926184  0.52658580  1
  C  C150  1  0.27453045  0.69423901  0.97162196  1
  C  C151  1  0.76571485  0.69391417  0.97544121  1
  C  C152  1  0.08036473  0.45082323  0.97838530  1
  C  C153  1  0.58212818  0.47091214  0.97548617  1
  C  C154  1  0.14711654  0.84634434  0.97636483  1
  C  C155  1  0.65449729  0.85432319  0.97169706  1
  C  C156  1  0.26601392  0.83805045  0.47571549  1
  C  C157  1  0.77980274  0.84936583  0.47782308  1
  C  C158  1  0.15642679  0.45920969  0.47209378  1
  C  C159  1  0.64059634  0.43954065  0.47691928  1
  C  C160  1  0.08305098  0.69125759  0.47543530  1
  C  C161  1  0.57764948  0.70580982  0.47958127  1
  C  C162  1  0.06942081  0.64010279  0.35596133  1
  C  C163  1  0.56670344  0.63140896  0.35917217  1
  C  C164  1  0.24997211  0.86246728  0.35735970  1
  C  C165  1  0.75245594  0.87241075  0.35967950  1
  C  C166  1  0.17920003  0.48149968  0.36165960  1
  C  C167  1  0.68367803  0.50331491  0.35856804  1
  C  C168  1  0.07049603  0.50547540  0.86045197  1
  C  C169  1  0.56804599  0.49416134  0.85589101  1
  C  C170  1  0.18455266  0.86633351  0.85873268  1
  C  C171  1  0.67772146  0.87612159  0.86141239  1
  C  C172  1  0.25833458  0.64055946  0.86219302  1
  C  C173  1  0.74958080  0.63769201  0.85747894  1
  C  C174  1  0.01132871  0.83969452  0.41185475  1
  C  C175  1  0.51114608  0.83304131  0.40988294  1
  C  C176  1  0.40859618  0.98900135  0.40873865  1
  C  C177  1  0.91175857  0.98288884  0.40838429  1
  C  C178  1  0.09005131  0.20473104  0.41232252  1
  C  C179  1  0.58030046  0.17998123  0.40599799  1
  C  C180  1  0.01118137  0.18920914  0.91001388  1
  C  C181  1  0.50704265  0.17670714  0.91192064  1
  C  C182  1  0.08040617  0.97977780  0.90725826  1
  C  C183  1  0.58809421  0.97514061  0.91183679  1
  C  C184  1  0.39903005  0.82143112  0.91089732  1
  C  C185  1  0.90850481  0.82834711  0.90832830  1
  C  C186  1  0.48843809  0.17612175  0.58751709  1
  C  C187  1  0.98675979  0.16178437  0.58669001  1
  C  C188  1  0.09232087  0.02325873  0.59005749  1
  C  C189  1  0.59820664  0.02745432  0.58849072  1
  C  C190  1  0.42337707  0.82421015  0.58757363  1
  C  C191  1  0.92145662  0.81417292  0.59023872  1
  C  C192  1  0.48659794  0.81203851  0.08639951  1
  C  C193  1  0.98912148  0.80051208  0.08654748  1
  C  C194  1  0.42192601  0.02770928  0.08797701  1
  C  C195  1  0.92326860  0.02165862  0.08626955  1
  C  C196  1  0.10030004  0.17280641  0.08607041  1
  C  C197  1  0.59251106  0.16163259  0.08877027  1
  C  C198  1  0.34768938  0.16909270  0.74886514  1
  C  C199  1  0.84556238  0.16873854  0.74706504  1
  C  C200  1  0.23706150  0.31134331  0.75061535  1
  C  C201  1  0.74029784  0.30937918  0.74798469  1
  C  C202  1  0.41861661  0.52316841  0.74736343  1
  C  C203  1  0.92539526  0.53849267  0.74749261  1
  C  C204  1  0.34589424  0.52272952  0.24616773  1
  C  C205  1  0.84759710  0.52462874  0.24712695  1
  C  C206  1  0.42346418  0.30762912  0.24593165  1
  C  C207  1  0.91896954  0.31569844  0.24589198  1
  C  C208  1  0.23957953  0.16986740  0.24748917  1
  C  C209  1  0.73645585  0.16273259  0.24970779  1
  C  C210  1  0.31801331  0.50705419  0.92067197  1
  C  C211  1  0.82349850  0.49448755  0.92513803  1
  C  C212  1  0.42735591  0.35278143  0.92216810  1
  C  C213  1  0.92600587  0.36783441  0.92188923  1
  C  C214  1  0.25265232  0.15795468  0.92270507  1
  C  C215  1  0.74394746  0.12926466  0.92089502  1
  C  C216  1  0.32292000  0.15191607  0.42564786  1
  C  C217  1  0.81859731  0.15171830  0.42273083  1
  C  C218  1  0.24568664  0.36243265  0.42113603  1
  C  C219  1  0.75219417  0.35439455  0.42280589  1
  C  C220  1  0.42468311  0.48391602  0.42291613  1
  C  C221  1  0.92924253  0.50433524  0.42101573  1
  C  C222  1  0.17583423  0.48488202  0.07751808  1
  C  C223  1  0.67538910  0.50009220  0.07506060  1
  C  C224  1  0.06600998  0.64207056  0.07850821  1
  C  C225  1  0.57694940  0.65482403  0.07204796  1
  C  C226  1  0.24953653  0.83918903  0.07744009  1
  C  C227  1  0.75010170  0.85059265  0.07285590  1
  C  C228  1  0.17518720  0.85053571  0.57529293  1
  C  C229  1  0.67275092  0.86502883  0.57989030  1
  C  C230  1  0.25059374  0.65104071  0.57414233  1
  C  C231  1  0.74765541  0.65176094  0.58088243  1
  C  C232  1  0.07749175  0.49996620  0.57311190  1
  C  C233  1  0.56558420  0.48886610  0.57971411  1
  C  C234  1  0.15001397  0.82564064  0.25411785  1
  C  C235  1  0.64732141  0.81609295  0.25487533  1
  C  C236  1  0.25958157  0.69369624  0.25612033  1
  C  C237  1  0.75676457  0.69322615  0.25478889  1
  C  C238  1  0.09165630  0.47992464  0.25663962  1
  C  C239  1  0.57934234  0.46161920  0.25357148  1
  C  C240  1  0.15027466  0.48065980  0.75921480  1
  C  C241  1  0.65060119  0.47619308  0.75386363  1
  C  C242  1  0.08135384  0.69586690  0.75570319  1
  C  C243  1  0.59126366  0.70385452  0.75758394  1
  C  C244  1  0.25819316  0.81915178  0.75743193  1
  C  C245  1  0.75925238  0.82579842  0.75748351  1
