# generated using pymatgen
data_CuNi11C7
_symmetry_space_group_name_H-M   'P 1'
_cell_length_a   5.05912163
_cell_length_b   5.11797768
_cell_length_c   8.68781609
_cell_angle_alpha   90.00677497
_cell_angle_beta   89.99422273
_cell_angle_gamma   98.83532736
_symmetry_Int_Tables_number   1
_chemical_formula_structural   CuNi11C7
_chemical_formula_sum   'Cu1 Ni11 C7'
_cell_volume   222.27975343
_cell_formula_units_Z   1
loop_
 _symmetry_equiv_pos_site_id
 _symmetry_equiv_pos_as_xyz
  1  'x, y, z'
loop_
 _atom_site_type_symbol
 _atom_site_label
 _atom_site_symmetry_multiplicity
 _atom_site_fract_x
 _atom_site_fract_y
 _atom_site_fract_z
 _atom_site_occupancy
  C  C0  1  0.48286253  0.95588662  0.33656027  1
  C  C1  1  0.00875909  0.99574184  0.00694913  1
  C  C2  1  -0.00341762  0.02578456  0.33642304  1
  C  C3  1  0.00938289  0.99577536  0.66735231  1
  C  C4  1  0.55932353  0.45031384  0.15819174  1
  C  C5  1  0.42871084  0.57390580  0.83639922  1
  C  C6  1  0.56178471  0.44844542  0.51603279  1
  Ni  Ni7  1  0.17781876  0.86520642  0.18647605  1
  Ni  Ni8  1  0.17818107  0.86687257  0.48704569  1
  Ni  Ni9  1  0.18355350  0.83223953  0.83722835  1
  Ni  Ni10  1  0.30182793  0.32409882  0.00589012  1
  Ni  Ni11  1  0.33699746  0.31012247  0.33566329  1
  Ni  Ni12  1  0.30009302  0.32379992  0.66867692  1
  Ni  Ni13  1  0.69390901  0.68995878  0.00385451  1
  Ni  Ni14  1  0.70107462  0.67059001  0.33584962  1
  Ni  Ni15  1  0.69524761  0.69075623  0.67107335  1
  Ni  Ni16  1  0.78498809  0.15730033  0.18098126  1
  Ni  Ni17  1  0.78495490  0.15649109  0.49211759  1
  Cu  Cu18  1  0.82783506  0.16671243  0.83723274  1
