# generated using pymatgen
data_Cu10NiC32
_symmetry_space_group_name_H-M   'P 1'
_cell_length_a   6.20400160
_cell_length_b   8.21463880
_cell_length_c   10.17715767
_cell_angle_alpha   91.00218289
_cell_angle_beta   89.94182737
_cell_angle_gamma   90.07837147
_symmetry_Int_Tables_number   1
_chemical_formula_structural   Cu10NiC32
_chemical_formula_sum   'Cu10 Ni1 C32'
_cell_volume   518.58484036
_cell_formula_units_Z   1
loop_
 _symmetry_equiv_pos_site_id
 _symmetry_equiv_pos_as_xyz
  1  'x, y, z'
loop_
 _atom_site_type_symbol
 _atom_site_label
 _atom_site_symmetry_multiplicity
 _atom_site_fract_x
 _atom_site_fract_y
 _atom_site_fract_z
 _atom_site_occupancy
  Ni  Ni0  1  0.24293000  0.45996600  0.47156200  1
  Cu  Cu1  1  0.50257300  0.14276800  0.79181100  1
  Cu  Cu2  1  0.74943000  0.21922700  0.45751600  1
  Cu  Cu3  1  0.25215900  0.79093000  0.55120600  1
  Cu  Cu4  1  0.50170400  0.84728300  0.21338700  1
  Cu  Cu5  1  0.99552800  0.84686600  0.21294700  1
  Cu  Cu6  1  0.24710800  0.85618700  0.92727700  1
  Cu  Cu7  1  0.75319400  0.43469600  0.88373100  1
  Cu  Cu8  1  0.26189600  0.55874900  0.10229500  1
  Cu  Cu9  1  0.00174700  0.14212600  0.79171400  1
  Cu  Cu10  1  0.74187200  0.14543900  0.08016100  1
  C  C11  1  0.25176900  0.14148100  0.52184000  1
  C  C12  1  0.75110500  0.84881800  0.48291900  1
  C  C13  1  0.74859300  0.49824600  0.22559100  1
  C  C14  1  0.24977000  0.14949900  0.12005600  1
  C  C15  1  0.74922000  0.84463200  0.89032600  1
  C  C16  1  0.25108000  0.49221400  0.78140900  1
  C  C17  1  0.25310100  0.98265000  0.44238900  1
  C  C18  1  0.75050600  0.88607000  0.32883200  1
  C  C19  1  0.95364500  0.61013400  0.21234100  1
  C  C20  1  0.54416200  0.90586400  0.81635100  1
  C  C21  1  0.74280600  0.37973300  0.10463800  1
  C  C22  1  0.04450900  0.08032500  0.19066500  1
  C  C23  1  0.95217500  0.74649600  0.51487100  1
  C  C24  1  0.95763400  0.90507200  0.81804300  1
  C  C25  1  0.24965000  0.61811000  0.89565400  1
  C  C26  1  0.25078000  0.09088500  0.97259200  1
  C  C27  1  0.74808100  0.66177100  0.90232600  1
  C  C28  1  0.45587000  0.38405800  0.79193700  1
  C  C29  1  0.25123000  0.57401300  0.64378000  1
  C  C30  1  0.24701000  0.79245800  0.11600600  1
  C  C31  1  0.53626800  0.60385300  0.22234600  1
  C  C32  1  0.43996300  0.26183000  0.48759200  1
  C  C33  1  0.74943500  0.01824900  0.55329500  1
  C  C34  1  0.45909800  0.08674000  0.18980000  1
  C  C35  1  0.25280600  0.09984800  0.67177800  1
  C  C36  1  0.76348000  0.41363700  0.35741000  1
  C  C37  1  0.55121700  0.74529600  0.51538000  1
  C  C38  1  0.05941100  0.25807000  0.49044100  1
  C  C39  1  0.74681300  0.91596500  0.03500500  1
  C  C40  1  0.75279600  0.20164400  0.89301800  1
  C  C41  1  0.04546600  0.38393200  0.79035800  1
  C  C42  1  0.24041000  0.33354300  0.13115100  1
