# generated using pymatgen
data_CuNi3C16
_symmetry_space_group_name_H-M   'P 1'
_cell_length_a   9.35241881
_cell_length_b   9.37805480
_cell_length_c   23.08060668
_cell_angle_alpha   90.09850573
_cell_angle_beta   90.50152319
_cell_angle_gamma   119.81812713
_symmetry_Int_Tables_number   1
_chemical_formula_structural   CuNi3C16
_chemical_formula_sum   'Cu6 Ni18 C96'
_cell_volume   1756.22557039
_cell_formula_units_Z   6
loop_
 _symmetry_equiv_pos_site_id
 _symmetry_equiv_pos_as_xyz
  1  'x, y, z'
loop_
 _atom_site_type_symbol
 _atom_site_label
 _atom_site_symmetry_multiplicity
 _atom_site_fract_x
 _atom_site_fract_y
 _atom_site_fract_z
 _atom_site_occupancy
  Ni  Ni0  1  0.37167265  0.34292448  0.24165835  1
  Ni  Ni1  1  0.00339775  0.64538125  0.23370440  1
  Ni  Ni2  1  0.98309262  0.34081103  0.74049312  1
  Ni  Ni3  1  0.38674366  0.03631647  0.74112279  1
  Ni  Ni4  1  0.30081753  0.33278088  0.57925214  1
  Ni  Ni5  1  0.65226745  0.98655352  0.59768488  1
  Ni  Ni6  1  0.30620217  0.96453274  0.06743568  1
  Ni  Ni7  1  0.65534589  0.67477170  0.08096884  1
  Ni  Ni8  1  0.99862973  0.69001387  0.91741700  1
  Ni  Ni9  1  0.32115255  0.28002565  0.90257134  1
  Ni  Ni10  1  0.99980492  0.30669581  0.43217635  1
  Ni  Ni11  1  0.32063468  0.04133100  0.41133646  1
  Ni  Ni12  1  0.01375701  0.00193733  0.50761235  1
  Ni  Ni13  1  0.01426547  0.01418225  0.99281138  1
  Ni  Ni14  1  0.64493231  0.30552375  0.82258080  1
  Ni  Ni15  1  0.63684843  0.31488356  0.33169961  1
  Ni  Ni16  1  0.30903092  0.64693443  0.15303774  1
  Ni  Ni17  1  0.31017282  0.66207993  0.65895504  1
  Cu  Cu18  1  0.00323057  0.00209540  0.34980896  1
  Cu  Cu19  1  0.99871891  0.00213051  0.84747829  1
  Cu  Cu20  1  0.66595901  0.33840706  0.68348562  1
  Cu  Cu21  1  0.66484127  0.32483494  0.18211330  1
  Cu  Cu22  1  0.32138077  0.66125074  0.01685282  1
  Cu  Cu23  1  0.32249404  0.65939381  0.51945956  1
  C  C24  1  0.00373666  0.02012987  0.65041024  1
  C  C25  1  0.02041093  0.99973604  0.14432677  1
  C  C26  1  0.65686246  0.32573139  0.98532423  1
  C  C27  1  0.65242367  0.32973742  0.48817138  1
  C  C28  1  0.34201135  0.66633633  0.31509834  1
  C  C29  1  0.35505190  0.68917044  0.81047549  1
  C  C30  1  0.30356962  0.99349242  0.25477101  1
  C  C31  1  0.30114121  0.30970813  0.75591297  1
  C  C32  1  0.70174432  0.00075335  0.74892748  1
  C  C33  1  0.96349675  0.32817128  0.58477173  1
  C  C34  1  0.35794424  0.03104569  0.58719126  1
  C  C35  1  0.96309354  0.63119915  0.08767461  1
  C  C36  1  0.36892162  0.33449332  0.08851013  1
  C  C37  1  0.33694727  0.97041795  0.92021850  1
  C  C38  1  0.34131793  0.36802303  0.41723132  1
  C  C39  1  0.69813137  0.70646834  0.24937618  1
  C  C40  1  0.00800022  0.30190982  0.25257943  1
  C  C41  1  0.00923824  0.70838432  0.75269822  1
  C  C42  1  0.67729028  0.63844746  0.58268484  1
  C  C43  1  0.67652293  0.03779851  0.08326539  1
  C  C44  1  0.62853402  0.65814075  0.91971953  1
  C  C45  1  0.02883467  0.37221852  0.91568379  1
  C  C46  1  0.62570829  0.96684698  0.41770660  1
  C  C47  1  0.03354454  0.65640410  0.41259761  1
  C  C48  1  0.21555481  0.00864116  0.31197811  1
  C  C49  1  0.79235390  0.79351173  0.30081818  1
  C  C50  1  0.99077283  0.21646123  0.30716419  1
  C  C51  1  0.22438145  0.20249238  0.81322834  1
  C  C52  1  0.99271493  0.77294739  0.80864517  1
  C  C53  1  0.80551141  0.01038870  0.80444103  1
  C  C54  1  0.78846887  0.97591768  0.68864878  1
  C  C55  1  0.17011704  0.20540134  0.69853098  1
  C  C56  1  0.02466023  0.81888988  0.70381296  1
  C  C57  1  0.77382544  0.80140776  0.19556445  1
  C  C58  1  0.02062770  0.20793580  0.20241792  1
  C  C59  1  0.17368320  0.97082612  0.19728852  1
  C  C60  1  0.88115248  0.34449530  0.64259463  1
  C  C61  1  0.46213272  0.11839408  0.64417710  1
  C  C62  1  0.65288415  0.54162460  0.63413671  1
  C  C63  1  0.88493366  0.54209309  0.14761207  1
  C  C64  1  0.64845873  0.10828922  0.13517066  1
  C  C65  1  0.45838040  0.34694213  0.14924898  1
  C  C66  1  0.46955814  0.30091008  0.03365293  1
  C  C67  1  0.83918404  0.52850727  0.03087535  1
  C  C68  1  0.69452839  0.14229294  0.03153340  1
  C  C69  1  0.45979209  0.16300613  0.52893555  1
  C  C70  1  0.68877125  0.54535438  0.52992312  1
  C  C71  1  0.84483853  0.31277350  0.52458261  1
  C  C72  1  0.55913850  0.67818046  0.97363209  1
  C  C73  1  0.13176149  0.44986572  0.96715369  1
  C  C74  1  0.32297315  0.87342283  0.97890629  1
  C  C75  1  0.55426989  0.87773054  0.47045340  1
  C  C76  1  0.31910709  0.45436507  0.47311975  1
  C  C77  1  0.13658132  0.68632488  0.46390211  1
  C  C78  1  0.12563510  0.64243316  0.36008802  1
  C  C79  1  0.51673593  0.87246171  0.36595114  1
  C  C80  1  0.35486003  0.48633938  0.35826113  1
  C  C81  1  0.10800370  0.47272785  0.86330462  1
  C  C82  1  0.34853631  0.86238956  0.86358818  1
  C  C83  1  0.52016813  0.64146938  0.86906694  1
  C  C84  1  0.00330502  0.79459972  0.40588948  1
  C  C85  1  0.79481554  0.99921289  0.40977754  1
  C  C86  1  0.17659825  0.18534322  0.41392194  1
  C  C87  1  0.00377349  0.20461362  0.91206539  1
  C  C88  1  0.17299760  0.99012277  0.91770699  1
  C  C89  1  0.79949411  0.79204797  0.91339074  1
  C  C90  1  0.95967391  0.14536013  0.58415690  1
  C  C91  1  0.17715891  0.02428108  0.58741977  1
  C  C92  1  0.83212155  0.79955251  0.58403865  1
  C  C93  1  0.95813042  0.81325977  0.08846456  1
  C  C94  1  0.83055681  0.02735263  0.08831628  1
  C  C95  1  0.18408470  0.15852447  0.08796996  1
  C  C96  1  0.67823715  0.16037481  0.74739126  1
  C  C97  1  0.48196223  0.33444531  0.74738244  1
  C  C98  1  0.87426032  0.53977122  0.74511365  1
  C  C99  1  0.68169662  0.54062584  0.24794745  1
  C  C100  1  0.87436933  0.34063148  0.24667581  1
  C  C101  1  0.48171628  0.15668687  0.24982824  1
  C  C102  1  0.63142177  0.49712461  0.92142147  1
  C  C103  1  0.86583732  0.36839408  0.92205384  1
  C  C104  1  0.50544983  0.16037054  0.92178626  1
  C  C105  1  0.62865594  0.12992993  0.41750412  1
  C  C106  1  0.50941920  0.34612735  0.41791507  1
  C  C107  1  0.87582755  0.49592972  0.41514894  1
  C  C108  1  0.36276264  0.50086622  0.07914616  1
  C  C109  1  0.15465297  0.68353220  0.08294916  1
  C  C110  1  0.53654394  0.86964092  0.07556567  1
  C  C111  1  0.35939265  0.86228794  0.57727242  1
  C  C112  1  0.53513734  0.66444529  0.57514773  1
  C  C113  1  0.15575581  0.46948716  0.58077013  1
  C  C114  1  0.30245323  0.81263931  0.25601182  1
  C  C115  1  0.52410025  0.68210683  0.25271840  1
  C  C116  1  0.17107894  0.46680116  0.25312718  1
  C  C117  1  0.29119621  0.48317579  0.75992658  1
  C  C118  1  0.16998801  0.70384335  0.75296650  1
  C  C119  1  0.50984596  0.83342015  0.75165847  1
