# generated using pymatgen
data_Cu3Ni3C28
_symmetry_space_group_name_H-M   'P 1'
_cell_length_a   8.82647011
_cell_length_b   8.85926995
_cell_length_c   22.77920536
_cell_angle_alpha   89.76396992
_cell_angle_beta   89.30054821
_cell_angle_gamma   119.85045450
_symmetry_Int_Tables_number   1
_chemical_formula_structural   Cu3Ni3C28
_chemical_formula_sum   'Cu9 Ni9 C84'
_cell_volume   1544.70052188
_cell_formula_units_Z   3
loop_
 _symmetry_equiv_pos_site_id
 _symmetry_equiv_pos_as_xyz
  1  'x, y, z'
loop_
 _atom_site_type_symbol
 _atom_site_label
 _atom_site_symmetry_multiplicity
 _atom_site_fract_x
 _atom_site_fract_y
 _atom_site_fract_z
 _atom_site_occupancy
  C  C0  1  0.00929359  0.98703311  0.85600751  1
  C  C1  1  0.01457705  0.01573957  0.64629179  1
  C  C2  1  0.99767233  0.99485502  0.13960145  1
  C  C3  1  0.67739422  0.33930772  0.97398046  1
  C  C4  1  0.66942892  0.32228531  0.47412299  1
  C  C5  1  0.34399272  0.68949059  0.02463875  1
  C  C6  1  0.33535347  0.65237917  0.52306650  1
  C  C7  1  0.34460663  0.67046240  0.31114921  1
  C  C8  1  0.34063370  0.66945163  0.80661198  1
  C  C9  1  0.00433916  0.01529405  0.35845744  1
  C  C10  1  0.68418697  0.34950261  0.69482186  1
  C  C11  1  0.67675658  0.32600714  0.18223801  1
  Ni  Ni12  1  0.30187031  0.28893643  0.74991192  1
  Ni  Ni13  1  0.99627656  0.70596971  0.74780643  1
  Ni  Ni14  1  0.94286902  0.33194286  0.58690331  1
  Ni  Ni15  1  0.94698482  0.60638217  0.08529008  1
  Ni  Ni16  1  0.66589241  0.05683509  0.08597098  1
  Ni  Ni17  1  0.61712515  0.66862724  0.91558840  1
  Ni  Ni18  1  0.33987095  0.95576498  0.91527674  1
  Ni  Ni19  1  0.62618698  0.94737330  0.41558506  1
  Ni  Ni20  1  0.33023926  0.37099619  0.41541184  1
  Cu  Cu21  1  0.28862382  0.00647541  0.25080062  1
  Cu  Cu22  1  0.71885824  0.70864477  0.25049357  1
  Cu  Cu23  1  0.99559810  0.28646435  0.25052023  1
  Cu  Cu24  1  0.71641122  0.00617307  0.74969594  1
  Cu  Cu25  1  0.38294515  0.04552112  0.58386977  1
  Cu  Cu26  1  0.67047331  0.61973824  0.58399729  1
  Cu  Cu27  1  0.38463640  0.33673818  0.08521929  1
  Cu  Cu28  1  0.05226194  0.38013023  0.91625366  1
  Cu  Cu29  1  0.04918735  0.67269282  0.41589153  1
  C  C30  1  0.20248203  0.02656738  0.30380916  1
  C  C31  1  0.82268237  0.79005281  0.30237740  1
  C  C32  1  0.96844827  0.17725242  0.30309779  1
  C  C33  1  0.19123295  0.16533917  0.80601883  1
  C  C34  1  0.97207076  0.80635468  0.80590572  1
  C  C35  1  0.82030556  0.02962651  0.80226302  1
  C  C36  1  0.79657462  0.97213590  0.69634924  1
  C  C37  1  0.16600379  0.19792235  0.69268397  1
  C  C38  1  0.02720846  0.83847689  0.69172498  1
  C  C39  1  0.79801504  0.82459214  0.19733852  1
  C  C40  1  0.03076068  0.20811156  0.19792275  1
  C  C41  1  0.17721044  0.97533771  0.19812789  1
  C  C42  1  0.84908767  0.35983231  0.64170152  1
  C  C43  1  0.48494600  0.11906942  0.63509821  1
  C  C44  1  0.62865306  0.51157701  0.63600741  1
  C  C45  1  0.86413261  0.50485882  0.14550450  1
  C  C46  1  0.62309555  0.12511350  0.14495821  1
  C  C47  1  0.48646563  0.36467598  0.13836930  1
  C  C48  1  0.45575018  0.29819805  0.03229942  1
  C  C49  1  0.82768633  0.52871177  0.02732497  1
  C  C50  1  0.69975172  0.17318978  0.02731941  1
  C  C51  1  0.46178683  0.15784892  0.52950478  1
  C  C52  1  0.69369249  0.53994832  0.53015015  1
  C  C53  1  0.82923538  0.30999672  0.52649292  1
  C  C54  1  0.51910719  0.68688921  0.97423137  1
  C  C55  1  0.15284569  0.45637369  0.96939906  1
  C  C56  1  0.30185550  0.83337946  0.97454190  1
  C  C57  1  0.52045236  0.82983906  0.47285316  1
  C  C58  1  0.30193954  0.47157194  0.47231191  1
  C  C59  1  0.15508523  0.69733809  0.46845401  1
  C  C60  1  0.12727854  0.63558715  0.36284500  1
  C  C61  1  0.49314919  0.85813417  0.35841501  1
  C  C62  1  0.36089658  0.50609900  0.35906117  1
  C  C63  1  0.12750050  0.49043216  0.86326685  1
  C  C64  1  0.36495941  0.85944023  0.85939719  1
  C  C65  1  0.49555542  0.63550158  0.85887231  1
  C  C66  1  0.02828937  0.82352061  0.40612785  1
  C  C67  1  0.80995389  0.96395634  0.40301374  1
  C  C68  1  0.16814344  0.18540011  0.40437012  1
  C  C69  1  0.02376174  0.20393236  0.90824602  1
  C  C70  1  0.16677872  0.97675474  0.90908328  1
  C  C71  1  0.80551448  0.84307559  0.90573088  1
  C  C72  1  0.96982054  0.16200981  0.59353272  1
  C  C73  1  0.20440657  0.02778307  0.58901088  1
  C  C74  1  0.82117119  0.79669754  0.59006431  1
  C  C75  1  0.97968659  0.80965491  0.09686274  1
  C  C76  1  0.83903980  0.03014407  0.09717172  1
  C  C77  1  0.20503694  0.17527287  0.09489862  1
  C  C78  1  0.68975007  0.15261718  0.74154081  1
  C  C79  1  0.47955964  0.29685285  0.73404705  1
  C  C80  1  0.82831265  0.52195235  0.74385910  1
  C  C81  1  0.68619989  0.53256578  0.24123449  1
  C  C82  1  0.84182555  0.30761008  0.24334295  1
  C  C83  1  0.46257452  0.15953279  0.24222289  1
  C  C84  1  0.64160916  0.49981036  0.92799622  1
  C  C85  1  0.87455197  0.36473214  0.92287697  1
  C  C86  1  0.50552221  0.14593365  0.92885736  1
  C  C87  1  0.63871131  0.13865339  0.42579624  1
  C  C88  1  0.50884509  0.36801026  0.43004278  1
  C  C89  1  0.87297515  0.51353713  0.42446084  1
  C  C90  1  0.35298399  0.48266887  0.07616287  1
  C  C91  1  0.13962072  0.63144373  0.07298080  1
  C  C92  1  0.50467331  0.85799322  0.07566286  1
  C  C93  1  0.35657061  0.86894264  0.57234528  1
  C  C94  1  0.50941097  0.64149738  0.57440961  1
  C  C95  1  0.13842756  0.50261712  0.57175003  1
  C  C96  1  0.30350100  0.84435726  0.25856557  1
  C  C97  1  0.53969318  0.69787053  0.25725856  1
  C  C98  1  0.15509974  0.46379074  0.25889201  1
  C  C99  1  0.30938362  0.47538109  0.76021005  1
  C  C100  1  0.17405750  0.69812051  0.76078781  1
  C  C101  1  0.54208742  0.84271664  0.75511033  1
