# generated using pymatgen
data_Cu6NiC12
_symmetry_space_group_name_H-M   'P 1'
_cell_length_a   8.13479310
_cell_length_b   5.89912267
_cell_length_c   5.72990629
_cell_angle_alpha   66.87380475
_cell_angle_beta   64.87372080
_cell_angle_gamma   62.86582916
_symmetry_Int_Tables_number   1
_chemical_formula_structural   Cu6NiC12
_chemical_formula_sum   'Cu6 Ni1 C12'
_cell_volume   214.67885368
_cell_formula_units_Z   1
loop_
 _symmetry_equiv_pos_site_id
 _symmetry_equiv_pos_as_xyz
  1  'x, y, z'
loop_
 _atom_site_type_symbol
 _atom_site_label
 _atom_site_symmetry_multiplicity
 _atom_site_fract_x
 _atom_site_fract_y
 _atom_site_fract_z
 _atom_site_occupancy
  Ni  Ni0  1  0.33214081  0.16833199  0.66454425  1
  Cu  Cu1  1  0.85511842  0.68347990  0.67637699  1
  Cu  Cu2  1  0.67011565  0.34461263  0.32691596  1
  Cu  Cu3  1  0.31945238  0.66542810  0.66384305  1
  Cu  Cu4  1  0.11233308  0.31274704  0.31203797  1
  Cu  Cu5  1  0.53681116  0.02334505  0.03469216  1
  Cu  Cu6  1  0.97737519  0.99523386  0.00923626  1
  C  C7  1  0.63670815  0.03383569  0.64794009  1
  C  C8  1  0.30825434  0.33379072  0.94845195  1
  C  C9  1  0.94316982  0.18607342  0.24324713  1
  C  C10  1  0.70402322  0.15352412  0.09422926  1
  C  C11  1  0.04831454  0.79877525  0.75260672  1
  C  C12  1  0.38870107  0.48787310  0.41365771  1
  C  C13  1  0.34624586  0.99940977  0.39596323  1
  C  C14  1  0.69493688  0.65684148  0.04643448  1
  C  C15  1  0.02929579  0.30451635  0.69769012  1
  C  C16  1  0.96971978  0.68671428  0.30027920  1
  C  C17  1  0.27967319  0.85180661  0.92598118  1
  C  C18  1  0.60687168  0.53985364  0.59587429  1
