# generated using pymatgen
data_Cu5NiC33
_symmetry_space_group_name_H-M   'P 1'
_cell_length_a   9.03937687
_cell_length_b   9.05197144
_cell_length_c   22.56808325
_cell_angle_alpha   90.05840012
_cell_angle_beta   89.91786385
_cell_angle_gamma   119.95928738
_symmetry_Int_Tables_number   1
_chemical_formula_structural   Cu5NiC33
_chemical_formula_sum   'Cu15 Ni3 C99'
_cell_volume   1599.86937311
_cell_formula_units_Z   3
loop_
 _symmetry_equiv_pos_site_id
 _symmetry_equiv_pos_as_xyz
  1  'x, y, z'
loop_
 _atom_site_type_symbol
 _atom_site_label
 _atom_site_symmetry_multiplicity
 _atom_site_fract_x
 _atom_site_fract_y
 _atom_site_fract_z
 _atom_site_occupancy
  C  C0  1  0.99248363  0.63192472  0.24308138  1
  C  C1  1  0.63196596  0.62133253  0.74653300  1
  C  C2  1  0.98903890  0.36691983  0.74627517  1
  C  C3  1  0.37554218  0.00943765  0.74858582  1
  C  C4  1  0.31790583  0.97461846  0.08388748  1
  C  C5  1  0.66205086  0.68665113  0.08379786  1
  C  C6  1  0.96688493  0.29077726  0.41415958  1
  C  C7  1  0.32174381  0.03295096  0.41189914  1
  C  C8  1  0.70791029  0.67650259  0.41485668  1
  C  C9  1  0.99940873  0.99974104  0.50108405  1
  C  C10  1  0.99937877  0.01009298  0.99550848  1
  C  C11  1  0.66660965  0.33435960  0.83383036  1
  C  C12  1  0.64886442  0.31753053  0.32385910  1
  C  C13  1  0.33378167  0.65678149  0.16457061  1
  C  C14  1  0.33188521  0.66171960  0.66386987  1
  C  C15  1  0.00005228  0.99982334  0.85713137  1
  C  C16  1  0.99656983  0.99922844  0.64419515  1
  C  C17  1  0.00380737  0.00376746  0.14597160  1
  C  C18  1  0.66675742  0.33160481  0.97781792  1
  C  C19  1  0.67071047  0.33569544  0.48237853  1
  C  C20  1  0.32916833  0.66336770  0.01732475  1
  C  C21  1  0.33410746  0.66438718  0.52181039  1
  C  C22  1  0.33664226  0.66951684  0.31112481  1
  C  C23  1  0.33297368  0.66578847  0.81400128  1
  Ni  Ni24  1  0.00302208  0.00333227  0.35178513  1
  Ni  Ni25  1  0.66850690  0.33702650  0.68439864  1
  Ni  Ni26  1  0.65935121  0.32519051  0.18150731  1
  Cu  Cu27  1  0.29955085  0.00346692  0.25231104  1
  Cu  Cu28  1  0.28414954  0.28666227  0.75034792  1
  Cu  Cu29  1  0.00382356  0.71607270  0.75048681  1
  Cu  Cu30  1  0.71146310  0.99677924  0.75090445  1
  Cu  Cu31  1  0.96268846  0.33267949  0.58548479  1
  Cu  Cu32  1  0.66790067  0.62964885  0.58553223  1
  Cu  Cu33  1  0.95881273  0.62136988  0.08530222  1
  Cu  Cu34  1  0.66768401  0.04125516  0.08201465  1
  Cu  Cu35  1  0.37624995  0.33680136  0.08278352  1
  Cu  Cu36  1  0.62437773  0.66479256  0.91659952  1
  Cu  Cu37  1  0.03944314  0.37495690  0.91547888  1
  Cu  Cu38  1  0.33540064  0.96033720  0.91632277  1
  Cu  Cu39  1  0.61874891  0.95693158  0.41696827  1
  Cu  Cu40  1  0.33726048  0.38066895  0.41683480  1
  Cu  Cu41  1  0.04371922  0.66269373  0.41670276  1
  C  C42  1  0.70566345  0.70832353  0.25079813  1
  C  C43  1  0.00235280  0.29480436  0.25179972  1
  C  C44  1  0.37155398  0.03903192  0.58356746  1
  C  C45  1  0.21736063  0.01726842  0.31438798  1
  C  C46  1  0.80503890  0.78611315  0.30859435  1
  C  C47  1  0.97738328  0.20011333  0.31077496  1
  C  C48  1  0.18807247  0.16726817  0.80777387  1
  C  C49  1  0.98007209  0.81341768  0.80758530  1
  C  C50  1  0.83329547  0.02304981  0.80762745  1
  C  C51  1  0.80405737  0.96527305  0.69235559  1
  C  C52  1  0.16110785  0.19548597  0.69217172  1
  C  C53  1  0.03620102  0.83948664  0.69227399  1
  C  C54  1  0.79933149  0.82484057  0.19586086  1
  C  C55  1  0.01808359  0.19150567  0.19856956  1
  C  C56  1  0.16730941  0.97480766  0.19526588  1
  C  C57  1  0.89259888  0.36744362  0.64615433  1
  C  C58  1  0.47376150  0.10665930  0.64115156  1
  C  C59  1  0.62627182  0.52311381  0.64604734  1
  C  C60  1  0.89451271  0.52353570  0.14738037  1
  C  C61  1  0.60411091  0.10075112  0.13881745  1
  C  C62  1  0.49826058  0.39701301  0.13979494  1
  C  C63  1  0.46475582  0.29260318  0.02696317  1
  C  C64  1  0.82440100  0.52642844  0.03056081  1
  C  C65  1  0.69880150  0.16694541  0.02542470  1
  C  C66  1  0.46953048  0.15802715  0.52898546  1
  C  C67  1  0.68846582  0.52451704  0.52734288  1
  C  C68  1  0.83580109  0.30731676  0.52718313  1
  C  C69  1  0.52944737  0.69021109  0.97416533  1
  C  C70  1  0.16358722  0.47576615  0.97148701  1
  C  C71  1  0.31116675  0.84220777  0.97439676  1
  C  C72  1  0.52379052  0.83399780  0.47282002  1
  C  C73  1  0.31335765  0.47921788  0.47318369  1
  C  C74  1  0.16955096  0.69039206  0.47173626  1
  C  C75  1  0.13153651  0.62832413  0.35690137  1
  C  C76  1  0.49349932  0.86297843  0.35841043  1
  C  C77  1  0.36977397  0.50579284  0.35891874  1
  C  C78  1  0.13391639  0.49380132  0.85622435  1
  C  C79  1  0.35896322  0.86294151  0.85754891  1
  C  C80  1  0.50352517  0.63999765  0.85775722  1
  C  C81  1  0.01478339  0.82461564  0.41534387  1
  C  C82  1  0.80717927  0.97961888  0.41349584  1
  C  C83  1  0.16842676  0.19442602  0.41619233  1
  C  C84  1  0.02338469  0.18815180  0.91073418  1
  C  C85  1  0.16404180  0.97638898  0.91057985  1
  C  C86  1  0.81141336  0.83594061  0.91036940  1
  C  C87  1  0.97974227  0.16039954  0.58747786  1
  C  C88  1  0.19579414  0.02719805  0.58624725  1
  C  C89  1  0.84486103  0.81504329  0.58770173  1
  C  C90  1  0.97487303  0.81560011  0.09187280  1
  C  C91  1  0.83593932  0.01634210  0.09169086  1
  C  C92  1  0.18786288  0.16005720  0.09274432  1
  C  C93  1  0.68702853  0.16155301  0.74788176  1
  C  C94  1  0.47154890  0.30509909  0.74837950  1
  C  C95  1  0.83653937  0.52806713  0.74987024  1
  C  C96  1  0.69320693  0.53475533  0.24576637  1
  C  C97  1  0.85657029  0.33151210  0.24579906  1
  C  C98  1  0.48652381  0.16407073  0.24725964  1
  C  C99  1  0.63995524  0.49411766  0.92417692  1
  C  C100  1  0.85470651  0.36258365  0.92343654  1
  C  C101  1  0.50685782  0.14678583  0.92259905  1
  C  C102  1  0.62855945  0.14319775  0.42379444  1
  C  C103  1  0.51061950  0.36485183  0.42412906  1
  C  C104  1  0.85565136  0.48536850  0.42415394  1
  C  C105  1  0.34668241  0.49900817  0.07150846  1
  C  C106  1  0.15613949  0.66426628  0.07417391  1
  C  C107  1  0.50521536  0.84562972  0.07168489  1
  C  C108  1  0.34876630  0.86004966  0.57281181  1
  C  C109  1  0.50521877  0.65916845  0.57367421  1
  C  C110  1  0.15093770  0.50116841  0.57365270  1
  C  C111  1  0.29680021  0.81478297  0.25425317  1
  C  C112  1  0.52587961  0.69495416  0.25434418  1
  C  C113  1  0.17509550  0.47173434  0.25369200  1
  C  C114  1  0.29901788  0.47651891  0.75574382  1
  C  C115  1  0.17993910  0.70252391  0.75563506  1
  C  C116  1  0.52360296  0.81985798  0.75571284  1
