# generated using pymatgen
data_Cu4Ni6C47
_symmetry_space_group_name_H-M   'P 1'
_cell_length_a   9.20213996
_cell_length_b   9.20213964
_cell_length_c   23.43297986
_cell_angle_alpha   90.00000000
_cell_angle_beta   90.00000000
_cell_angle_gamma   120.00000117
_symmetry_Int_Tables_number   1
_chemical_formula_structural   Cu4Ni6C47
_chemical_formula_sum   'Cu8 Ni12 C94'
_cell_volume   1718.44564302
_cell_formula_units_Z   2
loop_
 _symmetry_equiv_pos_site_id
 _symmetry_equiv_pos_as_xyz
  1  'x, y, z'
loop_
 _atom_site_type_symbol
 _atom_site_label
 _atom_site_symmetry_multiplicity
 _atom_site_fract_x
 _atom_site_fract_y
 _atom_site_fract_z
 _atom_site_occupancy
  Ni  Ni0  1  0.99672935  0.69638868  0.91933560  1
  Ni  Ni1  1  0.69965833  0.00327065  0.91933560  1
  Ni  Ni2  1  0.30361132  0.30034167  0.91933560  1
  Ni  Ni3  1  0.99672935  0.30034167  0.41933560  1
  Ni  Ni4  1  0.30361132  0.00327065  0.41933560  1
  Ni  Ni5  1  0.69965833  0.69638868  0.41933560  1
  Ni  Ni6  1  0.00000000  0.00000000  0.49610300  1
  Ni  Ni7  1  0.00000000  0.00000000  0.99610300  1
  Ni  Ni8  1  0.66666700  0.33333300  0.82392497  1
  Ni  Ni9  1  0.66666700  0.33333300  0.32392497  1
  Ni  Ni10  1  0.33333300  0.66666700  0.16744577  1
  Ni  Ni11  1  0.33333300  0.66666700  0.66744577  1
  Cu  Cu12  1  0.00000000  0.00000000  0.34437458  1
  Cu  Cu13  1  0.00000000  0.00000000  0.84437458  1
  Cu  Cu14  1  0.00000000  0.00000000  0.64794417  1
  Cu  Cu15  1  0.00000000  0.00000000  0.14794417  1
  Cu  Cu16  1  0.66666700  0.33333300  0.68631863  1
  Cu  Cu17  1  0.66666700  0.33333300  0.18631863  1
  Cu  Cu18  1  0.33333300  0.66666700  0.01869299  1
  Cu  Cu19  1  0.33333300  0.66666700  0.51869299  1
  C  C20  1  0.66666700  0.33333300  0.97632672  1
  C  C21  1  0.66666700  0.33333300  0.47632672  1
  C  C22  1  0.33333300  0.66666700  0.32332624  1
  C  C23  1  0.33333300  0.66666700  0.82332624  1
  C  C24  1  0.62921187  0.66553746  0.91931401  1
  C  C25  1  0.03632460  0.37078813  0.91931401  1
  C  C26  1  0.33446254  0.96367540  0.91931401  1
  C  C27  1  0.62921187  0.96367540  0.41931401  1
  C  C28  1  0.33446254  0.37078813  0.41931401  1
  C  C29  1  0.03632460  0.66553746  0.41931401  1
  C  C30  1  0.30590292  0.98533499  0.25381543  1
  C  C31  1  0.67943206  0.69409708  0.25381543  1
  C  C32  1  0.01466501  0.32056794  0.25381543  1
  C  C33  1  0.30590292  0.32056794  0.75381543  1
  C  C34  1  0.01466501  0.69409708  0.75381543  1
  C  C35  1  0.67943206  0.98533499  0.75381543  1
  C  C36  1  0.94998587  0.32528775  0.58076735  1
  C  C37  1  0.37530288  0.05001413  0.58076735  1
  C  C38  1  0.67471225  0.62469712  0.58076735  1
  C  C39  1  0.94998587  0.62469712  0.08076735  1
  C  C40  1  0.67471225  0.05001413  0.08076735  1
  C  C41  1  0.37530288  0.32528775  0.08076735  1
  C  C42  1  0.23242153  0.00132251  0.30762270  1
  C  C43  1  0.76890098  0.76757847  0.30762270  1
  C  C44  1  0.99867749  0.23109902  0.30762270  1
  C  C45  1  0.23242153  0.23109902  0.80762270  1
  C  C46  1  0.99867749  0.76757847  0.80762270  1
  C  C47  1  0.76890098  0.00132251  0.80762270  1
  C  C48  1  0.76738423  0.97046725  0.70352868  1
  C  C49  1  0.20308302  0.23261577  0.70352868  1
  C  C50  1  0.02953275  0.79691698  0.70352868  1
  C  C51  1  0.76738423  0.79691698  0.20352868  1
  C  C52  1  0.02953275  0.23261577  0.20352868  1
  C  C53  1  0.20308302  0.97046725  0.20352868  1
  C  C54  1  0.85931655  0.32513134  0.63167460  1
  C  C55  1  0.46581579  0.14068345  0.63167460  1
  C  C56  1  0.67486866  0.53418421  0.63167460  1
  C  C57  1  0.85931655  0.53418421  0.13167460  1
  C  C58  1  0.67486866  0.14068345  0.13167460  1
  C  C59  1  0.46581579  0.32513134  0.13167460  1
  C  C60  1  0.47585345  0.32369852  0.02754464  1
  C  C61  1  0.84784607  0.52414655  0.02754464  1
  C  C62  1  0.67630148  0.15215393  0.02754464  1
  C  C63  1  0.47585345  0.15215393  0.52754464  1
  C  C64  1  0.67630148  0.52414655  0.52754464  1
  C  C65  1  0.84784607  0.32369852  0.52754464  1
  C  C66  1  0.56062036  0.72243423  0.97131814  1
  C  C67  1  0.16181288  0.43937964  0.97131814  1
  C  C68  1  0.27756577  0.83818712  0.97131814  1
  C  C69  1  0.56062036  0.83818712  0.47131814  1
  C  C70  1  0.27756577  0.43937964  0.47131814  1
  C  C71  1  0.16181288  0.72243423  0.47131814  1
  C  C72  1  0.13596298  0.62755036  0.36326874  1
  C  C73  1  0.49158638  0.86403702  0.36326874  1
  C  C74  1  0.37244964  0.50841362  0.36326874  1
  C  C75  1  0.13596298  0.50841362  0.86326874  1
  C  C76  1  0.37244964  0.86403702  0.86326874  1
  C  C77  1  0.49158638  0.62755036  0.86326874  1
  C  C78  1  0.98258938  0.80223706  0.40505619  1
  C  C79  1  0.81964768  0.01741062  0.40505619  1
  C  C80  1  0.19776294  0.18035232  0.40505619  1
  C  C81  1  0.98258938  0.18035232  0.90505619  1
  C  C82  1  0.19776294  0.01741062  0.90505619  1
  C  C83  1  0.81964768  0.80223706  0.90505619  1
  C  C84  1  0.95970499  0.16966344  0.57640984  1
  C  C85  1  0.20995845  0.04029501  0.57640984  1
  C  C86  1  0.83033656  0.79004155  0.57640984  1
  C  C87  1  0.95970499  0.79004155  0.07640984  1
  C  C88  1  0.83033656  0.04029501  0.07640984  1
  C  C89  1  0.20995845  0.16966344  0.07640984  1
  C  C90  1  0.65068052  0.12995796  0.74915346  1
  C  C91  1  0.47927844  0.34931948  0.74915346  1
  C  C92  1  0.87004204  0.52072156  0.74915346  1
  C  C93  1  0.65068052  0.52072156  0.24915346  1
  C  C94  1  0.87004204  0.34931948  0.24915346  1
  C  C95  1  0.47927844  0.12995796  0.24915346  1
  C  C96  1  0.61938655  0.47694394  0.92689588  1
  C  C97  1  0.85755839  0.38061345  0.92689588  1
  C  C98  1  0.52305606  0.14244161  0.92689588  1
  C  C99  1  0.61938655  0.14244161  0.42689588  1
  C  C100  1  0.52305606  0.38061345  0.42689588  1
  C  C101  1  0.85755839  0.47694394  0.42689588  1
  C  C102  1  0.36134903  0.47730083  0.07962734  1
  C  C103  1  0.11595080  0.63865097  0.07962734  1
  C  C104  1  0.52269917  0.88404920  0.07962734  1
  C  C105  1  0.36134903  0.88404920  0.57962734  1
  C  C106  1  0.52269917  0.63865097  0.57962734  1
  C  C107  1  0.11595080  0.47730083  0.57962734  1
  C  C108  1  0.31657437  0.82537724  0.25651536  1
  C  C109  1  0.50880188  0.68342563  0.25651536  1
  C  C110  1  0.17462276  0.49119812  0.25651536  1
  C  C111  1  0.31657437  0.49119812  0.75651536  1
  C  C112  1  0.17462276  0.68342563  0.75651536  1
  C  C113  1  0.50880188  0.82537724  0.75651536  1
