# generated using pymatgen
data_CuNi4C69
_symmetry_space_group_name_H-M   'P 1'
_cell_length_a   17.79843938
_cell_length_b   8.92186337
_cell_length_c   22.98412477
_cell_angle_alpha   89.89722613
_cell_angle_beta   90.01526528
_cell_angle_gamma   120.06357019
_symmetry_Int_Tables_number   1
_chemical_formula_structural   CuNi4C69
_chemical_formula_sum   'Cu3 Ni12 C207'
_cell_volume   3158.76068871
_cell_formula_units_Z   3
loop_
 _symmetry_equiv_pos_site_id
 _symmetry_equiv_pos_as_xyz
  1  'x, y, z'
loop_
 _atom_site_type_symbol
 _atom_site_label
 _atom_site_symmetry_multiplicity
 _atom_site_fract_x
 _atom_site_fract_y
 _atom_site_fract_z
 _atom_site_occupancy
  C  C0  1  0.81603839  0.99333380  0.24756680  1
  C  C1  1  0.99572686  0.63221594  0.25504260  1
  C  C2  1  0.31653595  0.64199202  0.74580487  1
  C  C3  1  0.81466850  0.64130233  0.74532411  1
  C  C4  1  0.99857726  0.35974346  0.75267254  1
  C  C5  1  0.69201511  0.99701595  0.74966745  1
  C  C6  1  0.99977089  0.99876379  0.49808200  1
  C  C7  1  0.50093189  0.00209320  0.49842532  1
  C  C8  1  0.00154497  0.00247583  0.00221555  1
  C  C9  1  0.50029833  0.99825050  0.00177773  1
  C  C10  1  0.33547558  0.30486503  0.83241577  1
  C  C11  1  0.83436690  0.31639027  0.83914549  1
  C  C12  1  0.33527026  0.33548779  0.33415538  1
  C  C13  1  0.82621943  0.35209363  0.33450717  1
  C  C14  1  0.17653128  0.66842431  0.16260209  1
  C  C15  1  0.66388564  0.65180756  0.16806331  1
  C  C16  1  0.17748520  0.69997219  0.66400745  1
  C  C17  1  0.66867707  0.67082766  0.66336305  1
  C  C18  1  0.49655739  0.99465275  0.35317455  1
  C  C19  1  0.83422764  0.32900319  0.68193808  1
  C  C20  1  0.33204059  0.33014945  0.17785027  1
  C  C21  1  0.83004406  0.34436837  0.17963375  1
  C  C22  1  0.33257288  0.33323971  0.98927661  1
  C  C23  1  0.83222550  0.33228158  0.98787873  1
  C  C24  1  0.83190078  0.32916619  0.48332560  1
  C  C25  1  0.16504743  0.66108485  0.51660837  1
  C  C26  1  0.67054399  0.67432747  0.51826919  1
  C  C27  1  0.17841753  0.67518758  0.31868725  1
  C  C28  1  0.17281379  0.68598971  0.81264754  1
  C  C29  1  0.66390263  0.66253178  0.81525920  1
  Ni  Ni30  1  0.99841863  0.99002899  0.34974438  1
  Ni  Ni31  1  0.99920282  0.00598624  0.85414668  1
  Ni  Ni32  1  0.48899568  0.01324277  0.85216879  1
  Ni  Ni33  1  0.99519059  0.99988093  0.64971140  1
  Ni  Ni34  1  0.49452468  0.99376086  0.64805273  1
  Ni  Ni35  1  0.98891813  0.98648650  0.15305469  1
  Ni  Ni36  1  0.50343728  0.00646576  0.15251483  1
  Ni  Ni37  1  0.33406066  0.31063493  0.68318887  1
  Ni  Ni38  1  0.33371681  0.33333715  0.48474990  1
  Ni  Ni39  1  0.16691879  0.66622166  0.01394660  1
  Ni  Ni40  1  0.66540136  0.66880837  0.01373992  1
  Ni  Ni41  1  0.66811787  0.65120699  0.31350287  1
  Cu  Cu42  1  0.85307733  0.71161689  0.25380772  1
  Cu  Cu43  1  0.36013559  0.01188150  0.74512520  1
  Cu  Cu44  1  0.85984148  0.00177480  0.75215786  1
  C  C45  1  0.13939217  0.00232155  0.24970613  1
  C  C46  1  0.64353753  0.98674230  0.24888396  1
  C  C47  1  0.35537626  0.71263118  0.24393163  1
  C  C48  1  0.00310251  0.28345610  0.24939718  1
  C  C49  1  0.50492504  0.29960182  0.24930516  1
  C  C50  1  0.14569974  0.27702024  0.74786079  1
  C  C51  1  0.63747531  0.27352267  0.75051263  1
  C  C52  1  0.00062197  0.72414855  0.74968969  1
  C  C53  1  0.49587549  0.71517848  0.74749478  1
  C  C54  1  0.47353315  0.32210173  0.58420070  1
  C  C55  1  0.98853597  0.32119844  0.58827703  1
  C  C56  1  0.18669995  0.05276221  0.58596431  1
  C  C57  1  0.66833339  0.02623274  0.58965156  1
  C  C58  1  0.33880996  0.61353238  0.58725047  1
  C  C59  1  0.84222122  0.65444460  0.58861497  1
  C  C60  1  0.49518532  0.65689936  0.08267900  1
  C  C61  1  0.99601761  0.65548452  0.08399630  1
  C  C62  1  0.33329578  0.00986239  0.08305580  1
  C  C63  1  0.83203076  0.01009914  0.08354362  1
  C  C64  1  0.17050521  0.33191773  0.08297780  1
  C  C65  1  0.67062273  0.33451626  0.08244068  1
  C  C66  1  0.31896434  0.67919780  0.91626696  1
  C  C67  1  0.81884037  0.67883128  0.91664924  1
  C  C68  1  0.02308048  0.36550722  0.91543609  1
  C  C69  1  0.52085204  0.36201354  0.91860175  1
  C  C70  1  0.15826526  0.95951872  0.91760811  1
  C  C71  1  0.65797115  0.95892708  0.91517179  1
  C  C72  1  0.31956458  0.98938493  0.42309819  1
  C  C73  1  0.81874863  0.96280188  0.40856919  1
  C  C74  1  0.16709162  0.34768520  0.41733072  1
  C  C75  1  0.66744072  0.37559144  0.41413205  1
  C  C76  1  0.01537995  0.67933667  0.41213323  1
  C  C77  1  0.51414096  0.64870069  0.41647635  1
  C  C78  1  0.10042266  0.02330638  0.30396857  1
  C  C79  1  0.60690041  0.01555839  0.30095345  1
  C  C80  1  0.39870331  0.78984293  0.29824825  1
  C  C81  1  0.91814393  0.80870177  0.30790096  1
  C  C82  1  0.49450088  0.20089622  0.30126903  1
  C  C83  1  0.99641935  0.18362800  0.30274408  1
  C  C84  1  0.11034305  0.17657065  0.80239309  1
  C  C85  1  0.59667113  0.16733518  0.80393508  1
  C  C86  1  0.48318854  0.79567725  0.80063920  1
  C  C87  1  0.99667866  0.81187084  0.80326334  1
  C  C88  1  0.41322549  0.04024880  0.80686510  1
  C  C89  1  0.92241762  0.03169213  0.80929628  1
  C  C90  1  0.40683505  0.97645200  0.69008655  1
  C  C91  1  0.90579642  0.97512338  0.69457804  1
  C  C92  1  0.09240258  0.19019244  0.69604318  1
  C  C93  1  0.59111157  0.18928441  0.69652547  1
  C  C94  1  0.01278912  0.82542928  0.69575035  1
  C  C95  1  0.51336319  0.82554724  0.69503179  1
  C  C96  1  0.40456509  0.82096565  0.19192690  1
  C  C97  1  0.89222573  0.83537151  0.19492285  1
  C  C98  1  0.01419197  0.20396251  0.19553856  1
  C  C99  1  0.51725804  0.21584809  0.19553000  1
  C  C100  1  0.08601942  0.98483464  0.19712239  1
  C  C101  1  0.59232759  0.97272283  0.19496022  1
  C  C102  1  0.43210736  0.34608331  0.63719728  1
  C  C103  1  0.94963321  0.33681361  0.64327680  1
  C  C104  1  0.23880787  0.13758198  0.63941101  1
  C  C105  1  0.71722450  0.10322072  0.64378664  1
  C  C106  1  0.33027845  0.50998890  0.64125902  1
  C  C107  1  0.83296441  0.56037131  0.64376540  1
  C  C108  1  0.45806484  0.54657557  0.13414091  1
  C  C109  1  0.96197324  0.55289294  0.13797888  1
  C  C110  1  0.31444285  0.08188450  0.13481023  1
  C  C111  1  0.81709572  0.08029787  0.13749837  1
  C  C112  1  0.22590245  0.36871141  0.13458455  1
  C  C113  1  0.72418892  0.36954599  0.13455618  1
  C  C114  1  0.20884057  0.29907789  0.03120195  1
  C  C115  1  0.70792071  0.29832037  0.03109754  1
  C  C116  1  0.44043462  0.58176172  0.03078140  1
  C  C117  1  0.93832671  0.57192276  0.03412250  1
  C  C118  1  0.35010932  0.11940854  0.03131315  1
  C  C119  1  0.84595026  0.12327236  0.03327697  1
  C  C120  1  0.22884243  0.15887561  0.53304883  1
  C  C121  1  0.71141532  0.13168057  0.53805709  1
  C  C122  1  0.34766562  0.52819645  0.53348564  1
  C  C123  1  0.84722032  0.56024304  0.53807698  1
  C  C124  1  0.42016290  0.30133552  0.53143342  1
  C  C125  1  0.93400237  0.30175287  0.53755217  1
  C  C126  1  0.27192530  0.70075058  0.96726614  1
  C  C127  1  0.77023485  0.69690165  0.96735626  1
  C  C128  1  0.07902570  0.46175969  0.96673493  1
  C  C129  1  0.57612251  0.45340396  0.97053306  1
  C  C130  1  0.14725450  0.84898275  0.97012888  1
  C  C131  1  0.64901895  0.84473260  0.96647739  1
  C  C132  1  0.27468500  0.87957360  0.47339261  1
  C  C133  1  0.78178630  0.86448212  0.46238565  1
  C  C134  1  0.15082676  0.42375752  0.46897183  1
  C  C135  1  0.66259663  0.46029241  0.46729126  1
  C  C136  1  0.06729633  0.69442994  0.46396917  1
  C  C137  1  0.56424047  0.66958223  0.46917568  1
  C  C138  1  0.05625404  0.66288512  0.35814021  1
  C  C139  1  0.55685370  0.62799855  0.36303250  1
  C  C140  1  0.27157638  0.91730881  0.36826603  1
  C  C141  1  0.76319617  0.87024051  0.35667841  1
  C  C142  1  0.18428875  0.45505224  0.36475761  1
  C  C143  1  0.67258358  0.47834083  0.36056579  1
  C  C144  1  0.05966652  0.45725550  0.86032327  1
  C  C145  1  0.55834967  0.45671523  0.86485044  1
  C  C146  1  0.16970098  0.88441554  0.86463486  1
  C  C147  1  0.66991240  0.88791986  0.86040920  1
  C  C148  1  0.27257737  0.65668038  0.86140371  1
  C  C149  1  0.77346219  0.65916572  0.86130766  1
  C  C150  1  0.01001292  0.84291076  0.41086000  1
  C  C151  1  0.50090371  0.79862498  0.41191111  1
  C  C152  1  0.40762321  0.01345364  0.42058341  1
  C  C153  1  0.90852180  0.98736167  0.40370325  1
  C  C154  1  0.08896612  0.17119944  0.40864836  1
  C  C155  1  0.59051815  0.20220901  0.41205247  1
  C  C156  1  0.02005101  0.19302105  0.91504841  1
  C  C157  1  0.51765781  0.18871957  0.91635452  1
  C  C158  1  0.07549086  0.96896479  0.91340416  1
  C  C159  1  0.57623498  0.96803190  0.91261251  1
  C  C160  1  0.40639891  0.84427051  0.91408166  1
  C  C161  1  0.90641691  0.84139750  0.91585088  1
  C  C162  1  0.47995799  0.16177978  0.58787131  1
  C  C163  1  0.99727932  0.16205556  0.58979683  1
  C  C164  1  0.09981219  0.03731155  0.59134438  1
  C  C165  1  0.58089475  0.01794741  0.59216536  1
  C  C166  1  0.41966448  0.78594739  0.58977352  1
  C  C167  1  0.92619476  0.82642648  0.58892935  1
  C  C168  1  0.50698033  0.83455949  0.09158749  1
  C  C169  1  0.00708834  0.83285349  0.09146247  1
  C  C170  1  0.41113940  0.98936281  0.09256593  1
  C  C171  1  0.91171789  0.99251527  0.08841032  1
  C  C172  1  0.08199732  0.17857269  0.09221027  1
  C  C173  1  0.58160700  0.17752725  0.09193572  1
  C  C174  1  0.35012573  0.18678565  0.74061983  1
  C  C175  1  0.84897567  0.17379179  0.75301988  1
  C  C176  1  0.23717821  0.31397893  0.74135816  1
  C  C177  1  0.72701968  0.29709961  0.74985002  1
  C  C178  1  0.41439921  0.54334585  0.74111422  1
  C  C179  1  0.91714884  0.55463162  0.74827711  1
  C  C180  1  0.34602788  0.53850989  0.23971560  1
  C  C181  1  0.84833857  0.52589363  0.24927230  1
  C  C182  1  0.42865304  0.32239386  0.24197474  1
  C  C183  1  0.92077892  0.28957904  0.24572915  1
  C  C184  1  0.22759196  0.15402009  0.24550533  1
  C  C185  1  0.73418141  0.13221540  0.24182178  1
  C  C186  1  0.33157126  0.52992090  0.92460617  1
  C  C187  1  0.83011765  0.52705535  0.92394860  1
  C  C188  1  0.43240595  0.33399134  0.92498688  1
  C  C189  1  0.93491312  0.33885558  0.92252973  1
  C  C190  1  0.23342702  0.13556696  0.92442844  1
  C  C191  1  0.73453598  0.13355502  0.92272011  1
  C  C192  1  0.32562758  0.16316365  0.42903741  1
  C  C193  1  0.82626861  0.13573338  0.41066321  1
  C  C194  1  0.24660300  0.33075710  0.42654004  1
  C  C195  1  0.74704026  0.36202112  0.41347917  1
  C  C196  1  0.42524545  0.48681088  0.42143618  1
  C  C197  1  0.92701901  0.52711338  0.41621883  1
  C  C198  1  0.16186215  0.49143695  0.07297087  1
  C  C199  1  0.65992968  0.48971701  0.07256797  1
  C  C200  1  0.08408576  0.67442545  0.07312751  1
  C  C201  1  0.58416945  0.67715081  0.07289673  1
  C  C202  1  0.25493606  0.83184188  0.07305394  1
  C  C203  1  0.75419447  0.83257282  0.07350415  1
  C  C204  1  0.17824681  0.88007855  0.58249481  1
  C  C205  1  0.65476960  0.84928897  0.58552614  1
  C  C206  1  0.26200829  0.63354026  0.58422820  1
  C  C207  1  0.76742191  0.68417882  0.58555641  1
  C  C208  1  0.07578357  0.47633182  0.58438900  1
  C  C209  1  0.56064622  0.47559831  0.58102887  1
  C  C210  1  0.14284231  0.83881558  0.25205156  1
  C  C211  1  0.64748184  0.82199946  0.25274812  1
  C  C212  1  0.26864966  0.69952082  0.24191058  1
  C  C213  1  0.75675664  0.69805468  0.25969893  1
  C  C214  1  0.07696546  0.46341282  0.25249764  1
  C  C215  1  0.58628732  0.47582165  0.25261379  1
  C  C216  1  0.14910415  0.44817808  0.75135461  1
  C  C217  1  0.64701192  0.44798612  0.75254040  1
  C  C218  1  0.07184299  0.68362457  0.75065557  1
  C  C219  1  0.57243065  0.69267424  0.75182004  1
  C  C220  1  0.26661718  0.83361060  0.74512376  1
  C  C221  1  0.76241232  0.83067690  0.75045749  1
