# generated using pymatgen
data_Cu12NiC20
_symmetry_space_group_name_H-M   'P 1'
_cell_length_a   8.87329975
_cell_length_b   8.87329975
_cell_length_c   8.87329975
_cell_angle_alpha   109.47122063
_cell_angle_beta   109.47122063
_cell_angle_gamma   109.47122063
_symmetry_Int_Tables_number   1
_chemical_formula_structural   Cu12NiC20
_chemical_formula_sum   'Cu12 Ni1 C20'
_cell_volume   537.81581335
_cell_formula_units_Z   1
loop_
 _symmetry_equiv_pos_site_id
 _symmetry_equiv_pos_as_xyz
  1  'x, y, z'
loop_
 _atom_site_type_symbol
 _atom_site_label
 _atom_site_symmetry_multiplicity
 _atom_site_fract_x
 _atom_site_fract_y
 _atom_site_fract_z
 _atom_site_occupancy
  Ni  Ni0  1  0.00000000  0.00000000  0.00000000  1
  Cu  Cu1  1  0.16147200  0.85893500  0.66738500  1
  Cu  Cu2  1  0.80845000  0.14106500  0.30253700  1
  Cu  Cu3  1  0.83852800  0.50591300  0.69746300  1
  Cu  Cu4  1  0.49408700  0.33261500  0.19155000  1
  Cu  Cu5  1  0.33261500  0.19155000  0.49408700  1
  Cu  Cu6  1  0.66738500  0.16147200  0.85893500  1
  Cu  Cu7  1  0.14106500  0.30253700  0.80845000  1
  Cu  Cu8  1  0.69746300  0.83852800  0.50591300  1
  Cu  Cu9  1  0.85893500  0.66738500  0.16147200  1
  Cu  Cu10  1  0.30253700  0.80845000  0.14106500  1
  Cu  Cu11  1  0.50591300  0.69746300  0.83852800  1
  Cu  Cu12  1  0.19155000  0.49408700  0.33261500  1
  C  C13  1  0.00000000  0.00000000  0.18823000  1
  C  C14  1  0.00000000  0.18823000  0.00000000  1
  C  C15  1  0.18823000  0.00000000  0.00000000  1
  C  C16  1  0.81177000  0.81177000  0.81177000  1
  C  C17  1  0.00000000  0.00000000  0.60558300  1
  C  C18  1  0.00000000  0.60558300  0.00000000  1
  C  C19  1  0.60558300  0.00000000  0.00000000  1
  C  C20  1  0.39441700  0.39441700  0.39441700  1
  C  C21  1  0.64346700  0.87874000  0.25966300  1
  C  C22  1  0.38092300  0.12126000  0.76472700  1
  C  C23  1  0.35653300  0.61619600  0.23527300  1
  C  C24  1  0.38380400  0.74033700  0.61907700  1
  C  C25  1  0.74033700  0.61907700  0.38380400  1
  C  C26  1  0.61907700  0.38380400  0.74033700  1
  C  C27  1  0.61619600  0.23527300  0.35653300  1
  C  C28  1  0.76472700  0.38092300  0.12126000  1
  C  C29  1  0.87874000  0.25966300  0.64346700  1
  C  C30  1  0.23527300  0.35653300  0.61619600  1
  C  C31  1  0.12126000  0.76472700  0.38092300  1
  C  C32  1  0.25966300  0.64346700  0.87874000  1
