# generated using pymatgen
data_Cu3Ni3C32
_symmetry_space_group_name_H-M   'P 1'
_cell_length_a   8.95732598
_cell_length_b   8.93580892
_cell_length_c   22.53561309
_cell_angle_alpha   90.13877755
_cell_angle_beta   89.96380544
_cell_angle_gamma   119.75818574
_symmetry_Int_Tables_number   1
_chemical_formula_structural   Cu3Ni3C32
_chemical_formula_sum   'Cu9 Ni9 C96'
_cell_volume   1565.89985206
_cell_formula_units_Z   3
loop_
 _symmetry_equiv_pos_site_id
 _symmetry_equiv_pos_as_xyz
  1  'x, y, z'
loop_
 _atom_site_type_symbol
 _atom_site_label
 _atom_site_symmetry_multiplicity
 _atom_site_fract_x
 _atom_site_fract_y
 _atom_site_fract_z
 _atom_site_occupancy
  C  C0  1  0.98882110  0.63942463  0.25296096  1
  C  C1  1  0.99501651  0.36003575  0.74277568  1
  C  C2  1  0.66155931  0.97389496  0.59155035  1
  C  C3  1  0.66669364  0.69781630  0.08023044  1
  C  C4  1  0.33547063  0.30565146  0.90541342  1
  C  C5  1  0.32158786  0.02357778  0.42073050  1
  C  C6  1  0.00662060  0.99139916  0.50387297  1
  C  C7  1  0.98971240  0.98642779  0.99784080  1
  C  C8  1  0.65362052  0.32025572  0.82390859  1
  C  C9  1  0.65590143  0.34061995  0.33445455  1
  C  C10  1  0.32765773  0.67046847  0.16953149  1
  C  C11  1  0.31890275  0.66846606  0.66089617  1
  C  C12  1  0.99916763  0.98785563  0.35271722  1
  C  C13  1  0.99061036  0.99232851  0.85024824  1
  C  C14  1  0.65652658  0.32237021  0.68619738  1
  C  C15  1  0.66453921  0.33317898  0.18921811  1
  C  C16  1  0.33182103  0.67431639  0.01881890  1
  C  C17  1  0.31541853  0.66118688  0.52140797  1
  C  C18  1  0.01731761  0.02741155  0.64646057  1
  C  C19  1  0.99261372  0.97361419  0.15292130  1
  C  C20  1  0.68231439  0.35868546  0.98024427  1
  C  C21  1  0.67990783  0.33494730  0.48631707  1
  C  C22  1  0.32554686  0.66930797  0.31217000  1
  C  C23  1  0.36385403  0.67162007  0.80702996  1
  Ni  Ni24  1  0.29544752  -0.00048887  0.25381575  1
  Ni  Ni25  1  0.69543878  0.70484003  0.25141158  1
  Ni  Ni26  1  0.29569804  0.29180323  0.75482490  1
  Ni  Ni27  1  0.71418589  -0.00014863  0.74717966  1
  Ni  Ni28  1  0.96383195  0.33614105  0.58871719  1
  Ni  Ni29  1  0.37192114  0.04562379  0.58094853  1
  Ni  Ni30  1  0.96644054  0.63055352  0.08725982  1
  Ni  Ni31  1  0.63067693  0.67309913  0.91977520  1
  Ni  Ni32  1  0.02901222  0.65472138  0.41666706  1
  Cu  Cu33  1  0.00568935  0.28822356  0.24860185  1
  Cu  Cu34  1  0.00860091  0.71232914  0.74987272  1
  Cu  Cu35  1  0.67474896  0.62796785  0.58188599  1
  Cu  Cu36  1  0.67339096  0.04927462  0.08131675  1
  Cu  Cu37  1  0.37041220  0.32596499  0.08136924  1
  Cu  Cu38  1  0.03524799  0.37602844  0.91734977  1
  Cu  Cu39  1  0.34066580  0.96368244  0.91601194  1
  Cu  Cu40  1  0.62151428  0.95900312  0.41589885  1
  Cu  Cu41  1  0.33699879  0.37949224  0.41438976  1
  C  C42  1  0.21685830  0.02883387  0.31360247  1
  C  C43  1  0.83209107  0.80239760  0.30336024  1
  C  C44  1  0.98792032  0.19273172  0.30296199  1
  C  C45  1  0.21099008  0.18821322  0.81570638  1
  C  C46  1  0.99066428  0.79320227  0.80518887  1
  C  C47  1  0.82938466  0.02227051  0.80507274  1
  C  C48  1  0.80096975  0.96844927  0.68754167  1
  C  C49  1  0.16110088  0.19483335  0.69802518  1
  C  C50  1  0.03018238  0.81730147  0.69708101  1
  C  C51  1  0.79041888  0.82376441  0.18866267  1
  C  C52  1  0.02144063  0.20038467  0.19466306  1
  C  C53  1  0.15323152  0.96258085  0.19712860  1
  C  C54  1  0.88213634  0.36267195  0.64797577  1
  C  C55  1  0.49867993  0.13708461  0.63600178  1
  C  C56  1  0.65092558  0.52804866  0.63619593  1
  C  C57  1  0.87160339  0.51885932  0.14458538  1
  C  C58  1  0.65201391  0.12650718  0.13557342  1
  C  C59  1  0.48288499  0.35140181  0.13275754  1
  C  C60  1  0.45321815  0.30638442  0.02578482  1
  C  C61  1  0.82983336  0.52587716  0.02843844  1
  C  C62  1  0.68017917  0.14986449  0.02800535  1
  C  C63  1  0.46463518  0.16343509  0.51929096  1
  C  C64  1  0.68888901  0.53426345  0.52807624  1
  C  C65  1  0.82745915  0.30607343  0.53128332  1
  C  C66  1  0.53705857  0.68208746  0.98003162  1
  C  C67  1  0.14511572  0.46926733  0.96932106  1
  C  C68  1  0.32123140  0.86187324  0.97078203  1
  C  C69  1  0.55197031  0.86042056  0.47107123  1
  C  C70  1  0.33044971  0.46775939  0.46853745  1
  C  C71  1  0.16248382  0.69350801  0.46999005  1
  C  C72  1  0.13126170  0.63692779  0.35524427  1
  C  C73  1  0.50541096  0.86310447  0.36422812  1
  C  C74  1  0.34956870  0.48341524  0.36039502  1
  C  C75  1  0.10442359  0.47296170  0.86263379  1
  C  C76  1  0.35378840  0.87387509  0.86321094  1
  C  C77  1  0.49569268  0.63558857  0.86311751  1
  C  C78  1  0.01622057  0.83228819  0.41336812  1
  C  C79  1  0.79769085  0.99110132  0.40741617  1
  C  C80  1  0.17738469  0.20677881  0.41246049  1
  C  C81  1  0.02363616  0.20454260  0.91707171  1
  C  C82  1  0.19003435  0.99033143  0.91484161  1
  C  C83  1  0.82295964  0.83042636  0.91448123  1
  C  C84  1  0.96411571  0.14912529  0.58899252  1
  C  C85  1  0.17999124  0.02328824  0.59167065  1
  C  C86  1  0.83303734  0.79787739  0.58354509  1
  C  C87  1  0.96823880  0.81908798  0.08896736  1
  C  C88  1  0.83223460  0.03394445  0.08294271  1
  C  C89  1  0.19858521  0.17295094  0.08678502  1
  C  C90  1  0.69238224  0.16868100  0.74619584  1
  C  C91  1  0.48865636  0.33223790  0.74619807  1
  C  C92  1  0.85580443  0.53829162  0.74675209  1
  C  C93  1  0.68437722  0.51816111  0.24467709  1
  C  C94  1  0.85506906  0.31570497  0.24432490  1
  C  C95  1  0.48401640  0.15347073  0.24051149  1
  C  C96  1  0.63478990  0.48304424  0.92571207  1
  C  C97  1  0.85736786  0.35153880  0.92631477  1
  C  C98  1  0.49927034  0.13763108  0.92065960  1
  C  C99  1  0.62266010  0.12700722  0.41800082  1
  C  C100  1  0.48850824  0.35424017  0.41452142  1
  C  C101  1  0.83933367  0.48037070  0.42456671  1
  C  C102  1  0.35780586  0.48662321  0.07809023  1
  C  C103  1  0.15622448  0.65723178  0.07792515  1
  C  C104  1  0.52205460  0.86861376  0.07814200  1
  C  C105  1  0.36604238  0.85977606  0.57560369  1
  C  C106  1  0.52489184  0.65457755  0.57474422  1
  C  C107  1  0.15588999  0.49102722  0.57871762  1
  C  C108  1  0.29344997  0.81139204  0.25640359  1
  C  C109  1  0.50725845  0.68883846  0.25920824  1
  C  C110  1  0.16453217  0.46459991  0.25053516  1
  C  C111  1  0.29404945  0.48077887  0.76009783  1
  C  C112  1  0.16491128  0.69130912  0.75568099  1
  C  C113  1  0.51923357  0.82391367  0.75713335  1
