# generated using pymatgen
data_Cu2NiC10
_symmetry_space_group_name_H-M   'P 1'
_cell_length_a   6.34234208
_cell_length_b   6.33911706
_cell_length_c   6.22375155
_cell_angle_alpha   106.29603464
_cell_angle_beta   106.41503530
_cell_angle_gamma   116.59955752
_symmetry_Int_Tables_number   1
_chemical_formula_structural   Cu2NiC10
_chemical_formula_sum   'Cu2 Ni1 C10'
_cell_volume   188.90128824
_cell_formula_units_Z   1
loop_
 _symmetry_equiv_pos_site_id
 _symmetry_equiv_pos_as_xyz
  1  'x, y, z'
loop_
 _atom_site_type_symbol
 _atom_site_label
 _atom_site_symmetry_multiplicity
 _atom_site_fract_x
 _atom_site_fract_y
 _atom_site_fract_z
 _atom_site_occupancy
  C  C0  1  0.84609200  0.09518600  0.19078100  1
  C  C1  1  0.12594500  0.87428100  0.75429000  1
  Ni  Ni2  1  0.13957000  0.38876400  0.78031600  1
  Cu  Cu3  1  0.61995300  0.37003400  0.74141300  1
  Cu  Cu4  1  0.40225400  0.65203100  0.30388800  1
  C  C5  1  0.24490400  0.20885000  0.57065800  1
  C  C6  1  0.18797600  0.28381700  0.05337000  1
  C  C7  1  0.19837300  0.62865200  0.45211800  1
  C  C8  1  0.60438400  0.17371300  0.92397600  1
  C  C9  1  0.75533700  0.82589800  0.45303700  1
  C  C10  1  0.81873800  0.75039800  0.92309900  1
  C  C11  1  0.82791600  0.36555100  0.57192900  1
  C  C12  1  0.36397700  0.76824300  0.05195800  1
