# generated using pymatgen
data_Cu2Ni3C16
_symmetry_space_group_name_H-M   'P 1'
_cell_length_a   8.76136121
_cell_length_b   8.76136094
_cell_length_c   21.69817919
_cell_angle_alpha   90.00000000
_cell_angle_beta   90.00000000
_cell_angle_gamma   120.00000107
_symmetry_Int_Tables_number   1
_chemical_formula_structural   Cu2Ni3C16
_chemical_formula_sum   'Cu12 Ni18 C96'
_cell_volume   1442.43773770
_cell_formula_units_Z   6
loop_
 _symmetry_equiv_pos_site_id
 _symmetry_equiv_pos_as_xyz
  1  'x, y, z'
loop_
 _atom_site_type_symbol
 _atom_site_label
 _atom_site_symmetry_multiplicity
 _atom_site_fract_x
 _atom_site_fract_y
 _atom_site_fract_z
 _atom_site_occupancy
  C  C0  1  0.63238739  0.00000000  0.25000000  1
  C  C1  1  0.36761261  0.36761261  0.25000000  1
  C  C2  1  1.00000000  0.63238739  0.25000000  1
  C  C3  1  0.63238739  0.63238739  0.75000000  1
  C  C4  1  0.00000000  0.36761261  0.75000000  1
  C  C5  1  0.36761261  0.00000000  0.75000000  1
  C  C6  1  0.29905439  0.33333300  0.58333300  1
  C  C7  1  0.03427961  0.70094561  0.58333300  1
  C  C8  1  0.66666700  0.96572039  0.58333300  1
  C  C9  1  0.29905439  0.96572039  0.08333300  1
  C  C10  1  0.66666700  0.70094561  0.08333300  1
  C  C11  1  0.03427961  0.33333300  0.08333300  1
  C  C12  1  0.96572039  0.66666700  0.91666700  1
  C  C13  1  0.70094561  0.03427961  0.91666700  1
  C  C14  1  0.33333300  0.29905439  0.91666700  1
  C  C15  1  0.96572039  0.29905439  0.41666700  1
  C  C16  1  0.33333300  0.03427961  0.41666700  1
  C  C17  1  0.70094561  0.66666700  0.41666700  1
  C  C18  1  -0.00000000  0.00000000  0.50000000  1
  C  C19  1  -0.00000000  0.00000000  -0.00000000  1
  C  C20  1  0.66666700  0.33333300  0.83333300  1
  C  C21  1  0.66666700  0.33333300  0.33333300  1
  C  C22  1  0.33333300  0.66666700  0.16666700  1
  C  C23  1  0.33333300  0.66666700  0.66666700  1
  Ni  Ni24  1  0.28778736  0.00000000  0.25000000  1
  Ni  Ni25  1  0.71221264  0.71221264  0.25000000  1
  Ni  Ni26  1  1.00000000  0.28778736  0.25000000  1
  Ni  Ni27  1  0.28778736  0.28778736  0.75000000  1
  Ni  Ni28  1  0.00000000  0.71221264  0.75000000  1
  Ni  Ni29  1  0.71221264  0.00000000  0.75000000  1
  Ni  Ni30  1  0.95445436  0.33333300  0.58333300  1
  Ni  Ni31  1  0.37887964  0.04554564  0.58333300  1
  Ni  Ni32  1  0.66666700  0.62112036  0.58333300  1
  Ni  Ni33  1  0.95445436  0.62112036  0.08333300  1
  Ni  Ni34  1  0.66666700  0.04554564  0.08333300  1
  Ni  Ni35  1  0.37887964  0.33333300  0.08333300  1
  Ni  Ni36  1  0.62112036  0.66666700  0.91666700  1
  Ni  Ni37  1  0.04554564  0.37887964  0.91666700  1
  Ni  Ni38  1  0.33333300  0.95445436  0.91666700  1
  Ni  Ni39  1  0.62112036  0.95445436  0.41666700  1
  Ni  Ni40  1  0.33333300  0.37887964  0.41666700  1
  Ni  Ni41  1  0.04554564  0.66666700  0.41666700  1
  Cu  Cu42  1  -0.00000000  0.00000000  0.35284767  1
  Cu  Cu43  1  -0.00000000  0.00000000  0.85284767  1
  Cu  Cu44  1  -0.00000000  0.00000000  0.64715233  1
  Cu  Cu45  1  -0.00000000  0.00000000  0.14715233  1
  Cu  Cu46  1  0.66666700  0.33333300  0.68618067  1
  Cu  Cu47  1  0.66666700  0.33333300  0.18618067  1
  Cu  Cu48  1  0.66666700  0.33333300  0.98048533  1
  Cu  Cu49  1  0.66666700  0.33333300  0.48048533  1
  Cu  Cu50  1  0.33333300  0.66666700  0.01951467  1
  Cu  Cu51  1  0.33333300  0.66666700  0.51951467  1
  Cu  Cu52  1  0.33333300  0.66666700  0.31381933  1
  Cu  Cu53  1  0.33333300  0.66666700  0.81381933  1
  C  C54  1  0.20423521  0.04221650  0.31057064  1
  C  C55  1  0.83798129  0.79576479  0.31057064  1
  C  C56  1  0.95778350  0.16201871  0.31057064  1
  C  C57  1  0.20423521  0.16201871  0.81057064  1
  C  C58  1  0.95778350  0.79576479  0.81057064  1
  C  C59  1  0.83798129  0.04221650  0.81057064  1
  C  C60  1  0.79576479  0.95778350  0.68942936  1
  C  C61  1  0.16201871  0.20423521  0.68942936  1
  C  C62  1  0.04221650  0.83798129  0.68942936  1
  C  C63  1  0.79576479  0.83798129  0.18942936  1
  C  C64  1  0.04221650  0.20423521  0.18942936  1
  C  C65  1  0.16201871  0.95778350  0.18942936  1
  C  C66  1  0.87090221  0.37554950  0.64390364  1
  C  C67  1  0.50464829  0.12909779  0.64390364  1
  C  C68  1  0.62445050  0.49535171  0.64390364  1
  C  C69  1  0.87090221  0.49535171  0.14390364  1
  C  C70  1  0.62445050  0.12909779  0.14390364  1
  C  C71  1  0.50464829  0.37554950  0.14390364  1
  C  C72  1  0.46243179  0.29111650  0.02276236  1
  C  C73  1  0.82868571  0.53756821  0.02276236  1
  C  C74  1  0.70888350  0.17131429  0.02276236  1
  C  C75  1  0.46243179  0.17131429  0.52276236  1
  C  C76  1  0.70888350  0.53756821  0.52276236  1
  C  C77  1  0.82868571  0.29111650  0.52276236  1
  C  C78  1  0.53756821  0.70888350  0.97723764  1
  C  C79  1  0.17131429  0.46243179  0.97723764  1
  C  C80  1  0.29111650  0.82868571  0.97723764  1
  C  C81  1  0.53756821  0.82868571  0.47723764  1
  C  C82  1  0.29111650  0.46243179  0.47723764  1
  C  C83  1  0.17131429  0.70888350  0.47723764  1
  C  C84  1  0.12909779  0.62445050  0.35609636  1
  C  C85  1  0.49535171  0.87090221  0.35609636  1
  C  C86  1  0.37554950  0.50464829  0.35609636  1
  C  C87  1  0.12909779  0.50464829  0.85609636  1
  C  C88  1  0.37554950  0.87090221  0.85609636  1
  C  C89  1  0.49535171  0.62445050  0.85609636  1
  C  C90  1  0.02549887  0.84251582  0.41029320  1
  C  C91  1  0.81701694  0.97450113  0.41029320  1
  C  C92  1  0.15748418  0.18298306  0.41029320  1
  C  C93  1  0.02549887  0.18298306  0.91029320  1
  C  C94  1  0.15748418  0.97450113  0.91029320  1
  C  C95  1  0.81701694  0.84251582  0.91029320  1
  C  C96  1  0.97450113  0.15748418  0.58970680  1
  C  C97  1  0.18298306  0.02549887  0.58970680  1
  C  C98  1  0.84251582  0.81701694  0.58970680  1
  C  C99  1  0.97450113  0.81701694  0.08970680  1
  C  C100  1  0.84251582  0.02549887  0.08970680  1
  C  C101  1  0.18298306  0.15748418  0.08970680  1
  C  C102  1  0.69216587  0.17584882  0.74362620  1
  C  C103  1  0.48368394  0.30783413  0.74362620  1
  C  C104  1  0.82415118  0.51631606  0.74362620  1
  C  C105  1  0.69216587  0.51631606  0.24362620  1
  C  C106  1  0.82415118  0.30783413  0.24362620  1
  C  C107  1  0.48368394  0.17584882  0.24362620  1
  C  C108  1  0.64116813  0.49081718  0.92303980  1
  C  C109  1  0.84965006  0.35883187  0.92303980  1
  C  C110  1  0.50918282  0.15034994  0.92303980  1
  C  C111  1  0.64116813  0.15034994  0.42303980  1
  C  C112  1  0.50918282  0.35883187  0.42303980  1
  C  C113  1  0.84965006  0.49081718  0.42303980  1
  C  C114  1  0.35883187  0.50918282  0.07696020  1
  C  C115  1  0.15034994  0.64116813  0.07696020  1
  C  C116  1  0.49081718  0.84965006  0.07696020  1
  C  C117  1  0.35883187  0.84965006  0.57696020  1
  C  C118  1  0.49081718  0.64116813  0.57696020  1
  C  C119  1  0.15034994  0.50918282  0.57696020  1
  C  C120  1  0.30783413  0.82415118  0.25637380  1
  C  C121  1  0.51631606  0.69216587  0.25637380  1
  C  C122  1  0.17584882  0.48368394  0.25637380  1
  C  C123  1  0.30783413  0.48368394  0.75637380  1
  C  C124  1  0.17584882  0.69216587  0.75637380  1
  C  C125  1  0.51631606  0.82415118  0.75637380  1
