# generated using pymatgen
data_Cu3(NiC7)2
_symmetry_space_group_name_H-M   'P 1'
_cell_length_a   9.48097600
_cell_length_b   9.66914100
_cell_length_c   13.21034800
_cell_angle_alpha   90.00000000
_cell_angle_beta   90.00000000
_cell_angle_gamma   90.00000000
_symmetry_Int_Tables_number   1
_chemical_formula_structural   Cu3(NiC7)2
_chemical_formula_sum   'Cu12 Ni8 C56'
_cell_volume   1211.03082876
_cell_formula_units_Z   4
loop_
 _symmetry_equiv_pos_site_id
 _symmetry_equiv_pos_as_xyz
  1  'x, y, z'
loop_
 _atom_site_type_symbol
 _atom_site_label
 _atom_site_symmetry_multiplicity
 _atom_site_fract_x
 _atom_site_fract_y
 _atom_site_fract_z
 _atom_site_occupancy
  C  C0  1  0.23371600  0.27728000  0.81013200  1
  C  C1  1  0.73371600  0.22272000  0.68986800  1
  C  C2  1  0.26628400  0.27728000  0.18986800  1
  C  C3  1  0.76628400  0.22272000  0.31013200  1
  C  C4  1  0.76628400  0.72272000  0.18986800  1
  C  C5  1  0.26628400  0.77728000  0.31013200  1
  C  C6  1  0.73371600  0.72272000  0.81013200  1
  C  C7  1  0.23371600  0.77728000  0.68986800  1
  Ni  Ni8  1  0.03483700  0.25383800  0.62195200  1
  Ni  Ni9  1  0.53483700  0.24616200  0.87804800  1
  Ni  Ni10  1  0.46516300  0.25383800  0.37804800  1
  Ni  Ni11  1  0.96516300  0.24616200  0.12195200  1
  Ni  Ni12  1  0.96516300  0.74616200  0.37804800  1
  Ni  Ni13  1  0.46516300  0.75383800  0.12195200  1
  Ni  Ni14  1  0.53483700  0.74616200  0.62195200  1
  Ni  Ni15  1  0.03483700  0.75383800  0.87804800  1
  Cu  Cu16  1  0.39759600  0.09719100  0.64301300  1
  Cu  Cu17  1  0.89759600  0.40280900  0.85698700  1
  Cu  Cu18  1  0.10240400  0.09719100  0.35698700  1
  Cu  Cu19  1  0.60240400  0.40280900  0.14301300  1
  Cu  Cu20  1  0.60240400  0.90280900  0.35698700  1
  Cu  Cu21  1  0.10240400  0.59719100  0.14301300  1
  Cu  Cu22  1  0.89759600  0.90280900  0.64301300  1
  Cu  Cu23  1  0.39759600  0.59719100  0.85698700  1
  Cu  Cu24  1  0.25000000  0.03700600  0.00000000  1
  Cu  Cu25  1  0.75000000  0.46299400  0.50000000  1
  Cu  Cu26  1  0.75000000  0.96299400  0.00000000  1
  Cu  Cu27  1  0.25000000  0.53700600  0.50000000  1
  C  C28  1  0.23090000  0.17096700  0.67984500  1
  C  C29  1  0.73090000  0.32903300  0.82015500  1
  C  C30  1  0.26910000  0.17096700  0.32015500  1
  C  C31  1  0.76910000  0.32903300  0.17984500  1
  C  C32  1  0.76910000  0.82903300  0.32015500  1
  C  C33  1  0.26910000  0.67096700  0.17984500  1
  C  C34  1  0.73090000  0.82903300  0.67984500  1
  C  C35  1  0.23090000  0.67096700  0.82015500  1
  C  C36  1  0.43209000  0.14107300  0.51540300  1
  C  C37  1  0.93209000  0.35892700  0.98459700  1
  C  C38  1  0.06791000  0.14107300  0.48459700  1
  C  C39  1  0.56791000  0.35892700  0.01540300  1
  C  C40  1  0.56791000  0.85892700  0.48459700  1
  C  C41  1  0.06791000  0.64107300  0.01540300  1
  C  C42  1  0.93209000  0.85892700  0.51540300  1
  C  C43  1  0.43209000  0.64107300  0.98459700  1
  C  C44  1  0.12454900  0.43111200  0.56375100  1
  C  C45  1  0.62454900  0.06888800  0.93624900  1
  C  C46  1  0.37545100  0.43111200  0.43624900  1
  C  C47  1  0.87545100  0.06888800  0.06375100  1
  C  C48  1  0.87545100  0.56888800  0.43624900  1
  C  C49  1  0.37545100  0.93111200  0.06375100  1
  C  C50  1  0.62454900  0.56888800  0.56375100  1
  C  C51  1  0.12454900  0.93111200  0.93624900  1
  C  C52  1  0.53554100  0.17134700  0.71995900  1
  C  C53  1  0.03554100  0.32865300  0.78004100  1
  C  C54  1  0.96445900  0.17134700  0.28004100  1
  C  C55  1  0.46445900  0.32865300  0.21995900  1
  C  C56  1  0.46445900  0.82865300  0.28004100  1
  C  C57  1  0.96445900  0.67134700  0.21995900  1
  C  C58  1  0.03554100  0.82865300  0.71995900  1
  C  C59  1  0.53554100  0.67134700  0.78004100  1
  C  C60  1  0.33281900  0.14770700  0.90682700  1
  C  C61  1  0.83281900  0.35229300  0.59317300  1
  C  C62  1  0.16718100  0.14770700  0.09317300  1
  C  C63  1  0.66718100  0.35229300  0.40682700  1
  C  C64  1  0.66718100  0.85229300  0.09317300  1
  C  C65  1  0.16718100  0.64770700  0.40682700  1
  C  C66  1  0.83281900  0.85229300  0.90682700  1
  C  C67  1  0.33281900  0.64770700  0.59317300  1
  C  C68  1  0.39258700  0.41093500  0.83840500  1
  C  C69  1  0.89258700  0.08906500  0.66159500  1
  C  C70  1  0.10741300  0.41093500  0.16159500  1
  C  C71  1  0.60741300  0.08906500  0.33840500  1
  C  C72  1  0.60741300  0.58906500  0.16159500  1
  C  C73  1  0.10741300  0.91093500  0.33840500  1
  C  C74  1  0.89258700  0.58906500  0.83840500  1
  C  C75  1  0.39258700  0.91093500  0.66159500  1
