# generated using pymatgen
data_Cu12Ni4C3
_symmetry_space_group_name_H-M   'P 1'
_cell_length_a   6.16979949
_cell_length_b   6.16982786
_cell_length_c   5.87292354
_cell_angle_alpha   75.91933814
_cell_angle_beta   104.07918187
_cell_angle_gamma   91.11543666
_symmetry_Int_Tables_number   1
_chemical_formula_structural   Cu12Ni4C3
_chemical_formula_sum   'Cu12 Ni4 C3'
_cell_volume   210.14370605
_cell_formula_units_Z   1
loop_
 _symmetry_equiv_pos_site_id
 _symmetry_equiv_pos_as_xyz
  1  'x, y, z'
loop_
 _atom_site_type_symbol
 _atom_site_label
 _atom_site_symmetry_multiplicity
 _atom_site_fract_x
 _atom_site_fract_y
 _atom_site_fract_z
 _atom_site_occupancy
  C  C0  1  0.40379400  0.40385200  0.75002500  1
  C  C1  1  0.19540000  0.19537800  0.25001500  1
  C  C2  1  0.80470200  0.80468300  0.74998600  1
  Ni  Ni3  1  0.12485000  0.68660100  0.23509200  1
  Ni  Ni4  1  0.30675700  0.88188300  0.71300500  1
  Ni  Ni5  1  0.68657300  0.12484900  0.26491000  1
  Ni  Ni6  1  0.88188900  0.30673000  0.78699600  1
  Cu  Cu7  1  0.09580000  0.32746900  0.87938500  1
  Cu  Cu8  1  0.11790900  0.79831000  0.71405000  1
  Cu  Cu9  1  0.20905900  0.87572800  0.24440600  1
  Cu  Cu10  1  0.24097400  0.50188800  0.36809200  1
  Cu  Cu11  1  0.32745200  0.09582300  0.62065300  1
  Cu  Cu12  1  0.48082000  0.74490300  0.79446900  1
  Cu  Cu13  1  0.50187200  0.24098400  0.13194800  1
  Cu  Cu14  1  0.66718600  0.93184400  0.40080300  1
  Cu  Cu15  1  0.74487100  0.48078300  0.70555300  1
  Cu  Cu16  1  0.79837100  0.11788200  0.78587500  1
  Cu  Cu17  1  0.87569700  0.20904200  0.25557900  1
  Cu  Cu18  1  0.93185800  0.66720100  0.09915900  1
