# generated using pymatgen
data_CuNiC9
_symmetry_space_group_name_H-M   'P 1'
_cell_length_a   3.79821646
_cell_length_b   5.56894932
_cell_length_c   7.77413233
_cell_angle_alpha   90.00000000
_cell_angle_beta   90.00000000
_cell_angle_gamma   90.00000000
_symmetry_Int_Tables_number   1
_chemical_formula_structural   CuNiC9
_chemical_formula_sum   'Cu1 Ni1 C9'
_cell_volume   164.43902989
_cell_formula_units_Z   1
loop_
 _symmetry_equiv_pos_site_id
 _symmetry_equiv_pos_as_xyz
  1  'x, y, z'
loop_
 _atom_site_type_symbol
 _atom_site_label
 _atom_site_symmetry_multiplicity
 _atom_site_fract_x
 _atom_site_fract_y
 _atom_site_fract_z
 _atom_site_occupancy
  Ni  Ni0  1  -0.00000000  -0.00000000  0.50000000  1
  Cu  Cu1  1  -0.00000000  -0.00000000  -0.00000000  1
  C  C2  1  -0.00000000  0.50000000  -0.00000000  1
  C  C3  1  0.49999900  0.49999900  0.73449646  1
  C  C4  1  0.49999900  0.49999900  0.26550254  1
  C  C5  1  0.49999900  0.49999900  0.50000000  1
  C  C6  1  0.49999900  -0.00000000  0.80019307  1
  C  C7  1  0.00000000  0.49999900  0.75736537  1
  C  C8  1  0.49999900  -0.00000000  0.19980793  1
  C  C9  1  0.49999900  0.49999900  -0.00000000  1
  C  C10  1  0.00000000  0.49999900  0.24263563  1
