# generated using pymatgen
data_Cu5(Ni2C21)3
_symmetry_space_group_name_H-M   'P 1'
_cell_length_a   18.18695406
_cell_length_b   9.09155247
_cell_length_c   23.38308063
_cell_angle_alpha   90.05215949
_cell_angle_beta   89.95025690
_cell_angle_gamma   119.95465876
_symmetry_Int_Tables_number   1
_chemical_formula_structural   Cu5(Ni2C21)3
_chemical_formula_sum   'Cu15 Ni18 C189'
_cell_volume   3349.87338113
_cell_formula_units_Z   3
loop_
 _symmetry_equiv_pos_site_id
 _symmetry_equiv_pos_as_xyz
  1  'x, y, z'
loop_
 _atom_site_type_symbol
 _atom_site_label
 _atom_site_symmetry_multiplicity
 _atom_site_fract_x
 _atom_site_fract_y
 _atom_site_fract_z
 _atom_site_occupancy
  Ni  Ni0  1  0.68056785  0.36991230  0.25042919  1
  Ni  Ni1  1  0.00288166  0.63634576  0.25115087  1
  Ni  Ni2  1  0.00114419  0.36922859  0.74759945  1
  Ni  Ni3  1  0.50121823  0.36923084  0.74790889  1
  Ni  Ni4  1  0.18193272  0.99348772  0.74733262  1
  Ni  Ni5  1  0.68187456  0.99359510  0.74773127  1
  Ni  Ni6  1  0.00036250  0.99954403  0.50386510  1
  Ni  Ni7  1  0.49990515  0.00026750  0.50421561  1
  Ni  Ni8  1  0.99847436  0.99662844  0.00486678  1
  Ni  Ni9  1  0.50207271  0.00459514  0.00405493  1
  Ni  Ni10  1  0.33334157  0.34561035  0.83568652  1
  Ni  Ni11  1  0.83275087  0.34488883  0.83664205  1
  Ni  Ni12  1  0.33299594  0.33294359  0.33799577  1
  Ni  Ni13  1  0.83308204  0.31957833  0.33685562  1
  Ni  Ni14  1  0.17303317  0.66428208  0.16891057  1
  Ni  Ni15  1  0.66781211  0.68492359  0.16855835  1
  Ni  Ni16  1  0.17455530  0.66638449  0.66156099  1
  Ni  Ni17  1  0.67438486  0.66607891  0.66208892  1
  Cu  Cu18  1  0.99791616  0.99581114  0.64389357  1
  Cu  Cu19  1  0.49801100  0.99570284  0.64388616  1
  Cu  Cu20  1  0.99807236  0.00151060  0.14605666  1
  Cu  Cu21  1  0.50013581  0.99968309  0.14523413  1
  Cu  Cu22  1  0.33290318  0.34285959  0.67959564  1
  Cu  Cu23  1  0.83294766  0.34279363  0.67967178  1
  Cu  Cu24  1  0.83267747  0.32130072  0.18239884  1
  Cu  Cu25  1  0.33322527  0.33138397  0.97980422  1
  Cu  Cu26  1  0.83353987  0.33261578  0.98171037  1
  Cu  Cu27  1  0.33313627  0.33218516  0.48173140  1
  Cu  Cu28  1  0.83350512  0.33390811  0.48068599  1
  Cu  Cu29  1  0.17209715  0.66859917  0.31488702  1
  Cu  Cu30  1  0.66559081  0.67315030  0.31572032  1
  Cu  Cu31  1  0.17054502  0.66602216  0.81776928  1
  Cu  Cu32  1  0.67074393  0.66678816  0.81792587  1
  C  C33  1  0.00190532  0.00540846  0.35474721  1
  C  C34  1  0.49697949  0.99557724  0.35434262  1
  C  C35  1  0.99841633  0.99733628  0.85679095  1
  C  C36  1  0.49889328  0.99737373  0.85612433  1
  C  C37  1  0.33370565  0.33529116  0.18494549  1
  C  C38  1  0.16792940  0.66926685  0.01869461  1
  C  C39  1  0.66482622  0.66272001  0.01748936  1
  C  C40  1  0.16569135  0.66653413  0.51555886  1
  C  C41  1  0.66606051  0.66755201  0.51534792  1
  C  C42  1  0.14705144  0.00976592  0.24988951  1
  C  C43  1  0.64430838  0.00523418  0.25198666  1
  C  C44  1  0.35795974  0.70372724  0.24919682  1
  C  C45  1  0.85634408  0.70818835  0.25237193  1
  C  C46  1  0.99832681  0.29019341  0.25247403  1
  C  C47  1  0.49442230  0.28309567  0.25028694  1
  C  C48  1  0.14283645  0.28265351  0.75298638  1
  C  C49  1  0.64295549  0.28308088  0.75287392  1
  C  C50  1  0.99860701  0.70944878  0.75365502  1
  C  C51  1  0.49863379  0.70923325  0.75357662  1
  C  C52  1  0.35648600  0.00469401  0.75268233  1
  C  C53  1  0.85640214  0.00446463  0.75267803  1
  C  C54  1  0.48727811  0.34348737  0.58205371  1
  C  C55  1  0.98691762  0.34358559  0.58191503  1
  C  C56  1  0.18459869  0.02595320  0.58237083  1
  C  C57  1  0.68502883  0.02704652  0.58204870  1
  C  C58  1  0.32785954  0.63175383  0.57900978  1
  C  C59  1  0.82798244  0.63142040  0.57895963  1
  C  C60  1  0.48135386  0.61811912  0.08263190  1
  C  C61  1  0.98645228  0.63164105  0.08217440  1
  C  C62  1  0.32770992  0.03739135  0.08310715  1
  C  C63  1  0.82866041  0.02426361  0.07912627  1
  C  C64  1  0.19113144  0.34623051  0.08305955  1
  C  C65  1  0.68391795  0.33972758  0.08199703  1
  C  C66  1  0.31707546  0.67699986  0.91809204  1
  C  C67  1  0.81638965  0.67550934  0.91785109  1
  C  C68  1  0.02302569  0.36954024  0.91609985  1
  C  C69  1  0.52167001  0.36745962  0.91457612  1
  C  C70  1  0.16166510  0.95480301  0.91555488  1
  C  C71  1  0.66170246  0.95586855  0.91558975  1
  C  C72  1  0.31553089  0.95631381  0.41617964  1
  C  C73  1  0.81665578  0.95615224  0.41593906  1
  C  C74  1  0.16235426  0.36822552  0.41628202  1
  C  C75  1  0.66150837  0.36785945  0.41347345  1
  C  C76  1  0.02265410  0.67619217  0.41323997  1
  C  C77  1  0.52091573  0.67544166  0.41616076  1
  C  C78  1  0.10217624  0.03237270  0.30462760  1
  C  C79  1  0.59064906  0.01545421  0.30520057  1
  C  C80  1  0.41288356  0.79448443  0.30435953  1
  C  C81  1  0.91522966  0.81522349  0.30555949  1
  C  C82  1  0.48157687  0.16589943  0.30430981  1
  C  C83  1  0.99512887  0.17795561  0.30664521  1
  C  C84  1  0.09225243  0.16927268  0.80714588  1
  C  C85  1  0.59234065  0.16942495  0.80694763  1
  C  C86  1  0.49250590  0.80979782  0.80793512  1
  C  C87  1  0.99249091  0.81031041  0.80811487  1
  C  C88  1  0.41200455  0.01172605  0.80695056  1
  C  C89  1  0.91205889  0.01180141  0.80710720  1
  C  C90  1  0.39776549  0.98576409  0.69936126  1
  C  C91  1  0.89774392  0.98544769  0.69945399  1
  C  C92  1  0.09051542  0.20050607  0.69984272  1
  C  C93  1  0.59052390  0.20068478  0.69977408  1
  C  C94  1  0.01161496  0.81638774  0.70097370  1
  C  C95  1  0.51154576  0.81617854  0.70087857  1
  C  C96  1  0.39787309  0.80792221  0.19675739  1
  C  C97  1  0.89673289  0.80819956  0.19880101  1
  C  C98  1  0.00686778  0.20744675  0.19905468  1
  C  C99  1  0.51036551  0.20652330  0.19801227  1
  C  C100  1  0.09191005  0.97831691  0.19802502  1
  C  C101  1  0.59597343  0.99126197  0.19802355  1
  C  C102  1  0.45414844  0.37559050  0.63952778  1
  C  C103  1  0.95384023  0.37526439  0.63960394  1
  C  C104  1  0.23329334  0.09275495  0.63994837  1
  C  C105  1  0.73344365  0.09311062  0.63973680  1
  C  C106  1  0.31162406  0.52928221  0.63512520  1
  C  C107  1  0.81162808  0.52915543  0.63508380  1
  C  C108  1  0.43262877  0.50011879  0.13684679  1
  C  C109  1  0.95374145  0.53189874  0.13889959  1
  C  C110  1  0.31686742  0.13433734  0.13687342  1
  C  C111  1  0.81173815  0.09404339  0.13461500  1
  C  C112  1  0.25061506  0.36772359  0.13711919  1
  C  C113  1  0.73275790  0.37212947  0.13899229  1
  C  C114  1  0.23047638  0.32046445  0.03025961  1
  C  C115  1  0.73051640  0.31938709  0.03193023  1
  C  C116  1  0.42942197  0.53768132  0.02990830  1
  C  C117  1  0.93009311  0.53980532  0.03192397  1
  C  C118  1  0.34014433  0.14002259  0.02997849  1
  C  C119  1  0.84054709  0.13479248  0.02787180  1
  C  C120  1  0.23096336  0.14124034  0.53311774  1
  C  C121  1  0.73145576  0.14209260  0.53282158  1
  C  C122  1  0.34015617  0.54422825  0.52859994  1
  C  C123  1  0.84026688  0.54421051  0.52849438  1
  C  C124  1  0.42980334  0.32140600  0.53277036  1
  C  C125  1  0.92946270  0.32178179  0.53273165  1
  C  C126  1  0.26874195  0.69882081  0.97054624  1
  C  C127  1  0.76610063  0.69526933  0.96948391  1
  C  C128  1  0.08496195  0.47095834  0.96771444  1
  C  C129  1  0.58166523  0.46816858  0.96617507  1
  C  C130  1  0.15365797  0.83448325  0.96731967  1
  C  C131  1  0.65044195  0.83335597  0.96698459  1
  C  C132  1  0.26766853  0.83779900  0.46845623  1
  C  C133  1  0.76813811  0.83813721  0.46839806  1
  C  C134  1  0.15127898  0.46479695  0.46879668  1
  C  C135  1  0.65057629  0.46791851  0.46506858  1
  C  C136  1  0.08302095  0.69718097  0.46528707  1
  C  C137  1  0.58064180  0.69962491  0.46846083  1
  C  C138  1  0.06010421  0.65414369  0.35788499  1
  C  C139  1  0.55973318  0.65122941  0.36267887  1
  C  C140  1  0.26540492  0.88097677  0.36227273  1
  C  C141  1  0.76581942  0.87742712  0.36239109  1
  C  C142  1  0.17341650  0.46917498  0.36275083  1
  C  C143  1  0.67272532  0.46332701  0.35788224  1
  C  C144  1  0.05920342  0.46471896  0.86030954  1
  C  C145  1  0.55811327  0.46278849  0.85888334  1
  C  C146  1  0.17236436  0.88159614  0.85978945  1
  C  C147  1  0.67255994  0.88279107  0.85966846  1
  C  C148  1  0.26711934  0.65220707  0.86393533  1
  C  C149  1  0.76724300  0.65112810  0.86331187  1
  C  C150  1  0.01909754  0.84672086  0.40820069  1
  C  C151  1  0.51645107  0.84551326  0.40951679  1
  C  C152  1  0.40395296  0.96158066  0.40934875  1
  C  C153  1  0.90615471  0.96597451  0.40948644  1
  C  C154  1  0.07757306  0.18992304  0.41067252  1
  C  C155  1  0.57575354  0.18875465  0.40750045  1
  C  C156  1  0.01823394  0.19108630  0.91118720  1
  C  C157  1  0.51766736  0.18982206  0.91056236  1
  C  C158  1  0.07678847  0.96257438  0.91173971  1
  C  C159  1  0.57703229  0.96505426  0.91104816  1
  C  C160  1  0.40525974  0.84652538  0.91228697  1
  C  C161  1  0.90450232  0.84529131  0.91214201  1
  C  C162  1  0.50370864  0.19408840  0.58534531  1
  C  C163  1  0.00366535  0.19456173  0.58529582  1
  C  C164  1  0.09344676  0.99316435  0.58552038  1
  C  C165  1  0.59376881  0.99356337  0.58529047  1
  C  C166  1  0.40282589  0.81330480  0.58382569  1
  C  C167  1  0.90267237  0.81316211  0.58385870  1
  C  C168  1  0.49644532  0.79648059  0.09046344  1
  C  C169  1  0.00504613  0.81457717  0.08498780  1
  C  C170  1  0.40066149  0.00438791  0.09146090  1
  C  C171  1  0.90310000  0.99137415  0.08312684  1
  C  C172  1  0.10184816  0.20010229  0.09202928  1
  C  C173  1  0.59283150  0.19153690  0.08373376  1
  C  C174  1  0.35462779  0.17385475  0.75295843  1
  C  C175  1  0.85465723  0.17363492  0.75298076  1
  C  C176  1  0.22886378  0.28679896  0.75215802  1
  C  C177  1  0.72891628  0.28684681  0.75206487  1
  C  C178  1  0.41888200  0.53109357  0.75229792  1
  C  C179  1  0.91895283  0.53139221  0.75231401  1
  C  C180  1  0.35260767  0.52368260  0.24135272  1
  C  C181  1  0.85525476  0.53625193  0.25261758  1
  C  C182  1  0.41214720  0.29899080  0.24174856  1
  C  C183  1  0.91622726  0.30181286  0.25348243  1
  C  C184  1  0.23715095  0.17536825  0.24116249  1
  C  C185  1  0.72929317  0.17672642  0.25343780  1
  C  C186  1  0.33295635  0.52906284  0.92440146  1
  C  C187  1  0.83294132  0.52817753  0.92453727  1
  C  C188  1  0.43230326  0.33701535  0.92230750  1
  C  C189  1  0.93391655  0.34043906  0.92389068  1
  C  C190  1  0.23568124  0.13358622  0.92306843  1
  C  C191  1  0.73601860  0.13492939  0.92314339  1
  C  C192  1  0.33316425  0.13685067  0.42362685  1
  C  C193  1  0.83231995  0.13559383  0.42319896  1
  C  C194  1  0.23585132  0.33499603  0.42329802  1
  C  C195  1  0.73482111  0.33544069  0.42231081  1
  C  C196  1  0.43137245  0.52818181  0.42357396  1
  C  C197  1  0.93357310  0.52825504  0.42200545  1
  C  C198  1  0.18689451  0.51619492  0.07590570  1
  C  C199  1  0.67664484  0.50560946  0.06877937  1
  C  C200  1  0.07643632  0.64206999  0.06861724  1
  C  C201  1  0.57065882  0.62832033  0.07607707  1
  C  C202  1  0.24299688  0.85894955  0.07558434  1
  C  C203  1  0.74462924  0.84510206  0.06829287  1
  C  C204  1  0.17722968  0.84652652  0.57009028  1
  C  C205  1  0.67781485  0.84708716  0.56999938  1
  C  C206  1  0.24561861  0.64643856  0.56905360  1
  C  C207  1  0.74532305  0.64531712  0.56875019  1
  C  C208  1  0.07651215  0.50942761  0.56993742  1
  C  C209  1  0.57714030  0.50854894  0.56975543  1
  C  C210  1  0.15811324  0.85350692  0.25691187  1
  C  C211  1  0.65726590  0.85299204  0.25627813  1
  C  C212  1  0.26725270  0.67017694  0.25538051  1
  C  C213  1  0.76476075  0.67287330  0.25709149  1
  C  C214  1  0.07420261  0.47195881  0.25648235  1
  C  C215  1  0.57278864  0.45955262  0.25832698  1
  C  C216  1  0.15076425  0.45794223  0.75788804  1
  C  C217  1  0.65095254  0.45831882  0.75778209  1
  C  C218  1  0.07797790  0.69058221  0.75882725  1
  C  C219  1  0.57808891  0.69044106  0.75866340  1
  C  C220  1  0.26478253  0.85602183  0.75664124  1
  C  C221  1  0.76483124  0.85596112  0.75660600  1
