# generated using pymatgen
data_Cu3NiC32
_symmetry_space_group_name_H-M   'P 1'
_cell_length_a   8.71700974
_cell_length_b   8.72397202
_cell_length_c   22.85532539
_cell_angle_alpha   90.05291923
_cell_angle_beta   89.74972342
_cell_angle_gamma   119.99945674
_symmetry_Int_Tables_number   1
_chemical_formula_structural   Cu3NiC32
_chemical_formula_sum   'Cu9 Ni3 C96'
_cell_volume   1505.21178405
_cell_formula_units_Z   3
loop_
 _symmetry_equiv_pos_site_id
 _symmetry_equiv_pos_as_xyz
  1  'x, y, z'
loop_
 _atom_site_type_symbol
 _atom_site_label
 _atom_site_symmetry_multiplicity
 _atom_site_fract_x
 _atom_site_fract_y
 _atom_site_fract_z
 _atom_site_occupancy
  C  C0  1  0.00066087  0.99525713  0.50414219  1
  C  C1  1  0.00469754  0.99925000  0.00241519  1
  C  C2  1  0.66288123  0.32879075  0.83201532  1
  C  C3  1  0.66701801  0.33340253  0.33747935  1
  C  C4  1  0.32966229  0.66223954  0.16939282  1
  C  C5  1  0.34173287  0.66946419  0.66501014  1
  Ni  Ni6  1  0.99915928  0.99987459  0.64660322  1
  Ni  Ni7  1  0.00883172  0.99895775  0.14609387  1
  Ni  Ni8  1  0.33357969  0.66720303  0.32326301  1
  Cu  Cu9  1  0.00096142  0.00016857  0.35524745  1
  Cu  Cu10  1  0.00088657  0.00617586  0.85079896  1
  Cu  Cu11  1  0.65279685  0.32402712  0.68418285  1
  Cu  Cu12  1  0.66829196  0.34027357  0.18438310  1
  Cu  Cu13  1  0.66497918  0.33798330  0.97984841  1
  Cu  Cu14  1  0.66126631  0.33502064  0.48038933  1
  Cu  Cu15  1  0.32779045  0.66054767  0.01810217  1
  Cu  Cu16  1  0.34017115  0.67181811  0.51705481  1
  Cu  Cu17  1  0.33913757  0.66699860  0.81429340  1
  C  C18  1  0.28852949  0.29015783  0.74851607  1
  C  C19  1  0.71082722  0.00172269  0.74807501  1
  C  C20  1  0.36866615  0.03742007  0.58260156  1
  C  C21  1  0.66944497  0.62862062  0.58346221  1
  C  C22  1  0.95939834  0.62844698  0.08306707  1
  C  C23  1  0.37141719  0.33148505  0.08321716  1
  C  C24  1  0.62722535  0.66999260  0.91687253  1
  C  C25  1  0.04060254  0.37442929  0.91614079  1
  C  C26  1  0.33187552  0.95701432  0.91666060  1
  C  C27  1  0.62384122  0.96027632  0.41470337  1
  C  C28  1  0.33404596  0.37879479  0.41509015  1
  C  C29  1  0.04267512  0.66352733  0.41562594  1
  C  C30  1  0.29205601  0.99700521  0.24859944  1
  C  C31  1  0.70717156  0.71186845  0.24859048  1
  C  C32  1  0.00199558  0.29245787  0.24803130  1
  C  C33  1  0.99966025  0.70708909  0.74930527  1
  C  C34  1  0.95861810  0.33332829  0.58309874  1
  C  C35  1  0.66779429  0.04087558  0.08312213  1
  C  C36  1  0.21779801  0.03605725  0.30266972  1
  C  C37  1  0.81932649  0.78552686  0.30261050  1
  C  C38  1  0.96430659  0.18108574  0.30245490  1
  C  C39  1  0.21792375  0.18082118  0.80656959  1
  C  C40  1  0.96652211  0.77973461  0.80464992  1
  C  C41  1  0.81587802  0.03375097  0.80655207  1
  C  C42  1  0.78930531  0.96663495  0.69465710  1
  C  C43  1  0.17831731  0.21048174  0.69482371  1
  C  C44  1  0.03150919  0.81430552  0.69745452  1
  C  C45  1  0.79134703  0.81650444  0.19611132  1
  C  C46  1  0.02269752  0.20774445  0.19577031  1
  C  C47  1  0.18686890  0.97509072  0.19657341  1
  C  C48  1  0.88245109  0.36966095  0.63707242  1
  C  C49  1  0.48872853  0.11164131  0.63787671  1
  C  C50  1  0.63164993  0.51047570  0.63925694  1
  C  C51  1  0.88321764  0.50773396  0.13848469  1
  C  C52  1  0.63034383  0.11672062  0.13682949  1
  C  C53  1  0.48968177  0.37052161  0.13863467  1
  C  C54  1  0.45550490  0.29887982  0.02812917  1
  C  C55  1  0.84620419  0.54157320  0.02794063  1
  C  C56  1  0.69612473  0.15016667  0.02975858  1
  C  C57  1  0.45710101  0.15242231  0.52778581  1
  C  C58  1  0.70025308  0.54389697  0.52830146  1
  C  C59  1  0.84974581  0.30580147  0.52992851  1
  C  C60  1  0.54900336  0.70485310  0.97289989  1
  C  C61  1  0.15249603  0.44980681  0.97201804  1
  C  C62  1  0.29936746  0.84559553  0.97289755  1
  C  C63  1  0.55337168  0.84981921  0.47164971  1
  C  C64  1  0.29616534  0.45111837  0.47230874  1
  C  C65  1  0.15291734  0.69998992  0.47244613  1
  C  C66  1  0.11555125  0.63182324  0.35979231  1
  C  C67  1  0.51700926  0.88635955  0.35968319  1
  C  C68  1  0.36721435  0.48461172  0.35967714  1
  C  C69  1  0.11960222  0.49040350  0.86136789  1
  C  C70  1  0.36681879  0.87794534  0.86146449  1
  C  C71  1  0.51235526  0.63137693  0.86220528  1
  C  C72  1  0.02189079  0.83202597  0.41106665  1
  C  C73  1  0.81200161  0.97921214  0.41035487  1
  C  C74  1  0.16628943  0.18953434  0.41098721  1
  C  C75  1  0.02274378  0.18970270  0.91138534  1
  C  C76  1  0.16469196  0.97460750  0.91045168  1
  C  C77  1  0.81300615  0.83492772  0.91038569  1
  C  C78  1  0.97544117  0.17657531  0.58847419  1
  C  C79  1  0.18951342  0.02325075  0.58906636  1
  C  C80  1  0.83183031  0.81001831  0.58898759  1
  C  C81  1  0.97361021  0.80767380  0.08911748  1
  C  C82  1  0.82426367  0.02394814  0.08950449  1
  C  C83  1  0.18926348  0.17003703  0.08909462  1
  C  C84  1  0.69259607  0.17206298  0.74472426  1
  C  C85  1  0.47986843  0.31508589  0.74647678  1
  C  C86  1  0.83966940  0.52624047  0.74489559  1
  C  C87  1  0.69349216  0.52889062  0.24556802  1
  C  C88  1  0.83188875  0.30519919  0.24425244  1
  C  C89  1  0.47498780  0.16552843  0.24410700  1
  C  C90  1  0.64368720  0.50181702  0.92178380  1
  C  C91  1  0.85486833  0.35519439  0.92285960  1
  C  C92  1  0.50066071  0.14171052  0.92298220  1
  C  C93  1  0.64833728  0.14795830  0.42306109  1
  C  C94  1  0.49836236  0.35508296  0.42150802  1
  C  C95  1  0.85521921  0.49853560  0.42323369  1
  C  C96  1  0.36407247  0.50639957  0.07776839  1
  C  C97  1  0.14505296  0.64249229  0.07804556  1
  C  C98  1  0.50269497  0.86426602  0.07772200  1
  C  C99  1  0.35644347  0.85270811  0.57740060  1
  C  C100  1  0.49376263  0.63545089  0.57788324  1
  C  C101  1  0.13566089  0.49813668  0.57771742  1
  C  C102  1  0.31397389  0.84274634  0.25525914  1
  C  C103  1  0.52990690  0.68809276  0.25518905  1
  C  C104  1  0.15586993  0.46918208  0.25468609  1
  C  C105  1  0.30794890  0.47740887  0.75635946  1
  C  C106  1  0.16064018  0.68864736  0.75684157  1
  C  C107  1  0.52076022  0.83674739  0.75599689  1
