# generated using pymatgen
data_Cu2Ni2C9
_symmetry_space_group_name_H-M   'P 1'
_cell_length_a   3.33411400
_cell_length_b   3.33418292
_cell_length_c   45.70742214
_cell_angle_alpha   89.99195296
_cell_angle_beta   90.00000000
_cell_angle_gamma   119.99931617
_symmetry_Int_Tables_number   1
_chemical_formula_structural   Cu2Ni2C9
_chemical_formula_sum   'Cu2 Ni2 C9'
_cell_volume   440.03803315
_cell_formula_units_Z   1
loop_
 _symmetry_equiv_pos_site_id
 _symmetry_equiv_pos_as_xyz
  1  'x, y, z'
loop_
 _atom_site_type_symbol
 _atom_site_label
 _atom_site_symmetry_multiplicity
 _atom_site_fract_x
 _atom_site_fract_y
 _atom_site_fract_z
 _atom_site_occupancy
  C  C0  1  0.00003200  0.00006400  0.55986700  1
  C  C1  1  0.66671200  0.33342300  0.05220300  1
  C  C2  1  0.66660600  0.33321000  0.13544500  1
  Ni  Ni3  1  0.33331200  0.66662500  0.09381800  1
  Ni  Ni4  1  0.33329000  0.66658000  0.46284600  1
  Cu  Cu5  1  0.66675400  0.33350800  0.28189900  1
  Cu  Cu6  1  0.66660300  0.33320500  0.66567800  1
  C  C7  1  0.33321500  0.66643100  0.70232900  1
  C  C8  1  0.66667400  0.33335000  0.42647700  1
  C  C9  1  0.66659500  0.33318700  0.49996100  1
  C  C10  1  0.33328900  0.66657700  0.62866600  1
  C  C11  1  0.33342000  0.66684100  0.31523400  1
  C  C12  1  0.33349900  0.66700100  0.24856000  1
