# generated using pymatgen
data_Cu2NiC17
_symmetry_space_group_name_H-M   'P 1'
_cell_length_a   9.46997736
_cell_length_b   9.45603786
_cell_length_c   23.22210775
_cell_angle_alpha   89.79339102
_cell_angle_beta   90.00000000
_cell_angle_gamma   120.04877608
_symmetry_Int_Tables_number   1
_chemical_formula_structural   Cu2NiC17
_chemical_formula_sum   'Cu12 Ni6 C102'
_cell_volume   1800.00195247
_cell_formula_units_Z   6
loop_
 _symmetry_equiv_pos_site_id
 _symmetry_equiv_pos_as_xyz
  1  'x, y, z'
loop_
 _atom_site_type_symbol
 _atom_site_label
 _atom_site_symmetry_multiplicity
 _atom_site_fract_x
 _atom_site_fract_y
 _atom_site_fract_z
 _atom_site_occupancy
  C  C0  1  0.62300831  0.01194788  0.25357715  1
  C  C1  1  0.00916506  0.64709105  0.23709826  1
  C  C2  1  0.63792600  0.64709105  0.73709826  1
  C  C3  1  0.38893957  0.01194788  0.75357715  1
  C  C4  1  0.31944856  0.35121977  0.58615674  1
  C  C5  1  0.64690344  0.94074602  0.57897764  1
  C  C6  1  0.29384358  0.94074602  0.07897764  1
  C  C7  1  0.03177221  0.35121977  0.08615674  1
  C  C8  1  0.98858623  0.68747785  0.92655493  1
  C  C9  1  0.68694727  0.02833583  0.90269078  1
  C  C10  1  0.34138756  0.02833583  0.40269078  1
  C  C11  1  0.69889062  0.68747785  0.42655493  1
  C  C12  1  0.96672357  0.98096403  0.49167376  1
  C  C13  1  0.01424046  0.98096403  0.99167376  1
  C  C14  1  0.65461897  0.30150130  0.82591052  1
  C  C15  1  0.64688333  0.30150130  0.32591052  1
  C  C16  1  0.33025272  0.67082736  0.15907286  1
  C  C17  1  0.34057364  0.67082736  0.65907286  1
  C  C18  1  0.98133609  0.98306488  0.65089641  1
  C  C19  1  0.00172879  0.98306488  0.15089641  1
  C  C20  1  0.65471177  0.33771083  0.98556115  1
  C  C21  1  0.68300005  0.33771083  0.48556115  1
  C  C22  1  0.33557259  0.67181199  0.31915281  1
  C  C23  1  0.33623840  0.67181199  0.81915281  1
  C  C24  1  0.01171072  0.01799486  0.34925967  1
  C  C25  1  0.00628414  0.01799486  0.84925967  1
  C  C26  1  0.68214760  0.33992695  0.68279431  1
  C  C27  1  0.65778036  0.33992695  0.18279431  1
  C  C28  1  0.30685516  0.67246082  0.01436851  1
  C  C29  1  0.36560467  0.67246082  0.51436851  1
  Ni  Ni30  1  0.31210016  0.01497041  0.25266539  1
  Ni  Ni31  1  0.70287025  0.01497041  0.75266539  1
  Ni  Ni32  1  0.65161830  0.62572561  0.58405137  1
  Ni  Ni33  1  0.97410831  0.62572561  0.08405137  1
  Ni  Ni34  1  0.31979172  0.96956486  0.91566684  1
  Ni  Ni35  1  0.64977215  0.96956486  0.41566684  1
  Cu  Cu36  1  0.70504694  0.68948908  0.25447090  1
  Cu  Cu37  1  0.98481506  0.29236648  0.24902175  1
  Cu  Cu38  1  0.30755142  0.29236648  0.74902175  1
  Cu  Cu39  1  0.98444214  0.68948908  0.75447090  1
  Cu  Cu40  1  0.98205560  0.34910171  0.58720107  1
  Cu  Cu41  1  0.37363686  0.02926044  0.58505753  1
  Cu  Cu42  1  0.65562457  0.02926044  0.08505753  1
  Cu  Cu43  1  0.36704711  0.34910171  0.08720107  1
  Cu  Cu44  1  0.64318769  0.68340397  0.91757110  1
  Cu  Cu45  1  0.03551845  0.35511186  0.92119207  1
  Cu  Cu46  1  0.31959241  0.35511186  0.42119207  1
  Cu  Cu47  1  0.04021528  0.68340397  0.41757110  1
  C  C48  1  0.21202457  0.02196576  0.30967244  1
  C  C49  1  0.80446900  0.77694508  0.30535765  1
  C  C50  1  0.97713562  0.18588163  0.29722797  1
  C  C51  1  0.20874601  0.18588163  0.79722797  1
  C  C52  1  0.97247608  0.77694508  0.80535765  1
  C  C53  1  0.80994119  0.02196576  0.80967244  1
  C  C54  1  0.77786006  0.98090432  0.69367248  1
  C  C55  1  0.22429355  0.22633595  0.69324255  1
  C  C56  1  0.01977199  0.79359347  0.70224277  1
  C  C57  1  0.77382148  0.79359347  0.20224277  1
  C  C58  1  0.00204239  0.22633595  0.19324255  1
  C  C59  1  0.20304426  0.98090432  0.19367248  1
  C  C60  1  0.88780096  0.35556338  0.63637155  1
  C  C61  1  0.47954543  0.11658883  0.63498253  1
  C  C62  1  0.64309849  0.51395258  0.64019667  1
  C  C63  1  0.87085509  0.51395258  0.14019667  1
  C  C64  1  0.63704440  0.11658883  0.13498253  1
  C  C65  1  0.46776342  0.35556338  0.13637155  1
  C  C66  1  0.42733043  0.31075502  0.03369786  1
  C  C67  1  0.88177693  0.54387264  0.02314639  1
  C  C68  1  0.67569047  0.12225941  0.03087548  1
  C  C69  1  0.44656995  0.12225941  0.53087548  1
  C  C70  1  0.66209671  0.54387264  0.52314639  1
  C  C71  1  0.88342559  0.31075502  0.53369786  1
  C  C72  1  0.53861650  0.67966572  0.96544582  1
  C  C73  1  0.13191539  0.44032761  0.97328938  1
  C  C74  1  0.29685531  0.84921351  0.97154632  1
  C  C75  1  0.55235719  0.84921351  0.47154632  1
  C  C76  1  0.30841121  0.44032761  0.47328938  1
  C  C77  1  0.14104822  0.67966572  0.46544582  1
  C  C78  1  0.10137596  0.66054980  0.36156575  1
  C  C79  1  0.54037602  0.89017014  0.35661536  1
  C  C80  1  0.33888602  0.45340304  0.36926930  1
  C  C81  1  0.11451602  0.45340304  0.86926930  1
  C  C82  1  0.34979313  0.89017014  0.85661536  1
  C  C83  1  0.55917284  0.66054980  0.86156575  1
  C  C84  1  0.04157808  0.84229368  0.41755645  1
  C  C85  1  0.82599362  0.97540247  0.40864433  1
  C  C86  1  0.17413604  0.18952067  0.41710727  1
  C  C87  1  0.01538463  0.18952067  0.91710727  1
  C  C88  1  0.14940885  0.97540247  0.90864433  1
  C  C89  1  0.80071561  0.84229368  0.91755645  1
  C  C90  1  0.01594452  0.20983874  0.59231188  1
  C  C91  1  0.21194235  0.01806034  0.59008067  1
  C  C92  1  0.80629593  0.81765006  0.58226418  1
  C  C93  1  0.01135413  0.81765006  0.08226418  1
  C  C94  1  0.80611799  0.01806034  0.09008067  1
  C  C95  1  0.19389422  0.20983874  0.09231188  1
  C  C96  1  0.67323326  0.17161361  0.74490070  1
  C  C97  1  0.46975469  0.30104668  0.74900547  1
  C  C98  1  0.82719987  0.53376185  0.74740010  1
  C  C99  1  0.70656298  0.53376185  0.24740010  1
  C  C100  1  0.83129299  0.30104668  0.24900547  1
  C  C101  1  0.49838135  0.17161361  0.24490070  1
  C  C102  1  0.68454892  0.55031503  0.92083427  1
  C  C103  1  0.86833107  0.33666229  0.92308031  1
  C  C104  1  0.49485645  0.14585534  0.91869026  1
  C  C105  1  0.65099990  0.14585534  0.41869026  1
  C  C106  1  0.46833222  0.33666229  0.42308031  1
  C  C107  1  0.86576711  0.55031503  0.42083427  1
  C  C108  1  0.35944749  0.50105904  0.08121116  1
  C  C109  1  0.15701759  0.63863848  0.08257326  1
  C  C110  1  0.50694783  0.86476812  0.08085489  1
  C  C111  1  0.35781929  0.86476812  0.58085489  1
  C  C112  1  0.48161989  0.63863848  0.58257326  1
  C  C113  1  0.14161055  0.50105904  0.58121116  1
  C  C114  1  0.32753014  0.84340852  0.25219885  1
  C  C115  1  0.53525312  0.65812081  0.25815127  1
  C  C116  1  0.12498076  0.46266054  0.25407291  1
  C  C117  1  0.33767878  0.46266054  0.75407291  1
  C  C118  1  0.12286670  0.65812081  0.75815127  1
  C  C119  1  0.51587738  0.84340852  0.75219885  1
