# generated using pymatgen
data_CuNi2C17
_symmetry_space_group_name_H-M   'P 1'
_cell_length_a   9.26846629
_cell_length_b   9.26846596
_cell_length_c   22.97330507
_cell_angle_alpha   88.34841672
_cell_angle_beta   91.65158324
_cell_angle_gamma   119.62750281
_symmetry_Int_Tables_number   1
_chemical_formula_structural   CuNi2C17
_chemical_formula_sum   'Cu6 Ni12 C102'
_cell_volume   1714.53448849
_cell_formula_units_Z   6
loop_
 _symmetry_equiv_pos_site_id
 _symmetry_equiv_pos_as_xyz
  1  'x, y, z'
loop_
 _atom_site_type_symbol
 _atom_site_label
 _atom_site_symmetry_multiplicity
 _atom_site_fract_x
 _atom_site_fract_y
 _atom_site_fract_z
 _atom_site_occupancy
  C  C0  1  0.63390196  0.99469205  0.24131909  1
  C  C1  1  0.99279962  0.64196075  0.24487079  1
  C  C2  1  0.00530795  0.36609804  0.74131909  1
  C  C3  1  0.35803925  0.00720038  0.74487079  1
  C  C4  1  0.30056896  0.32802505  0.57465209  1
  C  C5  1  0.65946662  0.97529375  0.57820379  1
  C  C6  1  0.67197495  0.69943104  0.07465209  1
  C  C7  1  0.02470625  0.34053338  0.07820379  1
  C  C8  1  0.96723496  0.66135905  0.90798609  1
  C  C9  1  0.32613262  0.30862775  0.91153779  1
  C  C10  1  0.33864095  0.03276504  0.40798609  1
  C  C11  1  0.69137225  0.67386738  0.41153779  1
  C  C12  1  0.00661945  0.03213240  0.49794750  1
  C  C13  1  0.96786760  0.99338055  0.99794750  1
  C  C14  1  0.67328645  0.36546540  0.83128050  1
  C  C15  1  0.63453460  0.32671355  0.33128050  1
  C  C16  1  0.33995245  0.69879940  0.16461450  1
  C  C17  1  0.30120060  0.66004755  0.66461450  1
  C  C18  1  0.00468981  0.01051083  0.35257695  1
  C  C19  1  0.98948917  0.99531019  0.85257695  1
  C  C20  1  0.67135681  0.34384383  0.68590995  1
  C  C21  1  0.65615617  0.32864319  0.18590995  1
  C  C22  1  0.33802281  0.67717783  0.01924395  1
  C  C23  1  0.32282217  0.66197719  0.51924395  1
  Ni  Ni24  1  0.29326688  0.98959476  0.25558932  1
  Ni  Ni25  1  0.69954803  0.70229157  0.25250335  1
  Ni  Ni26  1  0.29770843  0.30045197  0.75250335  1
  Ni  Ni27  1  0.01040524  0.70673312  0.75558932  1
  Ni  Ni28  1  0.95993388  0.32292776  0.58892232  1
  Ni  Ni29  1  0.36621503  0.03562457  0.58583635  1
  Ni  Ni30  1  0.96437543  0.63378497  0.08583635  1
  Ni  Ni31  1  0.67707224  0.04006612  0.08892232  1
  Ni  Ni32  1  0.62659988  0.65626176  0.92225632  1
  Ni  Ni33  1  0.03288103  0.36895857  0.91917035  1
  Ni  Ni34  1  0.63104143  0.96711897  0.41917035  1
  Ni  Ni35  1  0.34373824  0.37340012  0.42225632  1
  Cu  Cu36  1  0.02437359  0.00894375  0.64863127  1
  Cu  Cu37  1  0.99105625  0.97562641  0.14863127  1
  Cu  Cu38  1  0.69104059  0.34227675  0.98196427  1
  Cu  Cu39  1  0.65772325  0.30895941  0.48196427  1
  Cu  Cu40  1  0.35770659  0.67561075  0.31529827  1
  Cu  Cu41  1  0.32438925  0.64229341  0.81529827  1
  C  C42  1  0.01489498  0.30779728  0.24655671  1
  C  C43  1  0.69220272  0.98510502  0.74655671  1
  C  C44  1  0.68156198  0.64113028  0.57988971  1
  C  C45  1  0.35886972  0.31843802  0.07988971  1
  C  C46  1  0.34822798  0.97446428  0.91322371  1
  C  C47  1  0.02553572  0.65177202  0.41322371  1
  C  C48  1  0.21607365  0.00931748  0.31436673  1
  C  C49  1  0.80595188  0.79347654  0.31010398  1
  C  C50  1  0.99591934  0.20376190  0.29850896  1
  C  C51  1  0.20652346  0.19404812  0.81010398  1
  C  C52  1  0.99068252  0.78392635  0.81436673  1
  C  C53  1  0.79623810  0.00408066  0.79850896  1
  C  C54  1  0.76815986  0.96719930  0.69329228  1
  C  C55  1  0.17612761  0.21565126  0.69299776  1
  C  C56  1  0.03700762  0.83350133  0.69764322  1
  C  C57  1  0.78434874  0.82387239  0.19299776  1
  C  C58  1  0.03280070  0.23184014  0.19329228  1
  C  C59  1  0.16649867  0.96299238  0.19764322  1
  C  C60  1  0.88274065  0.34265048  0.64769973  1
  C  C61  1  0.47261888  0.12680954  0.64343698  1
  C  C62  1  0.66258634  0.53709490  0.63184196  1
  C  C63  1  0.87319046  0.52738112  0.14343698  1
  C  C64  1  0.65734952  0.11725935  0.14769973  1
  C  C65  1  0.46290510  0.33741366  0.13184196  1
  C  C66  1  0.43482686  0.30053230  0.02662528  1
  C  C67  1  0.84279461  0.54898426  0.02633076  1
  C  C68  1  0.70367462  0.16683433  0.03097622  1
  C  C69  1  0.45101574  0.15720539  0.52633076  1
  C  C70  1  0.69946770  0.56517314  0.52662528  1
  C  C71  1  0.83316567  0.29632538  0.53097622  1
  C  C72  1  0.54940665  0.67598448  0.98103373  1
  C  C73  1  0.13928488  0.46014354  0.97677098  1
  C  C74  1  0.32925234  0.87042890  0.96517596  1
  C  C75  1  0.53985646  0.86071512  0.47677098  1
  C  C76  1  0.32401552  0.45059335  0.48103373  1
  C  C77  1  0.12957110  0.67074766  0.46517596  1
  C  C78  1  0.10149286  0.63386630  0.35995928  1
  C  C79  1  0.50946061  0.88231826  0.35966476  1
  C  C80  1  0.37034062  0.50016833  0.36431022  1
  C  C81  1  0.11768174  0.49053939  0.85966476  1
  C  C82  1  0.36613370  0.89850714  0.85995928  1
  C  C83  1  0.49983167  0.62965938  0.86431022  1
  C  C84  1  0.00931215  0.80435532  0.41126876  1
  C  C85  1  0.81024616  0.97699448  0.41557851  1
  C  C86  1  0.19690366  0.18262344  0.41580212  1
  C  C87  1  0.02300552  0.18975384  0.91557851  1
  C  C88  1  0.19564468  0.99068785  0.91126876  1
  C  C89  1  0.81737656  0.80309634  0.91580212  1
  C  C90  1  0.95505229  0.13661949  0.58935956  1
  C  C91  1  0.18194429  0.02896054  0.58533473  1
  C  C92  1  0.82803254  0.81044087  0.58574841  1
  C  C93  1  0.97103946  0.81805571  0.08533473  1
  C  C94  1  0.86338051  0.04494771  0.08935956  1
  C  C95  1  0.18955913  0.17196746  0.08574841  1
  C  C96  1  0.67597915  0.13768832  0.74460176  1
  C  C97  1  0.47691316  0.31032748  0.74891151  1
  C  C98  1  0.86357066  0.51595644  0.74913512  1
  C  C99  1  0.68967252  0.52308684  0.24891151  1
  C  C100  1  0.86231168  0.32402085  0.24460176  1
  C  C101  1  0.48404356  0.13642934  0.24913512  1
  C  C102  1  0.62171929  0.46995249  0.92269256  1
  C  C103  1  0.84861129  0.36229354  0.91866773  1
  C  C104  1  0.49469954  0.14377387  0.91908141  1
  C  C105  1  0.63770646  0.15138871  0.41866773  1
  C  C106  1  0.53004751  0.37828071  0.42269256  1
  C  C107  1  0.85622613  0.50530046  0.41908141  1
  C  C108  1  0.34264515  0.47102232  0.07793576  1
  C  C109  1  0.14357916  0.64366148  0.08224551  1
  C  C110  1  0.53023666  0.84929044  0.08246912  1
  C  C111  1  0.35633852  0.85642084  0.58224551  1
  C  C112  1  0.52897768  0.65735485  0.57793576  1
  C  C113  1  0.15070956  0.46976334  0.58246912  1
  C  C114  1  0.28838529  0.80328649  0.25602656  1
  C  C115  1  0.51527729  0.69562754  0.25200173  1
  C  C116  1  0.16136554  0.47710787  0.25241541  1
  C  C117  1  0.30437246  0.48472271  0.75200173  1
  C  C118  1  0.19671351  0.71161471  0.75602656  1
  C  C119  1  0.52289213  0.83863446  0.75241541  1
