# generated using pymatgen
data_Cu3NiC9
_symmetry_space_group_name_H-M   'P 1'
_cell_length_a   6.43400104
_cell_length_b   6.09244873
_cell_length_c   6.09231572
_cell_angle_alpha   58.97376693
_cell_angle_beta   59.67694437
_cell_angle_gamma   59.67154452
_symmetry_Int_Tables_number   1
_chemical_formula_structural   Cu3NiC9
_chemical_formula_sum   'Cu3 Ni1 C9'
_cell_volume   166.69994630
_cell_formula_units_Z   1
loop_
 _symmetry_equiv_pos_site_id
 _symmetry_equiv_pos_as_xyz
  1  'x, y, z'
loop_
 _atom_site_type_symbol
 _atom_site_label
 _atom_site_symmetry_multiplicity
 _atom_site_fract_x
 _atom_site_fract_y
 _atom_site_fract_z
 _atom_site_occupancy
  Ni  Ni0  1  0.50000000  0.00000000  0.00000000  1
  Cu  Cu1  1  0.00000000  0.50000000  0.50000000  1
  Cu  Cu2  1  0.50000000  0.00000000  0.50000000  1
  Cu  Cu3  1  0.50000000  0.50000000  0.00000000  1
  C  C4  1  0.50000000  0.50000000  0.50000000  1
  C  C5  1  0.30406200  0.24866800  0.24865000  1
  C  C6  1  0.29781200  0.23144200  0.71915100  1
  C  C7  1  0.29781400  0.71917300  0.23142300  1
  C  C8  1  0.69401500  0.25517300  0.25520500  1
  C  C9  1  0.30598500  0.74482700  0.74479500  1
  C  C10  1  0.70218600  0.28082700  0.76857700  1
  C  C11  1  0.70218800  0.76855800  0.28084900  1
  C  C12  1  0.69593800  0.75133200  0.75135000  1
