# generated using pymatgen
data_Cu(NiC7)2
_symmetry_space_group_name_H-M   'P 1'
_cell_length_a   8.59911933
_cell_length_b   8.59090690
_cell_length_c   22.27431644
_cell_angle_alpha   90.51075459
_cell_angle_beta   90.02153280
_cell_angle_gamma   120.00359653
_symmetry_Int_Tables_number   1
_chemical_formula_structural   Cu(NiC7)2
_chemical_formula_sum   'Cu6 Ni12 C84'
_cell_volume   1424.91265635
_cell_formula_units_Z   6
loop_
 _symmetry_equiv_pos_site_id
 _symmetry_equiv_pos_as_xyz
  1  'x, y, z'
loop_
 _atom_site_type_symbol
 _atom_site_label
 _atom_site_symmetry_multiplicity
 _atom_site_fract_x
 _atom_site_fract_y
 _atom_site_fract_z
 _atom_site_occupancy
  C  C0  1  0.00338698  0.00338277  0.85290345  1
  C  C1  1  0.66971506  0.33513041  0.19584300  1
  C  C2  1  0.65891275  0.33897927  0.98028647  1
  C  C3  1  0.33294691  0.67009602  0.02623731  1
  C  C4  1  0.33713734  0.66833952  0.52374447  1
  C  C5  1  0.34584179  0.67056944  0.80431918  1
  C  C6  1  0.99832542  0.00138066  0.35527947  1
  C  C7  1  0.98729115  0.00448394  0.64294983  1
  C  C8  1  0.02007093  0.00735108  0.14976627  1
  C  C9  1  0.66527875  0.33407511  0.68541420  1
  C  C10  1  0.69224494  0.34208503  0.47797826  1
  C  C11  1  0.31883436  0.67375491  0.31415895  1
  Ni  Ni12  1  0.27446096  0.98919856  0.25427550  1
  Ni  Ni13  1  0.01694910  0.28628967  0.25406193  1
  Ni  Ni14  1  0.29139759  0.27753898  0.74240744  1
  Ni  Ni15  1  0.71932659  0.01703770  0.74384042  1
  Ni  Ni16  1  0.94335819  0.32531647  0.58490666  1
  Ni  Ni17  1  0.68056685  0.61721061  0.58450639  1
  Ni  Ni18  1  0.95291030  0.63694945  0.08866094  1
  Ni  Ni19  1  0.36632467  0.32165923  0.08808723  1
  Ni  Ni20  1  0.62237046  0.66900975  0.91620532  1
  Ni  Ni21  1  0.33418405  0.95374415  0.91589895  1
  Ni  Ni22  1  0.62461871  0.96009309  0.41450069  1
  Ni  Ni23  1  0.04080420  0.67115549  0.41513957  1
  Cu  Cu24  1  0.70887948  0.72562418  0.25301286  1
  Cu  Cu25  1  0.98966070  0.70604432  0.74390893  1
  Cu  Cu26  1  0.37715684  0.05697923  0.58369598  1
  Cu  Cu27  1  0.68458653  0.04750043  0.08723483  1
  Cu  Cu28  1  0.04443396  0.38094782  0.91584311  1
  Cu  Cu29  1  0.33691108  0.37308533  0.41468081  1
  C  C30  1  0.18989302  0.02619279  0.30902964  1
  C  C31  1  0.82614893  0.80112496  0.30650393  1
  C  C32  1  0.97450496  0.16432650  0.30875062  1
  C  C33  1  0.21290368  0.16413590  0.79892791  1
  C  C34  1  0.95827734  0.78376324  0.79890768  1
  C  C35  1  0.83363281  0.04970180  0.80027612  1
  C  C36  1  0.79854233  0.96794665  0.68950758  1
  C  C37  1  0.16626566  0.18788013  0.68757100  1
  C  C38  1  0.02699869  0.82286656  0.69173168  1
  C  C39  1  0.78657606  0.83436005  0.19852513  1
  C  C40  1  0.04810907  0.20174043  0.19647285  1
  C  C41  1  0.15743631  0.94739244  0.19682790  1
  C  C42  1  0.86006832  0.36319818  0.63984687  1
  C  C43  1  0.49193244  0.13057130  0.63792782  1
  C  C44  1  0.63870943  0.49806756  0.64001832  1
  C  C45  1  0.86589643  0.51415577  0.14240031  1
  C  C46  1  0.64918850  0.12997543  0.13967736  1
  C  C47  1  0.48654149  0.35212586  0.14230838  1
  C  C48  1  0.44797531  0.28639970  0.03127986  1
  C  C49  1  0.83890618  0.55120338  0.03157686  1
  C  C50  1  0.71229712  0.15413316  0.03268117  1
  C  C51  1  0.45537592  0.16795605  0.52994694  1
  C  C52  1  0.71363010  0.53216808  0.52730209  1
  C  C53  1  0.82399346  0.28217724  0.52760771  1
  C  C54  1  0.53592418  0.69492576  0.97228681  1
  C  C55  1  0.15379178  0.46154163  0.97021274  1
  C  C56  1  0.30341631  0.83986709  0.97191963  1
  C  C57  1  0.54167563  0.84008593  0.46949239  1
  C  C58  1  0.30099732  0.45391741  0.46837654  1
  C  C59  1  0.16067993  0.70468402  0.47013301  1
  C  C60  1  0.11896688  0.62361291  0.35921155  1
  C  C61  1  0.49945759  0.87250260  0.35840425  1
  C  C62  1  0.37247347  0.48851362  0.36147777  1
  C  C63  1  0.12473843  0.48728636  0.86185546  1
  C  C64  1  0.35520530  0.86257413  0.85939812  1
  C  C65  1  0.50542550  0.63534459  0.85983009  1
  C  C66  1  0.01943586  0.83620771  0.40411868  1
  C  C67  1  0.81172704  0.98108793  0.40385848  1
  C  C68  1  0.17215894  0.19396270  0.40770791  1
  C  C69  1  0.02888084  0.20317420  0.90999877  1
  C  C70  1  0.17090828  0.97765964  0.90829088  1
  C  C71  1  0.80507364  0.83520520  0.90698710  1
  C  C72  1  0.96276289  0.15727684  0.59183705  1
  C  C73  1  0.19666091  0.03354989  0.59192360  1
  C  C74  1  0.85068931  0.80398281  0.59418898  1
  C  C75  1  0.96214085  0.81875702  0.09823945  1
  C  C76  1  0.84276992  0.02857571  0.09636345  1
  C  C77  1  0.18070577  0.15360230  0.09491696  1
  C  C78  1  0.70086724  0.18348367  0.73487655  1
  C  C79  1  0.47895967  0.30035077  0.73426958  1
  C  C80  1  0.82623265  0.52768829  0.73815995  1
  C  C81  1  0.69120764  0.54603043  0.24647200  1
  C  C82  1  0.85200634  0.30711053  0.24469568  1
  C  C83  1  0.45964052  0.15407510  0.24564592  1
  C  C84  1  0.64311282  0.50299534  0.92248089  1
  C  C85  1  0.86617810  0.35931730  0.92388709  1
  C  C86  1  0.50477974  0.13556628  0.92410832  1
  C  C87  1  0.64178377  0.14785959  0.42576404  1
  C  C88  1  0.49524433  0.35169058  0.42452981  1
  C  C89  1  0.85264845  0.50147608  0.42399888  1
  C  C90  1  0.34549184  0.48591436  0.07851353  1
  C  C91  1  0.14011809  0.66095553  0.07972021  1
  C  C92  1  0.52354519  0.86810483  0.08055165  1
  C  C93  1  0.36029010  0.87706429  0.57666185  1
  C  C94  1  0.51587532  0.63934895  0.57473197  1
  C  C95  1  0.12781868  0.49188024  0.57521718  1
  C  C96  1  0.29332249  0.82023502  0.26115372  1
  C  C97  1  0.52947737  0.70469031  0.26129438  1
  C  C98  1  0.18745582  0.47288140  0.26372987  1
  C  C99  1  0.30613652  0.46184658  0.75058470  1
  C  C100  1  0.14636380  0.68255450  0.75175001  1
  C  C101  1  0.53208679  0.85040621  0.75081836  1
