# generated using pymatgen
data_Cu4NiC14
_symmetry_space_group_name_H-M   'P 1'
_cell_length_a   3.66804400
_cell_length_b   8.17231523
_cell_length_c   9.89468409
_cell_angle_alpha   105.97912563
_cell_angle_beta   90.00000000
_cell_angle_gamma   102.96871699
_symmetry_Int_Tables_number   1
_chemical_formula_structural   Cu4NiC14
_chemical_formula_sum   'Cu4 Ni1 C14'
_cell_volume   277.26866786
_cell_formula_units_Z   1
loop_
 _symmetry_equiv_pos_site_id
 _symmetry_equiv_pos_as_xyz
  1  'x, y, z'
loop_
 _atom_site_type_symbol
 _atom_site_label
 _atom_site_symmetry_multiplicity
 _atom_site_fract_x
 _atom_site_fract_y
 _atom_site_fract_z
 _atom_site_occupancy
  Ni  Ni0  1  0.50000000  0.00000000  0.50000000  1
  Cu  Cu1  1  0.60484600  0.20969100  0.86089300  1
  Cu  Cu2  1  0.39515400  0.79030900  0.13910700  1
  Cu  Cu3  1  0.84380500  0.68761000  0.36303400  1
  Cu  Cu4  1  0.15619500  0.31239000  0.63696500  1
  C  C5  1  0.87663300  0.75326500  0.74914000  1
  C  C6  1  0.12336700  0.24673500  0.25086000  1
  C  C7  1  0.61814100  0.23628300  0.65782800  1
  C  C8  1  0.38185900  0.76371700  0.34217300  1
  C  C9  1  0.86651200  0.73302500  0.17478500  1
  C  C10  1  0.13348800  0.26697500  0.82521500  1
  C  C11  1  0.64852700  0.29705500  0.03500800  1
  C  C12  1  0.35147300  0.70294500  0.96499200  1
  C  C13  1  0.07324400  0.14648800  0.45473500  1
  C  C14  1  0.92675600  0.85351100  0.54526600  1
  C  C15  1  0.49384000  0.98768000  0.82362200  1
  C  C16  1  0.73518300  0.47036500  0.35779000  1
  C  C17  1  0.26481700  0.52963400  0.64221000  1
  C  C18  1  0.50616000  0.01232000  0.17637700  1
