# generated using pymatgen
data_Cu2NiC7
_symmetry_space_group_name_H-M   'P 1'
_cell_length_a   3.33776200
_cell_length_b   3.33773326
_cell_length_c   38.57656684
_cell_angle_alpha   90.02146311
_cell_angle_beta   90.00000743
_cell_angle_gamma   120.00024787
_symmetry_Int_Tables_number   1
_chemical_formula_structural   Cu2NiC7
_chemical_formula_sum   'Cu2 Ni1 C7'
_cell_volume   372.18603438
_cell_formula_units_Z   1
loop_
 _symmetry_equiv_pos_site_id
 _symmetry_equiv_pos_as_xyz
  1  'x, y, z'
loop_
 _atom_site_type_symbol
 _atom_site_label
 _atom_site_symmetry_multiplicity
 _atom_site_fract_x
 _atom_site_fract_y
 _atom_site_fract_z
 _atom_site_occupancy
  C  C0  1  0.00006300  0.00012600  0.23369600  1
  C  C1  1  0.66662900  0.33325600  0.06007500  1
  C  C2  1  0.66684900  0.33369700  0.15887400  1
  Ni  Ni3  1  0.33336500  0.66672600  0.10914900  1
  Cu  Cu4  1  0.33319500  0.66639100  0.57804600  1
  Cu  Cu5  1  0.66672400  0.33345000  0.35767200  1
  C  C6  1  0.66628500  0.33256800  0.53451200  1
  C  C7  1  0.66674400  0.33348700  0.62152800  1
  C  C8  1  0.33353900  0.66707800  0.39704200  1
  C  C9  1  0.33320900  0.66641900  0.31807900  1
