# generated using pymatgen
data_Cu3NiC14
_symmetry_space_group_name_H-M   'P 1'
_cell_length_a   3.99134723
_cell_length_b   3.99134661
_cell_length_c   15.36344276
_cell_angle_alpha   97.46367349
_cell_angle_beta   97.46366882
_cell_angle_gamma   89.99999908
_symmetry_Int_Tables_number   1
_chemical_formula_structural   Cu3NiC14
_chemical_formula_sum   'Cu3 Ni1 C14'
_cell_volume   240.58746103
_cell_formula_units_Z   1
loop_
 _symmetry_equiv_pos_site_id
 _symmetry_equiv_pos_as_xyz
  1  'x, y, z'
loop_
 _atom_site_type_symbol
 _atom_site_label
 _atom_site_symmetry_multiplicity
 _atom_site_fract_x
 _atom_site_fract_y
 _atom_site_fract_z
 _atom_site_occupancy
  C  C0  1  0.59337747  0.59337747  0.18675494  1
  C  C1  1  0.40662253  0.40662253  0.81324506  1
  C  C2  1  0.29330686  0.29330686  0.58661272  1
  C  C3  1  0.70669314  0.70669314  0.41338728  1
  Ni  Ni4  1  0.50000000  0.50000000  -0.00000000  1
  Cu  Cu5  1  0.00000000  0.00000000  -0.00000000  1
  Cu  Cu6  1  0.85409740  0.85409740  0.70819481  1
  Cu  Cu7  1  0.14590260  0.14590260  0.29180519  1
  C  C8  1  0.14485372  0.64485372  0.28970744  1
  C  C9  1  0.78815160  0.78815160  0.57630420  1
  C  C10  1  0.21184840  0.21184840  0.42369580  1
  C  C11  1  0.50000000  0.00000000  -0.00000000  1
  C  C12  1  0.00000000  0.50000000  -0.00000000  1
  C  C13  1  0.07297837  0.07297837  0.14595573  1
  C  C14  1  0.92702163  0.92702163  0.85404427  1
  C  C15  1  0.64485372  0.14485372  0.28970744  1
  C  C16  1  0.35514628  0.85514628  0.71029256  1
  C  C17  1  0.85514628  0.35514628  0.71029256  1
