# generated using pymatgen
data_Cu2(NiC11)3
_symmetry_space_group_name_H-M   'P 1'
_cell_length_a   9.29488431
_cell_length_b   9.52025627
_cell_length_c   23.22871755
_cell_angle_alpha   91.10810505
_cell_angle_beta   87.60905569
_cell_angle_gamma   119.84134093
_symmetry_Int_Tables_number   1
_chemical_formula_structural   Cu2(NiC11)3
_chemical_formula_sum   'Cu6 Ni9 C99'
_cell_volume   1781.40134616
_cell_formula_units_Z   3
loop_
 _symmetry_equiv_pos_site_id
 _symmetry_equiv_pos_as_xyz
  1  'x, y, z'
loop_
 _atom_site_type_symbol
 _atom_site_label
 _atom_site_symmetry_multiplicity
 _atom_site_fract_x
 _atom_site_fract_y
 _atom_site_fract_z
 _atom_site_occupancy
  C  C0  1  0.96670606  0.63624103  0.25264413  1
  C  C1  1  0.99584332  0.36557897  0.74984276  1
  C  C2  1  0.65524172  0.97593822  0.58816823  1
  C  C3  1  0.66125407  0.69186321  0.07660302  1
  C  C4  1  0.33722762  0.29837118  0.91103608  1
  C  C5  1  0.32280462  0.02298424  0.41434998  1
  C  C6  1  0.01177519  0.99275602  0.50866523  1
  C  C7  1  0.99630873  0.99516141  0.00531239  1
  C  C8  1  0.65589004  0.31353716  0.83200746  1
  C  C9  1  0.65245461  0.33361735  0.33717166  1
  C  C10  1  0.32170783  0.67253055  0.16613931  1
  C  C11  1  0.30470115  0.66252491  0.66597031  1
  C  C12  1  0.98728134  0.99343133  0.35363250  1
  C  C13  1  0.99304969  0.98038894  0.84864564  1
  C  C14  1  0.65859421  0.33749465  0.68512413  1
  C  C15  1  0.64884871  0.31833705  0.18552052  1
  C  C16  1  0.32790274  0.68554580  0.01459397  1
  C  C17  1  0.31890032  0.65609026  0.51763413  1
  Ni  Ni18  1  0.28450686  0.96982208  0.25678783  1
  Ni  Ni19  1  0.66656421  0.69172985  0.25655874  1
  Ni  Ni20  1  0.29407108  0.31056907  0.75791588  1
  Ni  Ni21  1  0.72571030  0.99707804  0.74262726  1
  Ni  Ni22  1  0.96153634  0.32417363  0.58902184  1
  Ni  Ni23  1  0.36806597  0.06537708  0.58043888  1
  Ni  Ni24  1  0.96169370  0.64236255  0.08998638  1
  Ni  Ni25  1  0.63690048  0.65498877  0.92207749  1
  Ni  Ni26  1  0.01332183  0.63445414  0.41623153  1
  Cu  Cu27  1  0.04050480  0.08575526  0.64683350  1
  Cu  Cu28  1  0.96644764  0.90241367  0.16332567  1
  Cu  Cu29  1  0.70563319  0.39953722  0.98017756  1
  Cu  Cu30  1  0.69328578  0.33884178  0.49401662  1
  Cu  Cu31  1  0.29203630  0.65062992  0.30430396  1
  Cu  Cu32  1  0.43668727  0.66280848  0.80006917  1
  C  C33  1  0.01688014  0.31338184  0.25145486  1
  C  C34  1  0.02270419  0.70198371  0.74607975  1
  C  C35  1  0.69292981  0.63964447  0.57548525  1
  C  C36  1  0.68727202  0.03083218  0.08154830  1
  C  C37  1  0.35374043  0.32080673  0.07743013  1
  C  C38  1  0.01867397  0.37082058  0.91547899  1
  C  C39  1  0.35563491  0.98400497  0.91059141  1
  C  C40  1  0.61818517  0.98636594  0.41988456  1
  C  C41  1  0.34929642  0.37146970  0.41214505  1
  C  C42  1  0.22198920  0.99990381  0.31794832  1
  C  C43  1  0.80892259  0.79036427  0.30089633  1
  C  C44  1  0.00504520  0.23210054  0.30544182  1
  C  C45  1  0.21206359  0.22356538  0.81815494  1
  C  C46  1  0.00766777  0.77299039  0.80257091  1
  C  C47  1  0.81811507  0.02082022  0.80140252  1
  C  C48  1  0.83272870  0.97979980  0.68409439  1
  C  C49  1  0.16911977  0.22737328  0.70109314  1
  C  C50  1  0.02289790  0.79662665  0.69702625  1
  C  C51  1  0.76000561  0.80168777  0.19076842  1
  C  C52  1  0.02997905  0.23154343  0.19931395  1
  C  C53  1  0.13595574  0.93368832  0.20323305  1
  C  C54  1  0.89978496  0.34312755  0.65284710  1
  C  C55  1  0.48556599  0.11854735  0.63538171  1
  C  C56  1  0.66832108  0.55287232  0.62969687  1
  C  C57  1  0.87380616  0.55834311  0.14994648  1
  C  C58  1  0.67247527  0.11035562  0.13491672  1
  C  C59  1  0.46255181  0.33914884  0.12550073  1
  C  C60  1  0.44212556  0.31325099  0.02052807  1
  C  C61  1  0.83762788  0.55986433  0.03100718  1
  C  C62  1  0.68977003  0.11806146  0.02928523  1
  C  C63  1  0.47792614  0.19283314  0.52354289  1
  C  C64  1  0.69498086  0.53452549  0.52418894  1
  C  C65  1  0.82447467  0.29697724  0.53792722  1
  C  C66  1  0.53354991  0.64535174  0.98011070  1
  C  C67  1  0.11932235  0.46495486  0.96479195  1
  C  C68  1  0.34472201  0.89971682  0.96553471  1
  C  C69  1  0.55214863  0.89969746  0.47509948  1
  C  C70  1  0.34397373  0.45425080  0.46577940  1
  C  C71  1  0.14557360  0.68662208  0.46579410  1
  C  C72  1  0.11428844  0.61335721  0.35265940  1
  C  C73  1  0.51680608  0.89348358  0.37042517  1
  C  C74  1  0.34692335  0.46000099  0.36003861  1
  C  C75  1  0.08606101  0.45281279  0.86043392  1
  C  C76  1  0.35313556  0.88750997  0.86006414  1
  C  C77  1  0.51391026  0.62478572  0.86230784  1
  C  C78  1  0.98405578  0.78854314  0.40958814  1
  C  C79  1  0.79389498  0.02603976  0.41406212  1
  C  C80  1  0.20068006  0.20097319  0.41625565  1
  C  C81  1  0.99716846  0.20635065  0.91837150  1
  C  C82  1  0.20862807  0.01163082  0.91481767  1
  C  C83  1  0.81627152  0.81127516  0.92106254  1
  C  C84  1  0.95867096  0.14389603  0.58683961  1
  C  C85  1  0.18443145  0.05946236  0.59674799  1
  C  C86  1  0.84836710  0.79495936  0.57186401  1
  C  C87  1  0.96773487  0.82635343  0.09219177  1
  C  C88  1  0.83850877  0.01318725  0.08233234  1
  C  C89  1  0.19278384  0.17163830  0.08190469  1
  C  C90  1  0.67870351  0.13829084  0.73940493  1
  C  C91  1  0.48379033  0.35455535  0.75349770  1
  C  C92  1  0.87472150  0.53168760  0.74802911  1
  C  C93  1  0.64538127  0.51306702  0.24795704  1
  C  C94  1  0.88057099  0.35486909  0.25066117  1
  C  C95  1  0.46714301  0.11143274  0.24047137  1
  C  C96  1  0.64456380  0.47966181  0.92042674  1
  C  C97  1  0.84585148  0.36319942  0.92366111  1
  C  C98  1  0.50792962  0.14822814  0.90950528  1
  C  C99  1  0.61454647  0.14529866  0.42256241  1
  C  C100  1  0.50056684  0.35500640  0.40967156  1
  C  C101  1  0.83603229  0.45770684  0.43230475  1
  C  C102  1  0.33780281  0.47020472  0.07862745  1
  C  C103  1  0.14751785  0.67397924  0.08482754  1
  C  C104  1  0.53866906  0.85840638  0.08317481  1
  C  C105  1  0.33658367  0.88142626  0.56882785  1
  C  C106  1  0.55119572  0.67137847  0.57109230  1
  C  C107  1  0.15167769  0.46721776  0.58265475  1
  C  C108  1  0.26819940  0.78581856  0.25373290  1
  C  C109  1  0.49024578  0.69672606  0.26739274  1
  C  C110  1  0.18252311  0.48159022  0.25027266  1
  C  C111  1  0.30029266  0.49597663  0.75911537  1
  C  C112  1  0.17580807  0.68796737  0.74517190  1
  C  C113  1  0.54539686  0.80883570  0.74763387  1
