# generated using pymatgen
data_Cu12Ni2C3
_symmetry_space_group_name_H-M   'P 1'
_cell_length_a   8.85257187
_cell_length_b   8.85671670
_cell_length_c   22.78778237
_cell_angle_alpha   89.97871075
_cell_angle_beta   90.00231803
_cell_angle_gamma   119.89784334
_symmetry_Int_Tables_number   1
_chemical_formula_structural   Cu12Ni2C3
_chemical_formula_sum   'Cu72 Ni12 C18'
_cell_volume   1548.89156593
_cell_formula_units_Z   6
loop_
 _symmetry_equiv_pos_site_id
 _symmetry_equiv_pos_as_xyz
  1  'x, y, z'
loop_
 _atom_site_type_symbol
 _atom_site_label
 _atom_site_symmetry_multiplicity
 _atom_site_fract_x
 _atom_site_fract_y
 _atom_site_fract_z
 _atom_site_occupancy
  C  C0  1  0.99709996  0.99987889  0.35592010  1
  C  C1  1  0.99503068  0.00199863  0.85636553  1
  C  C2  1  0.99185270  0.99667797  0.64579611  1
  C  C3  1  0.00146645  0.00794274  0.14453354  1
  C  C4  1  0.66602563  0.32828009  0.68832076  1
  C  C5  1  0.67259401  0.33479742  0.18919783  1
  C  C6  1  0.67226442  0.33799271  0.47776100  1
  C  C7  1  0.33219890  0.66595379  0.01984977  1
  C  C8  1  0.32970928  0.67028014  0.52300124  1
  C  C9  1  0.66683032  0.33291151  0.97292089  1
  C  C10  1  0.32207698  0.65997021  0.31226449  1
  C  C11  1  0.33838603  0.67159971  0.81236179  1
  C  C12  1  0.99783623  0.28382727  0.25021870  1
  C  C13  1  0.71360821  0.00161614  0.75009697  1
  C  C14  1  0.61989943  0.66878245  0.91784124  1
  C  C15  1  0.05070852  0.38168158  0.91738401  1
  C  C16  1  0.32956782  0.95107420  0.91760703  1
  C  C17  1  0.04406737  0.66823236  0.41857196  1
  Ni  Ni18  1  0.28908345  0.00021328  0.25032977  1
  Ni  Ni19  1  0.70935439  0.71147315  0.25043655  1
  Ni  Ni20  1  0.28914589  0.29024945  0.75029657  1
  Ni  Ni21  1  0.00041812  0.71052102  0.75039573  1
  Ni  Ni22  1  0.95595080  0.33297937  0.58334203  1
  Ni  Ni23  1  0.37684922  0.04615506  0.58322388  1
  Ni  Ni24  1  0.66610941  0.62136626  0.58317857  1
  Ni  Ni25  1  0.95305096  0.62123571  0.08323335  1
  Ni  Ni26  1  0.66549488  0.04633240  0.08323254  1
  Ni  Ni27  1  0.38136128  0.33331816  0.08343657  1
  Ni  Ni28  1  0.61884301  0.95271930  0.41703188  1
  Ni  Ni29  1  0.33329545  0.37935127  0.41742606  1
  Cu  Cu30  1  0.20935344  0.02645618  0.30256085  1
  Cu  Cu31  1  0.81804211  0.78974572  0.30247456  1
  Cu  Cu32  1  0.97332648  0.17523669  0.30461948  1
  Cu  Cu33  1  0.21165043  0.18319723  0.80250757  1
  Cu  Cu34  1  0.97412704  0.79005765  0.80262037  1
  Cu  Cu35  1  0.82330454  0.02783504  0.80444042  1
  Cu  Cu36  1  0.79005126  0.96278639  0.69560240  1
  Cu  Cu37  1  0.17987875  0.21462817  0.69775898  1
  Cu  Cu38  1  0.03691047  0.82065653  0.69780548  1
  Cu  Cu39  1  0.78536726  0.82089433  0.19785468  1
  Cu  Cu40  1  0.03675020  0.20757159  0.19555119  1
  Cu  Cu41  1  0.17871750  0.96235617  0.19775823  1
  Cu  Cu42  1  0.87528262  0.36264475  0.63556019  1
  Cu  Cu43  1  0.48741234  0.12748491  0.63552320  1
  Cu  Cu44  1  0.63796651  0.51258096  0.63561770  1
  Cu  Cu45  1  0.87068820  0.51126408  0.13542648  1
  Cu  Cu46  1  0.63883771  0.12851754  0.13549767  1
  Cu  Cu47  1  0.48961088  0.35924203  0.13569023  1
  Cu  Cu48  1  0.46846835  0.30739173  0.03029645  1
  Cu  Cu49  1  0.83965164  0.53394776  0.03026335  1
  Cu  Cu50  1  0.69323683  0.16014211  0.03030250  1
  Cu  Cu51  1  0.45859280  0.15514247  0.53045096  1
  Cu  Cu52  1  0.69478166  0.53925506  0.53038613  1
  Cu  Cu53  1  0.84511241  0.30307073  0.53069493  1
  Cu  Cu54  1  0.53563975  0.69348353  0.97177932  1
  Cu  Cu55  1  0.15742138  0.46498741  0.97192802  1
  Cu  Cu56  1  0.30601638  0.84272561  0.97161916  1
  Cu  Cu57  1  0.53995059  0.84321900  0.46875468  1
  Cu  Cu58  1  0.30551527  0.46142460  0.46856210  1
  Cu  Cu59  1  0.16300903  0.69681895  0.47041761  1
  Cu  Cu60  1  0.14193951  0.64167516  0.36185237  1
  Cu  Cu61  1  0.50656779  0.86510082  0.36338765  1
  Cu  Cu62  1  0.36087185  0.49380403  0.36323114  1
  Cu  Cu63  1  0.13302886  0.50094217  0.86261721  1
  Cu  Cu64  1  0.36728595  0.86680504  0.86266266  1
  Cu  Cu65  1  0.49936987  0.63195462  0.86273535  1
  Cu  Cu66  1  0.02884721  0.82744043  0.40466188  1
  Cu  Cu67  1  0.79101866  0.97084144  0.40752217  1
  Cu  Cu68  1  0.17959979  0.20887856  0.40714401  1
  Cu  Cu69  1  0.02125746  0.20186703  0.90715823  1
  Cu  Cu70  1  0.18085611  0.98078721  0.90513666  1
  Cu  Cu71  1  0.79979754  0.81683445  0.90674838  1
  Cu  Cu72  1  0.97500127  0.17788933  0.59135576  1
  Cu  Cu73  1  0.20286381  0.02628151  0.59189645  1
  Cu  Cu74  1  0.82281084  0.79472073  0.59068604  1
  Cu  Cu75  1  0.96719822  0.79297880  0.09037715  1
  Cu  Cu76  1  0.82368101  0.03160564  0.08963828  1
  Cu  Cu77  1  0.20933583  0.17412732  0.08949817  1
  Cu  Cu78  1  0.68278721  0.15456936  0.74035543  1
  Cu  Cu79  1  0.46564800  0.31802824  0.74161052  1
  Cu  Cu80  1  0.85023937  0.53586891  0.74154872  1
  Cu  Cu81  1  0.68324099  0.53581392  0.24171920  1
  Cu  Cu82  1  0.84594597  0.31611010  0.24069233  1
  Cu  Cu83  1  0.46361992  0.15002427  0.24163816  1
  Cu  Cu84  1  0.63403182  0.49733099  0.92746774  1
  Cu  Cu85  1  0.86333709  0.36488451  0.92771936  1
  Cu  Cu86  1  0.50118391  0.13624271  0.92763349  1
  Cu  Cu87  1  0.63267675  0.12409618  0.42273653  1
  Cu  Cu88  1  0.49056499  0.36477098  0.42236298  1
  Cu  Cu89  1  0.86786273  0.50279999  0.42369850  1
  Cu  Cu90  1  0.36213524  0.48650290  0.07533612  1
  Cu  Cu91  1  0.12477470  0.63844616  0.07519004  1
  Cu  Cu92  1  0.51223290  0.87476163  0.07510883  1
  Cu  Cu93  1  0.36033647  0.87240461  0.57576927  1
  Cu  Cu94  1  0.51195758  0.64150070  0.57454362  1
  Cu  Cu95  1  0.12999419  0.48754969  0.57523721  1
  Cu  Cu96  1  0.31111830  0.84145382  0.26010771  1
  Cu  Cu97  1  0.53183956  0.69296389  0.26078742  1
  Cu  Cu98  1  0.16624591  0.47273701  0.26221626  1
  Cu  Cu99  1  0.30685020  0.46844701  0.76001749  1
  Cu  Cu100  1  0.16004362  0.69067730  0.75996489  1
  Cu  Cu101  1  0.52514738  0.83330367  0.76232729  1
