# generated using pymatgen
data_Cu2NiC17
_symmetry_space_group_name_H-M   'P 1'
_cell_length_a   15.09251648
_cell_length_b   8.75489135
_cell_length_c   8.76086891
_cell_angle_alpha   89.77532989
_cell_angle_beta   124.54406612
_cell_angle_gamma   90.20305661
_symmetry_Int_Tables_number   1
_chemical_formula_structural   Cu2NiC17
_chemical_formula_sum   'Cu8 Ni4 C68'
_cell_volume   953.49773951
_cell_formula_units_Z   4
loop_
 _symmetry_equiv_pos_site_id
 _symmetry_equiv_pos_as_xyz
  1  'x, y, z'
loop_
 _atom_site_type_symbol
 _atom_site_label
 _atom_site_symmetry_multiplicity
 _atom_site_fract_x
 _atom_site_fract_y
 _atom_site_fract_z
 _atom_site_occupancy
  C  C0  1  0.25078804  0.74901087  0.99962606  1
  C  C1  1  0.74605532  0.75152187  0.48731309  1
  C  C2  1  0.75078804  0.24901087  0.99962606  1
  C  C3  1  0.24605532  0.25152187  0.48731309  1
  C  C4  1  0.49514574  0.10455190  0.73606052  1
  C  C5  1  0.50526270  0.88379724  0.25612381  1
  C  C6  1  0.99514574  0.60455190  0.73606052  1
  C  C7  1  0.00526270  0.38379724  0.25612381  1
  C  C8  1  0.19215460  0.92952980  0.28544259  1
  C  C9  1  0.80625032  0.07248364  0.70813233  1
  C  C10  1  0.69215460  0.42952980  0.28544259  1
  C  C11  1  0.30625032  0.57248364  0.70813233  1
  C  C12  1  0.89508189  0.74932371  0.93548617  1
  C  C13  1  0.39508189  0.24932371  0.93548617  1
  C  C14  1  0.10583100  0.75285429  0.56268799  1
  C  C15  1  0.89481466  0.24700163  0.43748407  1
  C  C16  1  0.10273822  0.25341551  0.05954568  1
  C  C17  1  0.60583100  0.25285429  0.56268799  1
  C  C18  1  0.39481466  0.74700163  0.43748407  1
  C  C19  1  0.60273822  0.75341551  0.05954568  1
  Ni  Ni20  1  0.35418131  0.88642064  0.75081044  1
  Ni  Ni21  1  0.65252965  0.09856380  0.25589467  1
  Ni  Ni22  1  0.85418131  0.38642064  0.75081044  1
  Ni  Ni23  1  0.15252965  0.59856380  0.25589467  1
  Cu  Cu24  1  0.00787145  0.96872296  0.75328142  1
  Cu  Cu25  1  0.99945781  0.04185935  0.25593094  1
  Cu  Cu26  1  0.50787145  0.46872296  0.75328142  1
  Cu  Cu27  1  0.49945781  0.54185935  0.25593094  1
  Cu  Cu28  1  0.63813044  0.89225729  0.74155645  1
  Cu  Cu29  1  0.35631289  0.10805759  0.26446610  1
  Cu  Cu30  1  0.13813044  0.39225729  0.74155645  1
  Cu  Cu31  1  0.85631289  0.60805759  0.26446610  1
  C  C32  1  0.14636283  0.56936266  0.73860927  1
  C  C33  1  0.84775291  0.57795897  0.76438088  1
  C  C34  1  0.85336529  0.43153674  0.25985579  1
  C  C35  1  0.14963765  0.41525561  0.23048361  1
  C  C36  1  0.64636283  0.06936266  0.73860927  1
  C  C37  1  0.34775291  0.07795897  0.76438088  1
  C  C38  1  0.35336529  0.93153674  0.25985579  1
  C  C39  1  0.64963765  0.91525561  0.23048361  1
  C  C40  1  0.43727736  0.57153473  0.58530550  1
  C  C41  1  0.57505483  0.55755433  0.93491584  1
  C  C42  1  0.56358148  0.42971728  0.41643455  1
  C  C43  1  0.42744283  0.44816192  0.07151830  1
  C  C44  1  0.93727736  0.07153473  0.58530550  1
  C  C45  1  0.07505483  0.05755433  0.93491584  1
  C  C46  1  0.06358148  0.92971728  0.41643455  1
  C  C47  1  0.92744283  0.94816192  0.07151830  1
  C  C48  1  0.24968013  0.81082975  0.73038160  1
  C  C49  1  0.74074770  0.83045313  0.75578486  1
  C  C50  1  0.75044704  0.18826297  0.26814623  1
  C  C51  1  0.25412099  0.17047358  0.23933869  1
  C  C52  1  0.74968013  0.31082975  0.73038160  1
  C  C53  1  0.24074770  0.33045313  0.75578486  1
  C  C54  1  0.25044704  0.68826297  0.26814623  1
  C  C55  1  0.75412099  0.67047358  0.23933869  1
  C  C56  1  0.35962199  0.86589445  0.57158772  1
  C  C57  1  0.63982814  0.84896941  0.91186602  1
  C  C58  1  0.63979599  0.13422026  0.42505418  1
  C  C59  1  0.35916412  0.15426798  0.09265215  1
  C  C60  1  0.85962199  0.36589445  0.57158772  1
  C  C61  1  0.13982814  0.34896941  0.91186602  1
  C  C62  1  0.13979599  0.63422026  0.42505418  1
  C  C63  1  0.85916412  0.65426798  0.09265215  1
  C  C64  1  0.46168541  0.82050198  0.93774959  1
  C  C65  1  0.53953479  0.83028441  0.56062511  1
  C  C66  1  0.53989770  0.17753494  0.06896850  1
  C  C67  1  0.45747636  0.17248408  0.43906547  1
  C  C68  1  0.96168541  0.32050198  0.93774959  1
  C  C69  1  0.03953479  0.33028441  0.56062511  1
  C  C70  1  0.03989770  0.67753494  0.06896850  1
  C  C71  1  0.95747636  0.67248408  0.43906547  1
  C  C72  1  0.07695375  0.85119329  0.73546060  1
  C  C73  1  0.92084886  0.86661368  0.76043214  1
  C  C74  1  0.92484012  0.15140524  0.26897459  1
  C  C75  1  0.08227570  0.13615654  0.24256648  1
  C  C76  1  0.57695375  0.35119329  0.73546060  1
  C  C77  1  0.42084886  0.36661368  0.76043214  1
  C  C78  1  0.42484012  0.65140524  0.26897459  1
  C  C79  1  0.58227570  0.63615654  0.24256648  1
