# generated using pymatgen
data_Cu2Ni2C9
_symmetry_space_group_name_H-M   'P 1'
_cell_length_a   3.39880400
_cell_length_b   3.39867048
_cell_length_c   45.35443115
_cell_angle_alpha   89.99172326
_cell_angle_beta   90.00000884
_cell_angle_gamma   120.00128008
_symmetry_Int_Tables_number   1
_chemical_formula_structural   Cu2Ni2C9
_chemical_formula_sum   'Cu2 Ni2 C9'
_cell_volume   453.71164732
_cell_formula_units_Z   1
loop_
 _symmetry_equiv_pos_site_id
 _symmetry_equiv_pos_as_xyz
  1  'x, y, z'
loop_
 _atom_site_type_symbol
 _atom_site_label
 _atom_site_symmetry_multiplicity
 _atom_site_fract_x
 _atom_site_fract_y
 _atom_site_fract_z
 _atom_site_occupancy
  C  C0  1  0.00000500  0.00001000  0.55132300  1
  C  C1  1  0.33338300  0.66676800  0.70567400  1
  C  C2  1  0.66662700  0.33325400  0.05257000  1
  C  C3  1  0.66651100  0.33302100  0.13515500  1
  C  C4  1  0.33348700  0.66697500  0.62241000  1
  Ni  Ni5  1  0.33322100  0.66644400  0.09385300  1
  Ni  Ni6  1  0.33329700  0.66659500  0.46292300  1
  Cu  Cu7  1  0.66669900  0.33339900  0.28201600  1
  Cu  Cu8  1  0.66677900  0.33356100  0.66420100  1
  C  C9  1  0.33331400  0.66662900  0.31851400  1
  C  C10  1  0.33339500  0.66679300  0.24552300  1
  C  C11  1  0.66667600  0.33335000  0.43013500  1
  C  C12  1  0.66660200  0.33320500  0.49653300  1
