# generated using pymatgen
data_Cu2NiC12
_symmetry_space_group_name_H-M   'P 1'
_cell_length_a   5.41712600
_cell_length_b   6.30089460
_cell_length_c   6.30476064
_cell_angle_alpha   88.66713251
_cell_angle_beta   90.08447911
_cell_angle_gamma   89.66647772
_symmetry_Int_Tables_number   1
_chemical_formula_structural   Cu2NiC12
_chemical_formula_sum   'Cu2 Ni1 C12'
_cell_volume   215.13660529
_cell_formula_units_Z   1
loop_
 _symmetry_equiv_pos_site_id
 _symmetry_equiv_pos_as_xyz
  1  'x, y, z'
loop_
 _atom_site_type_symbol
 _atom_site_label
 _atom_site_symmetry_multiplicity
 _atom_site_fract_x
 _atom_site_fract_y
 _atom_site_fract_z
 _atom_site_occupancy
  Ni  Ni0  1  0.31288700  0.56212700  0.94373500  1
  Cu  Cu1  1  0.24073200  0.23322700  0.27589600  1
  Cu  Cu2  1  0.76466900  0.76233000  0.73910000  1
  C  C3  1  0.50083000  0.24084400  0.74927700  1
  C  C4  1  0.50803900  0.75553200  0.26499100  1
  C  C5  1  0.06428700  0.72281000  0.78509200  1
  C  C6  1  0.30014100  0.23023400  0.58092500  1
  C  C7  1  0.36184500  0.24113600  0.96678000  1
  C  C8  1  0.35707900  0.54378500  0.26298500  1
  C  C9  1  0.32080100  0.93232600  0.29533600  1
  C  C10  1  0.70050800  0.07063000  0.73054900  1
  C  C11  1  0.60820300  0.47415500  0.74211300  1
  C  C12  1  0.71640500  0.75604400  0.42827700  1
  C  C13  1  0.60380000  0.76697900  0.02829600  1
  C  C14  1  0.94533100  0.25992400  0.24073400  1
