# generated using pymatgen
data_Cu5(NiC)7
_symmetry_space_group_name_H-M   'P 1'
_cell_length_a   5.09772462
_cell_length_b   5.16188703
_cell_length_c   8.73969841
_cell_angle_alpha   91.52407708
_cell_angle_beta   90.48891180
_cell_angle_gamma   102.23139648
_symmetry_Int_Tables_number   1
_chemical_formula_structural   Cu5(NiC)7
_chemical_formula_sum   'Cu5 Ni7 C7'
_cell_volume   224.65177296
_cell_formula_units_Z   1
loop_
 _symmetry_equiv_pos_site_id
 _symmetry_equiv_pos_as_xyz
  1  'x, y, z'
loop_
 _atom_site_type_symbol
 _atom_site_label
 _atom_site_symmetry_multiplicity
 _atom_site_fract_x
 _atom_site_fract_y
 _atom_site_fract_z
 _atom_site_occupancy
  C  C0  1  0.52906345  0.02894532  0.33641894  1
  C  C1  1  0.01663109  0.98138511  0.98804342  1
  C  C2  1  0.01201631  0.96971127  0.33068879  1
  C  C3  1  0.05817908  0.99265174  0.66722153  1
  C  C4  1  0.49065274  0.49448179  0.15875783  1
  C  C5  1  0.42663261  0.55367934  0.83946326  1
  C  C6  1  0.41714712  0.55976924  0.49498576  1
  Ni  Ni7  1  0.19433209  0.81583246  0.82816363  1
  Ni  Ni8  1  0.23577381  0.82917058  0.48955952  1
  Ni  Ni9  1  0.31323863  0.30060734  0.32398106  1
  Ni  Ni10  1  0.27983245  0.30085480  0.00410014  1
  Ni  Ni11  1  0.29970303  0.32897961  0.66607874  1
  Ni  Ni12  1  0.68000727  0.68328741  0.99667687  1
  Ni  Ni13  1  0.67299349  0.69465438  0.32313025  1
  Cu  Cu14  1  0.22151292  0.82680351  0.16198914  1
  Cu  Cu15  1  0.70498468  0.69955025  0.65542807  1
  Cu  Cu16  1  0.79016129  0.15853856  0.17312064  1
  Cu  Cu17  1  0.83752690  0.13289774  0.82570994  1
  Cu  Cu18  1  0.81961204  0.14819756  0.49362647  1
