# generated using pymatgen
data_Cu2Ni4C7
_symmetry_space_group_name_H-M   'P 1'
_cell_length_a   3.33709200
_cell_length_b   3.33670018
_cell_length_c   45.20501003
_cell_angle_alpha   89.99500838
_cell_angle_beta   90.00000000
_cell_angle_gamma   120.00388452
_symmetry_Int_Tables_number   1
_chemical_formula_structural   Cu2Ni4C7
_chemical_formula_sum   'Cu2 Ni4 C7'
_cell_volume   435.89868965
_cell_formula_units_Z   1
loop_
 _symmetry_equiv_pos_site_id
 _symmetry_equiv_pos_as_xyz
  1  'x, y, z'
loop_
 _atom_site_type_symbol
 _atom_site_label
 _atom_site_symmetry_multiplicity
 _atom_site_fract_x
 _atom_site_fract_y
 _atom_site_fract_z
 _atom_site_occupancy
  C  C0  1  0.00004000  0.00008000  0.37478300  1
  C  C1  1  0.33338300  0.66676800  0.69982900  1
  C  C2  1  0.33338300  0.66676800  0.61579700  1
  C  C3  1  0.33331700  0.66663400  0.09361400  1
  C  C4  1  0.66665400  0.33330700  0.27574900  1
  C  C5  1  0.66672600  0.33345200  0.65781100  1
  C  C6  1  0.33328800  0.66657500  0.47739300  1
  Ni  Ni7  1  0.33328200  0.66656500  0.31321000  1
  Ni  Ni8  1  0.66670700  0.33341400  0.05669900  1
  Ni  Ni9  1  0.66659100  0.33318200  0.13053500  1
  Ni  Ni10  1  0.33331800  0.66663600  0.23894900  1
  Cu  Cu11  1  0.66667300  0.33334500  0.44357000  1
  Cu  Cu12  1  0.66663700  0.33327400  0.51101700  1
