# generated using pymatgen
data_Cu4NiC10
_symmetry_space_group_name_H-M   'P 1'
_cell_length_a   5.74019532
_cell_length_b   5.73816027
_cell_length_c   7.03211551
_cell_angle_alpha   114.18864930
_cell_angle_beta   114.03937071
_cell_angle_gamma   89.98198494
_symmetry_Int_Tables_number   1
_chemical_formula_structural   Cu4NiC10
_chemical_formula_sum   'Cu4 Ni1 C10'
_cell_volume   189.06476914
_cell_formula_units_Z   1
loop_
 _symmetry_equiv_pos_site_id
 _symmetry_equiv_pos_as_xyz
  1  'x, y, z'
loop_
 _atom_site_type_symbol
 _atom_site_label
 _atom_site_symmetry_multiplicity
 _atom_site_fract_x
 _atom_site_fract_y
 _atom_site_fract_z
 _atom_site_occupancy
  C  C0  1  0.87526900  0.12476800  0.75009100  1
  C  C1  1  0.12468700  0.87535700  0.25006600  1
  Ni  Ni2  1  0.37566600  0.62371100  0.74984200  1
  Cu  Cu3  1  0.51446100  0.06382300  0.07639500  1
  Cu  Cu4  1  0.56280600  0.51331800  0.07765000  1
  Cu  Cu5  1  0.93578300  0.43831800  0.42383800  1
  Cu  Cu6  1  0.48648700  0.48531400  0.42200300  1
  C  C7  1  0.72723500  0.52922400  0.90235600  1
  C  C8  1  0.17505500  0.87213900  0.90138200  1
  C  C9  1  0.26970600  0.47232800  0.11938000  1
  C  C10  1  0.84980900  0.14812600  0.12007100  1
  C  C11  1  0.52752100  0.15000600  0.37952000  1
  C  C12  1  0.85247000  0.73058200  0.38084600  1
  C  C13  1  0.12707900  0.27290000  0.59785900  1
  C  C14  1  0.47096700  0.82508500  0.59870100  1
