# generated using pymatgen
data_Cu2NiC10
_symmetry_space_group_name_H-M   'P 1'
_cell_length_a   5.92408689
_cell_length_b   5.92408689
_cell_length_c   6.21387394
_cell_angle_alpha   106.75457827
_cell_angle_beta   106.75457827
_cell_angle_gamma   107.26899095
_symmetry_Int_Tables_number   1
_chemical_formula_structural   Cu2NiC10
_chemical_formula_sum   'Cu2 Ni1 C10'
_cell_volume   181.97602988
_cell_formula_units_Z   1
loop_
 _symmetry_equiv_pos_site_id
 _symmetry_equiv_pos_as_xyz
  1  'x, y, z'
loop_
 _atom_site_type_symbol
 _atom_site_label
 _atom_site_symmetry_multiplicity
 _atom_site_fract_x
 _atom_site_fract_y
 _atom_site_fract_z
 _atom_site_occupancy
  C  C0  1  0.00402791  0.99597209  0.00000000  1
  C  C1  1  0.72569053  0.27430947  0.50000000  1
  Ni  Ni2  1  0.02905864  0.97094136  0.50000000  1
  Cu  Cu3  1  0.46748418  0.53251582  0.00000000  1
  Cu  Cu4  1  0.33178416  0.66821584  0.50000000  1
  C  C5  1  0.46849437  0.39524011  0.25083427  1
  C  C6  1  0.70827047  0.88905918  0.21127417  1
  C  C7  1  0.03976591  0.32477004  0.32925463  1
  C  C8  1  0.60475989  0.53150563  0.74916573  1
  C  C9  1  0.11094082  0.29172953  0.78872583  1
  C  C10  1  0.23445018  0.88954000  0.31267398  1
  C  C11  1  0.67522996  0.96023409  0.67074537  1
  C  C12  1  0.11046000  0.76554982  0.68732602  1
