# generated using pymatgen
data_Cu5NiC33
_symmetry_space_group_name_H-M   'P 1'
_cell_length_a   8.90354593
_cell_length_b   8.89107300
_cell_length_c   22.42491219
_cell_angle_alpha   90.04081196
_cell_angle_beta   89.97606443
_cell_angle_gamma   120.09650151
_symmetry_Int_Tables_number   1
_chemical_formula_structural   Cu5NiC33
_chemical_formula_sum   'Cu15 Ni3 C99'
_cell_volume   1535.87303404
_cell_formula_units_Z   3
loop_
 _symmetry_equiv_pos_site_id
 _symmetry_equiv_pos_as_xyz
  1  'x, y, z'
loop_
 _atom_site_type_symbol
 _atom_site_label
 _atom_site_symmetry_multiplicity
 _atom_site_fract_x
 _atom_site_fract_y
 _atom_site_fract_z
 _atom_site_occupancy
  C  C0  1  0.00218715  0.63964208  0.25099607  1
  C  C1  1  0.63014004  0.63402990  0.75001398  1
  C  C2  1  0.36819337  0.99939960  0.75180402  1
  C  C3  1  0.66729182  0.96862519  0.58381367  1
  C  C4  1  0.29995743  0.96991313  0.08332934  1
  C  C5  1  0.67234195  0.69902146  0.08181004  1
  C  C6  1  0.03060489  0.33202338  0.08381390  1
  C  C7  1  0.96674564  0.30029341  0.41645272  1
  C  C8  1  0.33739939  0.03579376  0.41765989  1
  C  C9  1  0.00205388  0.99111609  0.50199286  1
  C  C10  1  0.00058878  0.99560609  0.99576438  1
  C  C11  1  0.67643472  0.33513898  0.83690866  1
  C  C12  1  0.65670659  0.33394698  0.33240922  1
  C  C13  1  0.34216418  0.66748151  0.16966268  1
  C  C14  1  0.31814349  0.65211074  0.66627981  1
  C  C15  1  0.99505021  0.99555341  0.35073473  1
  C  C16  1  0.00013777  0.99896848  0.15075771  1
  C  C17  1  0.66844330  0.33764932  0.97837700  1
  C  C18  1  0.66215409  0.33883535  0.48406970  1
  C  C19  1  0.34093266  0.66680351  0.31371759  1
  C  C20  1  0.32994398  0.66394136  0.81392705  1
  C  C21  1  0.99212146  0.00196673  0.85412385  1
  C  C22  1  0.00505962  0.99965267  0.64776260  1
  C  C23  1  0.67056592  0.32468344  0.68384205  1
  C  C24  1  0.66920063  0.33311345  0.18532292  1
  C  C25  1  0.32624422  0.66630164  0.01379975  1
  C  C26  1  0.33113896  0.66759918  0.52134479  1
  Ni  Ni27  1  0.71674029  0.00697065  0.74851931  1
  Ni  Ni28  1  0.36785143  0.03861618  0.58276856  1
  Ni  Ni29  1  0.96044936  0.62509969  0.08285836  1
  Cu  Cu30  1  0.30140498  0.00613694  0.24996484  1
  Cu  Cu31  1  0.70301316  0.70046032  0.24782519  1
  Cu  Cu32  1  0.99536819  0.29451710  0.24940041  1
  Cu  Cu33  1  0.28538543  0.28395984  0.74977368  1
  Cu  Cu34  1  0.99516835  0.71175888  0.75006047  1
  Cu  Cu35  1  0.96162235  0.33448905  0.58302351  1
  Cu  Cu36  1  0.66652064  0.62523426  0.58567853  1
  Cu  Cu37  1  0.66437964  0.04289713  0.08277346  1
  Cu  Cu38  1  0.37943675  0.33639186  0.08312858  1
  Cu  Cu39  1  0.62620281  0.66993081  0.91547593  1
  Cu  Cu40  1  0.04173197  0.37122102  0.91557968  1
  Cu  Cu41  1  0.32866844  0.95902666  0.91461660  1
  Cu  Cu42  1  0.62426728  0.95547595  0.41874440  1
  Cu  Cu43  1  0.33540468  0.37954746  0.41787729  1
  Cu  Cu44  1  0.04409758  0.66634111  0.41697361  1
  C  C45  1  0.21703618  0.03169150  0.30659360  1
  C  C46  1  0.82444251  0.78538022  0.30194732  1
  C  C47  1  0.97001226  0.18563470  0.30602637  1
  C  C48  1  0.20135805  0.16645039  0.80519547  1
  C  C49  1  0.96658619  0.80006915  0.80533340  1
  C  C50  1  0.83968972  0.03029126  0.80726744  1
  C  C51  1  0.80805831  0.97473148  0.69066119  1
  C  C52  1  0.17212117  0.19300913  0.69438295  1
  C  C53  1  0.02630773  0.83054340  0.69485503  1
  C  C54  1  0.78517922  0.80681242  0.19082860  1
  C  C55  1  0.02108193  0.21279820  0.19294486  1
  C  C56  1  0.18535602  0.97331267  0.19446403  1
  C  C57  1  0.86656525  0.36186630  0.63761959  1
  C  C58  1  0.50228943  0.13513116  0.64055493  1
  C  C59  1  0.64010731  0.51161905  0.64193132  1
  C  C60  1  0.86870499  0.49849583  0.14250022  1
  C  C61  1  0.63175776  0.12969848  0.13849424  1
  C  C62  1  0.49885177  0.36588165  0.13842186  1
  C  C63  1  0.45392100  0.29543266  0.02880815  1
  C  C64  1  0.83262993  0.53739555  0.02788710  1
  C  C65  1  0.69811772  0.15654570  0.02860103  1
  C  C66  1  0.45056470  0.14956133  0.52316768  1
  C  C67  1  0.69978006  0.54764754  0.53032197  1
  C  C68  1  0.84939261  0.29752395  0.52700565  1
  C  C69  1  0.53300514  0.69347293  0.97229264  1
  C  C70  1  0.15808120  0.46387193  0.97330501  1
  C  C71  1  0.30582863  0.83791142  0.97146881  1
  C  C72  1  0.53360917  0.84421950  0.47576807  1
  C  C73  1  0.31031164  0.47341877  0.47299609  1
  C  C74  1  0.16668955  0.69106138  0.47156437  1
  C  C75  1  0.12305641  0.63833887  0.35989486  1
  C  C76  1  0.50865607  0.87261009  0.36423549  1
  C  C77  1  0.35612917  0.48468337  0.36178036  1
  C  C78  1  0.13002141  0.48461748  0.86159189  1
  C  C79  1  0.35400575  0.87447066  0.85880368  1
  C  C80  1  0.51990574  0.64770541  0.85894213  1
  C  C81  1  0.03578950  0.83571296  0.41426059  1
  C  C82  1  0.80766023  0.97763564  0.41426939  1
  C  C83  1  0.16715102  0.19654399  0.41476755  1
  C  C84  1  0.03324430  0.19184025  0.91126692  1
  C  C85  1  0.16006809  0.96847728  0.91126166  1
  C  C86  1  0.80862296  0.83855848  0.91105558  1
  C  C87  1  0.97488693  0.16902697  0.59271384  1
  C  C88  1  0.17667466  0.01501709  0.59382730  1
  C  C89  1  0.82508821  0.81295842  0.59241627  1
  C  C90  1  0.98926750  0.82030372  0.08934390  1
  C  C91  1  0.82499478  0.02066238  0.09034672  1
  C  C92  1  0.19358688  0.17967043  0.09106714  1
  C  C93  1  0.69337562  0.17977997  0.74230578  1
  C  C94  1  0.46982475  0.30266555  0.74291875  1
  C  C95  1  0.82784312  0.53267617  0.74247203  1
  C  C96  1  0.69177936  0.51910828  0.24161322  1
  C  C97  1  0.82891605  0.31275492  0.24334637  1
  C  C98  1  0.48231006  0.16972928  0.24143485  1
  C  C99  1  0.64482252  0.50949150  0.92133486  1
  C  C100  1  0.86219271  0.34881290  0.92262127  1
  C  C101  1  0.48948768  0.13593224  0.92283034  1
  C  C102  1  0.64565834  0.13997015  0.42334937  1
  C  C103  1  0.49297344  0.35239580  0.42189274  1
  C  C104  1  0.86597462  0.50151593  0.42400031  1
  C  C105  1  0.36563487  0.50476353  0.07728276  1
  C  C106  1  0.15465983  0.64078622  0.07552149  1
  C  C107  1  0.49885394  0.85798010  0.07723652  1
  C  C108  1  0.35972021  0.84811745  0.57669873  1
  C  C109  1  0.50307462  0.64688491  0.57829468  1
  C  C110  1  0.14274575  0.49859820  0.57729838  1
  C  C111  1  0.31250720  0.83855671  0.25489145  1
  C  C112  1  0.52321841  0.68000235  0.25400951  1
  C  C113  1  0.15187046  0.48135921  0.25399280  1
  C  C114  1  0.31163540  0.46825698  0.75349594  1
  C  C115  1  0.15972424  0.69724685  0.75413025  1
  C  C116  1  0.52332455  0.83578191  0.75310595  1
