# generated using pymatgen
data_CuNiC11
_symmetry_space_group_name_H-M   'P 1'
_cell_length_a   17.79135322
_cell_length_b   8.89252033
_cell_length_c   22.25205421
_cell_angle_alpha   89.90963404
_cell_angle_beta   89.59259291
_cell_angle_gamma   119.77673398
_symmetry_Int_Tables_number   1
_chemical_formula_structural   CuNiC11
_chemical_formula_sum   'Cu18 Ni18 C198'
_cell_volume   3055.54556338
_cell_formula_units_Z   18
loop_
 _symmetry_equiv_pos_site_id
 _symmetry_equiv_pos_as_xyz
  1  'x, y, z'
loop_
 _atom_site_type_symbol
 _atom_site_label
 _atom_site_symmetry_multiplicity
 _atom_site_fract_x
 _atom_site_fract_y
 _atom_site_fract_z
 _atom_site_occupancy
  C  C0  1  0.31723924  0.00012332  0.24759606  1
  C  C1  1  0.19382454  0.36970060  0.24419010  1
  C  C2  1  0.68844164  0.36839315  0.24375500  1
  C  C3  1  0.99849259  0.63641806  0.25092499  1
  C  C4  1  0.31665979  0.62158633  0.75246782  1
  C  C5  1  0.81734367  0.62567214  0.75016986  1
  C  C6  1  0.99466638  0.36567906  0.74876130  1
  C  C7  1  0.49511149  0.37083351  0.74302313  1
  C  C8  1  0.18360563  0.00580416  0.74966066  1
  C  C9  1  0.68757994  0.00979318  0.75088268  1
  C  C10  1  0.64899146  0.34457191  0.57686562  1
  C  C11  1  0.32433069  0.68418895  0.07993986  1
  C  C12  1  0.82686367  0.68815212  0.08649367  1
  C  C13  1  0.16270974  0.31110233  0.92180187  1
  C  C14  1  0.99399140  0.30603100  0.41995244  1
  C  C15  1  0.16541466  0.02970913  0.41948328  1
  C  C16  1  0.66231134  0.02579254  0.41551790  1
  C  C17  1  0.84478548  0.67179793  0.41881922  1
  C  C18  1  0.00194373  0.00491561  0.50260758  1
  C  C19  1  0.49169801  0.00098888  0.49682565  1
  C  C20  1  0.00248845  0.01288038  0.99894621  1
  C  C21  1  0.50250010  0.01765347  0.99681784  1
  C  C22  1  0.34113752  0.34685232  0.83419149  1
  C  C23  1  0.83575346  0.33514498  0.83125405  1
  C  C24  1  0.34000786  0.36208112  0.32909327  1
  C  C25  1  0.83251693  0.33009641  0.32860524  1
  C  C26  1  0.16609485  0.66055024  0.15992808  1
  C  C27  1  0.66208539  0.66551598  0.16150009  1
  C  C28  1  0.16327692  0.66303746  0.66156264  1
  C  C29  1  0.66145164  0.66779782  0.66115429  1
  C  C30  1  0.49799763  0.99829244  0.35228969  1
  C  C31  1  0.33563003  0.34269536  0.68401990  1
  C  C32  1  0.83616329  0.33655760  0.68830988  1
  C  C33  1  0.33196433  0.34131906  0.18591744  1
  C  C34  1  0.83083046  0.33291787  0.18332511  1
  C  C35  1  0.16534746  0.65002070  0.01645905  1
  C  C36  1  0.66010623  0.64812075  0.01805376  1
  C  C37  1  0.16256400  0.65899600  0.51675571  1
  C  C38  1  0.66335513  0.65905372  0.51796639  1
  C  C39  1  0.00207700  0.98986904  0.35518614  1
  C  C40  1  0.99737032  0.00702572  0.84883000  1
  C  C41  1  0.50261609  0.99776301  0.85765528  1
  C  C42  1  0.00142265  0.00169166  0.65415465  1
  C  C43  1  0.50532293  0.01370191  0.64756276  1
  C  C44  1  0.00783424  0.99567107  0.14725580  1
  C  C45  1  0.49843522  0.00175286  0.14526660  1
  C  C46  1  0.33194714  0.34370442  0.97621271  1
  C  C47  1  0.82616928  0.32252171  0.98085844  1
  C  C48  1  0.33861907  0.33953037  0.48421774  1
  C  C49  1  0.83419591  0.33862578  0.47265009  1
  C  C50  1  0.17240199  0.66132564  0.31480846  1
  C  C51  1  0.67901424  0.67575938  0.31703442  1
  C  C52  1  0.15582018  0.63820535  0.81806426  1
  C  C53  1  0.65524367  0.65103522  0.80974715  1
  Ni  Ni54  1  0.14844788  0.99605049  0.25212744  1
  Ni  Ni55  1  0.35871773  0.70980276  0.25232348  1
  Ni  Ni56  1  0.85560135  0.71333752  0.24913624  1
  Ni  Ni57  1  0.14639839  0.29098252  0.75025699  1
  Ni  Ni58  1  0.64396204  0.28648881  0.75112415  1
  Ni  Ni59  1  0.00371467  0.71472319  0.75241269  1
  Ni  Ni60  1  0.49822933  0.71507636  0.75042389  1
  Ni  Ni61  1  0.85238402  0.99527886  0.74999125  1
  Ni  Ni62  1  0.48129436  0.33490003  0.58781975  1
  Ni  Ni63  1  0.18504320  0.33273050  0.08537779  1
  Ni  Ni64  1  0.68473895  0.33469382  0.08733078  1
  Ni  Ni65  1  0.31401138  0.67605720  0.91835338  1
  Ni  Ni66  1  0.01270666  0.36235576  0.92050696  1
  Ni  Ni67  1  0.51840024  0.37001635  0.91841070  1
  Ni  Ni68  1  0.81269388  0.95704489  0.41979131  1
  Ni  Ni69  1  0.17053259  0.37485791  0.41850108  1
  Ni  Ni70  1  0.65908415  0.36503297  0.41971856  1
  Ni  Ni71  1  0.02661598  0.66950738  0.41715387  1
  Cu  Cu72  1  0.64404259  0.99350897  0.25013117  1
  Cu  Cu73  1  0.99835512  0.28540547  0.24962403  1
  Cu  Cu74  1  0.50156822  0.29330148  0.24986723  1
  Cu  Cu75  1  0.35551469  0.99726466  0.75040707  1
  Cu  Cu76  1  0.97880161  0.33161656  0.58318537  1
  Cu  Cu77  1  0.18685492  0.03988608  0.58400486  1
  Cu  Cu78  1  0.68914009  0.04223087  0.58342371  1
  Cu  Cu79  1  0.33221947  0.62781237  0.58400877  1
  Cu  Cu80  1  0.83699320  0.62894996  0.58367259  1
  Cu  Cu81  1  0.47922040  0.62410041  0.08405034  1
  Cu  Cu82  1  0.97952337  0.62287445  0.08330257  1
  Cu  Cu83  1  0.33392514  0.04667028  0.08496962  1
  Cu  Cu84  1  0.83353706  0.04448105  0.08304994  1
  Cu  Cu85  1  0.81324607  0.66742253  0.91750996  1
  Cu  Cu86  1  0.16583695  0.95418407  0.91695221  1
  Cu  Cu87  1  0.66815336  0.95634090  0.91728624  1
  Cu  Cu88  1  0.31321176  0.95802140  0.41847480  1
  Cu  Cu89  1  0.52090184  0.66249873  0.41684192  1
  C  C90  1  0.09753695  0.02778801  0.30825006  1
  C  C91  1  0.60865647  0.02728130  0.30544587  1
  C  C92  1  0.41271103  0.81286799  0.30823199  1
  C  C93  1  0.91548447  0.81375328  0.30754422  1
  C  C94  1  0.48890318  0.18929940  0.30392407  1
  C  C95  1  0.98660474  0.18859157  0.30592950  1
  C  C96  1  0.10013810  0.17025577  0.80962956  1
  C  C97  1  0.59347001  0.15605685  0.80573587  1
  C  C98  1  0.48484274  0.81319806  0.80688307  1
  C  C99  1  0.98688276  0.81205343  0.80844809  1
  C  C100  1  0.41003549  0.02900603  0.80342723  1
  C  C101  1  0.91873570  0.03343832  0.80628771  1
  C  C102  1  0.39625475  0.96767307  0.69578278  1
  C  C103  1  0.90075690  0.95599821  0.69247110  1
  C  C104  1  0.07839969  0.19953967  0.69358834  1
  C  C105  1  0.58147640  0.20494965  0.69012863  1
  C  C106  1  0.02229406  0.84648522  0.69331026  1
  C  C107  1  0.51485850  0.84393799  0.69159889  1
  C  C108  1  0.40441886  0.84057743  0.19084161  1
  C  C109  1  0.89976492  0.82907494  0.18815089  1
  C  C110  1  0.01221313  0.20025875  0.19685061  1
  C  C111  1  0.51899661  0.21023467  0.19585611  1
  C  C112  1  0.08075480  0.96615003  0.19483932  1
  C  C113  1  0.58944148  0.97765338  0.19716239  1
  C  C114  1  0.43529114  0.34870437  0.64730766  1
  C  C115  1  0.93590756  0.34725041  0.63769571  1
  C  C116  1  0.23595720  0.12374852  0.63859299  1
  C  C117  1  0.73826034  0.12371046  0.63789065  1
  C  C118  1  0.31869842  0.52653524  0.63954487  1
  C  C119  1  0.82538618  0.52099562  0.63712597  1
  C  C120  1  0.44085607  0.51896299  0.13773750  1
  C  C121  1  0.94281974  0.52571591  0.14014848  1
  C  C122  1  0.32800247  0.12597567  0.14111440  1
  C  C123  1  0.82462543  0.12719317  0.13721995  1
  C  C124  1  0.24254310  0.35776539  0.14332355  1
  C  C125  1  0.74287099  0.36387048  0.14575879  1
  C  C126  1  0.23588436  0.30724513  0.02416243  1
  C  C127  1  0.73900476  0.30689435  0.02815035  1
  C  C128  1  0.42325087  0.54334477  0.03000706  1
  C  C129  1  0.92121856  0.53333916  0.03176289  1
  C  C130  1  0.34768152  0.15578078  0.03149672  1
  C  C131  1  0.84626721  0.15664452  0.02840960  1
  C  C132  1  0.23097970  0.15024716  0.52850906  1
  C  C133  1  0.73123494  0.15394165  0.52880616  1
  C  C134  1  0.34276845  0.53233356  0.53076736  1
  C  C135  1  0.84488199  0.53933797  0.52812740  1
  C  C136  1  0.41536140  0.31338328  0.52845040  1
  C  C137  1  0.92615679  0.31495496  0.52809183  1
  C  C138  1  0.27828409  0.70826192  0.97941306  1
  C  C139  1  0.77514793  0.69499472  0.97208828  1
  C  C140  1  0.08084741  0.45066066  0.97220756  1
  C  C141  1  0.57879519  0.45415515  0.97367213  1
  C  C142  1  0.15541153  0.85053055  0.97025520  1
  C  C143  1  0.65859294  0.85320858  0.97070578  1
  C  C144  1  0.27220197  0.85324846  0.47111970  1
  C  C145  1  0.77039014  0.83081012  0.47493383  1
  C  C146  1  0.14403382  0.45423769  0.47273429  1
  C  C147  1  0.65130456  0.44925976  0.47987363  1
  C  C148  1  0.08743055  0.72334246  0.47348055  1
  C  C149  1  0.57417859  0.69254764  0.47011178  1
  C  C150  1  0.06514715  0.62623580  0.35614890  1
  C  C151  1  0.56134359  0.63406688  0.36216803  1
  C  C152  1  0.25786692  0.87891918  0.36252459  1
  C  C153  1  0.74718324  0.86963517  0.35992195  1
  C  C154  1  0.18449787  0.49698306  0.35627392  1
  C  C155  1  0.68340620  0.50105636  0.35972874  1
  C  C156  1  0.05907736  0.48281862  0.85622119  1
  C  C157  1  0.56580335  0.49745737  0.85622740  1
  C  C158  1  0.17707196  0.87325488  0.86090108  1
  C  C159  1  0.68071248  0.88058792  0.86109152  1
  C  C160  1  0.24799145  0.63493262  0.85868835  1
  C  C161  1  0.76053753  0.64319741  0.86275558  1
  C  C162  1  0.00561103  0.83028066  0.40879172  1
  C  C163  1  0.51069944  0.81685029  0.40991907  1
  C  C164  1  0.40094950  0.98502549  0.41085639  1
  C  C165  1  0.91017087  0.99179907  0.40668119  1
  C  C166  1  0.08411045  0.18194000  0.40597161  1
  C  C167  1  0.58579067  0.16800306  0.40922712  1
  C  C168  1  0.00774635  0.17327604  0.90906290  1
  C  C169  1  0.50707114  0.17880182  0.90361752  1
  C  C170  1  0.08953403  0.98098768  0.91220094  1
  C  C171  1  0.59068974  0.97893797  0.91297776  1
  C  C172  1  0.41163558  0.83495064  0.90618494  1
  C  C173  1  0.90173166  0.81981524  0.91067664  1
  C  C174  1  0.48819888  0.15079284  0.58820960  1
  C  C175  1  0.98522309  0.16947271  0.58539465  1
  C  C176  1  0.09954259  0.02761992  0.58579327  1
  C  C177  1  0.60169892  0.03406814  0.58641736  1
  C  C178  1  0.41360099  0.79768012  0.58610256  1
  C  C179  1  0.91756331  0.80071568  0.58593459  1
  C  C180  1  0.48191403  0.79840154  0.08925553  1
  C  C181  1  0.98015085  0.79575420  0.08627437  1
  C  C182  1  0.41435949  0.02294986  0.08794913  1
  C  C183  1  0.91173923  0.02296292  0.08502670  1
  C  C184  1  0.08662708  0.15089802  0.09111000  1
  C  C185  1  0.58869285  0.15300592  0.09258061  1
  C  C186  1  0.34290006  0.14903452  0.74429403  1
  C  C187  1  0.84404980  0.16568446  0.74439866  1
  C  C188  1  0.23983349  0.30632897  0.74432235  1
  C  C189  1  0.73892121  0.31134232  0.74378179  1
  C  C190  1  0.41648228  0.52177671  0.74839192  1
  C  C191  1  0.92015416  0.52627438  0.74551534  1
  C  C192  1  0.34131384  0.51619686  0.24661558  1
  C  C193  1  0.84597117  0.52067030  0.24989692  1
  C  C194  1  0.42358654  0.30624690  0.24051401  1
  C  C195  1  0.92309703  0.31202507  0.24282593  1
  C  C196  1  0.24424248  0.15889569  0.24863726  1
  C  C197  1  0.73275863  0.14592343  0.24310735  1
  C  C198  1  0.31834371  0.48980494  0.92173164  1
  C  C199  1  0.82142708  0.50641376  0.92312450  1
  C  C200  1  0.42044730  0.34843010  0.92590056  1
  C  C201  1  0.91736235  0.34776464  0.92591536  1
  C  C202  1  0.24507671  0.13276168  0.91938159  1
  C  C203  1  0.74715496  0.13460264  0.92157917  1
  C  C204  1  0.31743448  0.13263606  0.42226469  1
  C  C205  1  0.82105772  0.15157194  0.42499229  1
  C  C206  1  0.25425155  0.34368000  0.42532814  1
  C  C207  1  0.75431207  0.35868594  0.42543610  1
  C  C208  1  0.43222177  0.50413597  0.42359003  1
  C  C209  1  0.92711799  0.49561274  0.42517536  1
  C  C210  1  0.17653045  0.50497792  0.08082846  1
  C  C211  1  0.68105506  0.51110894  0.07924271  1
  C  C212  1  0.06741211  0.65585417  0.07546850  1
  C  C213  1  0.56796943  0.65786090  0.07620132  1
  C  C214  1  0.25744402  0.87195994  0.08021526  1
  C  C215  1  0.75619991  0.87188407  0.07569465  1
  C  C216  1  0.17965015  0.86873358  0.57852202  1
  C  C217  1  0.67733628  0.86827475  0.57685989  1
  C  C218  1  0.25659831  0.65018618  0.57574466  1
  C  C219  1  0.75927044  0.64750614  0.58021096  1
  C  C220  1  0.06543793  0.48682430  0.57954699  1
  C  C221  1  0.57833616  0.49666749  0.58140310  1
  C  C222  1  0.14922623  0.81348821  0.25669890  1
  C  C223  1  0.64811505  0.83048128  0.25394136  1
  C  C224  1  0.25872830  0.69677567  0.25592748  1
  C  C225  1  0.75588092  0.68837172  0.25653252  1
  C  C226  1  0.07924904  0.46129849  0.25239880  1
  C  C227  1  0.58090219  0.46789667  0.25417342  1
  C  C228  1  0.15434856  0.48453813  0.75499251  1
  C  C229  1  0.65117154  0.47889942  0.75702118  1
  C  C230  1  0.09426705  0.70649871  0.75731051  1
  C  C231  1  0.58946584  0.70616119  0.75617702  1
  C  C232  1  0.26871335  0.83901162  0.75541558  1
  C  C233  1  0.75926743  0.81955495  0.75918646  1
