# generated using pymatgen
data_Cu2NiC7
_symmetry_space_group_name_H-M   'P 1'
_cell_length_a   4.04673984
_cell_length_b   4.04673388
_cell_length_c   11.24391446
_cell_angle_alpha   90.00000000
_cell_angle_beta   90.00000000
_cell_angle_gamma   90.00000000
_symmetry_Int_Tables_number   1
_chemical_formula_structural   Cu2NiC7
_chemical_formula_sum   'Cu2 Ni1 C7'
_cell_volume   184.13123387
_cell_formula_units_Z   1
loop_
 _symmetry_equiv_pos_site_id
 _symmetry_equiv_pos_as_xyz
  1  'x, y, z'
loop_
 _atom_site_type_symbol
 _atom_site_label
 _atom_site_symmetry_multiplicity
 _atom_site_fract_x
 _atom_site_fract_y
 _atom_site_fract_z
 _atom_site_occupancy
  C  C0  1  -0.00000000  0.00000000  0.57205396  1
  C  C1  1  -0.00000000  0.00000000  0.94116852  1
  Ni  Ni2  1  -0.00000000  0.00000000  0.21668118  1
  Cu  Cu3  1  0.50000000  0.50000000  0.77070949  1
  Cu  Cu4  1  0.50000000  0.50000000  0.18230629  1
  C  C5  1  0.50000000  0.00000000  0.14787596  1
  C  C6  1  -0.00000000  0.50000000  0.84065923  1
  C  C7  1  0.50000000  0.00000000  0.84065723  1
  C  C8  1  -0.00000000  0.50000000  0.14787796  1
  C  C9  1  0.50000000  0.50000000  0.59000819  1
