# generated using pymatgen
data_Cu2Ni2C9
_symmetry_space_group_name_H-M   'P 1'
_cell_length_a   3.39423600
_cell_length_b   3.39434159
_cell_length_c   44.80064407
_cell_angle_alpha   90.00589494
_cell_angle_beta   90.00078108
_cell_angle_gamma   120.00047386
_symmetry_Int_Tables_number   1
_chemical_formula_structural   Cu2Ni2C9
_chemical_formula_sum   'Cu2 Ni2 C9'
_cell_volume   447.00295329
_cell_formula_units_Z   1
loop_
 _symmetry_equiv_pos_site_id
 _symmetry_equiv_pos_as_xyz
  1  'x, y, z'
loop_
 _atom_site_type_symbol
 _atom_site_label
 _atom_site_symmetry_multiplicity
 _atom_site_fract_x
 _atom_site_fract_y
 _atom_site_fract_z
 _atom_site_occupancy
  C  C0  1  0.99982000  0.99979800  0.37767000  1
  C  C1  1  0.33344400  0.66675900  0.69970900  1
  C  C2  1  0.66655600  0.33290300  0.05192400  1
  C  C3  1  0.66674300  0.33363000  0.13562400  1
  C  C4  1  0.33337300  0.66695600  0.61559200  1
  C  C5  1  0.33334700  0.66662700  0.09375300  1
  C  C6  1  0.33335000  0.66667000  0.47524300  1
  C  C7  1  0.66667400  0.33328300  0.27434700  1
  C  C8  1  0.66671000  0.33350100  0.65765300  1
  Ni  Ni9  1  0.66654900  0.33325700  0.43784200  1
  Ni  Ni10  1  0.66672600  0.33335400  0.51196800  1
  Cu  Cu11  1  0.33330200  0.66660800  0.30803600  1
  Cu  Cu12  1  0.33340500  0.66665400  0.24091600  1
