# generated using pymatgen
data_Cu2NiC14
_symmetry_space_group_name_H-M   'P 1'
_cell_length_a   8.57214592
_cell_length_b   8.60751946
_cell_length_c   22.07215981
_cell_angle_alpha   89.90731803
_cell_angle_beta   90.00000000
_cell_angle_gamma   119.86414810
_symmetry_Int_Tables_number   1
_chemical_formula_structural   Cu2NiC14
_chemical_formula_sum   'Cu12 Ni6 C84'
_cell_volume   1412.32670384
_cell_formula_units_Z   6
loop_
 _symmetry_equiv_pos_site_id
 _symmetry_equiv_pos_as_xyz
  1  'x, y, z'
loop_
 _atom_site_type_symbol
 _atom_site_label
 _atom_site_symmetry_multiplicity
 _atom_site_fract_x
 _atom_site_fract_y
 _atom_site_fract_z
 _atom_site_occupancy
  C  C0  1  0.99309546  0.00447591  0.63943493  1
  C  C1  1  0.01138045  0.00447591  0.13943493  1
  C  C2  1  0.65976246  0.33780891  0.97276793  1
  C  C3  1  0.67804745  0.33780891  0.47276793  1
  C  C4  1  0.32642846  0.67114291  0.30610193  1
  C  C5  1  0.34471345  0.67114291  0.80610193  1
  Ni  Ni6  1  0.00011822  0.00435428  0.35572637  1
  Ni  Ni7  1  0.00423606  0.00435428  0.85572637  1
  Ni  Ni8  1  0.66678522  0.33768728  0.68905937  1
  Ni  Ni9  1  0.67090306  0.33768728  0.18905937  1
  Ni  Ni10  1  0.33345122  0.67102128  0.02239337  1
  Ni  Ni11  1  0.33756906  0.67102128  0.52239337  1
  Cu  Cu12  1  0.29499057  0.02578015  0.25191167  1
  Cu  Cu13  1  0.97975821  0.26996936  0.25193088  1
  Cu  Cu14  1  0.29021115  0.26996936  0.75193088  1
  Cu  Cu15  1  0.73078958  0.02578015  0.75191167  1
  Cu  Cu16  1  0.96165757  0.35911315  0.58524467  1
  Cu  Cu17  1  0.64642521  0.60330236  0.58526388  1
  Cu  Cu18  1  0.95687815  0.60330236  0.08526388  1
  Cu  Cu19  1  0.39745658  0.35911315  0.08524467  1
  Cu  Cu20  1  0.62832357  0.69244715  0.91857867  1
  Cu  Cu21  1  0.31309121  0.93663636  0.91859788  1
  Cu  Cu22  1  0.62354415  0.93663636  0.41859788  1
  Cu  Cu23  1  0.06412258  0.69244715  0.41857867  1
  C  C24  1  0.72323104  0.70820486  0.25101824  1
  C  C25  1  0.98497382  0.70820486  0.75101824  1
  C  C26  1  0.38989804  0.04153786  0.58435124  1
  C  C27  1  0.65164082  0.04153786  0.08435124  1
  C  C28  1  0.05656404  0.37487186  0.91768524  1
  C  C29  1  0.31830682  0.37487186  0.41768524  1
  C  C30  1  0.20024404  0.04508592  0.30659718  1
  C  C31  1  0.83231874  0.79207962  0.30482908  1
  C  C32  1  0.95568138  0.15519079  0.30719442  1
  C  C33  1  0.19950941  0.15519079  0.80719442  1
  C  C34  1  0.95976088  0.79207962  0.80482908  1
  C  C35  1  0.84484188  0.04508592  0.80659718  1
  C  C36  1  0.80447565  0.97620672  0.69404374  1
  C  C37  1  0.16764653  0.18886254  0.69456080  1
  C  C38  1  0.02758774  0.82183282  0.69603088  1
  C  C39  1  0.79424508  0.82183282  0.19603088  1
  C  C40  1  0.02121601  0.18886254  0.19456080  1
  C  C41  1  0.17173107  0.97620672  0.19404374  1
  C  C42  1  0.86691104  0.37841892  0.63993018  1
  C  C43  1  0.49898574  0.12541262  0.63816208  1
  C  C44  1  0.62234838  0.48852379  0.64052742  1
  C  C45  1  0.86617641  0.48852379  0.14052742  1
  C  C46  1  0.62642788  0.12541262  0.13816208  1
  C  C47  1  0.51150888  0.37841892  0.13993018  1
  C  C48  1  0.47114265  0.30953972  0.02737674  1
  C  C49  1  0.83431353  0.52219554  0.02789380  1
  C  C50  1  0.69425474  0.15516582  0.02936388  1
  C  C51  1  0.46091208  0.15516582  0.52936388  1
  C  C52  1  0.68788301  0.52219554  0.52789380  1
  C  C53  1  0.83839807  0.30953972  0.52737674  1
  C  C54  1  0.53357704  0.71175292  0.97326418  1
  C  C55  1  0.16565174  0.45874662  0.97149608  1
  C  C56  1  0.28901438  0.82185779  0.97386142  1
  C  C57  1  0.53284241  0.82185779  0.47386142  1
  C  C58  1  0.29309388  0.45874662  0.47149608  1
  C  C59  1  0.17817488  0.71175292  0.47326418  1
  C  C60  1  0.13780865  0.64287372  0.36071074  1
  C  C61  1  0.50097953  0.85552954  0.36122780  1
  C  C62  1  0.36092074  0.48849982  0.36269788  1
  C  C63  1  0.12757808  0.48849982  0.86269788  1
  C  C64  1  0.35454901  0.85552954  0.86122780  1
  C  C65  1  0.50506407  0.64287372  0.86071074  1
  C  C66  1  0.04060787  0.85086311  0.40536165  1
  C  C67  1  0.80794106  0.96342261  0.40602861  1
  C  C68  1  0.16075229  0.19839162  0.40882244  1
  C  C69  1  0.03763933  0.19839162  0.90882244  1
  C  C70  1  0.15548155  0.96342261  0.90602861  1
  C  C71  1  0.81025524  0.85086311  0.90536165  1
  C  C72  1  0.97880213  0.18413270  0.59155464  1
  C  C73  1  0.20451886  0.01855557  0.59150484  1
  C  C74  1  0.82271563  0.79259143  0.59344963  1
  C  C75  1  0.96987580  0.79259143  0.09344963  1
  C  C76  1  0.81403671  0.01855557  0.09150484  1
  C  C77  1  0.20533057  0.18413270  0.09155464  1
  C  C78  1  0.70727487  0.18419611  0.73869465  1
  C  C79  1  0.47460806  0.29675561  0.73936161  1
  C  C80  1  0.82741929  0.53172462  0.74215544  1
  C  C81  1  0.70430633  0.53172462  0.24215544  1
  C  C82  1  0.82214855  0.29675561  0.23936161  1
  C  C83  1  0.47692224  0.18419611  0.23869465  1
  C  C84  1  0.64546913  0.51746570  0.92488764  1
  C  C85  1  0.87118586  0.35188857  0.92483784  1
  C  C86  1  0.48938263  0.12592443  0.92678263  1
  C  C87  1  0.63654280  0.12592443  0.42678263  1
  C  C88  1  0.48070371  0.35188857  0.42483784  1
  C  C89  1  0.87199757  0.51746570  0.42488764  1
  C  C90  1  0.37394087  0.51753011  0.07202865  1
  C  C91  1  0.14127406  0.63008961  0.07269561  1
  C  C92  1  0.49408529  0.86505862  0.07548944  1
  C  C93  1  0.37097233  0.86505862  0.57548944  1
  C  C94  1  0.48881455  0.63008961  0.57269561  1
  C  C95  1  0.14358824  0.51753011  0.57202865  1
  C  C96  1  0.31213513  0.85079970  0.25822164  1
  C  C97  1  0.53785186  0.68522257  0.25817184  1
  C  C98  1  0.15604863  0.45925843  0.26011663  1
  C  C99  1  0.30320880  0.45925843  0.76011663  1
  C  C100  1  0.14736971  0.68522257  0.75817184  1
  C  C101  1  0.53866357  0.85079970  0.75822164  1
