# generated using pymatgen
data_Cu4NiC6
_symmetry_space_group_name_H-M   'P 1'
_cell_length_a   5.55515100
_cell_length_b   6.62941992
_cell_length_c   6.98975598
_cell_angle_alpha   104.34795908
_cell_angle_beta   109.52260664
_cell_angle_gamma   110.09565226
_symmetry_Int_Tables_number   1
_chemical_formula_structural   Cu4NiC6
_chemical_formula_sum   'Cu8 Ni2 C12'
_cell_volume   207.84620851
_cell_formula_units_Z   2
loop_
 _symmetry_equiv_pos_site_id
 _symmetry_equiv_pos_as_xyz
  1  'x, y, z'
loop_
 _atom_site_type_symbol
 _atom_site_label
 _atom_site_symmetry_multiplicity
 _atom_site_fract_x
 _atom_site_fract_y
 _atom_site_fract_z
 _atom_site_occupancy
  C  C0  1  0.55287900  0.76725800  0.99533300  1
  C  C1  1  0.44712100  0.23274200  0.00466700  1
  C  C2  1  0.39727000  0.52806500  0.75953600  1
  C  C3  1  0.60273000  0.47193500  0.24046400  1
  C  C4  1  0.71974100  0.75490300  0.83379500  1
  C  C5  1  0.28025900  0.24509700  0.16620500  1
  C  C6  1  0.62028900  0.18507300  0.76261300  1
  C  C7  1  0.37971100  0.81492700  0.23738700  1
  C  C8  1  0.89041700  0.30694000  0.61498000  1
  C  C9  1  0.10958300  0.69306000  0.38502000  1
  C  C10  1  0.90849700  0.79568700  0.61135300  1
  C  C11  1  0.09150300  0.20431300  0.38864700  1
  Ni  Ni12  1  0.59002000  0.66190200  0.88890600  1
  Ni  Ni13  1  0.40998000  0.33809800  0.11109400  1
  Cu  Cu14  1  0.54220900  0.10722800  0.84970400  1
  Cu  Cu15  1  0.45779100  0.89277200  0.15029600  1
  Cu  Cu16  1  0.71349100  0.30258300  0.63907000  1
  Cu  Cu17  1  0.28650900  0.69741700  0.36093000  1
  Cu  Cu18  1  0.11622000  0.32742500  0.58726900  1
  Cu  Cu19  1  0.88378000  0.67257500  0.41273100  1
  Cu  Cu20  1  0.08025800  0.11437500  0.24239100  1
  Cu  Cu21  1  0.91974200  0.88562500  0.75760900  1
