# generated using pymatgen
data_Cu5(NiC)7
_symmetry_space_group_name_H-M   'P 1'
_cell_length_a   5.25092502
_cell_length_b   7.64485791
_cell_length_c   5.81919908
_cell_angle_alpha   96.53450133
_cell_angle_beta   82.60093066
_cell_angle_gamma   94.25895435
_symmetry_Int_Tables_number   1
_chemical_formula_structural   Cu5(NiC)7
_chemical_formula_sum   'Cu5 Ni7 C7'
_cell_volume   229.72598134
_cell_formula_units_Z   1
loop_
 _symmetry_equiv_pos_site_id
 _symmetry_equiv_pos_as_xyz
  1  'x, y, z'
loop_
 _atom_site_type_symbol
 _atom_site_label
 _atom_site_symmetry_multiplicity
 _atom_site_fract_x
 _atom_site_fract_y
 _atom_site_fract_z
 _atom_site_occupancy
  C  C0  1  0.98726659  0.49690287  0.00422054  1
  C  C1  1  0.51045601  0.98824739  0.49469331  1
  C  C2  1  0.50889173  0.67153938  0.15618945  1
  C  C3  1  0.53001578  0.33334346  0.82485035  1
  C  C4  1  0.93863510  0.69483047  0.61490750  1
  C  C5  1  0.05379864  0.25579554  0.44667034  1
  C  C6  1  0.99518754  0.98724864  0.98797006  1
  Ni  Ni7  1  0.86301444  0.43857416  0.67922817  1
  Ni  Ni8  1  0.84192159  0.74563785  0.94988252  1
  Ni  Ni9  1  0.82834638  0.06760063  0.29351755  1
  Ni  Ni10  1  0.62983198  0.75049252  0.44516158  1
  Ni  Ni11  1  0.62381753  0.44039194  0.12155330  1
  Ni  Ni12  1  0.39560559  0.22706530  0.55072897  1
  Ni  Ni13  1  0.15965082  0.91287660  0.66832331  1
  Cu  Cu14  1  0.69979587  0.09033231  0.81299385  1
  Cu  Cu15  1  0.33136990  0.57892550  0.86631942  1
  Cu  Cu16  1  0.33477507  0.89377939  0.16471807  1
  Cu  Cu17  1  0.12040076  0.57118440  0.30884149  1
  Cu  Cu18  1  0.16110666  0.25523366  0.01399522  1
