# generated using pymatgen
data_Cu2NiC7
_symmetry_space_group_name_H-M   'P 1'
_cell_length_a   8.58444000
_cell_length_b   7.33230100
_cell_length_c   9.19781561
_cell_angle_alpha   66.16746079
_cell_angle_beta   90.00000000
_cell_angle_gamma   90.00000000
_symmetry_Int_Tables_number   1
_chemical_formula_structural   Cu2NiC7
_chemical_formula_sum   'Cu8 Ni4 C28'
_cell_volume   529.57812491
_cell_formula_units_Z   4
loop_
 _symmetry_equiv_pos_site_id
 _symmetry_equiv_pos_as_xyz
  1  'x, y, z'
loop_
 _atom_site_type_symbol
 _atom_site_label
 _atom_site_symmetry_multiplicity
 _atom_site_fract_x
 _atom_site_fract_y
 _atom_site_fract_z
 _atom_site_occupancy
  Ni  Ni0  1  0.91090900  0.74721700  0.62449300  1
  Ni  Ni1  1  0.58909100  0.74721700  0.12449300  1
  Ni  Ni2  1  0.41090900  0.25278300  0.87550700  1
  Ni  Ni3  1  0.08909100  0.25278300  0.37550700  1
  Cu  Cu4  1  0.23670300  0.93399200  0.74822300  1
  Cu  Cu5  1  0.26329700  0.93399200  0.24822300  1
  Cu  Cu6  1  0.76580500  0.44965900  0.97252800  1
  Cu  Cu7  1  0.26580500  0.55034100  0.52747200  1
  Cu  Cu8  1  0.73419500  0.44965900  0.47252800  1
  Cu  Cu9  1  0.23419500  0.55034100  0.02747200  1
  Cu  Cu10  1  0.73670300  0.06600800  0.75177700  1
  Cu  Cu11  1  0.76329700  0.06600800  0.25177700  1
  C  C12  1  0.09339800  0.97979800  0.62141200  1
  C  C13  1  0.73759000  0.88552900  0.70361300  1
  C  C14  1  0.38242700  0.87340000  0.69643700  1
  C  C15  1  0.15994800  0.75189500  0.90106200  1
  C  C16  1  0.40660200  0.97979800  0.12141200  1
  C  C17  1  0.76241000  0.88552900  0.20361300  1
  C  C18  1  0.11757300  0.87340000  0.19643700  1
  C  C19  1  0.34005200  0.75189500  0.40106200  1
  C  C20  1  0.89711300  0.52125800  0.84723600  1
  C  C21  1  0.60956300  0.41578400  0.90936000  1
  C  C22  1  0.74706000  0.59776900  0.55369300  1
  C  C23  1  0.24706000  0.40223100  0.94630700  1
  C  C24  1  0.10956300  0.58421600  0.59064000  1
  C  C25  1  0.39711300  0.47874200  0.65276400  1
  C  C26  1  0.60288700  0.52125800  0.34723600  1
  C  C27  1  0.89043700  0.41578400  0.40936000  1
  C  C28  1  0.75294000  0.59776900  0.05369300  1
  C  C29  1  0.25294000  0.40223100  0.44630700  1
  C  C30  1  0.39043700  0.58421600  0.09064000  1
  C  C31  1  0.10288700  0.47874200  0.15276400  1
  C  C32  1  0.65994800  0.24810500  0.59893800  1
  C  C33  1  0.88242700  0.12660000  0.80356300  1
  C  C34  1  0.23759000  0.11447100  0.79638700  1
  C  C35  1  0.59339800  0.02020200  0.87858800  1
  C  C36  1  0.84005200  0.24810500  0.09893800  1
  C  C37  1  0.61757300  0.12660000  0.30356300  1
  C  C38  1  0.26241000  0.11447100  0.29638700  1
  C  C39  1  0.90660200  0.02020200  0.37858800  1
