# generated using pymatgen
data_Cu2NiC14
_symmetry_space_group_name_H-M   'P 1'
_cell_length_a   5.45070493
_cell_length_b   6.24443811
_cell_length_c   7.90776961
_cell_angle_alpha   69.36804202
_cell_angle_beta   88.32131130
_cell_angle_gamma   64.02907969
_symmetry_Int_Tables_number   1
_chemical_formula_structural   Cu2NiC14
_chemical_formula_sum   'Cu2 Ni1 C14'
_cell_volume   223.94037097
_cell_formula_units_Z   1
loop_
 _symmetry_equiv_pos_site_id
 _symmetry_equiv_pos_as_xyz
  1  'x, y, z'
loop_
 _atom_site_type_symbol
 _atom_site_label
 _atom_site_symmetry_multiplicity
 _atom_site_fract_x
 _atom_site_fract_y
 _atom_site_fract_z
 _atom_site_occupancy
  C  C0  1  0.61631300  0.77311700  0.73252100  1
  C  C1  1  0.61900600  0.74952300  0.21228000  1
  C  C2  1  0.36481100  0.27882200  0.80248900  1
  C  C3  1  0.35327200  0.27617000  0.28471700  1
  Ni  Ni4  1  0.85739800  0.32719100  0.60484200  1
  Cu  Cu5  1  0.00512000  0.95024700  0.45350600  1
  Cu  Cu6  1  0.00162100  0.00647800  0.01339100  1
  C  C7  1  0.73973800  0.87191900  0.94404800  1
  C  C8  1  0.40565400  0.83576200  0.45758000  1
  C  C9  1  0.00547900  0.61219100  0.61572700  1
  C  C10  1  0.69462600  0.37189500  0.83219600  1
  C  C11  1  0.30020500  0.66108500  0.14277000  1
  C  C12  1  0.94504400  0.35632200  0.35518200  1
  C  C13  1  0.62664700  0.15104500  0.55220700  1
  C  C14  1  0.19328600  0.02684900  0.76463000  1
  C  C15  1  0.24827300  0.16362600  0.06803600  1
  C  C16  1  0.78600700  0.01484100  0.23530600  1
