# generated using pymatgen
data_Cu2NiC14
_symmetry_space_group_name_H-M   'P 1'
_cell_length_a   5.80754564
_cell_length_b   7.03808667
_cell_length_c   12.91481682
_cell_angle_alpha   86.94642099
_cell_angle_beta   82.57926913
_cell_angle_gamma   65.61760083
_symmetry_Int_Tables_number   1
_chemical_formula_structural   Cu2NiC14
_chemical_formula_sum   'Cu2 Ni1 C14'
_cell_volume   476.77203833
_cell_formula_units_Z   1
loop_
 _symmetry_equiv_pos_site_id
 _symmetry_equiv_pos_as_xyz
  1  'x, y, z'
loop_
 _atom_site_type_symbol
 _atom_site_label
 _atom_site_symmetry_multiplicity
 _atom_site_fract_x
 _atom_site_fract_y
 _atom_site_fract_z
 _atom_site_occupancy
  C  C0  1  0.40124620  0.27625859  0.94848371  1
  C  C1  1  0.43100449  0.74542614  0.11391650  1
  C  C2  1  0.32158337  0.27641039  0.55158227  1
  C  C3  1  0.82337911  0.74554189  0.38640117  1
  Ni  Ni4  1  0.88507681  0.22878615  0.74985149  1
  C  C5  1  0.62035251  0.75877792  0.74987329  1
  C  C6  1  0.36814992  0.26353546  0.25006452  1
  Cu  Cu7  1  0.16911341  0.66136830  0.75006697  1
  Cu  Cu8  1  0.87809240  0.24364199  0.25002927  1
  C  C9  1  0.86856132  0.51913987  0.86202651  1
  C  C10  1  0.61169967  0.51902634  0.63773801  1
  C  C11  1  0.79706625  0.95978480  0.65856694  1
  C  C12  1  0.24258552  0.96019904  0.84108034  1
  C  C13  1  0.07774994  0.47387618  0.15487617  1
  C  C14  1  0.24334334  0.05834279  0.35506450  1
  C  C15  1  0.44811684  0.47370400  0.34533789  1
  C  C16  1  0.69829590  0.05840215  0.14504045  1
