# generated using pymatgen
data_Cu(NiC3)3
_symmetry_space_group_name_H-M   'P 1'
_cell_length_a   5.25408314
_cell_length_b   5.25407944
_cell_length_c   6.62626883
_cell_angle_alpha   89.91605968
_cell_angle_beta   89.91594388
_cell_angle_gamma   65.80101384
_symmetry_Int_Tables_number   1
_chemical_formula_structural   Cu(NiC3)3
_chemical_formula_sum   'Cu1 Ni3 C9'
_cell_volume   166.84663513
_cell_formula_units_Z   1
loop_
 _symmetry_equiv_pos_site_id
 _symmetry_equiv_pos_as_xyz
  1  'x, y, z'
loop_
 _atom_site_type_symbol
 _atom_site_label
 _atom_site_symmetry_multiplicity
 _atom_site_fract_x
 _atom_site_fract_y
 _atom_site_fract_z
 _atom_site_occupancy
  C  C0  1  0.33640300  0.33640300  0.24762700  1
  Ni  Ni1  1  0.99755800  0.99756200  0.49579200  1
  Ni  Ni2  1  0.65350700  0.65350400  0.27910000  1
  Ni  Ni3  1  0.35725500  0.35725100  0.72863900  1
  Cu  Cu4  1  0.00288700  0.00288700  0.98735100  1
  C  C5  1  0.74441200  0.27507800  0.28398400  1
  C  C6  1  0.27507700  0.74441100  0.28398500  1
  C  C7  1  0.26629200  0.26629000  0.95884500  1
  C  C8  1  0.22708600  0.22708300  0.51586500  1
  C  C9  1  0.77087200  0.77087500  0.47832400  1
  C  C10  1  0.74059500  0.74059500  0.06101300  1
  C  C11  1  0.22329800  0.71726200  0.70547700  1
  C  C12  1  0.71726000  0.22330100  0.70547700  1
