# generated using pymatgen
data_CuNiC11
_symmetry_space_group_name_H-M   'P 1'
_cell_length_a   5.17254253
_cell_length_b   5.22934352
_cell_length_c   10.38715336
_cell_angle_alpha   81.09087341
_cell_angle_beta   81.07911692
_cell_angle_gamma   61.64047809
_symmetry_Int_Tables_number   1
_chemical_formula_structural   CuNiC11
_chemical_formula_sum   'Cu1 Ni1 C11'
_cell_volume   243.18345853
_cell_formula_units_Z   1
loop_
 _symmetry_equiv_pos_site_id
 _symmetry_equiv_pos_as_xyz
  1  'x, y, z'
loop_
 _atom_site_type_symbol
 _atom_site_label
 _atom_site_symmetry_multiplicity
 _atom_site_fract_x
 _atom_site_fract_y
 _atom_site_fract_z
 _atom_site_occupancy
  C  C0  1  0.92524184  0.95136752  0.91795891  1
  Ni  Ni1  1  0.12960788  0.11763199  0.25654945  1
  Cu  Cu2  1  0.99578288  0.99559047  0.52710550  1
  C  C3  1  0.39301717  0.38796658  0.32206601  1
  C  C4  1  0.62292298  0.61927420  0.68748846  1
  C  C5  1  0.72272354  0.30008804  0.66057325  1
  C  C6  1  0.79502698  0.74257833  0.58157317  1
  C  C7  1  0.65810674  0.63389116  0.82843777  1
  C  C8  1  0.28685730  0.80207101  0.66393951  1
  C  C9  1  0.35456503  0.33548721  0.18320720  1
  C  C10  1  0.23210750  0.24106637  0.41790353  1
  C  C11  1  0.72752070  0.24121788  0.34413112  1
  C  C12  1  0.25651946  0.71926923  0.33763714  1
