# generated using pymatgen
data_Cu8Ni8C25
_symmetry_space_group_name_H-M   'P 1'
_cell_length_a   5.57339265
_cell_length_b   11.11087284
_cell_length_c   11.26141886
_cell_angle_alpha   54.05341422
_cell_angle_beta   54.44455936
_cell_angle_gamma   54.44336325
_symmetry_Int_Tables_number   1
_chemical_formula_structural   Cu8Ni8C25
_chemical_formula_sum   'Cu8 Ni8 C25'
_cell_volume   427.68012103
_cell_formula_units_Z   1
loop_
 _symmetry_equiv_pos_site_id
 _symmetry_equiv_pos_as_xyz
  1  'x, y, z'
loop_
 _atom_site_type_symbol
 _atom_site_label
 _atom_site_symmetry_multiplicity
 _atom_site_fract_x
 _atom_site_fract_y
 _atom_site_fract_z
 _atom_site_occupancy
  C  C0  1  0.49550900  0.77025600  0.25669700  1
  Ni  Ni1  1  0.35975700  0.16863500  0.17925000  1
  Ni  Ni2  1  0.15684200  0.07319900  0.57390200  1
  Ni  Ni3  1  0.14184100  0.57659200  0.05907800  1
  Ni  Ni4  1  0.12176800  0.58267700  0.57988900  1
  Ni  Ni5  1  0.84133400  0.41818600  0.44062800  1
  Ni  Ni6  1  0.85619300  0.42784700  0.92816200  1
  Ni  Ni7  1  0.83079800  0.94507500  0.42237900  1
  Ni  Ni8  1  0.82068400  0.95037900  0.91696700  1
  Cu  Cu9  1  0.13355400  0.08097900  0.07018900  1
  Cu  Cu10  1  0.33201100  0.67936700  0.15431900  1
  Cu  Cu11  1  0.34708400  0.18214200  0.67587800  1
  Cu  Cu12  1  0.63902200  0.33657800  0.32173700  1
  Cu  Cu13  1  0.31943300  0.68752800  0.67782300  1
  Cu  Cu14  1  0.63783700  0.33425500  0.82403500  1
  Cu  Cu15  1  0.83165400  0.71743000  0.38746200  1
  Cu  Cu16  1  0.62482300  0.83682400  0.82324300  1
  C  C17  1  0.06233900  0.37743000  0.20957500  1
  C  C18  1  0.43790800  0.04675900  0.37079800  1
  C  C19  1  0.71503200  0.22787100  0.03409800  1
  C  C20  1  0.22221900  0.29355200  0.47185200  1
  C  C21  1  0.54589400  0.47663900  0.11143200  1
  C  C22  1  0.04202800  0.39013900  0.72482400  1
  C  C23  1  0.08113800  0.86782600  0.23307800  1
  C  C24  1  0.94667400  0.12547800  0.28406700  1
  C  C25  1  0.44896800  0.03014500  0.87412600  1
  C  C26  1  0.42812300  0.54269600  0.38129600  1
  C  C27  1  0.76387600  0.23084600  0.52316400  1
  C  C28  1  0.73872700  0.72379600  0.03827400  1
  C  C29  1  0.21766400  0.29034900  0.97459600  1
  C  C30  1  0.21268500  0.78483500  0.47589900  1
  C  C31  1  0.55733200  0.48387700  0.61239000  1
  C  C32  1  0.55899500  0.98312200  0.11135900  1
  C  C33  1  0.03968900  0.89504100  0.71657500  1
  C  C34  1  0.93765400  0.12673300  0.77770000  1
  C  C35  1  0.93121100  0.61269200  0.26876600  1
  C  C36  1  0.42101100  0.53299300  0.88039700  1
  C  C37  1  0.71782200  0.73312800  0.57048800  1
  C  C38  1  0.21203800  0.78455900  0.96494200  1
  C  C39  1  0.54834600  0.98856200  0.61379200  1
  C  C40  1  0.93679300  0.61751300  0.78845700  1
