# generated using pymatgen
data_CuNiC15
_symmetry_space_group_name_H-M   'P 1'
_cell_length_a   8.54307345
_cell_length_b   8.54200893
_cell_length_c   22.12776712
_cell_angle_alpha   89.82308421
_cell_angle_beta   90.18887940
_cell_angle_gamma   119.88758227
_symmetry_Int_Tables_number   1
_chemical_formula_structural   CuNiC15
_chemical_formula_sum   'Cu6 Ni6 C90'
_cell_volume   1400.00722025
_cell_formula_units_Z   6
loop_
 _symmetry_equiv_pos_site_id
 _symmetry_equiv_pos_as_xyz
  1  'x, y, z'
loop_
 _atom_site_type_symbol
 _atom_site_label
 _atom_site_symmetry_multiplicity
 _atom_site_fract_x
 _atom_site_fract_y
 _atom_site_fract_z
 _atom_site_occupancy
  C  C0  1  0.98537455  0.00997844  0.35605608  1
  C  C1  1  0.01119681  0.02446209  0.64432254  1
  C  C2  1  0.01622747  0.02335444  0.14259756  1
  C  C3  1  0.67048019  0.33807741  0.68913502  1
  C  C4  1  0.67609648  0.32276117  0.47682540  1
  C  C5  1  0.33535239  0.67106603  0.30935097  1
  Ni  Ni6  1  0.99176749  0.29455986  0.24804556  1
  Ni  Ni7  1  0.29149690  0.29917325  0.75316547  1
  Ni  Ni8  1  0.96587014  0.34643030  0.58315192  1
  Ni  Ni9  1  0.38995606  0.34717100  0.08231041  1
  Ni  Ni10  1  0.33356641  0.94829495  0.91680023  1
  Ni  Ni11  1  0.61142492  0.94497268  0.41843418  1
  Cu  Cu12  1  0.02245228  0.00452644  0.85524289  1
  Cu  Cu13  1  0.66482582  0.33908362  0.18709149  1
  Cu  Cu14  1  0.64493715  0.31706635  0.97738171  1
  Cu  Cu15  1  0.32848294  0.66542995  0.02091581  1
  Cu  Cu16  1  0.33714654  0.66553917  0.52120405  1
  Cu  Cu17  1  0.33638151  0.67165539  0.81267713  1
  C  C18  1  0.29046084  0.00408559  0.24955722  1
  C  C19  1  0.71337304  0.70993873  0.24888036  1
  C  C20  1  0.00245112  0.71394467  0.75091609  1
  C  C21  1  0.71268831  0.99720111  0.75191601  1
  C  C22  1  0.37880267  0.04149278  0.58279067  1
  C  C23  1  0.66577251  0.62258648  0.58248652  1
  C  C24  1  0.95247047  0.61794588  0.08173550  1
  C  C25  1  0.66345016  0.04445110  0.08264290  1
  C  C26  1  0.62699556  0.66934761  0.91631923  1
  C  C27  1  0.03963986  0.37525256  0.91712769  1
  C  C28  1  0.33512465  0.38032617  0.41705293  1
  C  C29  1  0.04792996  0.66955835  0.41671539  1
  C  C30  1  0.20960138  0.03263508  0.30380650  1
  C  C31  1  0.82572067  0.78882281  0.30390177  1
  C  C32  1  0.96213303  0.16336579  0.30686391  1
  C  C33  1  0.19793672  0.16314768  0.80963061  1
  C  C34  1  0.96065604  0.78825063  0.80604448  1
  C  C35  1  0.82598051  0.03111787  0.80695281  1
  C  C36  1  0.79149945  0.96310980  0.69738719  1
  C  C37  1  0.16336365  0.20109538  0.69326274  1
  C  C38  1  0.03232078  0.82461775  0.69687137  1
  C  C39  1  0.79289530  0.82106495  0.19503543  1
  C  C40  1  0.02958909  0.19500112  0.19136334  1
  C  C41  1  0.17561138  0.96715369  0.19509076  1
  C  C42  1  0.86386039  0.36949151  0.64142585  1
  C  C43  1  0.49116601  0.12333119  0.63700093  1
  C  C44  1  0.63093499  0.50751427  0.63737115  1
  C  C45  1  0.87748669  0.50335938  0.13709478  1
  C  C46  1  0.62928669  0.12297111  0.13709569  1
  C  C47  1  0.50925101  0.37331217  0.14330426  1
  C  C48  1  0.47212307  0.29977913  0.02412004  1
  C  C49  1  0.83931761  0.53710026  0.02696533  1
  C  C50  1  0.70726363  0.16232461  0.02808779  1
  C  C51  1  0.45555703  0.15742793  0.52886130  1
  C  C52  1  0.69403338  0.54016130  0.52872831  1
  C  C53  1  0.83227038  0.30431429  0.52496124  1
  C  C54  1  0.54811501  0.70352619  0.97083364  1
  C  C55  1  0.15735995  0.45071317  0.97153120  1
  C  C56  1  0.29836789  0.82118421  0.97692716  1
  C  C57  1  0.52456790  0.82161807  0.47802082  1
  C  C58  1  0.29300938  0.45383374  0.47185400  1
  C  C59  1  0.15995850  0.70211408  0.47179201  1
  C  C60  1  0.12497889  0.63084586  0.36299228  1
  C  C61  1  0.49176730  0.85637606  0.35853221  1
  C  C62  1  0.36423147  0.49257653  0.36319079  1
  C  C63  1  0.11835598  0.48907799  0.86268938  1
  C  C64  1  0.36878999  0.85728067  0.85678578  1
  C  C65  1  0.50933799  0.62729498  0.86203029  1
  C  C66  1  0.03111468  0.83040748  0.40771226  1
  C  C67  1  0.81178278  0.96860017  0.40872943  1
  C  C68  1  0.17554159  0.19815996  0.40894623  1
  C  C69  1  0.01708248  0.19259435  0.90906659  1
  C  C70  1  0.15333366  0.96677463  0.90899288  1
  C  C71  1  0.80477480  0.83422997  0.90698980  1
  C  C72  1  0.97393758  0.16040390  0.59208423  1
  C  C73  1  0.19650244  0.01884320  0.59113358  1
  C  C74  1  0.82660797  0.80030583  0.59254737  1
  C  C75  1  0.96920485  0.79535194  0.09088536  1
  C  C76  1  0.82225552  0.02138903  0.09065435  1
  C  C77  1  0.19245029  0.16471681  0.09258050  1
  C  C78  1  0.69291816  0.15767261  0.74362272  1
  C  C79  1  0.48393779  0.31279784  0.73772270  1
  C  C80  1  0.84108667  0.53357114  0.74403484  1
  C  C81  1  0.69428520  0.52793671  0.24334127  1
  C  C82  1  0.81319866  0.30941212  0.23614803  1
  C  C83  1  0.47145682  0.16444886  0.24162592  1
  C  C84  1  0.64975961  0.50876642  0.92438501  1
  C  C85  1  0.86173570  0.36296532  0.92648939  1
  C  C86  1  0.51339350  0.14674665  0.92462438  1
  C  C87  1  0.63503171  0.14484505  0.42598874  1
  C  C88  1  0.49620433  0.36474177  0.42581064  1
  C  C89  1  0.86608112  0.51014343  0.42473684  1
  C  C90  1  0.35804805  0.51775691  0.07041128  1
  C  C91  1  0.13419286  0.63568341  0.07555292  1
  C  C92  1  0.50174178  0.86455467  0.07503361  1
  C  C93  1  0.36127996  0.86210661  0.57555467  1
  C  C94  1  0.50113823  0.63878279  0.57661951  1
  C  C95  1  0.16209000  0.51839832  0.57068791  1
  C  C96  1  0.30813922  0.84120621  0.25648130  1
  C  C97  1  0.53257780  0.68960019  0.25737178  1
  C  C98  1  0.17093226  0.48455897  0.26167895  1
  C  C99  1  0.30970707  0.49588329  0.76379928  1
  C  C100  1  0.16415272  0.69477270  0.75877545  1
  C  C101  1  0.53142780  0.83422589  0.75792422  1
