# generated using pymatgen
data_Cu(NiC4)4
_symmetry_space_group_name_H-M   'P 1'
_cell_length_a   9.16751494
_cell_length_b   9.22762197
_cell_length_c   22.37652039
_cell_angle_alpha   90.13150883
_cell_angle_beta   89.30624452
_cell_angle_gamma   120.06661355
_symmetry_Int_Tables_number   1
_chemical_formula_structural   Cu(NiC4)4
_chemical_formula_sum   'Cu6 Ni24 C96'
_cell_volume   1638.08614508
_cell_formula_units_Z   6
loop_
 _symmetry_equiv_pos_site_id
 _symmetry_equiv_pos_as_xyz
  1  'x, y, z'
loop_
 _atom_site_type_symbol
 _atom_site_label
 _atom_site_symmetry_multiplicity
 _atom_site_fract_x
 _atom_site_fract_y
 _atom_site_fract_z
 _atom_site_occupancy
  Ni  Ni0  1  0.64137797  0.02054622  0.25957140  1
  Ni  Ni1  1  0.35330499  0.34740804  0.25308379  1
  Ni  Ni2  1  -0.00008885  0.62479404  0.24302398  1
  Ni  Ni3  1  0.62705612  0.62467979  0.73407784  1
  Ni  Ni4  1  0.99165184  0.35021430  0.73713390  1
  Ni  Ni5  1  0.38531896  0.02510386  0.75076142  1
  Ni  Ni6  1  0.30638778  0.35053034  0.59170186  1
  Ni  Ni7  1  0.02101426  0.68032185  0.58466500  1
  Ni  Ni8  1  0.66801417  0.95747810  0.57972406  1
  Ni  Ni9  1  0.28737236  0.94658746  0.08096935  1
  Ni  Ni10  1  0.67190198  0.69473479  0.08079259  1
  Ni  Ni11  1  0.03190477  0.34695437  0.09317820  1
  Ni  Ni12  1  0.98276691  0.68892710  0.91640874  1
  Ni  Ni13  1  0.68930800  0.02578876  0.90169146  1
  Ni  Ni14  1  0.32168967  0.27810426  0.90390101  1
  Ni  Ni15  1  0.95426084  0.27815219  0.41521263  1
  Ni  Ni16  1  0.33593890  0.02937092  0.40934644  1
  Ni  Ni17  1  0.69932265  0.68273160  0.42806683  1
  Ni  Ni18  1  0.97745221  0.99666525  0.50204538  1
  Ni  Ni19  1  0.00905682  0.98754674  0.99528537  1
  Ni  Ni20  1  0.64844531  0.31606828  0.82136707  1
  Ni  Ni21  1  0.66565040  0.31207207  0.33051122  1
  Ni  Ni22  1  0.31039708  0.66356638  0.16886289  1
  Ni  Ni23  1  0.33926928  0.65354716  0.66160007  1
  Cu  Cu24  1  0.99222632  0.01155157  0.64842234  1
  Cu  Cu25  1  0.01125323  0.00065280  0.15329707  1
  Cu  Cu26  1  0.66670074  0.33494890  0.98230665  1
  Cu  Cu27  1  0.67692320  0.33176710  0.48663074  1
  Cu  Cu28  1  0.33421650  0.67975743  0.31416533  1
  Cu  Cu29  1  0.34411992  0.67918378  0.81159678  1
  C  C30  1  0.00019456  0.01540529  0.34490907  1
  C  C31  1  0.01422532  0.01525060  0.83646144  1
  C  C32  1  0.67107378  0.33736538  0.68006129  1
  C  C33  1  0.68159439  0.32885273  0.18762027  1
  C  C34  1  0.30381563  0.67469554  0.01234761  1
  C  C35  1  0.35422351  0.66463907  0.52083866  1
  C  C36  1  0.29937207  0.00438896  0.25138833  1
  C  C37  1  0.00276744  0.29981609  0.25022531  1
  C  C38  1  0.30309296  0.30080148  0.75067905  1
  C  C39  1  0.70701571  0.00264878  0.75324795  1
  C  C40  1  0.97062453  0.34083307  0.58376062  1
  C  C41  1  0.67135053  0.62923755  0.58414507  1
  C  C42  1  0.95932418  0.62823574  0.08414101  1
  C  C43  1  0.33035692  0.96840708  0.91816907  1
  C  C44  1  0.63196795  0.96269226  0.41705354  1
  C  C45  1  0.70235324  0.70366667  0.25050485  1
  C  C46  1  0.00184636  0.70683250  0.75309977  1
  C  C47  1  0.36816181  0.03627648  0.58389427  1
  C  C48  1  0.66749367  0.03429821  0.08284992  1
  C  C49  1  0.37026537  0.33486560  0.08341870  1
  C  C50  1  0.62178845  0.66201289  0.92058629  1
  C  C51  1  0.03765946  0.37143445  0.91997208  1
  C  C52  1  0.33526176  0.37084912  0.41621072  1
  C  C53  1  0.03478052  0.66498077  0.41697160  1
  C  C54  1  0.20980102  0.02836350  0.31080178  1
  C  C55  1  0.80572825  0.78165188  0.30364740  1
  C  C56  1  0.96532020  0.18470459  0.30922570  1
  C  C57  1  0.22956170  0.19006923  0.81208897  1
  C  C58  1  0.98072460  0.78454975  0.80846579  1
  C  C59  1  0.81324440  0.02077942  0.81422522  1
  C  C60  1  0.79345983  0.96741290  0.69495143  1
  C  C61  1  0.17939815  0.20533972  0.69408143  1
  C  C62  1  0.02748961  0.81166825  0.69955617  1
  C  C63  1  0.78358149  0.80903723  0.19563618  1
  C  C64  1  0.02580510  0.20697748  0.18978860  1
  C  C65  1  0.18077125  0.96997342  0.19159762  1
  C  C66  1  0.88627614  0.37075027  0.64331304  1
  C  C67  1  0.47073902  0.11275340  0.63760227  1
  C  C68  1  0.63806602  0.51232466  0.64221080  1
  C  C69  1  0.86696223  0.51319842  0.14261229  1
  C  C70  1  0.63810221  0.10880589  0.13687006  1
  C  C71  1  0.46754812  0.35340441  0.13760750  1
  C  C72  1  0.45474947  0.31111398  0.02952639  1
  C  C73  1  0.84431926  0.53718642  0.02410574  1
  C  C74  1  0.68661103  0.13943959  0.02912829  1
  C  C75  1  0.45075866  0.14180214  0.52939034  1
  C  C76  1  0.69015538  0.53678222  0.52282460  1
  C  C77  1  0.84888898  0.30504017  0.52473076  1
  C  C78  1  0.53737390  0.67635094  0.97546589  1
  C  C79  1  0.13878670  0.44823732  0.97457349  1
  C  C80  1  0.30444551  0.86469846  0.98048910  1
  C  C81  1  0.54064654  0.84731064  0.47565839  1
  C  C82  1  0.31250846  0.45087182  0.46994839  1
  C  C83  1  0.13448111  0.68327065  0.47034156  1
  C  C84  1  0.11858532  0.64374915  0.36204645  1
  C  C85  1  0.51559912  0.87161823  0.35712110  1
  C  C86  1  0.35192876  0.47121133  0.36143265  1
  C  C87  1  0.12122060  0.47590255  0.86669507  1
  C  C88  1  0.36149912  0.87169389  0.86209277  1
  C  C89  1  0.51912967  0.64069555  0.86701045  1
  C  C90  1  0.01507039  0.81417544  0.41166357  1
  C  C91  1  0.82116948  0.98017838  0.41289527  1
  C  C92  1  0.18639304  0.19916530  0.41382130  1
  C  C93  1  0.01146649  0.20067063  0.91664016  1
  C  C94  1  0.15969958  0.98385179  0.91349444  1
  C  C95  1  0.79213228  0.81084541  0.91658797  1
  C  C96  1  0.98951722  0.17102708  0.58607934  1
  C  C97  1  0.19979949  0.02218788  0.58818933  1
  C  C98  1  0.84876414  0.81340545  0.58686930  1
  C  C99  1  0.97696043  0.81745224  0.08633473  1
  C  C100  1  0.82639281  0.02653832  0.08580722  1
  C  C101  1  0.19804047  0.18076146  0.08490617  1
  C  C102  1  0.68790885  0.16871258  0.74813428  1
  C  C103  1  0.49286527  0.32688025  0.74511109  1
  C  C104  1  0.85205816  0.53843211  0.74956919  1
  C  C105  1  0.67835292  0.53413712  0.24441373  1
  C  C106  1  0.83902908  0.32678914  0.24786967  1
  C  C107  1  0.48527185  0.17455168  0.24369041  1
  C  C108  1  0.63866349  0.50731478  0.92242475  1
  C  C109  1  0.86745278  0.35945735  0.92414947  1
  C  C110  1  0.50494082  0.15773564  0.92249923  1
  C  C111  1  0.64510944  0.15012422  0.41917304  1
  C  C112  1  0.49189684  0.35860991  0.41853433  1
  C  C113  1  0.86392294  0.50994406  0.41831144  1
  C  C114  1  0.35357732  0.48580457  0.07695624  1
  C  C115  1  0.14854370  0.64447682  0.08218480  1
  C  C116  1  0.52315317  0.86115105  0.07756382  1
  C  C117  1  0.34555004  0.86655990  0.57772513  1
  C  C118  1  0.50841744  0.65766395  0.58266195  1
  C  C119  1  0.15677673  0.51018592  0.57571564  1
  C  C120  1  0.31914325  0.83486129  0.25350711  1
  C  C121  1  0.53299245  0.68939947  0.25439267  1
  C  C122  1  0.17868919  0.48427820  0.25379582  1
  C  C123  1  0.30931762  0.48397324  0.75729063  1
  C  C124  1  0.15587118  0.68941447  0.75689160  1
  C  C125  1  0.51599827  0.83230169  0.75532359  1
