# generated using pymatgen
data_Cu2Ni4C9
_symmetry_space_group_name_H-M   'P 1'
_cell_length_a   5.84992633
_cell_length_b   6.63780217
_cell_length_c   5.84992725
_cell_angle_alpha   57.11645535
_cell_angle_beta   59.92059325
_cell_angle_gamma   57.11645880
_symmetry_Int_Tables_number   1
_chemical_formula_structural   Cu2Ni4C9
_chemical_formula_sum   'Cu2 Ni4 C9'
_cell_volume   153.17989870
_cell_formula_units_Z   1
loop_
 _symmetry_equiv_pos_site_id
 _symmetry_equiv_pos_as_xyz
  1  'x, y, z'
loop_
 _atom_site_type_symbol
 _atom_site_label
 _atom_site_symmetry_multiplicity
 _atom_site_fract_x
 _atom_site_fract_y
 _atom_site_fract_z
 _atom_site_occupancy
  C  C0  1  0.12500000  0.62500000  0.12500000  1
  Ni  Ni1  1  0.91175371  0.12080324  0.91175371  1
  Ni  Ni2  1  0.33824629  0.12919676  0.33824629  1
  Ni  Ni3  1  0.12500000  0.62500000  0.62500000  1
  Ni  Ni4  1  0.62500000  0.62500000  0.12500000  1
  Cu  Cu5  1  0.62500000  0.12500000  0.62500000  1
  Cu  Cu6  1  0.62500000  0.62500000  0.62500000  1
  C  C7  1  0.37764309  0.40683018  0.37764309  1
  C  C8  1  0.39832502  0.39013552  0.87564668  1
  C  C9  1  0.36084562  0.81761017  0.36084562  1
  C  C10  1  0.87564668  0.39013552  0.39832502  1
  C  C11  1  0.37435332  0.85986448  0.85167498  1
  C  C12  1  0.88915438  0.43238983  0.88915438  1
  C  C13  1  0.85167498  0.85986448  0.37435332  1
  C  C14  1  0.87235691  0.84316982  0.87235691  1
