# generated using pymatgen
data_CuNiC9
_symmetry_space_group_name_H-M   'P 1'
_cell_length_a   5.37772847
_cell_length_b   5.37544195
_cell_length_c   4.96481965
_cell_angle_alpha   84.85076823
_cell_angle_beta   95.13317907
_cell_angle_gamma   78.76543436
_symmetry_Int_Tables_number   1
_chemical_formula_structural   CuNiC9
_chemical_formula_sum   'Cu1 Ni1 C9'
_cell_volume   139.36017409
_cell_formula_units_Z   1
loop_
 _symmetry_equiv_pos_site_id
 _symmetry_equiv_pos_as_xyz
  1  'x, y, z'
loop_
 _atom_site_type_symbol
 _atom_site_label
 _atom_site_symmetry_multiplicity
 _atom_site_fract_x
 _atom_site_fract_y
 _atom_site_fract_z
 _atom_site_occupancy
  Ni  Ni0  1  0.50252800  0.50250800  0.99998600  1
  Cu  Cu1  1  0.10854500  0.10868700  0.99999200  1
  C  C2  1  0.24797300  0.66848900  0.56379800  1
  C  C3  1  0.66842000  0.24792900  0.43619700  1
  C  C4  1  0.54648400  0.54655000  0.49999000  1
  C  C5  1  0.84460000  0.32243500  0.22147900  1
  C  C6  1  0.44349800  0.18231500  0.26173800  1
  C  C7  1  0.32247600  0.84466500  0.77851900  1
  C  C8  1  0.18242000  0.44336400  0.73825700  1
  C  C9  1  0.09861300  0.78125500  0.29731900  1
  C  C10  1  0.78117900  0.09853900  0.70272400  1
