# generated using pymatgen
data_Cu2NiC4
_symmetry_space_group_name_H-M   'P 1'
_cell_length_a   3.42804151
_cell_length_b   3.42804151
_cell_length_c   12.80730300
_cell_angle_alpha   90.00046645
_cell_angle_beta   89.99953355
_cell_angle_gamma   119.99979747
_symmetry_Int_Tables_number   1
_chemical_formula_structural   Cu2NiC4
_chemical_formula_sum   'Cu2 Ni1 C4'
_cell_volume   130.34108912
_cell_formula_units_Z   1
loop_
 _symmetry_equiv_pos_site_id
 _symmetry_equiv_pos_as_xyz
  1  'x, y, z'
loop_
 _atom_site_type_symbol
 _atom_site_label
 _atom_site_symmetry_multiplicity
 _atom_site_fract_x
 _atom_site_fract_y
 _atom_site_fract_z
 _atom_site_occupancy
  Ni  Ni0  1  0.00000000  0.00000000  0.00000000  1
  Cu  Cu1  1  0.66665500  0.33334500  0.74435000  1
  Cu  Cu2  1  0.33334500  0.66665500  0.25565000  1
  C  C3  1  0.66667500  0.33332500  0.12508300  1
  C  C4  1  0.33332500  0.66667500  0.87491700  1
  C  C5  1  0.33331100  0.66668900  0.63572000  1
  C  C6  1  0.66668900  0.33331100  0.36428000  1
