# generated using pymatgen
data_Cu3NiC34
_symmetry_space_group_name_H-M   'P 1'
_cell_length_a   8.82994816
_cell_length_b   8.84702802
_cell_length_c   22.40214798
_cell_angle_alpha   89.34499275
_cell_angle_beta   90.63276666
_cell_angle_gamma   120.01137623
_symmetry_Int_Tables_number   1
_chemical_formula_structural   Cu3NiC34
_chemical_formula_sum   'Cu9 Ni3 C102'
_cell_volume   1515.26802380
_cell_formula_units_Z   3
loop_
 _symmetry_equiv_pos_site_id
 _symmetry_equiv_pos_as_xyz
  1  'x, y, z'
loop_
 _atom_site_type_symbol
 _atom_site_label
 _atom_site_symmetry_multiplicity
 _atom_site_fract_x
 _atom_site_fract_y
 _atom_site_fract_z
 _atom_site_occupancy
  C  C0  1  0.63323591  0.00731962  0.24297984  1
  C  C1  1  0.37219248  0.35674563  0.25010436  1
  C  C2  1  0.99455856  0.63972185  0.24895294  1
  C  C3  1  0.99450216  0.36036037  0.75341807  1
  C  C4  1  0.37647780  0.00815762  0.75291503  1
  C  C5  1  0.70470270  0.67552727  0.40955273  1
  C  C6  1  0.00766379  0.01438713  0.49452179  1
  C  C7  1  0.00217576  0.00518117  0.00081327  1
  C  C8  1  0.66072445  0.33372969  0.83443734  1
  C  C9  1  0.65456804  0.32372078  0.32783696  1
  C  C10  1  0.34089401  0.67570639  0.16146497  1
  C  C11  1  0.34608179  0.66544205  0.66887577  1
  Ni  Ni12  1  0.00700737  0.00619990  0.35367595  1
  Ni  Ni13  1  0.66128833  0.33236258  0.68716281  1
  Ni  Ni14  1  0.65458827  0.32290865  0.18240940  1
  Cu  Cu15  1  0.01556493  0.02923843  0.85729077  1
  Cu  Cu16  1  0.99272714  0.01057663  0.65245228  1
  Cu  Cu17  1  0.98639797  0.98162251  0.14742718  1
  Cu  Cu18  1  0.66823697  0.30737473  0.97766660  1
  Cu  Cu19  1  0.65195137  0.31877122  0.47605079  1
  Cu  Cu20  1  0.32891080  0.67467104  0.01896993  1
  Cu  Cu21  1  0.34192613  0.66051986  0.51528884  1
  Cu  Cu22  1  0.35844753  0.68493997  0.31204129  1
  Cu  Cu23  1  0.34196539  0.66854076  0.81768229  1
  C  C24  1  0.28832174  0.00164060  0.25192483  1
  C  C25  1  0.71387424  0.70617831  0.25322340  1
  C  C26  1  0.29667738  0.29880491  0.75106833  1
  C  C27  1  0.70627682  0.99469183  0.75254378  1
  C  C28  1  0.66789016  0.03458777  0.08636169  1
  C  C29  1  0.04783412  0.38628900  0.91786117  1
  C  C30  1  0.32787400  0.95405576  0.91517492  1
  C  C31  1  0.62832436  0.95994220  0.41739153  1
  C  C32  1  0.32402777  0.37055151  0.41570626  1
  C  C33  1  0.00134075  0.28994183  0.25010273  1
  C  C34  1  0.99706799  0.71334417  0.74981331  1
  C  C35  1  0.95726851  0.33577463  0.58365797  1
  C  C36  1  0.37285394  0.03869609  0.58344546  1
  C  C37  1  0.66909426  0.62468990  0.58295021  1
  C  C38  1  0.95575620  0.62141030  0.08288252  1
  C  C39  1  0.37506688  0.33413934  0.08231937  1
  C  C40  1  0.62416656  0.66680661  0.91833378  1
  C  C41  1  0.04468039  0.66259788  0.41845595  1
  C  C42  1  0.20425937  0.04039996  0.30728367  1
  C  C43  1  0.82221991  0.78790817  0.31297827  1
  C  C44  1  0.96557063  0.18206370  0.30366163  1
  C  C45  1  0.19700948  0.16498532  0.80730975  1
  C  C46  1  0.97162706  0.79050778  0.80321153  1
  C  C47  1  0.83978695  0.02342844  0.80720840  1
  C  C48  1  0.80281801  0.96590437  0.69220628  1
  C  C49  1  0.15820302  0.19223598  0.69328688  1
  C  C50  1  0.02835452  0.82741888  0.69512701  1
  C  C51  1  0.80009350  0.83929691  0.19404824  1
  C  C52  1  0.03477523  0.21232160  0.19677993  1
  C  C53  1  0.15748471  0.96478576  0.19214926  1
  C  C54  1  0.88150230  0.35938965  0.63825735  1
  C  C55  1  0.47933310  0.11655276  0.63705280  1
  C  C56  1  0.64189528  0.51756789  0.63561667  1
  C  C57  1  0.88305804  0.52294637  0.13861051  1
  C  C58  1  0.63503694  0.11394251  0.14473798  1
  C  C59  1  0.47699066  0.36376862  0.13821385  1
  C  C60  1  0.46441599  0.31185282  0.03006443  1
  C  C61  1  0.84612023  0.53839239  0.02978747  1
  C  C62  1  0.69385229  0.16354525  0.02663025  1
  C  C63  1  0.46269213  0.15398847  0.52982399  1
  C  C64  1  0.69057011  0.54365717  0.52804004  1
  C  C65  1  0.84584665  0.31132465  0.53050294  1
  C  C66  1  0.54143047  0.69566891  0.97026203  1
  C  C67  1  0.17302867  0.47701103  0.97495206  1
  C  C68  1  0.30649723  0.83095557  0.97290122  1
  C  C69  1  0.51617591  0.83103840  0.47377628  1
  C  C70  1  0.31265077  0.47898777  0.47452469  1
  C  C71  1  0.15484023  0.68327525  0.47202183  1
  C  C72  1  0.11790716  0.63212293  0.36381369  1
  C  C73  1  0.50388348  0.87582602  0.35740820  1
  C  C74  1  0.37175357  0.50544042  0.35884219  1
  C  C75  1  0.13857275  0.50017129  0.85647658  1
  C  C76  1  0.36486895  0.86617674  0.85617136  1
  C  C77  1  0.51143234  0.63830184  0.86281365  1
  C  C78  1  0.02296603  0.81552891  0.41544667  1
  C  C79  1  0.81016549  0.96608593  0.41550994  1
  C  C80  1  0.16129375  0.18162055  0.41621039  1
  C  C81  1  0.02263483  0.18978283  0.91044758  1
  C  C82  1  0.15118120  0.96603881  0.90803286  1
  C  C83  1  0.79670316  0.82289305  0.90950307  1
  C  C84  1  0.97516007  0.17436834  0.58804802  1
  C  C85  1  0.19743824  0.02322399  0.58722735  1
  C  C86  1  0.82701249  0.80283537  0.58770937  1
  C  C87  1  0.97645636  0.80056188  0.08675391  1
  C  C88  1  0.84848038  0.02189271  0.08960754  1
  C  C89  1  0.19910828  0.17517527  0.08768834  1
  C  C90  1  0.69761624  0.17133027  0.74365721  1
  C  C91  1  0.47849588  0.30485446  0.74385941  1
  C  C92  1  0.84753390  0.53598879  0.74116743  1
  C  C93  1  0.68859148  0.51549436  0.24202599  1
  C  C94  1  0.85010757  0.31881316  0.24196112  1
  C  C95  1  0.48647442  0.16186790  0.24499298  1
  C  C96  1  0.63742908  0.50802848  0.92373058  1
  C  C97  1  0.85318897  0.36680087  0.92445398  1
  C  C98  1  0.50006027  0.14973121  0.92428296  1
  C  C99  1  0.64157800  0.15125553  0.42819107  1
  C  C100  1  0.51405161  0.37113868  0.42887426  1
  C  C101  1  0.86456911  0.50359281  0.42660055  1
  C  C102  1  0.35535371  0.49149436  0.07493003  1
  C  C103  1  0.13507342  0.64257307  0.07696163  1
  C  C104  1  0.49722369  0.84032228  0.07215737  1
  C  C105  1  0.35318892  0.86286789  0.57520553  1
  C  C106  1  0.50843619  0.64523925  0.57677134  1
  C  C107  1  0.13551752  0.49194822  0.57640057  1
  C  C108  1  0.29608581  0.81418173  0.25751889  1
  C  C109  1  0.51532596  0.69059303  0.25556637  1
  C  C110  1  0.16230985  0.46752030  0.25640644  1
  C  C111  1  0.29478212  0.48113935  0.75570218  1
  C  C112  1  0.16050973  0.69976518  0.75309635  1
  C  C113  1  0.51008590  0.82438806  0.75620631  1
