# generated using pymatgen
data_Cu9NiC9
_symmetry_space_group_name_H-M   'P 1'
_cell_length_a   8.48483300
_cell_length_b   9.39488400
_cell_length_c   9.55394493
_cell_angle_alpha   75.33497417
_cell_angle_beta   90.00000000
_cell_angle_gamma   90.00000000
_symmetry_Int_Tables_number   1
_chemical_formula_structural   Cu9NiC9
_chemical_formula_sum   'Cu36 Ni4 C36'
_cell_volume   736.77286895
_cell_formula_units_Z   4
loop_
 _symmetry_equiv_pos_site_id
 _symmetry_equiv_pos_as_xyz
  1  'x, y, z'
loop_
 _atom_site_type_symbol
 _atom_site_label
 _atom_site_symmetry_multiplicity
 _atom_site_fract_x
 _atom_site_fract_y
 _atom_site_fract_z
 _atom_site_occupancy
  C  C0  1  0.34528800  0.70318500  0.06664700  1
  C  C1  1  0.84528800  0.29681500  0.43335300  1
  C  C2  1  0.65471200  0.29681500  0.93335300  1
  C  C3  1  0.15471200  0.70318500  0.56664700  1
  C  C4  1  0.94860800  0.83532900  0.30318400  1
  C  C5  1  0.55139200  0.83532900  0.80318400  1
  C  C6  1  0.05139200  0.16467100  0.69681600  1
  C  C7  1  0.44860800  0.16467100  0.19681600  1
  C  C8  1  0.73730000  0.08637200  0.72627400  1
  C  C9  1  0.76270000  0.08637200  0.22627400  1
  C  C10  1  0.26270000  0.91362800  0.27372600  1
  C  C11  1  0.23730000  0.91362800  0.77372600  1
  C  C12  1  0.56451500  0.42723300  0.20397200  1
  C  C13  1  0.06451500  0.57276700  0.29602800  1
  C  C14  1  0.43548500  0.57276700  0.79602800  1
  C  C15  1  0.93548500  0.42723300  0.70397200  1
  C  C16  1  0.65661200  0.77599800  0.39404400  1
  C  C17  1  0.15661200  0.22400200  0.10595600  1
  C  C18  1  0.34338800  0.22400200  0.60595600  1
  C  C19  1  0.84338800  0.77599800  0.89404400  1
  C  C20  1  0.55473200  0.64349300  0.34501900  1
  C  C21  1  0.05473200  0.35650700  0.15498100  1
  C  C22  1  0.44526800  0.35650700  0.65498100  1
  C  C23  1  0.94526800  0.64349300  0.84501900  1
  C  C24  1  0.51259400  0.68529800  0.50389300  1
  C  C25  1  0.01259400  0.31470200  0.99610700  1
  C  C26  1  0.48740600  0.31470200  0.49610700  1
  C  C27  1  0.98740600  0.68529800  0.00389300  1
  C  C28  1  0.31508400  0.40125800  0.51633000  1
  C  C29  1  0.81508400  0.59874200  0.98367000  1
  C  C30  1  0.56547900  0.88575700  0.00372200  1
  C  C31  1  0.06547900  0.11424300  0.49627800  1
  C  C32  1  0.43452100  0.11424300  0.99627800  1
  C  C33  1  0.93452100  0.88575700  0.50372200  1
  C  C34  1  0.68491600  0.59874200  0.48367000  1
  C  C35  1  0.18491600  0.40125800  0.01633000  1
  Ni  Ni36  1  0.89788100  0.67575800  0.93355200  1
  Ni  Ni37  1  0.60211900  0.67575800  0.43355200  1
  Ni  Ni38  1  0.10211900  0.32424200  0.06644800  1
  Ni  Ni39  1  0.39788100  0.32424200  0.56644800  1
  Cu  Cu40  1  0.69797100  0.91708100  0.75899600  1
  Cu  Cu41  1  0.57165500  0.69204600  0.77050600  1
  Cu  Cu42  1  0.92834500  0.69204600  0.27050600  1
  Cu  Cu43  1  0.42834500  0.30795400  0.22949400  1
  Cu  Cu44  1  0.21774100  0.84206300  0.93452700  1
  Cu  Cu45  1  0.71774100  0.15793700  0.56547300  1
  Cu  Cu46  1  0.78225900  0.15793700  0.06547300  1
  Cu  Cu47  1  0.28225900  0.84206300  0.43452700  1
  Cu  Cu48  1  0.13382200  0.84294000  0.67927300  1
  Cu  Cu49  1  0.63382200  0.15706000  0.82072700  1
  Cu  Cu50  1  0.48574700  0.57651200  0.19572100  1
  Cu  Cu51  1  0.36617800  0.84294000  0.17927300  1
  Cu  Cu52  1  0.19797100  0.08291900  0.74100400  1
  Cu  Cu53  1  0.07165500  0.30795400  0.72949400  1
  Cu  Cu54  1  0.80202900  0.91708100  0.25899600  1
  Cu  Cu55  1  0.30202900  0.08291900  0.24100400  1
  Cu  Cu56  1  0.41500800  0.91749200  0.72746400  1
  Cu  Cu57  1  0.91500800  0.08250800  0.77253600  1
  Cu  Cu58  1  0.98574700  0.42348800  0.30427900  1
  Cu  Cu59  1  0.08499200  0.91749200  0.22746400  1
  Cu  Cu60  1  0.96640600  0.80443700  0.46402600  1
  Cu  Cu61  1  0.46640600  0.19556300  0.03597400  1
  Cu  Cu62  1  0.03359400  0.19556300  0.53597400  1
  Cu  Cu63  1  0.53359400  0.80443700  0.96402600  1
  Cu  Cu64  1  0.84390700  0.42258900  0.56597400  1
  Cu  Cu65  1  0.66737100  0.39226200  0.34101500  1
  Cu  Cu66  1  0.16737100  0.60773800  0.15898500  1
  Cu  Cu67  1  0.33262900  0.60773800  0.65898500  1
  Cu  Cu68  1  0.51425300  0.42348800  0.80427900  1
  Cu  Cu69  1  0.01425300  0.57651200  0.69572100  1
  Cu  Cu70  1  0.83262900  0.39226200  0.84101500  1
  Cu  Cu71  1  0.65609300  0.42258900  0.06597400  1
  Cu  Cu72  1  0.15609300  0.57741100  0.43402600  1
  Cu  Cu73  1  0.34390700  0.57741100  0.93402600  1
  Cu  Cu74  1  0.58499200  0.08250800  0.27253600  1
  Cu  Cu75  1  0.86617800  0.15706000  0.32072700  1
