# generated using pymatgen
data_Cu3Ni4C63
_symmetry_space_group_name_H-M   'P 1'
_cell_length_a   17.43941568
_cell_length_b   8.72907428
_cell_length_c   22.64965529
_cell_angle_alpha   89.81808451
_cell_angle_beta   90.54275827
_cell_angle_gamma   120.04329854
_symmetry_Int_Tables_number   1
_chemical_formula_structural   Cu3Ni4C63
_chemical_formula_sum   'Cu9 Ni12 C189'
_cell_volume   2984.57501294
_cell_formula_units_Z   3
loop_
 _symmetry_equiv_pos_site_id
 _symmetry_equiv_pos_as_xyz
  1  'x, y, z'
loop_
 _atom_site_type_symbol
 _atom_site_label
 _atom_site_symmetry_multiplicity
 _atom_site_fract_x
 _atom_site_fract_y
 _atom_site_fract_z
 _atom_site_occupancy
  C  C0  1  0.99514617  0.00617150  0.50008167  1
  C  C1  1  0.49573678  0.98729880  0.00437027  1
  C  C2  1  0.33018829  0.32669653  0.84230191  1
  C  C3  1  0.82585925  0.32924872  0.83502562  1
  C  C4  1  0.32891149  0.32389449  0.33351305  1
  C  C5  1  0.82093222  0.31894739  0.33802754  1
  C  C6  1  0.51141852  0.01335624  0.35812272  1
  C  C7  1  0.00368935  0.99867081  0.86076900  1
  C  C8  1  0.50617365  0.02146775  0.64417822  1
  C  C9  1  0.00539715  0.98914320  0.14478770  1
  C  C10  1  0.33897759  0.33572741  0.68901454  1
  C  C11  1  0.83270264  0.33589351  0.68846887  1
  C  C12  1  0.33399816  0.33165365  0.18995001  1
  C  C13  1  0.83575288  0.33576336  0.19245047  1
  C  C14  1  0.16492737  0.67769078  0.02398200  1
  C  C15  1  0.65913876  0.66187767  0.02479725  1
  C  C16  1  0.15943134  0.65807629  0.52302469  1
  C  C17  1  0.66514178  0.65551242  0.52155472  1
  Ni  Ni18  1  0.00326772  0.00169319  0.34971117  1
  Ni  Ni19  1  0.50376436  0.00580793  0.85069226  1
  Ni  Ni20  1  0.99573413  0.00863531  0.64573536  1
  Ni  Ni21  1  0.49994433  0.96725794  0.15044681  1
  Ni  Ni22  1  0.33290930  0.33127690  0.98286521  1
  Ni  Ni23  1  0.83006214  0.33665892  0.98368211  1
  Ni  Ni24  1  0.33422557  0.32853324  0.47849637  1
  Ni  Ni25  1  0.83426319  0.32413100  0.47668990  1
  Ni  Ni26  1  0.16771218  0.67539817  0.31023779  1
  Ni  Ni27  1  0.66926500  0.65968319  0.31095896  1
  Ni  Ni28  1  0.17181701  0.68678922  0.81790634  1
  Ni  Ni29  1  0.66489806  0.65561334  0.81154653  1
  Cu  Cu30  1  0.14418900  0.99183215  0.25828374  1
  Cu  Cu31  1  0.64219293  0.97515127  0.25004906  1
  Cu  Cu32  1  0.64454215  0.29713411  0.75802322  1
  Cu  Cu33  1  0.47286004  0.33162017  0.57743708  1
  Cu  Cu34  1  0.96778461  0.31191929  0.58093762  1
  Cu  Cu35  1  0.46614728  0.62428393  0.07995966  1
  Cu  Cu36  1  0.97053015  0.61181253  0.07893175  1
  Cu  Cu37  1  0.18234001  0.97436847  0.91563230  1
  Cu  Cu38  1  0.68093664  0.39313017  0.41397068  1
  C  C39  1  0.35148361  0.71786765  0.25122077  1
  C  C40  1  0.85421936  0.72082871  0.25516427  1
  C  C41  1  0.00686648  0.29361461  0.25697969  1
  C  C42  1  0.50668001  0.28998331  0.24851218  1
  C  C43  1  0.14018210  0.29812889  0.75001124  1
  C  C44  1  0.00883394  0.72287901  0.74895979  1
  C  C45  1  0.50456759  0.71745757  0.75708163  1
  C  C46  1  0.35122194  0.98302569  0.75516387  1
  C  C47  1  0.85260335  0.98589032  0.75039078  1
  C  C48  1  0.18523678  0.05215170  0.58223658  1
  C  C49  1  0.69217477  0.05391915  0.57846726  1
  C  C50  1  0.33487014  0.61429664  0.57919983  1
  C  C51  1  0.84260905  0.63458949  0.58302987  1
  C  C52  1  0.34310916  0.05423969  0.08287548  1
  C  C53  1  0.83534327  0.05665315  0.07913435  1
  C  C54  1  0.19179610  0.32937627  0.07873389  1
  C  C55  1  0.68612563  0.31880702  0.08095675  1
  C  C56  1  0.31637730  0.67263120  0.91130038  1
  C  C57  1  0.80464004  0.65020658  0.91580774  1
  C  C58  1  0.01843773  0.38830139  0.91387120  1
  C  C59  1  0.52097318  0.37130394  0.91281930  1
  C  C60  1  0.66703646  0.96063365  0.91325911  1
  C  C61  1  0.30611943  0.95954682  0.41568409  1
  C  C62  1  0.81870922  0.96385955  0.41293340  1
  C  C63  1  0.16772018  0.37336083  0.41398722  1
  C  C64  1  0.01995658  0.66869788  0.41277845  1
  C  C65  1  0.51420791  0.64712059  0.41566757  1
  C  C66  1  0.09448117  0.02894668  0.31107456  1
  C  C67  1  0.60189064  0.02525468  0.30756890  1
  C  C68  1  0.40694740  0.79478737  0.30396335  1
  C  C69  1  0.91144801  0.80665272  0.30693739  1
  C  C70  1  0.48558407  0.17774124  0.30203526  1
  C  C71  1  0.98672496  0.17260258  0.30773073  1
  C  C72  1  0.10205602  0.18376494  0.80284895  1
  C  C73  1  0.59389569  0.15912083  0.81054953  1
  C  C74  1  0.48516770  0.79871182  0.80751251  1
  C  C75  1  0.99136054  0.80114864  0.80198128  1
  C  C76  1  0.40959523  0.01687242  0.80669962  1
  C  C77  1  0.90969768  0.02102875  0.80304269  1
  C  C78  1  0.39017205  0.96196649  0.70024026  1
  C  C79  1  0.89497371  0.96010111  0.69757802  1
  C  C80  1  0.08537873  0.20787741  0.69684343  1
  C  C81  1  0.58829962  0.20704866  0.69581108  1
  C  C82  1  0.01808987  0.83125845  0.69620318  1
  C  C83  1  0.51406534  0.81107677  0.70129053  1
  C  C84  1  0.39157368  0.82546048  0.19744905  1
  C  C85  1  0.89314143  0.82239860  0.20024325  1
  C  C86  1  0.01648680  0.21818788  0.20142687  1
  C  C87  1  0.51288545  0.20034206  0.19546186  1
  C  C88  1  0.08837935  0.96911269  0.19579308  1
  C  C89  1  0.58159072  0.95956073  0.19282087  1
  C  C90  1  0.43043556  0.35622476  0.63987718  1
  C  C91  1  0.93084696  0.35410351  0.64083118  1
  C  C92  1  0.24039733  0.12990403  0.63630795  1
  C  C93  1  0.74164984  0.13187632  0.63444069  1
  C  C94  1  0.31676064  0.50530212  0.63402761  1
  C  C95  1  0.82183834  0.52264299  0.63687780  1
  C  C96  1  0.42898453  0.50697655  0.13929494  1
  C  C97  1  0.92864192  0.50079375  0.13922870  1
  C  C98  1  0.32104217  0.12359481  0.13578932  1
  C  C99  1  0.81638775  0.12637199  0.13295419  1
  C  C100  1  0.24159702  0.35210773  0.13416103  1
  C  C101  1  0.74076260  0.35170672  0.13445643  1
  C  C102  1  0.23199810  0.29575153  0.02725130  1
  C  C103  1  0.72690149  0.29008960  0.02736880  1
  C  C104  1  0.40927366  0.52316901  0.02147898  1
  C  C105  1  0.91095105  0.51742998  0.02136836  1
  C  C106  1  0.35207414  0.16065922  0.02970268  1
  C  C107  1  0.84224714  0.15991552  0.02529739  1
  C  C108  1  0.22440507  0.16303447  0.52934608  1
  C  C109  1  0.73269985  0.16838851  0.52723921  1
  C  C110  1  0.34211330  0.52414464  0.52654506  1
  C  C111  1  0.85468524  0.55101302  0.53089264  1
  C  C112  1  0.40828199  0.30384313  0.52326203  1
  C  C113  1  0.90875329  0.29562748  0.52344651  1
  C  C114  1  0.27969271  0.70390174  0.96528406  1
  C  C115  1  0.76855786  0.68283284  0.96933248  1
  C  C116  1  0.07301447  0.45805585  0.96761006  1
  C  C117  1  0.57670392  0.44626269  0.96727284  1
  C  C118  1  0.15891717  0.84865822  0.97304396  1
  C  C119  1  0.65405916  0.85213068  0.96706130  1
  C  C120  1  0.26748442  0.85525436  0.46998613  1
  C  C121  1  0.78246168  0.86193699  0.46802984  1
  C  C122  1  0.15470221  0.45590997  0.46796091  1
  C  C123  1  0.66337908  0.47594980  0.47357075  1
  C  C124  1  0.07564475  0.70505747  0.46784255  1
  C  C125  1  0.56954285  0.68422746  0.46969188  1
  C  C126  1  0.06489397  0.63942010  0.36305020  1
  C  C127  1  0.55588581  0.62016385  0.36418978  1
  C  C128  1  0.24932611  0.86709619  0.36391433  1
  C  C129  1  0.76082635  0.87879887  0.36164151  1
  C  C130  1  0.18306125  0.48875799  0.36251729  1
  C  C131  1  0.68781145  0.51461681  0.35784048  1
  C  C132  1  0.06340996  0.49925350  0.86147726  1
  C  C133  1  0.56585382  0.49090305  0.86249139  1
  C  C134  1  0.19080768  0.87504214  0.85802102  1
  C  C135  1  0.68219139  0.87593155  0.86150837  1
  C  C136  1  0.25607756  0.64066334  0.85930317  1
  C  C137  1  0.75034332  0.63411364  0.86324992  1
  C  C138  1  0.00843730  0.82618200  0.40625276  1
  C  C139  1  0.49972722  0.79947383  0.40987371  1
  C  C140  1  0.39479960  0.98474175  0.40877191  1
  C  C141  1  0.90983140  0.98551677  0.40532437  1
  C  C142  1  0.08675570  0.19656379  0.40872912  1
  C  C143  1  0.59056248  0.20000750  0.41049730  1
  C  C144  1  0.00627046  0.20790447  0.90581422  1
  C  C145  1  0.50966321  0.19090266  0.90568375  1
  C  C146  1  0.09368121  0.99412186  0.90687733  1
  C  C147  1  0.58549710  0.97430290  0.90758327  1
  C  C148  1  0.40639016  0.83424618  0.90236064  1
  C  C149  1  0.89524114  0.80441370  0.90819045  1
  C  C150  1  0.47907291  0.15385502  0.58753697  1
  C  C151  1  0.98196636  0.14272497  0.59224310  1
  C  C152  1  0.09609794  0.02790949  0.59195741  1
  C  C153  1  0.60166934  0.02493948  0.58579202  1
  C  C154  1  0.41542256  0.78355736  0.58825926  1
  C  C155  1  0.92540575  0.80651137  0.59430511  1
  C  C156  1  0.47776630  0.81946408  0.08934067  1
  C  C157  1  0.97969039  0.80573587  0.08700147  1
  C  C158  1  0.42480268  0.04737104  0.09212195  1
  C  C159  1  0.91594835  0.04777884  0.08685203  1
  C  C160  1  0.10133432  0.17833203  0.08526399  1
  C  C161  1  0.59695043  0.16671641  0.08740837  1
  C  C162  1  0.33988005  0.14376166  0.74964497  1
  C  C163  1  0.84371019  0.14644222  0.74413842  1
  C  C164  1  0.23034948  0.31800794  0.74364575  1
  C  C165  1  0.74276353  0.31497816  0.75022534  1
  C  C166  1  0.42348431  0.53340013  0.75202681  1
  C  C167  1  0.92827749  0.54368060  0.74459115  1
  C  C168  1  0.34184914  0.53829486  0.24458849  1
  C  C169  1  0.84672582  0.54209243  0.25005834  1
  C  C170  1  0.42748180  0.31609307  0.24438625  1
  C  C171  1  0.92769148  0.31807477  0.25184577  1
  C  C172  1  0.24201824  0.17011922  0.24983833  1
  C  C173  1  0.74113075  0.15474868  0.24350848  1
  C  C174  1  0.32542361  0.51371768  0.91693502  1
  C  C175  1  0.81102493  0.48649126  0.92128014  1
  C  C176  1  0.43439982  0.35859787  0.92041823  1
  C  C177  1  0.92860150  0.36599520  0.91967302  1
  C  C178  1  0.26606857  0.17010382  0.92767306  1
  C  C179  1  0.74711810  0.14046347  0.92221289  1
  C  C180  1  0.31084531  0.13593910  0.42157060  1
  C  C181  1  0.82802197  0.14321012  0.41974987  1
  C  C182  1  0.24781617  0.35406670  0.42352168  1
  C  C183  1  0.76538794  0.36430394  0.42634829  1
  C  C184  1  0.42357054  0.48663486  0.42316130  1
  C  C185  1  0.93358625  0.50753114  0.42148324  1
  C  C186  1  0.18760097  0.49158438  0.07099886  1
  C  C187  1  0.68106096  0.48299025  0.07232552  1
  C  C188  1  0.06899752  0.63437369  0.07542325  1
  C  C189  1  0.56606481  0.64861669  0.07050311  1
  C  C190  1  0.26743892  0.87164576  0.07573202  1
  C  C191  1  0.75858759  0.87477053  0.07130231  1
  C  C192  1  0.17877621  0.87726431  0.57489403  1
  C  C193  1  0.68748448  0.88311343  0.57264684  1
  C  C194  1  0.25787089  0.64129876  0.57277634  1
  C  C195  1  0.76832044  0.66882816  0.57678124  1
  C  C196  1  0.06728545  0.48655535  0.57113308  1
  C  C197  1  0.57008972  0.50505221  0.57571922  1
  C  C198  1  0.15316555  0.81969308  0.26609380  1
  C  C199  1  0.65134007  0.80638113  0.26693799  1
  C  C200  1  0.26255872  0.69384987  0.26039031  1
  C  C201  1  0.76615640  0.69865240  0.26066050  1
  C  C202  1  0.08632109  0.46605616  0.26780237  1
  C  C203  1  0.58606057  0.46261879  0.25744876  1
  C  C204  1  0.14844379  0.47182932  0.76006253  1
  C  C205  1  0.65369053  0.48759582  0.76593402  1
  C  C206  1  0.08726548  0.70429496  0.75855016  1
  C  C207  1  0.58318179  0.70048285  0.76751033  1
  C  C208  1  0.26354532  0.82432442  0.76163978  1
  C  C209  1  0.76453915  0.83161067  0.76021432  1
