# generated using pymatgen
data_Cu5(NiC10)7
_symmetry_space_group_name_H-M   'P 1'
_cell_length_a   18.51772737
_cell_length_b   9.27456958
_cell_length_c   22.68447441
_cell_angle_alpha   89.91572935
_cell_angle_beta   89.69366606
_cell_angle_gamma   120.10371553
_symmetry_Int_Tables_number   1
_chemical_formula_structural   Cu5(NiC10)7
_chemical_formula_sum   'Cu15 Ni21 C210'
_cell_volume   3370.34810691
_cell_formula_units_Z   3
loop_
 _symmetry_equiv_pos_site_id
 _symmetry_equiv_pos_as_xyz
  1  'x, y, z'
loop_
 _atom_site_type_symbol
 _atom_site_label
 _atom_site_symmetry_multiplicity
 _atom_site_fract_x
 _atom_site_fract_y
 _atom_site_fract_z
 _atom_site_occupancy
  C  C0  1  0.81070393  0.98760149  0.23822326  1
  C  C1  1  0.18745032  0.36365886  0.25968668  1
  C  C2  1  0.68996850  0.36707972  0.25700375  1
  C  C3  1  0.99818117  0.64722214  0.23895589  1
  C  C4  1  0.50068108  0.64927459  0.24094175  1
  C  C5  1  0.31041631  0.63452090  0.75390108  1
  C  C6  1  0.99806189  0.34901709  0.74734658  1
  C  C7  1  0.50122290  0.35390883  0.74796138  1
  C  C8  1  0.18684498  0.00885363  0.76310624  1
  C  C9  1  0.68984360  0.01459973  0.76454531  1
  C  C10  1  0.14113225  0.33228244  0.58263136  1
  C  C11  1  0.64297659  0.33461031  0.58459683  1
  C  C12  1  0.33939348  0.97588774  0.57851803  1
  C  C13  1  0.83946116  0.97726292  0.58245233  1
  C  C14  1  0.14129272  0.95128063  0.08578127  1
  C  C15  1  0.65213926  0.95460461  0.08732602  1
  C  C16  1  0.33947809  0.70018841  0.08246261  1
  C  C17  1  0.83854643  0.71531846  0.07834051  1
  C  C18  1  0.48780382  0.68573790  0.92925919  1
  C  C19  1  0.98112668  0.68179447  0.93073645  1
  C  C20  1  0.34371597  0.01779970  0.91185755  1
  C  C21  1  0.84106978  0.01775702  0.92166258  1
  C  C22  1  0.17103384  0.29793875  0.90657431  1
  C  C23  1  0.67617311  0.30530356  0.90668324  1
  C  C24  1  0.48308843  0.28241015  0.42292251  1
  C  C25  1  0.98355044  0.28276073  0.42270034  1
  C  C26  1  0.17304993  0.04213814  0.40018987  1
  C  C27  1  0.67319299  0.04542287  0.40149167  1
  C  C28  1  0.34086373  0.66590936  0.40452468  1
  C  C29  1  0.84257276  0.66802673  0.40657564  1
  C  C30  1  0.99817347  0.01569236  0.49589573  1
  C  C31  1  0.49924124  0.01619655  0.49604152  1
  C  C32  1  0.98903812  0.98376917  0.00316962  1
  C  C33  1  0.50219904  0.98391997  0.99822277  1
  C  C34  1  0.32292864  0.32217977  0.83532899  1
  C  C35  1  0.81979691  0.33233072  0.83427677  1
  C  C36  1  0.32068315  0.30813877  0.32745230  1
  C  C37  1  0.82273310  0.32375891  0.32874626  1
  C  C38  1  0.16498152  0.67915614  0.17116366  1
  C  C39  1  0.66679672  0.67995893  0.16336847  1
  C  C40  1  0.15693269  0.65092070  0.67025173  1
  C  C41  1  0.66897014  0.65406537  0.67409072  1
  C  C42  1  -0.00003507  0.99609130  0.34748527  1
  C  C43  1  0.49818179  0.99872133  0.34752535  1
  C  C44  1  0.99883296  0.99784731  0.84792347  1
  C  C45  1  0.50110074  0.00408322  0.84865597  1
  C  C46  1  0.99795445  0.01743516  0.65443216  1
  C  C47  1  0.49973522  0.02054601  0.65382268  1
  C  C48  1  0.99470477  0.98431896  0.14879916  1
  C  C49  1  0.49957588  0.98064948  0.15346041  1
  C  C50  1  0.33599558  0.32850982  0.68395575  1
  C  C51  1  0.83602870  0.33318702  0.68519296  1
  C  C52  1  0.33546903  0.33787291  0.18480750  1
  C  C53  1  0.83582813  0.33557853  0.18090994  1
  C  C54  1  0.33397186  0.33823166  0.98335541  1
  C  C55  1  0.83371499  0.32761507  0.98676401  1
  C  C56  1  0.33240851  0.32842689  0.48333204  1
  C  C57  1  0.83298652  0.32785827  0.48351081  1
  C  C58  1  0.16467900  0.67319599  0.01430697  1
  C  C59  1  0.67089122  0.68775732  0.01726163  1
  C  C60  1  0.16471917  0.65489632  0.51324301  1
  C  C61  1  0.66523670  0.65516202  0.51428333  1
  C  C62  1  0.18166750  0.68891709  0.31397494  1
  C  C63  1  0.67555384  0.67488899  0.31797127  1
  C  C64  1  0.17495249  0.67588866  0.81874525  1
  C  C65  1  0.68471885  0.67647092  0.81715025  1
  Ni  Ni66  1  0.14957834  0.99968454  0.24795860  1
  Ni  Ni67  1  0.65198693  0.99938996  0.25172701  1
  Ni  Ni68  1  0.34861005  0.69578265  0.24885736  1
  Ni  Ni69  1  0.84889677  0.69454868  0.25133666  1
  Ni  Ni70  1  0.15247273  0.30497326  0.74854278  1
  Ni  Ni71  1  0.65309876  0.30750014  0.74851107  1
  Ni  Ni72  1  0.34847149  0.99747013  0.74938071  1
  Ni  Ni73  1  0.84855774  0.00061524  0.74788447  1
  Ni  Ni74  1  0.48550592  0.34056550  0.58313015  1
  Ni  Ni75  1  0.98532997  0.34103090  0.58324293  1
  Ni  Ni76  1  0.48401170  0.63082473  0.08316108  1
  Ni  Ni77  1  0.98733365  0.63086026  0.08305874  1
  Ni  Ni78  1  0.83676059  0.03600790  0.08391858  1
  Ni  Ni79  1  0.31692003  0.66548245  0.91808104  1
  Ni  Ni80  1  0.81712796  0.65996542  0.92105313  1
  Ni  Ni81  1  0.16593554  0.97063416  0.91644784  1
  Ni  Ni82  1  0.66451955  0.96651561  0.91415570  1
  Ni  Ni83  1  0.31562541  0.96635361  0.42225750  1
  Ni  Ni84  1  0.81659793  0.96720852  0.41972102  1
  Ni  Ni85  1  0.16604922  0.36368183  0.41672460  1
  Ni  Ni86  1  0.66520830  0.36039710  0.41790398  1
  Cu  Cu87  1  0.00042395  0.29859917  0.25244364  1
  Cu  Cu88  1  0.50023552  0.29684492  0.25083309  1
  Cu  Cu89  1  0.00109382  0.70540151  0.74920807  1
  Cu  Cu90  1  0.49848772  0.70491207  0.74842074  1
  Cu  Cu91  1  0.17908975  0.02852196  0.58454336  1
  Cu  Cu92  1  0.67972894  0.02911714  0.58382589  1
  Cu  Cu93  1  0.33611004  0.63380724  0.58409728  1
  Cu  Cu94  1  0.83635154  0.63293451  0.58255299  1
  Cu  Cu95  1  0.33626051  0.03897380  0.08228750  1
  Cu  Cu96  1  0.18342079  0.33566934  0.08292093  1
  Cu  Cu97  1  0.67727785  0.32806385  0.08448665  1
  Cu  Cu98  1  0.01961553  0.37232829  0.91352775  1
  Cu  Cu99  1  0.52013094  0.37511108  0.91586790  1
  Cu  Cu100  1  0.01881836  0.66692756  0.41647381  1
  Cu  Cu101  1  0.51834733  0.66690105  0.41676862  1
  C  C102  1  0.11230786  0.04106679  0.30796201  1
  C  C103  1  0.61002599  0.03624495  0.30960767  1
  C  C104  1  0.40266155  0.78560405  0.30855068  1
  C  C105  1  0.90345090  0.77456825  0.31193394  1
  C  C106  1  0.49031452  0.20836043  0.30775125  1
  C  C107  1  0.98919394  0.20374916  0.30830657  1
  C  C108  1  0.11193403  0.17957032  0.80542256  1
  C  C109  1  0.61080556  0.18199207  0.80553248  1
  C  C110  1  0.48638489  0.77720081  0.80371629  1
  C  C111  1  0.99295298  0.77731338  0.80559263  1
  C  C112  1  0.40639730  0.02480137  0.80730292  1
  C  C113  1  0.90797025  0.02486368  0.80467841  1
  C  C114  1  0.38565382  0.95484877  0.68998968  1
  C  C115  1  0.88469383  0.96841937  0.68589187  1
  C  C116  1  0.10154169  0.22538913  0.68700707  1
  C  C117  1  0.60014906  0.23099609  0.68673849  1
  C  C118  1  0.01160696  0.81375398  0.69797572  1
  C  C119  1  0.50991337  0.81316662  0.69678088  1
  C  C120  1  0.38817006  0.80554559  0.18868378  1
  C  C121  1  0.88976116  0.81883878  0.19510359  1
  C  C122  1  0.01306918  0.21371296  0.20138703  1
  C  C123  1  0.51007259  0.20738567  0.20034001  1
  C  C124  1  0.09415129  0.97933270  0.18921572  1
  C  C125  1  0.59833712  0.97421241  0.19144019  1
  C  C126  1  0.44223390  0.35477358  0.64438155  1
  C  C127  1  0.94168199  0.35710148  0.64369219  1
  C  C128  1  0.23150004  0.11122306  0.63770042  1
  C  C129  1  0.73243805  0.11286109  0.63600292  1
  C  C130  1  0.32613354  0.52998787  0.63709857  1
  C  C131  1  0.82463951  0.52268516  0.63310317  1
  C  C132  1  0.43910319  0.52729119  0.14369145  1
  C  C133  1  0.94414462  0.53441788  0.14481837  1
  C  C134  1  0.32403290  0.12583156  0.13288534  1
  C  C135  1  0.81948887  0.12023487  0.14190833  1
  C  C136  1  0.23659925  0.35900719  0.13521278  1
  C  C137  1  0.72893122  0.35179871  0.13790870  1
  C  C138  1  0.22018597  0.30378695  0.02884788  1
  C  C139  1  0.71575966  0.29869379  0.03112211  1
  C  C140  1  0.42469127  0.54621584  0.02504525  1
  C  C141  1  0.93049123  0.54289102  0.02484343  1
  C  C142  1  0.34099503  0.12565313  0.02566110  1
  C  C143  1  0.84128944  0.13002232  0.02149864  1
  C  C144  1  0.21739870  0.13661905  0.53119621  1
  C  C145  1  0.71637378  0.13572992  0.52975566  1
  C  C146  1  0.34012330  0.55044275  0.52915958  1
  C  C147  1  0.84084761  0.55541668  0.52588757  1
  C  C148  1  0.42715642  0.31264456  0.52523946  1
  C  C149  1  0.92807269  0.31223165  0.52451558  1
  C  C150  1  0.27131400  0.68971087  0.97689054  1
  C  C151  1  0.77607649  0.69050381  0.98077974  1
  C  C152  1  0.07247281  0.45337682  0.96561899  1
  C  C153  1  0.57191015  0.46030693  0.96773489  1
  C  C154  1  0.14686173  0.85442276  0.97508567  1
  C  C155  1  0.64187382  0.84821923  0.97282375  1
  C  C156  1  0.27663553  0.86001698  0.48446176  1
  C  C157  1  0.77402466  0.85587447  0.48031755  1
  C  C158  1  0.14597258  0.43301140  0.47786638  1
  C  C159  1  0.64493535  0.43290215  0.47784673  1
  C  C160  1  0.06969386  0.68991558  0.46967797  1
  C  C161  1  0.57036979  0.69015071  0.46906025  1
  C  C162  1  0.05685207  0.64177740  0.36265804  1
  C  C163  1  0.55571019  0.64075348  0.36235691  1
  C  C164  1  0.24748645  0.88284105  0.36992888  1
  C  C165  1  0.75547797  0.88896194  0.36295178  1
  C  C166  1  0.18044292  0.48420338  0.35973519  1
  C  C167  1  0.67906017  0.47625671  0.35963302  1
  C  C168  1  0.05864705  0.47039797  0.85872070  1
  C  C169  1  0.55559489  0.46960041  0.86060118  1
  C  C170  1  0.18140870  0.88794879  0.85698797  1
  C  C171  1  0.67545183  0.87497082  0.85553940  1
  C  C172  1  0.25918064  0.62368822  0.85892427  1
  C  C173  1  0.75225048  0.60212364  0.86598419  1
  C  C174  1  0.01086417  0.81871708  0.41351795  1
  C  C175  1  0.51018755  0.81795882  0.41322610  1
  C  C176  1  0.40630484  0.97389281  0.41454918  1
  C  C177  1  0.90817595  0.97754622  0.41412242  1
  C  C178  1  0.08542378  0.17310770  0.41210866  1
  C  C179  1  0.58380332  0.17085219  0.41311162  1
  C  C180  1  0.01141600  0.20419726  0.91076188  1
  C  C181  1  0.51128253  0.20523341  0.91439659  1
  C  C182  1  0.08544963  0.99946169  0.91205407  1
  C  C183  1  0.58322774  0.99525180  0.91135389  1
  C  C184  1  0.40795051  0.83986570  0.91420612  1
  C  C185  1  0.90776657  0.83566064  0.91322354  1
  C  C186  1  0.49153117  0.16503314  0.58260627  1
  C  C187  1  0.99299795  0.16737842  0.58297961  1
  C  C188  1  0.09479247  0.00626190  0.58999227  1
  C  C189  1  0.59473974  0.00638918  0.58960680  1
  C  C190  1  0.41212045  0.80106110  0.58620797  1
  C  C191  1  0.91230352  0.79972703  0.58623973  1
  C  C192  1  0.49199634  0.81967397  0.08298121  1
  C  C193  1  0.99793019  0.82038905  0.08178256  1
  C  C194  1  0.41239894  0.02550415  0.08658739  1
  C  C195  1  0.92009135  0.01664378  0.08616398  1
  C  C196  1  0.09943312  0.18858792  0.08907894  1
  C  C197  1  0.59298521  0.17621760  0.09015304  1
  C  C198  1  0.34255530  0.16968798  0.74798914  1
  C  C199  1  0.84645635  0.17764108  0.74856989  1
  C  C200  1  0.24928073  0.33849066  0.74381906  1
  C  C201  1  0.74536136  0.32340021  0.74329107  1
  C  C202  1  0.42013192  0.53908971  0.74399623  1
  C  C203  1  0.92681162  0.53631239  0.74502060  1
  C  C204  1  0.34669874  0.51469054  0.24956570  1
  C  C205  1  0.84268264  0.51073557  0.24653399  1
  C  C206  1  0.42567169  0.31757362  0.24596730  1
  C  C207  1  0.92395973  0.31143836  0.24758092  1
  C  C208  1  0.24317263  0.16666243  0.24234752  1
  C  C209  1  0.74659611  0.16238902  0.24782167  1
  C  C210  1  0.33049524  0.50298167  0.92026955  1
  C  C211  1  0.83347755  0.50099091  0.92510167  1
  C  C212  1  0.43392393  0.35094107  0.92104203  1
  C  C213  1  0.93622548  0.35574218  0.91766582  1
  C  C214  1  0.25447314  0.15258049  0.92150233  1
  C  C215  1  0.75101054  0.15008453  0.91848691  1
  C  C216  1  0.33267528  0.15897045  0.42225771  1
  C  C217  1  0.83108897  0.15778918  0.42142167  1
  C  C218  1  0.25440689  0.35749083  0.42145649  1
  C  C219  1  0.75351627  0.35523174  0.42225568  1
  C  C220  1  0.43339062  0.51798212  0.42203706  1
  C  C221  1  0.93343194  0.51834225  0.42166789  1
  C  C222  1  0.18083628  0.49263435  0.07756462  1
  C  C223  1  0.67053012  0.47960292  0.07861037  1
  C  C224  1  0.08315561  0.65650906  0.08184329  1
  C  C225  1  0.57790225  0.65672481  0.08062974  1
  C  C226  1  0.26068049  0.86717671  0.08251091  1
  C  C227  1  0.75326450  0.84584623  0.08478181  1
  C  C228  1  0.17691582  0.86639392  0.57924069  1
  C  C229  1  0.67704552  0.86661710  0.57826016  1
  C  C230  1  0.25990832  0.65172316  0.58406113  1
  C  C231  1  0.76032380  0.65265933  0.58287868  1
  C  C232  1  0.08138442  0.50394301  0.58109328  1
  C  C233  1  0.58133155  0.50231495  0.58106456  1
  C  C234  1  0.14646366  0.81906867  0.25341665  1
  C  C235  1  0.65304596  0.82239126  0.25619037  1
  C  C236  1  0.25089212  0.65211166  0.24863767  1
  C  C237  1  0.75332886  0.66407512  0.25259865  1
  C  C238  1  0.07454688  0.46891593  0.25555262  1
  C  C239  1  0.57609521  0.46611654  0.25229136  1
  C  C240  1  0.15314052  0.48306079  0.75454970  1
  C  C241  1  0.64927998  0.48007747  0.75540358  1
  C  C242  1  0.07723167  0.68797737  0.75075010  1
  C  C243  1  0.57087733  0.67965978  0.75147056  1
  C  C244  1  0.25336803  0.83677865  0.75142000  1
  C  C245  1  0.75124027  0.84868786  0.74974419  1
