# generated using pymatgen
data_Cu10Ni14C13
_symmetry_space_group_name_H-M   'P 1'
_cell_length_a   4.81351304
_cell_length_b   5.71393914
_cell_length_c   15.36739017
_cell_angle_alpha   89.39599053
_cell_angle_beta   89.40514140
_cell_angle_gamma   89.32978559
_symmetry_Int_Tables_number   1
_chemical_formula_structural   Cu10Ni14C13
_chemical_formula_sum   'Cu10 Ni14 C13'
_cell_volume   422.59190656
_cell_formula_units_Z   1
loop_
 _symmetry_equiv_pos_site_id
 _symmetry_equiv_pos_as_xyz
  1  'x, y, z'
loop_
 _atom_site_type_symbol
 _atom_site_label
 _atom_site_symmetry_multiplicity
 _atom_site_fract_x
 _atom_site_fract_y
 _atom_site_fract_z
 _atom_site_occupancy
  C  C0  1  0.98464600  0.39163600  0.58506400  1
  C  C1  1  0.00680100  0.13821800  0.39770600  1
  C  C2  1  0.01804900  0.83373700  0.23522800  1
  C  C3  1  0.02386900  0.16985500  0.07913700  1
  C  C4  1  0.02903100  0.16693100  0.75563200  1
  C  C5  1  0.02512200  0.86066400  0.57882100  1
  C  C6  1  0.02483900  0.85477200  0.91724400  1
  C  C7  1  0.48859700  0.36215500  0.59711500  1
  C  C8  1  0.49632400  0.34165200  0.92343700  1
  C  C9  1  0.49859700  0.34028100  0.25159900  1
  C  C10  1  0.51123400  0.63153700  0.09301300  1
  C  C11  1  0.50531800  0.64483800  0.41995000  1
  C  C12  1  0.48519500  0.65028700  0.75442900  1
  Ni  Ni13  1  0.22151300  0.09979700  0.29146200  1
  Ni  Ni14  1  0.21749700  0.13748700  0.64021600  1
  Ni  Ni15  1  0.21455200  0.12011700  0.97081100  1
  Ni  Ni16  1  0.23452000  0.88105300  0.13142500  1
  Ni  Ni17  1  0.22202800  0.88557700  0.46429300  1
  Ni  Ni18  1  0.22629000  0.89350400  0.80872200  1
  Ni  Ni19  1  0.28740500  0.39942200  0.14527800  1
  Ni  Ni20  1  0.25047700  0.61369500  0.63725400  1
  Ni  Ni21  1  0.29556200  0.40113900  0.81620100  1
  Ni  Ni22  1  0.72612100  0.38399400  0.02841500  1
  Ni  Ni23  1  0.72266900  0.61188700  0.19425000  1
  Ni  Ni24  1  0.70104000  0.36432000  0.36155400  1
  Ni  Ni25  1  0.71001000  0.60368700  0.53168800  1
  Ni  Ni26  1  0.75047700  0.37858900  0.69636500  1
  Cu  Cu27  1  0.25448800  0.60714200  0.31777900  1
  Cu  Cu28  1  0.22757700  0.37305500  0.48060300  1
  Cu  Cu29  1  0.28219000  0.61887500  0.98472700  1
  Cu  Cu30  1  0.74984600  0.62467000  0.86844600  1
  Cu  Cu31  1  0.77675900  0.11945800  0.18068600  1
  Cu  Cu32  1  0.76698800  0.13155800  0.52718000  1
  Cu  Cu33  1  0.76701100  0.86578300  0.34345000  1
  Cu  Cu34  1  0.76105500  0.86682000  0.02347600  1
  Cu  Cu35  1  0.76893100  0.12540000  0.85730200  1
  Cu  Cu36  1  0.75348000  0.87545800  0.69337200  1
