# generated using pymatgen
data_CuNiC3
_symmetry_space_group_name_H-M   'P 1'
_cell_length_a   3.34242600
_cell_length_b   3.34251085
_cell_length_c   30.96190600
_cell_angle_alpha   89.99973867
_cell_angle_beta   89.99995880
_cell_angle_gamma   119.99879355
_symmetry_Int_Tables_number   1
_chemical_formula_structural   CuNiC3
_chemical_formula_sum   'Cu2 Ni2 C6'
_cell_volume   299.56993547
_cell_formula_units_Z   2
loop_
 _symmetry_equiv_pos_site_id
 _symmetry_equiv_pos_as_xyz
  1  'x, y, z'
loop_
 _atom_site_type_symbol
 _atom_site_label
 _atom_site_symmetry_multiplicity
 _atom_site_fract_x
 _atom_site_fract_y
 _atom_site_fract_z
 _atom_site_occupancy
  C  C0  1  0.65043300  0.22216200  0.86364900  1
  Ni  Ni1  1  0.66665100  0.33330000  0.51719900  1
  Ni  Ni2  1  0.66664300  0.33328500  0.63949300  1
  C  C3  1  0.33330400  0.66660700  0.11564000  1
  C  C4  1  0.33331900  0.66663800  0.57839700  1
  C  C5  1  0.66668000  0.33336200  0.34693000  1
  Cu  Cu6  1  0.33335200  0.66670400  0.40069400  1
  Cu  Cu7  1  0.33335300  0.66670600  0.29315600  1
  C  C8  1  0.66665100  0.33330100  0.06672100  1
  C  C9  1  0.66665100  0.33330100  0.16460400  1
