# generated using pymatgen
data_Cu3Ni2C37
_symmetry_space_group_name_H-M   'P 1'
_cell_length_a   9.18728699
_cell_length_b   9.08099122
_cell_length_c   22.11093946
_cell_angle_alpha   92.96452290
_cell_angle_beta   89.11210748
_cell_angle_gamma   120.61172143
_symmetry_Int_Tables_number   1
_chemical_formula_structural   Cu3Ni2C37
_chemical_formula_sum   'Cu9 Ni6 C111'
_cell_volume   1585.37520654
_cell_formula_units_Z   3
loop_
 _symmetry_equiv_pos_site_id
 _symmetry_equiv_pos_as_xyz
  1  'x, y, z'
loop_
 _atom_site_type_symbol
 _atom_site_label
 _atom_site_symmetry_multiplicity
 _atom_site_fract_x
 _atom_site_fract_y
 _atom_site_fract_z
 _atom_site_occupancy
  C  C0  1  0.63844775  0.01609179  0.25916560  1
  C  C1  1  0.35906457  0.35261915  0.25386816  1
  C  C2  1  0.00085114  0.62926111  0.24391230  1
  C  C3  1  0.63118777  0.63020522  0.73614273  1
  C  C4  1  0.99165051  0.35460558  0.73938145  1
  C  C5  1  0.38180513  0.02177866  0.74978187  1
  C  C6  1  0.30454354  0.34663411  0.59091204  1
  C  C7  1  0.02626752  0.68681092  0.58626411  1
  C  C8  1  0.66743841  0.95999279  0.57976306  1
  C  C9  1  0.28825436  0.95361517  0.08352236  1
  C  C10  1  0.67086503  0.69697160  0.08072994  1
  C  C11  1  0.03248248  0.34210987  0.09184351  1
  C  C12  1  0.97853937  0.68334916  0.91593744  1
  C  C13  1  0.69179249  0.02727023  0.90392524  1
  C  C14  1  0.32645055  0.28625282  0.90745846  1
  C  C15  1  0.95634778  0.28476096  0.41719565  1
  C  C16  1  0.33571410  0.03361020  0.41004262  1
  C  C17  1  0.69812522  0.67679909  0.42734533  1
  C  C18  1  0.98221752  0.99644820  0.50114111  1
  C  C19  1  0.00961640  0.99310913  0.99699881  1
  C  C20  1  0.65202435  0.32502617  0.82493345  1
  C  C21  1  0.66649456  0.31797263  0.33334545  1
  C  C22  1  0.31503883  0.66350237  0.16779166  1
  C  C23  1  0.34035641  0.65767773  0.66300177  1
  C  C24  1  0.00173894  0.01644417  0.34582483  1
  C  C25  1  0.01147859  0.01823827  0.83783287  1
  C  C26  1  0.67270198  0.33848396  0.68148812  1
  C  C27  1  0.68001591  0.32873887  0.18789179  1
  C  C28  1  0.31232174  0.67897112  0.01350835  1
  C  C29  1  0.35254152  0.66559320  0.52131776  1
  Ni  Ni30  1  0.97902559  0.01969535  0.64746473  1
  Ni  Ni31  1  0.01357238  0.98911430  0.15891166  1
  Ni  Ni32  1  0.66411764  0.33259439  0.98405301  1
  Ni  Ni33  1  0.67908473  0.32025400  0.49234589  1
  Ni  Ni34  1  0.32473759  0.68499434  0.31290291  1
  Ni  Ni35  1  0.35272712  0.68707945  0.80930800  1
  Cu  Cu36  1  0.29880094  0.00099698  0.25158473  1
  Cu  Cu37  1  0.00611194  0.29654874  0.25164320  1
  Cu  Cu38  1  0.29616039  0.29944470  0.75179984  1
  Cu  Cu39  1  0.70404288  -0.00008309  0.75240754  1
  Cu  Cu40  1  0.96924386  0.33778427  0.58404944  1
  Cu  Cu41  1  0.67563491  0.62693186  0.58498394  1
  Cu  Cu42  1  0.95373936  0.62720895  0.08554114  1
  Cu  Cu43  1  0.33597260  0.96767217  0.91977352  1
  Cu  Cu44  1  0.62548575  0.96158694  0.41877463  1
  C  C45  1  0.70266719  0.70706606  0.24925907  1
  C  C46  1  0.00564323  0.70735575  0.75279752  1
  C  C47  1  0.36807344  0.03966417  0.58254234  1
  C  C48  1  0.66791630  0.03555849  0.08094016  1
  C  C49  1  0.37141726  0.33359100  0.08252311  1
  C  C50  1  0.62232705  0.66006831  0.91933999  1
  C  C51  1  0.03467743  0.37089984  0.91912004  1
  C  C52  1  0.33551891  0.37268823  0.41454554  1
  C  C53  1  0.03572375  0.66380566  0.41593417  1
  C  C54  1  0.20866716  0.02663833  0.31121623  1
  C  C55  1  0.80805400  0.78635741  0.30438205  1
  C  C56  1  0.96209155  0.18228939  0.30975670  1
  C  C57  1  0.22763947  0.18868980  0.81200545  1
  C  C58  1  0.98561442  0.78740809  0.81059292  1
  C  C59  1  0.80998192  0.01902226  0.81383604  1
  C  C60  1  0.78638698  0.95739376  0.69217329  1
  C  C61  1  0.16691964  0.20214760  0.69233896  1
  C  C62  1  0.03010427  0.81017294  0.70000662  1
  C  C63  1  0.78549925  0.81330301  0.19475500  1
  C  C64  1  0.03499772  0.19806767  0.18897786  1
  C  C65  1  0.17986547  0.95733366  0.18952156  1
  C  C66  1  0.88461453  0.36871298  0.64417632  1
  C  C67  1  0.47231398  0.11747242  0.63805834  1
  C  C68  1  0.63738743  0.50967972  0.64202599  1
  C  C69  1  0.86636864  0.51173475  0.14277695  1
  C  C70  1  0.63626401  0.11148875  0.13686468  1
  C  C71  1  0.47024188  0.35542987  0.13751690  1
  C  C72  1  0.45436789  0.30772340  0.02664487  1
  C  C73  1  0.82998463  0.53717162  0.02308906  1
  C  C74  1  0.68783347  0.14003653  0.02747324  1
  C  C75  1  0.45215219  0.14578657  0.52823833  1
  C  C76  1  0.69950761  0.52842753  0.52135080  1
  C  C77  1  0.84804638  0.29231160  0.52270871  1
  C  C78  1  0.53944887  0.67606113  0.97571943  1
  C  C79  1  0.13845118  0.44889776  0.97594700  1
  C  C80  1  0.30730034  0.86610981  0.98125035  1
  C  C81  1  0.54004330  0.84781251  0.47665811  1
  C  C82  1  0.31281176  0.45459126  0.47062346  1
  C  C83  1  0.13723159  0.68505366  0.46984577  1
  C  C84  1  0.11633361  0.63813734  0.35877308  1
  C  C85  1  0.50260885  0.87195175  0.35621378  1
  C  C86  1  0.35145112  0.47206237  0.36040393  1
  C  C87  1  0.11695292  0.47400969  0.86664402  1
  C  C88  1  0.37172943  0.86911608  0.86080514  1
  C  C89  1  0.51844367  0.63670031  0.86482998  1
  C  C90  1  0.01926647  0.81801713  0.41243236  1
  C  C91  1  0.81441407  0.98259852  0.41224788  1
  C  C92  1  0.18308979  0.19640240  0.41249313  1
  C  C93  1  0.00702555  0.19457470  0.91496224  1
  C  C94  1  0.17096028  0.98925568  0.91394816  1
  C  C95  1  0.79450541  0.81336751  0.91759630  1
  C  C96  1  0.98602510  0.16350443  0.58563755  1
  C  C97  1  0.20119015  0.02694627  0.58587650  1
  C  C98  1  0.85810742  0.81719730  0.58908418  1
  C  C99  1  0.96959456  0.82301804  0.09027820  1
  C  C100  1  0.82545561  0.02794662  0.08431084  1
  C  C101  1  0.19852682  0.17724774  0.08233636  1
  C  C102  1  0.68502825  0.16783978  0.74803143  1
  C  C103  1  0.48697360  0.33153002  0.74483744  1
  C  C104  1  0.85271399  0.53413250  0.74896053  1
  C  C105  1  0.67737726  0.53303764  0.24185116  1
  C  C106  1  0.84772554  0.32926121  0.24607302  1
  C  C107  1  0.48628527  0.17249660  0.24477348  1
  C  C108  1  0.63749782  0.50131609  0.91919899  1
  C  C109  1  0.86441662  0.35951767  0.92407787  1
  C  C110  1  0.51959300  0.16236656  0.92475431  1
  C  C111  1  0.63713325  0.15590980  0.42353961  1
  C  C112  1  0.49117500  0.36030709  0.41670650  1
  C  C113  1  0.86399486  0.50637697  0.41557032  1
  C  C114  1  0.35714845  0.48939049  0.07826436  1
  C  C115  1  0.14326372  0.64846089  0.08103750  1
  C  C116  1  0.52004551  0.85690199  0.07518823  1
  C  C117  1  0.34366869  0.86531257  0.57501426  1
  C  C118  1  0.51548971  0.65851763  0.58101475  1
  C  C119  1  0.15670809  0.50843676  0.57687712  1
  C  C120  1  0.31571683  0.82664873  0.25260685  1
  C  C121  1  0.53478595  0.69422013  0.25228387  1
  C  C122  1  0.18891285  0.48669273  0.25683212  1
  C  C123  1  0.29806495  0.48660610  0.76000117  1
  C  C124  1  0.16038166  0.68967833  0.75613319  1
  C  C125  1  0.51123007  0.82419694  0.75215333  1
