# generated using pymatgen
data_Cu2NiC12
_symmetry_space_group_name_H-M   'P 1'
_cell_length_a   5.96705567
_cell_length_b   6.34438264
_cell_length_c   5.96705690
_cell_angle_alpha   62.30087320
_cell_angle_beta   60.18302239
_cell_angle_gamma   62.30087915
_symmetry_Int_Tables_number   1
_chemical_formula_structural   Cu2NiC12
_chemical_formula_sum   'Cu2 Ni1 C12'
_cell_volume   165.30616173
_cell_formula_units_Z   1
loop_
 _symmetry_equiv_pos_site_id
 _symmetry_equiv_pos_as_xyz
  1  'x, y, z'
loop_
 _atom_site_type_symbol
 _atom_site_label
 _atom_site_symmetry_multiplicity
 _atom_site_fract_x
 _atom_site_fract_y
 _atom_site_fract_z
 _atom_site_occupancy
  Ni  Ni0  1  0.12500000  0.62500000  0.12500000  1
  C  C1  1  0.97452900  0.08564000  0.97452900  1
  C  C2  1  0.27547100  0.16436000  0.27547100  1
  C  C3  1  0.12500000  0.62500000  0.62500000  1
  C  C4  1  0.62500000  0.62500000  0.12500000  1
  Cu  Cu5  1  0.62500000  0.12500000  0.62500000  1
  Cu  Cu6  1  0.62500000  0.62500000  0.62500000  1
  C  C7  1  0.36580400  0.39501500  0.36580400  1
  C  C8  1  0.36166100  0.39281100  0.86563900  1
  C  C9  1  0.39356900  0.80894200  0.39356900  1
  C  C10  1  0.86563900  0.39281100  0.36166100  1
  C  C11  1  0.38436100  0.85718900  0.88833900  1
  C  C12  1  0.85643100  0.44105800  0.85643100  1
  C  C13  1  0.88833900  0.85718900  0.38436100  1
  C  C14  1  0.88419600  0.85498500  0.88419600  1
