# generated using pymatgen
data_Cu3Ni3C35
_symmetry_space_group_name_H-M   'P 1'
_cell_length_a   9.57382711
_cell_length_b   9.59842689
_cell_length_c   23.24431677
_cell_angle_alpha   89.98270529
_cell_angle_beta   89.86954658
_cell_angle_gamma   119.92230334
_symmetry_Int_Tables_number   1
_chemical_formula_structural   Cu3Ni3C35
_chemical_formula_sum   'Cu9 Ni9 C105'
_cell_volume   1851.27451490
_cell_formula_units_Z   3
loop_
 _symmetry_equiv_pos_site_id
 _symmetry_equiv_pos_as_xyz
  1  'x, y, z'
loop_
 _atom_site_type_symbol
 _atom_site_label
 _atom_site_symmetry_multiplicity
 _atom_site_fract_x
 _atom_site_fract_y
 _atom_site_fract_z
 _atom_site_occupancy
  C  C0  1  0.62938679  0.99824123  0.25352756  1
  C  C1  1  0.36948178  0.37242805  0.25374781  1
  C  C2  1  0.00297152  0.63235194  0.25754069  1
  C  C3  1  0.64656313  0.65094657  0.74637720  1
  C  C4  1  0.99481179  0.34483334  0.74040527  1
  C  C5  1  0.30022234  0.34768674  0.58010298  1
  C  C6  1  0.03483860  0.69385841  0.57861048  1
  C  C7  1  0.66529201  0.95720250  0.57434889  1
  C  C8  1  0.30888243  0.96622894  0.07740447  1
  C  C9  1  0.64967070  0.69226949  0.07807177  1
  C  C10  1  0.04699418  0.33949429  0.07280311  1
  C  C11  1  0.32079698  0.30119045  0.90762197  1
  C  C12  1  0.97973684  0.31167796  0.42151480  1
  C  C13  1  0.34080885  0.02733148  0.42343731  1
  C  C14  1  0.68539583  0.66645926  0.42134360  1
  C  C15  1  0.99461850  0.99847708  0.49906204  1
  C  C16  1  0.98718667  0.00152690  0.99678703  1
  C  C17  1  0.65454762  0.32268132  0.83259755  1
  C  C18  1  0.66306172  0.33048672  0.33964248  1
  C  C19  1  0.34362416  0.66683477  0.16658907  1
  C  C20  1  0.33505090  0.67195198  0.65859658  1
  C  C21  1  0.99999041  0.00069209  0.34880459  1
  C  C22  1  0.99923100  0.99490311  0.85127850  1
  C  C23  1  0.00298267  0.00396351  0.65249970  1
  C  C24  1  0.00253916  0.00528467  0.14415926  1
  C  C25  1  0.65567487  0.32817076  0.68630612  1
  C  C26  1  0.66358838  0.33112493  0.17763824  1
  C  C27  1  0.33534619  0.66968635  0.00536435  1
  C  C28  1  0.33254041  0.66253358  0.51137750  1
  C  C29  1  0.33552252  0.66747532  0.32747526  1
  C  C30  1  0.66848797  0.32423176  0.97986735  1
  C  C31  1  0.67260335  0.33973077  0.48554869  1
  C  C32  1  0.32500388  0.66497723  0.82280660  1
  Ni  Ni33  1  0.30843238  0.32528286  0.75716845  1
  Ni  Ni34  1  0.95995115  0.32741288  0.58620407  1
  Ni  Ni35  1  0.67351931  0.63575906  0.58508353  1
  Ni  Ni36  1  0.66932160  0.03525670  0.08008545  1
  Ni  Ni37  1  0.36984994  0.33069409  0.07713852  1
  Ni  Ni38  1  0.02225960  0.37079166  0.92134609  1
  Ni  Ni39  1  0.64952461  0.99387690  0.41944969  1
  Ni  Ni40  1  0.34460791  0.34987540  0.41830685  1
  Ni  Ni41  1  0.00918732  0.65856846  0.41875998  1
  Cu  Cu42  1  0.30941203  0.99200349  0.24832066  1
  Cu  Cu43  1  0.68518079  0.69113325  0.24799649  1
  Cu  Cu44  1  0.00804468  0.31874776  0.24871143  1
  Cu  Cu45  1  0.01654463  0.69133411  0.75092537  1
  Cu  Cu46  1  0.67633816  0.98030765  0.75296662  1
  Cu  Cu47  1  0.36842050  0.04226887  0.57813444  1
  Cu  Cu48  1  0.95395643  0.62735986  0.07736314  1
  Cu  Cu49  1  0.62332383  0.64186849  0.91772237  1
  Cu  Cu50  1  0.35471502  0.98350213  0.92033009  1
  C  C51  1  0.21734756  0.99496351  0.30244023  1
  C  C52  1  0.77800897  0.78226545  0.30247133  1
  C  C53  1  0.00132430  0.22332073  0.30316985  1
  C  C54  1  0.21669690  0.21632664  0.81204375  1
  C  C55  1  0.97884004  0.78105118  0.79690806  1
  C  C56  1  0.80088516  0.00285448  0.79890166  1
  C  C57  1  0.73161358  0.93932228  0.69513563  1
  C  C58  1  0.19897432  0.25335275  0.69810617  1
  C  C59  1  0.04379505  0.77581423  0.69210726  1
  C  C60  1  0.77776808  0.78611354  0.19320285  1
  C  C61  1  0.01189883  0.22545075  0.19417683  1
  C  C62  1  0.21515213  0.98897800  0.19327671  1
  C  C63  1  0.87964335  0.33265669  0.64679039  1
  C  C64  1  0.46211035  0.12029796  0.63309163  1
  C  C65  1  0.66027926  0.54640067  0.64562625  1
  C  C66  1  0.89254353  0.54811624  0.13631690  1
  C  C67  1  0.65854652  0.11076056  0.14118003  1
  C  C68  1  0.45775927  0.34797568  0.13874823  1
  C  C69  1  0.49547868  0.33108486  0.02423484  1
  C  C70  1  0.83816520  0.50719941  0.02917189  1
  C  C71  1  0.66878452  0.16292852  0.02726392  1
  C  C72  1  0.47202784  0.14361866  0.52497489  1
  C  C73  1  0.66423417  0.50807862  0.53172350  1
  C  C74  1  0.83848644  0.32976807  0.53264625  1
  C  C75  1  0.56791191  0.66434829  0.97703349  1
  C  C76  1  0.11282779  0.43507502  0.98188255  1
  C  C77  1  0.33242065  0.90780295  0.97993831  1
  C  C78  1  0.56823159  0.87085143  0.47323102  1
  C  C79  1  0.30129732  0.43033301  0.47209579  1
  C  C80  1  0.12969687  0.69713352  0.47276158  1
  C  C81  1  0.08203091  0.61800308  0.36091556  1
  C  C82  1  0.53599389  0.91859134  0.36169982  1
  C  C83  1  0.38432463  0.46431835  0.36071671  1
  C  C84  1  0.14721648  0.51226545  0.87129889  1
  C  C85  1  0.36278128  0.86836432  0.87362397  1
  C  C86  1  0.49556064  0.63665332  0.87155743  1
  C  C87  1  0.96280196  0.79950208  0.41408201  1
  C  C88  1  0.83603410  0.03505854  0.41473895  1
  C  C89  1  0.19988979  0.16406551  0.41369114  1
  C  C90  1  0.00844151  0.19882017  0.90943681  1
  C  C91  1  0.21991586  0.02130087  0.90983707  1
  C  C92  1  0.79310666  0.77789011  0.90611022  1
  C  C93  1  0.96394558  0.15827947  0.57938836  1
  C  C94  1  0.20663484  0.04388112  0.57686587  1
  C  C95  1  0.84733047  0.80330875  0.57853764  1
  C  C96  1  0.94766335  0.78491529  0.07183555  1
  C  C97  1  0.84061180  0.03815869  0.07227153  1
  C  C98  1  0.20215886  0.15612959  0.07183593  1
  C  C99  1  0.65939172  0.13033761  0.75181147  1
  C  C100  1  0.49767958  0.37358097  0.75609021  1
  C  C101  1  0.88162748  0.51240685  0.75155768  1
  C  C102  1  0.66690971  0.52063555  0.25077616  1
  C  C103  1  0.85744799  0.34043057  0.25021023  1
  C  C104  1  0.48032304  0.14457382  0.25103214  1
  C  C105  1  0.61215666  0.47235172  0.91487339  1
  C  C106  1  0.84408538  0.36381797  0.92374958  1
  C  C107  1  0.51891184  0.15079290  0.91966057  1
  C  C108  1  0.65838721  0.16958054  0.43022344  1
  C  C109  1  0.51286420  0.34354796  0.42927371  1
  C  C110  1  0.83326722  0.48959427  0.43020929  1
  C  C111  1  0.34224823  0.48533861  0.07365525  1
  C  C112  1  0.12847770  0.65903459  0.07140133  1
  C  C113  1  0.51107754  0.85653751  0.07631402  1
  C  C114  1  0.33951379  0.86910672  0.57583502  1
  C  C115  1  0.51790175  0.66280148  0.58079474  1
  C  C116  1  0.13922859  0.48754602  0.58163748  1
  C  C117  1  0.32445545  0.83776695  0.24787153  1
  C  C118  1  0.51552102  0.67671707  0.24713324  1
  C  C119  1  0.16437397  0.48615052  0.24798289  1
  C  C120  1  0.31424545  0.50589558  0.76924784  1
  C  C121  1  0.17838635  0.69039682  0.76770321  1
  C  C122  1  0.51031535  0.82569652  0.76925424  1
