# generated using pymatgen
data_CuNi2C7
_symmetry_space_group_name_H-M   'P 1'
_cell_length_a   3.35341800
_cell_length_b   3.35332605
_cell_length_c   36.44539101
_cell_angle_alpha   90.00279555
_cell_angle_beta   90.00000000
_cell_angle_gamma   120.00090707
_symmetry_Int_Tables_number   1
_chemical_formula_structural   CuNi2C7
_chemical_formula_sum   'Cu1 Ni2 C7'
_cell_volume   354.92186027
_cell_formula_units_Z   1
loop_
 _symmetry_equiv_pos_site_id
 _symmetry_equiv_pos_as_xyz
  1  'x, y, z'
loop_
 _atom_site_type_symbol
 _atom_site_label
 _atom_site_symmetry_multiplicity
 _atom_site_fract_x
 _atom_site_fract_y
 _atom_site_fract_z
 _atom_site_occupancy
  C  C0  1  0.99989200  0.99978400  0.22146100  1
  C  C1  1  0.66656000  0.33311900  0.52689200  1
  C  C2  1  0.66649100  0.33298100  0.63141100  1
  Ni  Ni3  1  0.33321200  0.66642400  0.11042200  1
  Ni  Ni4  1  0.66695200  0.33390600  0.35227600  1
  Cu  Cu5  1  0.33319900  0.66639900  0.57913000  1
  C  C6  1  0.33365000  0.66730100  0.39785300  1
  C  C7  1  0.33356500  0.66713200  0.30624500  1
  C  C8  1  0.66650400  0.33300700  0.06929500  1
  C  C9  1  0.66657400  0.33314900  0.15285800  1
