# generated using pymatgen
data_Cu(Ni2C)3
_symmetry_space_group_name_H-M   'P 1'
_cell_length_a   11.30568700
_cell_length_b   12.08086700
_cell_length_c   17.37526800
_cell_angle_alpha   90.00000000
_cell_angle_beta   90.00000000
_cell_angle_gamma   90.00000000
_symmetry_Int_Tables_number   1
_chemical_formula_structural   Cu(Ni2C)3
_chemical_formula_sum   'Cu8 Ni48 C24'
_cell_volume   2373.15755882
_cell_formula_units_Z   8
loop_
 _symmetry_equiv_pos_site_id
 _symmetry_equiv_pos_as_xyz
  1  'x, y, z'
loop_
 _atom_site_type_symbol
 _atom_site_label
 _atom_site_symmetry_multiplicity
 _atom_site_fract_x
 _atom_site_fract_y
 _atom_site_fract_z
 _atom_site_occupancy
  C  C0  1  0.13690900  0.01942700  0.44194200  1
  C  C1  1  0.63690900  0.48057300  0.55805800  1
  C  C2  1  0.86309100  0.51942700  0.05805800  1
  C  C3  1  0.36309100  0.98057300  0.94194200  1
  C  C4  1  0.86309100  0.98057300  0.55805800  1
  C  C5  1  0.36309100  0.51942700  0.44194200  1
  C  C6  1  0.13690900  0.48057300  0.94194200  1
  C  C7  1  0.63690900  0.01942700  0.05805800  1
  C  C8  1  0.34971800  0.96073400  0.17229700  1
  C  C9  1  0.84971800  0.53926600  0.82770300  1
  C  C10  1  0.65028200  0.46073400  0.32770300  1
  C  C11  1  0.15028200  0.03926600  0.67229700  1
  C  C12  1  0.65028200  0.03926600  0.82770300  1
  C  C13  1  0.15028200  0.46073400  0.17229700  1
  C  C14  1  0.34971800  0.53926600  0.67229700  1
  C  C15  1  0.84971800  0.96073400  0.32770300  1
  C  C16  1  0.00953200  0.22237100  0.05015100  1
  C  C17  1  0.50953200  0.27762900  0.94984900  1
  C  C18  1  0.99046800  0.72237100  0.44984900  1
  C  C19  1  0.49046800  0.77762900  0.55015100  1
  C  C20  1  0.99046800  0.77762900  0.94984900  1
  C  C21  1  0.49046800  0.72237100  0.05015100  1
  C  C22  1  0.00953200  0.27762900  0.55015100  1
  C  C23  1  0.50953200  0.22237100  0.44984900  1
  Ni  Ni24  1  0.25634700  0.78414400  0.45424200  1
  Ni  Ni25  1  0.75634700  0.71585600  0.54575800  1
  Ni  Ni26  1  0.74365300  0.28414400  0.04575800  1
  Ni  Ni27  1  0.24365300  0.21585600  0.95424200  1
  Ni  Ni28  1  0.74365300  0.21585600  0.54575800  1
  Ni  Ni29  1  0.24365300  0.28414400  0.45424200  1
  Ni  Ni30  1  0.25634700  0.71585600  0.95424200  1
  Ni  Ni31  1  0.75634700  0.78414400  0.04575800  1
  Ni  Ni32  1  0.36771100  0.06424500  0.33866600  1
  Ni  Ni33  1  0.86771100  0.43575500  0.66133400  1
  Ni  Ni34  1  0.63228900  0.56424500  0.16133400  1
  Ni  Ni35  1  0.13228900  0.93575500  0.83866600  1
  Ni  Ni36  1  0.63228900  0.93575500  0.66133400  1
  Ni  Ni37  1  0.13228900  0.56424500  0.33866600  1
  Ni  Ni38  1  0.36771100  0.43575500  0.83866600  1
  Ni  Ni39  1  0.86771100  0.06424500  0.16133400  1
  Ni  Ni40  1  0.10516600  0.91733900  0.27535200  1
  Ni  Ni41  1  0.60516600  0.58266100  0.72464800  1
  Ni  Ni42  1  0.89483400  0.41733900  0.22464800  1
  Ni  Ni43  1  0.39483400  0.08266100  0.77535200  1
  Ni  Ni44  1  0.89483400  0.08266100  0.72464800  1
  Ni  Ni45  1  0.39483400  0.41733900  0.27535200  1
  Ni  Ni46  1  0.10516600  0.58266100  0.77535200  1
  Ni  Ni47  1  0.60516600  0.91733900  0.22464800  1
  Ni  Ni48  1  0.64340900  0.97019200  0.44489200  1
  Ni  Ni49  1  0.14340900  0.52980800  0.55510800  1
  Ni  Ni50  1  0.35659100  0.47019200  0.05510800  1
  Ni  Ni51  1  0.85659100  0.02980800  0.94489200  1
  Ni  Ni52  1  0.35659100  0.02980800  0.55510800  1
  Ni  Ni53  1  0.85659100  0.47019200  0.44489200  1
  Ni  Ni54  1  0.64340900  0.52980800  0.94489200  1
  Ni  Ni55  1  0.14340900  0.97019200  0.05510800  1
  Ni  Ni56  1  0.16301900  0.21694600  0.18884500  1
  Ni  Ni57  1  0.66301900  0.28305400  0.81115500  1
  Ni  Ni58  1  0.83698100  0.71694600  0.31115500  1
  Ni  Ni59  1  0.33698100  0.78305400  0.68884500  1
  Ni  Ni60  1  0.83698100  0.78305400  0.81115500  1
  Ni  Ni61  1  0.33698100  0.71694600  0.18884500  1
  Ni  Ni62  1  0.16301900  0.28305400  0.68884500  1
  Ni  Ni63  1  0.66301900  0.21694600  0.31115500  1
  Ni  Ni64  1  0.53372600  0.68378800  0.37686100  1
  Ni  Ni65  1  0.03372600  0.81621200  0.62313900  1
  Ni  Ni66  1  0.46627400  0.18378800  0.12313900  1
  Ni  Ni67  1  0.96627400  0.31621200  0.87686100  1
  Ni  Ni68  1  0.46627400  0.31621200  0.62313900  1
  Ni  Ni69  1  0.96627400  0.18378800  0.37686100  1
  Ni  Ni70  1  0.53372600  0.81621200  0.87686100  1
  Ni  Ni71  1  0.03372600  0.68378800  0.12313900  1
  Cu  Cu72  1  0.54686900  0.09144700  0.94047000  1
  Cu  Cu73  1  0.04686900  0.40855300  0.05953000  1
  Cu  Cu74  1  0.45313100  0.59144700  0.55953000  1
  Cu  Cu75  1  0.95313100  0.90855300  0.44047000  1
  Cu  Cu76  1  0.45313100  0.90855300  0.05953000  1
  Cu  Cu77  1  0.95313100  0.59144700  0.94047000  1
  Cu  Cu78  1  0.54686900  0.40855300  0.44047000  1
  Cu  Cu79  1  0.04686900  0.09144700  0.55953000  1
