# generated using pymatgen
data_CuNiC5
_symmetry_space_group_name_H-M   'P 1'
_cell_length_a   3.19850200
_cell_length_b   3.19848556
_cell_length_c   28.68348800
_cell_angle_alpha   90.00178138
_cell_angle_beta   90.00000000
_cell_angle_gamma   120.00017005
_symmetry_Int_Tables_number   1
_chemical_formula_structural   CuNiC5
_chemical_formula_sum   'Cu1 Ni1 C5'
_cell_volume   254.12820552
_cell_formula_units_Z   1
loop_
 _symmetry_equiv_pos_site_id
 _symmetry_equiv_pos_as_xyz
  1  'x, y, z'
loop_
 _atom_site_type_symbol
 _atom_site_label
 _atom_site_symmetry_multiplicity
 _atom_site_fract_x
 _atom_site_fract_y
 _atom_site_fract_z
 _atom_site_occupancy
  C  C0  1  0.66666200  0.33332200  0.29581400  1
  Ni  Ni1  1  0.33331400  0.66662800  0.14555400  1
  Cu  Cu2  1  0.66668900  0.33337800  0.46381000  1
  C  C3  1  0.33337200  0.66674400  0.51862000  1
  C  C4  1  0.66663400  0.33326800  0.09133500  1
  C  C5  1  0.66665600  0.33330900  0.20008200  1
  C  C6  1  0.33334100  0.66668300  0.40884100  1
