# generated using pymatgen
data_Cu12Ni12C7
_symmetry_space_group_name_H-M   'P 1'
_cell_length_a   9.35230055
_cell_length_b   9.35230055
_cell_length_c   9.35230104
_cell_angle_alpha   111.38396411
_cell_angle_beta   111.38396411
_cell_angle_gamma   111.38396541
_symmetry_Int_Tables_number   1
_chemical_formula_structural   Cu12Ni12C7
_chemical_formula_sum   'Cu12 Ni12 C7'
_cell_volume   580.85036429
_cell_formula_units_Z   1
loop_
 _symmetry_equiv_pos_site_id
 _symmetry_equiv_pos_as_xyz
  1  'x, y, z'
loop_
 _atom_site_type_symbol
 _atom_site_label
 _atom_site_symmetry_multiplicity
 _atom_site_fract_x
 _atom_site_fract_y
 _atom_site_fract_z
 _atom_site_occupancy
  C  C0  1  0.01099400  0.70739000  0.70739000  1
  C  C1  1  0.70739000  0.70739000  0.01099400  1
  C  C2  1  0.70739000  0.01099400  0.70739000  1
  C  C3  1  0.29261000  0.98900600  0.29261000  1
  C  C4  1  0.98900600  0.29261000  0.29261000  1
  C  C5  1  0.29261000  0.29261000  0.98900600  1
  C  C6  1  0.50000000  0.50000000  0.50000000  1
  Ni  Ni7  1  0.27297000  0.72703000  0.50000000  1
  Ni  Ni8  1  0.72703000  0.50000000  0.27297000  1
  Ni  Ni9  1  0.50000000  0.27297000  0.72703000  1
  Ni  Ni10  1  0.72703000  0.27297000  0.50000000  1
  Ni  Ni11  1  0.27297000  0.50000000  0.72703000  1
  Ni  Ni12  1  0.50000000  0.72703000  0.27297000  1
  Ni  Ni13  1  0.05921000  0.94079000  0.50000000  1
  Ni  Ni14  1  0.94079000  0.50000000  0.05921000  1
  Ni  Ni15  1  0.50000000  0.05921000  0.94079000  1
  Ni  Ni16  1  0.94079000  0.05921000  0.50000000  1
  Ni  Ni17  1  0.05921000  0.50000000  0.94079000  1
  Ni  Ni18  1  0.50000000  0.94079000  0.05921000  1
  Cu  Cu19  1  0.66956800  0.33043200  0.00000000  1
  Cu  Cu20  1  0.33043200  0.00000000  0.66956800  1
  Cu  Cu21  1  0.00000000  0.66956800  0.33043200  1
  Cu  Cu22  1  0.33043200  0.66956800  0.00000000  1
  Cu  Cu23  1  0.66956800  0.00000000  0.33043200  1
  Cu  Cu24  1  0.00000000  0.33043200  0.66956800  1
  Cu  Cu25  1  0.61525400  0.23590700  0.23590700  1
  Cu  Cu26  1  0.23590700  0.23590700  0.61525400  1
  Cu  Cu27  1  0.23590700  0.61525400  0.23590700  1
  Cu  Cu28  1  0.76409300  0.38474600  0.76409300  1
  Cu  Cu29  1  0.38474600  0.76409300  0.76409300  1
  Cu  Cu30  1  0.76409300  0.76409300  0.38474600  1
