# generated using pymatgen
data_Cu(NiC16)2
_symmetry_space_group_name_H-M   'P 1'
_cell_length_a   8.78013473
_cell_length_b   8.78249868
_cell_length_c   23.30143546
_cell_angle_alpha   90.00623406
_cell_angle_beta   90.06493281
_cell_angle_gamma   119.86196245
_symmetry_Int_Tables_number   1
_chemical_formula_structural   Cu(NiC16)2
_chemical_formula_sum   'Cu3 Ni6 C96'
_cell_volume   1558.24082166
_cell_formula_units_Z   3
loop_
 _symmetry_equiv_pos_site_id
 _symmetry_equiv_pos_as_xyz
  1  'x, y, z'
loop_
 _atom_site_type_symbol
 _atom_site_label
 _atom_site_symmetry_multiplicity
 _atom_site_fract_x
 _atom_site_fract_y
 _atom_site_fract_z
 _atom_site_occupancy
  C  C0  1  0.99879059  0.98823593  0.99574843  1
  C  C1  1  0.65477459  0.33148820  0.83598989  1
  C  C2  1  0.67502774  0.33190776  0.33746857  1
  C  C3  1  0.99931553  0.99288382  0.84871694  1
  C  C4  1  0.00154560  0.00624141  0.15566075  1
  C  C5  1  0.67270662  0.33406819  0.19225030  1
  C  C6  1  0.66058356  0.33370880  0.97892568  1
  C  C7  1  0.33821557  0.67219018  0.01824719  1
  C  C8  1  0.34006635  0.67255276  0.80763035  1
  Ni  Ni9  1  0.99732647  0.00600725  0.35379969  1
  Ni  Ni10  1  0.00057042  0.00023712  0.64500581  1
  Ni  Ni11  1  0.66586610  0.33321350  0.67689603  1
  Ni  Ni12  1  0.66627523  0.33378487  0.48675128  1
  Ni  Ni13  1  0.33315256  0.66723489  0.51613028  1
  Ni  Ni14  1  0.32723909  0.65972582  0.31875426  1
  Cu  Cu15  1  0.01275737  0.30134906  0.26096868  1
  Cu  Cu16  1  0.63294059  0.66822101  0.91449528  1
  Cu  Cu17  1  0.33229030  0.96483408  0.91446195  1
  C  C18  1  0.28685667  0.98618415  0.26050388  1
  C  C19  1  0.69919594  0.71338273  0.26047609  1
  C  C20  1  0.30068112  0.28345930  0.74011980  1
  C  C21  1  0.98142739  0.69633439  0.73958190  1
  C  C22  1  0.71807808  0.01971167  0.73995119  1
  C  C23  1  0.95785730  0.33484680  0.58169611  1
  C  C24  1  0.37687777  0.04201956  0.58171860  1
  C  C25  1  0.66514886  0.62338283  0.58179395  1
  C  C26  1  0.96360489  0.63430741  0.08468350  1
  C  C27  1  0.67182844  0.03793354  0.08451880  1
  C  C28  1  0.36541668  0.32889150  0.08557121  1
  C  C29  1  0.03764561  0.36951134  0.91450291  1
  C  C30  1  0.61979168  0.95504034  0.41785670  1
  C  C31  1  0.33698035  0.37846118  0.41863682  1
  C  C32  1  0.04231366  0.66608101  0.41812908  1
  C  C33  1  0.19693116  0.01600009  0.30963055  1
  C  C34  1  0.82204736  0.79891505  0.30944366  1
  C  C35  1  0.97685888  0.17410641  0.31203240  1
  C  C36  1  0.23100718  0.18124265  0.79338090  1
  C  C37  1  0.94760305  0.76532725  0.79294577  1
  C  C38  1  0.81969046  0.05202337  0.79341715  1
  C  C39  1  0.80783078  0.99181694  0.69022905  1
  C  C40  1  0.18416741  0.19350177  0.69010366  1
  C  C41  1  0.01028163  0.81501250  0.69010108  1
  C  C42  1  0.77100660  0.80863891  0.20617563  1
  C  C43  1  0.03813462  0.22622133  0.20468633  1
  C  C44  1  0.18925929  0.95787514  0.20627511  1
  C  C45  1  0.87976006  0.37365786  0.63267830  1
  C  C46  1  0.49368416  0.11980526  0.63280078  1
  C  C47  1  0.62617742  0.50651764  0.63277885  1
  C  C48  1  0.87232012  0.53234632  0.13666901  1
  C  C49  1  0.66060241  0.12867698  0.13651365  1
  C  C50  1  0.46833602  0.34109344  0.13736282  1
  C  C51  1  0.44880678  0.30847262  0.03351198  1
  C  C52  1  0.85969357  0.55118747  0.03263250  1
  C  C53  1  0.69245182  0.14117216  0.03251755  1
  C  C54  1  0.45503797  0.16051269  0.53052971  1
  C  C55  1  0.70574148  0.54502752  0.53060106  1
  C  C56  1  0.83896530  0.29424011  0.53034416  1
  C  C57  1  0.54555045  0.67697364  0.97016768  1
  C  C58  1  0.13414313  0.45022249  0.96776160  1
  C  C59  1  0.31392385  0.86335068  0.96980459  1
  C  C60  1  0.54055558  0.84402060  0.47014791  1
  C  C61  1  0.30306669  0.45808003  0.47050458  1
  C  C62  1  0.15477142  0.69886106  0.47028233  1
  C  C63  1  0.12003309  0.62766863  0.36727964  1
  C  C64  1  0.50430363  0.87676103  0.36681709  1
  C  C65  1  0.37610861  0.49411809  0.36768622  1
  C  C66  1  0.12522947  0.47158780  0.86270017  1
  C  C67  1  0.33885492  0.86945845  0.86001579  1
  C  C68  1  0.52566226  0.65211609  0.86035905  1
  C  C69  1  0.02276999  0.82229780  0.40837016  1
  C  C70  1  0.79504979  0.97230153  0.40914523  1
  C  C71  1  0.18180076  0.20265279  0.40940739  1
  C  C72  1  0.01975561  0.19395517  0.91157524  1
  C  C73  1  0.17208523  0.99138842  0.91299748  1
  C  C74  1  0.81260436  0.83698220  0.91281120  1
  C  C75  1  0.97665913  0.17792450  0.59201336  1
  C  C76  1  0.20132872  0.02343204  0.59205751  1
  C  C77  1  0.82188416  0.79851321  0.59222040  1
  C  C78  1  0.98194927  0.81086277  0.08822813  1
  C  C79  1  0.82939547  0.01790904  0.08755224  1
  C  C80  1  0.19031919  0.16833338  0.08790508  1
  C  C81  1  0.70059426  0.17948140  0.73158361  1
  C  C82  1  0.47804583  0.30033693  0.73193180  1
  C  C83  1  0.82061732  0.52062816  0.73119913  1
  C  C84  1  0.67658066  0.53450872  0.25590494  1
  C  C85  1  0.84731325  0.32094893  0.25678068  1
  C  C86  1  0.46241066  0.14645188  0.25567439  1
  C  C87  1  0.65877425  0.50776503  0.91417931  1
  C  C88  1  0.86227696  0.35231889  0.91622472  1
  C  C89  1  0.50124231  0.14414433  0.91467570  1
  C  C90  1  0.63858643  0.13483906  0.42639237  1
  C  C91  1  0.49892704  0.36084999  0.42754121  1
  C  C92  1  0.86356259  0.50432570  0.42687533  1
  C  C93  1  0.34767950  0.48475268  0.08247977  1
  C  C94  1  0.13495020  0.64634747  0.08227650  1
  C  C95  1  0.51340891  0.86602126  0.08285601  1
  C  C96  1  0.36031533  0.86702782  0.57088053  1
  C  C97  1  0.50691998  0.64038530  0.57089222  1
  C  C98  1  0.13265243  0.49274115  0.57083996  1
  C  C99  1  0.30697469  0.83114147  0.26930045  1
  C  C100  1  0.52842904  0.70285680  0.26954449  1
  C  C101  1  0.17806297  0.48095174  0.26997788  1
  C  C102  1  0.31738427  0.45696130  0.74551797  1
  C  C103  1  0.13640717  0.67674487  0.74549555  1
  C  C104  1  0.54386892  0.86353972  0.74482782  1
