# generated using pymatgen
data_Cu(NiC4)3
_symmetry_space_group_name_H-M   'P 1'
_cell_length_a   7.51548205
_cell_length_b   7.51548205
_cell_length_c   9.26692556
_cell_angle_alpha   74.01583928
_cell_angle_beta   74.01583928
_cell_angle_gamma   68.70677321
_symmetry_Int_Tables_number   1
_chemical_formula_structural   Cu(NiC4)3
_chemical_formula_sum   'Cu2 Ni6 C24'
_cell_volume   459.75817976
_cell_formula_units_Z   2
loop_
 _symmetry_equiv_pos_site_id
 _symmetry_equiv_pos_as_xyz
  1  'x, y, z'
loop_
 _atom_site_type_symbol
 _atom_site_label
 _atom_site_symmetry_multiplicity
 _atom_site_fract_x
 _atom_site_fract_y
 _atom_site_fract_z
 _atom_site_occupancy
  C  C0  1  0.43848200  0.56151800  0.75000000  1
  C  C1  1  0.56151800  0.43848200  0.25000000  1
  C  C2  1  0.00000000  0.50000000  0.50000000  1
  C  C3  1  0.50000000  0.00000000  0.00000000  1
  Ni  Ni4  1  0.87003700  0.12996300  0.75000000  1
  Ni  Ni5  1  0.12996300  0.87003700  0.25000000  1
  Ni  Ni6  1  0.26823800  0.14436600  0.70605100  1
  Ni  Ni7  1  0.85563400  0.73176200  0.79394900  1
  Ni  Ni8  1  0.73176200  0.85563400  0.29394900  1
  Ni  Ni9  1  0.14436600  0.26823800  0.20605100  1
  Cu  Cu10  1  0.00000000  0.50000000  0.00000000  1
  Cu  Cu11  1  0.50000000  0.00000000  0.50000000  1
  C  C12  1  0.84587500  0.28748500  0.60913900  1
  C  C13  1  0.71251500  0.15412500  0.89086100  1
  C  C14  1  0.15412500  0.71251500  0.39086100  1
  C  C15  1  0.28748500  0.84587500  0.10913900  1
  C  C16  1  0.36915900  0.15038800  0.82526600  1
  C  C17  1  0.84961200  0.63084100  0.67473400  1
  C  C18  1  0.63084100  0.84961200  0.17473400  1
  C  C19  1  0.15038800  0.36915900  0.32526600  1
  C  C20  1  0.09564900  0.07037200  0.30119700  1
  C  C21  1  0.92962800  0.90435100  0.19880300  1
  C  C22  1  0.90435100  0.92962800  0.69880300  1
  C  C23  1  0.07037200  0.09564900  0.80119700  1
  C  C24  1  0.35028300  0.21604500  0.10588400  1
  C  C25  1  0.78395500  0.64971700  0.39411600  1
  C  C26  1  0.64971700  0.78395500  0.89411600  1
  C  C27  1  0.21604500  0.35028300  0.60588400  1
  C  C28  1  0.98178700  0.37849000  0.11444500  1
  C  C29  1  0.62151000  0.01821300  0.38555500  1
  C  C30  1  0.01821300  0.62151000  0.88555500  1
  C  C31  1  0.37849000  0.98178700  0.61444500  1
