# generated using pymatgen
data_Cu(Ni3C25)2
_symmetry_space_group_name_H-M   'P 1'
_cell_length_a   9.05314400
_cell_length_b   9.05915903
_cell_length_c   22.86832220
_cell_angle_alpha   90.28963653
_cell_angle_beta   89.90638276
_cell_angle_gamma   119.83651885
_symmetry_Int_Tables_number   1
_chemical_formula_structural   Cu(Ni3C25)2
_chemical_formula_sum   'Cu2 Ni12 C100'
_cell_volume   1626.89509968
_cell_formula_units_Z   2
loop_
 _symmetry_equiv_pos_site_id
 _symmetry_equiv_pos_as_xyz
  1  'x, y, z'
loop_
 _atom_site_type_symbol
 _atom_site_label
 _atom_site_symmetry_multiplicity
 _atom_site_fract_x
 _atom_site_fract_y
 _atom_site_fract_z
 _atom_site_occupancy
  Ni  Ni0  1  0.37472147  0.36598013  0.24349760  1
  Ni  Ni1  1  0.99084873  0.61945113  0.24204465  1
  Ni  Ni2  1  0.63351451  0.62532036  0.74384750  1
  Ni  Ni3  1  0.37938047  0.00851292  0.74183367  1
  Ni  Ni4  1  0.02380286  0.68087808  0.58432371  1
  Ni  Ni5  1  0.65654543  0.97670328  0.58393135  1
  Ni  Ni6  1  0.00939201  0.00904006  0.49756956  1
  Ni  Ni7  1  0.00089277  0.99883046  0.00022279  1
  Ni  Ni8  1  0.68951124  0.33365623  0.83147924  1
  Ni  Ni9  1  0.66586342  0.31209167  0.33250980  1
  Ni  Ni10  1  0.33224778  0.66641195  0.16231948  1
  Ni  Ni11  1  0.32281645  0.64888697  0.66412659  1
  Cu  Cu12  1  0.68030767  0.33585364  0.68475803  1
  Cu  Cu13  1  0.66825024  0.32615886  0.18378976  1
  C  C14  1  0.00877418  0.01322672  0.35934539  1
  C  C15  1  0.98773294  0.98990184  0.85987855  1
  C  C16  1  0.99042482  0.98888311  0.64268087  1
  C  C17  1  0.02310471  0.01106316  0.14281317  1
  C  C18  1  0.66532082  0.34725646  0.97773785  1
  C  C19  1  0.66587781  0.32954942  0.47905953  1
  C  C20  1  0.32116100  0.65822938  0.01720281  1
  C  C21  1  0.33391640  0.66588986  0.51625601  1
  C  C22  1  0.32550630  0.66635407  0.31579702  1
  C  C23  1  0.33046206  0.67475735  0.81620797  1
  C  C24  1  0.28741042  0.99542698  0.25315586  1
  C  C25  1  0.00169981  0.28867345  0.25202440  1
  C  C26  1  0.00416279  0.71427529  0.75221987  1
  C  C27  1  0.70825261  0.99597317  0.75299227  1
  C  C28  1  0.96577925  0.33656300  0.58193852  1
  C  C29  1  0.37227975  0.04017306  0.58405696  1
  C  C30  1  0.65504221  0.61768556  0.58482564  1
  C  C31  1  0.96188085  0.62943108  0.08566331  1
  C  C32  1  0.37934055  0.34372760  0.08498007  1
  C  C33  1  0.61501807  0.66486885  0.91641660  1
  C  C34  1  0.03942600  0.37565107  0.91553725  1
  C  C35  1  0.33760748  0.96333599  0.91829008  1
  C  C36  1  0.62279652  0.95768413  0.41602411  1
  C  C37  1  0.34256230  0.38183747  0.41497849  1
  C  C38  1  0.03655178  0.66443037  0.41733593  1
  C  C39  1  0.71247832  0.72261653  0.25138553  1
  C  C40  1  0.27719727  0.28697047  0.75180605  1
  C  C41  1  0.66619341  0.03348978  0.08102911  1
  C  C42  1  0.16934521  -0.00087426  0.30692788  1
  C  C43  1  0.81416744  0.80648729  0.30420874  1
  C  C44  1  0.99043817  0.16938760  0.30796363  1
  C  C45  1  0.19334246  0.18647122  0.80427017  1
  C  C46  1  0.00487053  0.83385039  0.80672361  1
  C  C47  1  0.83136458  0.00816179  0.80767481  1
  C  C48  1  0.80653673  0.97464978  0.69355278  1
  C  C49  1  0.17728104  0.20480721  0.69770326  1
  C  C50  1  0.03159949  0.83325074  0.69232329  1
  C  C51  1  0.79293297  0.82151371  0.19767501  1
  C  C52  1  0.02371352  0.18572147  0.19440786  1
  C  C53  1  0.16593725  0.96846495  0.19290335  1
  C  C54  1  0.91231711  0.40090585  0.63838145  1
  C  C55  1  0.47748061  0.08966677  0.64381918  1
  C  C56  1  0.62266048  0.53246938  0.64724249  1
  C  C57  1  0.91029785  0.53607697  0.14682254  1
  C  C58  1  0.63448515  0.09715674  0.13493763  1
  C  C59  1  0.46544102  0.37181334  0.14708833  1
  C  C60  1  0.47830695  0.31128159  0.02912906  1
  C  C61  1  0.83260217  0.52024132  0.02982903  1
  C  C62  1  0.69291201  0.14458730  0.02978485  1
  C  C63  1  0.47490525  0.16724915  0.52881649  1
  C  C64  1  0.69875559  0.52567697  0.53044299  1
  C  C65  1  0.83184147  0.29506375  0.52670157  1
  C  C66  1  0.52365958  0.69357361  0.97181732  1
  C  C67  1  0.16201240  0.46941998  0.97171894  1
  C  C68  1  0.30676360  0.83440046  0.97124737  1
  C  C69  1  0.53426712  0.84321203  0.47369497  1
  C  C70  1  0.31244360  0.47776149  0.46986400  1
  C  C71  1  0.15987724  0.69536830  0.47307595  1
  C  C72  1  0.13363435  0.63750268  0.35893859  1
  C  C73  1  0.49689825  0.85495545  0.35973968  1
  C  C74  1  0.36047077  0.49420908  0.35631766  1
  C  C75  1  0.13980613  0.50251721  0.85936347  1
  C  C76  1  0.36407568  0.86902074  0.85845259  1
  C  C77  1  0.50326124  0.63898267  0.85682413  1
  C  C78  1  0.01758775  0.83246643  0.40831521  1
  C  C79  1  0.80977112  0.97417655  0.40771544  1
  C  C80  1  0.16985565  0.19182499  0.41064863  1
  C  C81  1  0.02662142  0.19092468  0.90738917  1
  C  C82  1  0.17019972  0.98381109  0.90855513  1
  C  C83  1  0.80871843  0.83051779  0.91066595  1
  C  C84  1  0.97247303  0.15804764  0.59086597  1
  C  C85  1  0.17888979  0.01719128  0.58944443  1
  C  C86  1  0.83708075  0.81290409  0.58892678  1
  C  C87  1  0.97132741  0.81886684  0.08924920  1
  C  C88  1  0.82319401  0.01678282  0.08643384  1
  C  C89  1  0.18390705  0.16517612  0.08766547  1
  C  C90  1  0.66921663  0.14834467  0.75597140  1
  C  C91  1  0.44755533  0.30430546  0.74894992  1
  C  C92  1  0.82936113  0.53991901  0.75602374  1
  C  C93  1  0.69423124  0.55138416  0.24915173  1
  C  C94  1  0.84908254  0.32747310  0.25478999  1
  C  C95  1  0.46271947  0.16935934  0.25401630  1
  C  C96  1  0.63915694  0.49720342  0.92386398  1
  C  C97  1  0.85280219  0.35626314  0.92535838  1
  C  C98  1  0.50866543  0.14741395  0.92657428  1
  C  C99  1  0.63975633  0.14433620  0.42286990  1
  C  C100  1  0.50787714  0.36017073  0.42398158  1
  C  C101  1  0.85332222  0.49309627  0.42477400  1
  C  C102  1  0.34718264  0.50253482  0.07043378  1
  C  C103  1  0.15556960  0.66558770  0.06996291  1
  C  C104  1  0.51661363  0.85966871  0.07183986  1
  C  C105  1  0.33826507  0.84617652  0.56995632  1
  C  C106  1  0.50904005  0.66944750  0.57135570  1
  C  C107  1  0.15578298  0.49706321  0.56773202  1
  C  C108  1  0.29285255  0.81560544  0.25630653  1
  C  C109  1  0.53730085  0.70137110  0.25527563  1
  C  C110  1  0.18669273  0.47348445  0.25587989  1
  C  C111  1  0.29717200  0.46131526  0.75501603  1
  C  C112  1  0.18328796  0.70572510  0.75619144  1
  C  C113  1  0.52404071  0.81072076  0.75623789  1
