# generated using pymatgen
data_Cu2NiC17
_symmetry_space_group_name_H-M   'P 1'
_cell_length_a   15.43006193
_cell_length_b   8.89677287
_cell_length_c   8.87349586
_cell_angle_alpha   90.36226001
_cell_angle_beta   124.73985198
_cell_angle_gamma   89.91814156
_symmetry_Int_Tables_number   1
_chemical_formula_structural   Cu2NiC17
_chemical_formula_sum   'Cu8 Ni4 C68'
_cell_volume   1000.97519533
_cell_formula_units_Z   4
loop_
 _symmetry_equiv_pos_site_id
 _symmetry_equiv_pos_as_xyz
  1  'x, y, z'
loop_
 _atom_site_type_symbol
 _atom_site_label
 _atom_site_symmetry_multiplicity
 _atom_site_fract_x
 _atom_site_fract_y
 _atom_site_fract_z
 _atom_site_occupancy
  C  C0  1  0.24945373  0.74791601  0.99820692  1
  C  C1  1  0.74657212  0.74828672  0.48743879  1
  C  C2  1  0.74945373  0.24791601  0.99820692  1
  C  C3  1  0.24657212  0.24828672  0.48743879  1
  C  C4  1  0.50795343  0.09635866  0.76822119  1
  C  C5  1  0.49982702  0.88829273  0.23616160  1
  C  C6  1  0.00795343  0.59635866  0.76822119  1
  C  C7  1  0.99982702  0.38829273  0.23616160  1
  C  C8  1  0.80269723  0.92815400  0.21716519  1
  C  C9  1  0.18360005  0.07378637  0.79475699  1
  C  C10  1  0.30269723  0.42815400  0.21716519  1
  C  C11  1  0.68360005  0.57378637  0.79475699  1
  C  C12  1  0.10238678  0.74550286  0.55787063  1
  C  C13  1  0.89239207  0.75462781  0.93446230  1
  C  C14  1  0.89797128  0.25484857  0.44271893  1
  C  C15  1  0.60238678  0.24550286  0.55787063  1
  C  C16  1  0.39239207  0.25462781  0.93446230  1
  C  C17  1  0.39797128  0.75484857  0.44271893  1
  C  C18  1  0.10398036  0.24301827  0.05774605  1
  C  C19  1  0.60398036  0.74301827  0.05774605  1
  Ni  Ni20  1  0.64957679  0.89899990  0.74995248  1
  Ni  Ni21  1  0.35381011  0.10012883  0.25289848  1
  Ni  Ni22  1  0.14957679  0.39899990  0.74995248  1
  Ni  Ni23  1  0.85381011  0.60012883  0.25289848  1
  Cu  Cu24  1  0.99648942  0.95671897  0.74543464  1
  Cu  Cu25  1  0.00148368  0.03986604  0.25559715  1
  Cu  Cu26  1  0.49648942  0.45671897  0.74543464  1
  Cu  Cu27  1  0.50148368  0.53986604  0.25559715  1
  Cu  Cu28  1  0.35442116  0.89440631  0.75868279  1
  Cu  Cu29  1  0.64584962  0.11483346  0.24557123  1
  Cu  Cu30  1  0.85442116  0.39440631  0.75868279  1
  Cu  Cu31  1  0.14584962  0.61483346  0.24557123  1
  C  C32  1  0.15526825  0.58127212  0.72804967  1
  C  C33  1  0.85065747  0.57134484  0.75207626  1
  C  C34  1  0.85465081  0.41475659  0.26210576  1
  C  C35  1  0.15366277  0.44305831  0.25781216  1
  C  C36  1  0.65526825  0.08127212  0.72804967  1
  C  C37  1  0.35065747  0.07134484  0.75207626  1
  C  C38  1  0.35465081  0.91475659  0.26210576  1
  C  C39  1  0.65366277  0.94305831  0.25781216  1
  C  C40  1  0.42896084  0.55507012  0.56990601  1
  C  C41  1  0.56901036  0.55126937  0.91547425  1
  C  C42  1  0.56242845  0.44267994  0.42974040  1
  C  C43  1  0.43859194  0.43051145  0.08424474  1
  C  C44  1  0.92896084  0.05507012  0.56990601  1
  C  C45  1  0.06901036  0.05126937  0.91547425  1
  C  C46  1  0.06242845  0.94267994  0.42974040  1
  C  C47  1  0.93859194  0.93051145  0.08424474  1
  C  C48  1  0.25145979  0.84183880  0.73453655  1
  C  C49  1  0.74777161  0.81318172  0.75998389  1
  C  C50  1  0.74246248  0.18075735  0.25648526  1
  C  C51  1  0.26249174  0.18573365  0.25173444  1
  C  C52  1  0.75145979  0.34183880  0.73453655  1
  C  C53  1  0.24777161  0.31318172  0.75998389  1
  C  C54  1  0.24246248  0.68075735  0.25648526  1
  C  C55  1  0.76249174  0.68573365  0.25173444  1
  C  C56  1  0.36074170  0.84813681  0.59254717  1
  C  C57  1  0.64982443  0.87644073  0.92949766  1
  C  C58  1  0.64453659  0.17011946  0.41129300  1
  C  C59  1  0.35611242  0.14046287  0.07046245  1
  C  C60  1  0.86074170  0.34813681  0.59254717  1
  C  C61  1  0.14982443  0.37644073  0.92949766  1
  C  C62  1  0.14453659  0.67011946  0.41129300  1
  C  C63  1  0.85611242  0.64046287  0.07046245  1
  C  C64  1  0.45023891  0.83687266  0.93726471  1
  C  C65  1  0.53843854  0.82224337  0.57040383  1
  C  C66  1  0.54224537  0.16868556  0.06568875  1
  C  C67  1  0.46924015  0.16133236  0.42928847  1
  C  C68  1  0.95023891  0.33687266  0.93726471  1
  C  C69  1  0.03843854  0.32224337  0.57040383  1
  C  C70  1  0.04224537  0.66868556  0.06568875  1
  C  C71  1  0.96924015  0.66133236  0.42928847  1
  C  C72  1  0.07417629  0.85238072  0.72990231  1
  C  C73  1  0.92144739  0.84716060  0.75567994  1
  C  C74  1  0.91256805  0.12916467  0.25347277  1
  C  C75  1  0.07454881  0.14978041  0.24946419  1
  C  C76  1  0.57417629  0.35238072  0.72990231  1
  C  C77  1  0.42144739  0.34716060  0.75567994  1
  C  C78  1  0.41256805  0.62916467  0.25347277  1
  C  C79  1  0.57454881  0.64978041  0.24946419  1
