# generated using pymatgen
data_Cu2NiC4
_symmetry_space_group_name_H-M   'P 1'
_cell_length_a   4.33482418
_cell_length_b   5.52361757
_cell_length_c   4.10476674
_cell_angle_alpha   69.16952207
_cell_angle_beta   89.99761614
_cell_angle_gamma   113.12595222
_symmetry_Int_Tables_number   1
_chemical_formula_structural   Cu2NiC4
_chemical_formula_sum   'Cu2 Ni1 C4'
_cell_volume   83.35509118
_cell_formula_units_Z   1
loop_
 _symmetry_equiv_pos_site_id
 _symmetry_equiv_pos_as_xyz
  1  'x, y, z'
loop_
 _atom_site_type_symbol
 _atom_site_label
 _atom_site_symmetry_multiplicity
 _atom_site_fract_x
 _atom_site_fract_y
 _atom_site_fract_z
 _atom_site_occupancy
  Ni  Ni0  1  0.29696500  0.59582600  0.20476400  1
  Cu  Cu1  1  0.02652200  0.05475000  0.94331700  1
  Cu  Cu2  1  0.74033500  0.48260700  0.75655800  1
  C  C3  1  0.97632800  0.95404000  0.53936600  1
  C  C4  1  0.24560800  0.49339800  0.75204300  1
  C  C5  1  0.76753500  0.53680200  0.23170900  1
  C  C6  1  0.51337300  0.02841000  0.00557800  1
