# generated using pymatgen
data_Cu12Ni3C67
_symmetry_space_group_name_H-M   'P 1'
_cell_length_a   18.03986988
_cell_length_b   9.02109658
_cell_length_c   22.25259731
_cell_angle_alpha   90.02989482
_cell_angle_beta   89.90194624
_cell_angle_gamma   120.06083434
_symmetry_Int_Tables_number   1
_chemical_formula_structural   Cu12Ni3C67
_chemical_formula_sum   'Cu36 Ni9 C201'
_cell_volume   3134.27322720
_cell_formula_units_Z   3
loop_
 _symmetry_equiv_pos_site_id
 _symmetry_equiv_pos_as_xyz
  1  'x, y, z'
loop_
 _atom_site_type_symbol
 _atom_site_label
 _atom_site_symmetry_multiplicity
 _atom_site_fract_x
 _atom_site_fract_y
 _atom_site_fract_z
 _atom_site_occupancy
  C  C0  1  0.31974946  0.01176451  0.24745576  1
  C  C1  1  0.81618880  0.01024411  0.24582891  1
  C  C2  1  0.18932137  0.36822882  0.24566605  1
  C  C3  1  0.68604707  0.36037172  0.24754189  1
  C  C4  1  0.99490989  0.62293359  0.24633882  1
  C  C5  1  0.49366849  0.62615190  0.24714568  1
  C  C6  1  0.31728875  0.62449907  0.74685995  1
  C  C7  1  0.81715202  0.62431859  0.74709426  1
  C  C8  1  0.99473048  0.36579206  0.74715982  1
  C  C9  1  0.49460164  0.36551670  0.74704169  1
  C  C10  1  0.18839702  0.01032978  0.74685706  1
  C  C11  1  0.68808273  0.01014839  0.74687546  1
  C  C12  1  0.15273309  0.34652195  0.57993763  1
  C  C13  1  0.65210880  0.34490589  0.58001684  1
  C  C14  1  0.02069840  0.69528937  0.57986964  1
  C  C15  1  0.51992049  0.69499152  0.57998797  1
  C  C16  1  0.32720921  0.95847979  0.57977305  1
  C  C17  1  0.82732071  0.95943613  0.58060901  1
  C  C18  1  0.15331072  0.96015960  0.08007903  1
  C  C19  1  0.65233285  0.95950178  0.08047732  1
  C  C20  1  0.32774366  0.69610178  0.08100758  1
  C  C21  1  0.82704262  0.69457908  0.08047042  1
  C  C22  1  0.02016768  0.34572781  0.07982636  1
  C  C23  1  0.51989953  0.34487255  0.08044390  1
  C  C24  1  0.34825208  0.02942409  0.91948661  1
  C  C25  1  0.84815417  0.02938726  0.91941410  1
  C  C26  1  0.48444915  0.29169807  0.41462013  1
  C  C27  1  0.66040059  0.03080904  0.41446971  1
  C  C28  1  0.35399541  0.67902329  0.41489245  1
  C  C29  1  0.84779013  0.66650915  0.41777112  1
  C  C30  1  0.00397347  0.00750870  0.49730026  1
  C  C31  1  0.49939046  0.99976334  0.49350362  1
  C  C32  1  0.00364793  0.99976447  0.99785715  1
  C  C33  1  0.50354909  0.99981948  0.99860708  1
  C  C34  1  0.33314864  0.33908797  0.83213058  1
  C  C35  1  0.83310977  0.33908073  0.83210942  1
  C  C36  1  0.33126204  0.32911343  0.32916552  1
  C  C37  1  0.83519156  0.33135062  0.32922501  1
  C  C38  1  0.16744937  0.66714938  0.16063902  1
  C  C39  1  0.66605503  0.66640923  0.16039973  1
  C  C40  1  0.16699507  0.66695166  0.66082930  1
  C  C41  1  0.66653428  0.66667108  0.66109717  1
  C  C42  1  0.00279036  0.00427173  0.35507626  1
  C  C43  1  0.00189339  0.00004151  0.85584295  1
  C  C44  1  0.50186149  0.99997505  0.85584389  1
  C  C45  1  -0.00002395  0.99968768  0.64543772  1
  C  C46  1  0.49996166  0.99982827  0.64484529  1
  C  C47  1  0.99993967  0.00028227  0.14489987  1
  C  C48  1  0.49985393  0.00004227  0.14628109  1
  C  C49  1  0.33334710  0.33743923  0.97831597  1
  C  C50  1  0.83321668  0.33751260  0.97824911  1
  C  C51  1  0.33035574  0.32853691  0.47839988  1
  C  C52  1  0.83624485  0.33385954  0.47874416  1
  C  C53  1  0.16757813  0.66845939  0.31415279  1
  C  C54  1  0.66554350  0.66542758  0.31321580  1
  C  C55  1  0.16641823  0.66578724  0.81475915  1
  C  C56  1  0.66624308  0.66556630  0.81475437  1
  Ni  Ni57  1  0.49926744  0.99972893  0.35123613  1
  Ni  Ni58  1  0.33339684  0.33332730  0.68382475  1
  Ni  Ni59  1  0.83322795  0.33300096  0.68392676  1
  Ni  Ni60  1  0.33425333  0.33504293  0.18360068  1
  Ni  Ni61  1  0.83213856  0.33178415  0.18345624  1
  Ni  Ni62  1  0.16637450  0.66625037  0.01840335  1
  Ni  Ni63  1  0.66605993  0.66579096  0.01839544  1
  Ni  Ni64  1  0.16634256  0.66696970  0.51769686  1
  Ni  Ni65  1  0.66633358  0.66613540  0.51796234  1
  Cu  Cu66  1  0.14760006  0.00286463  0.24899374  1
  Cu  Cu67  1  0.64603518  0.00457695  0.25197296  1
  Cu  Cu68  1  0.35575786  0.70732102  0.25201610  1
  Cu  Cu69  1  0.85466355  0.70559031  0.25027528  1
  Cu  Cu70  1  0.99845462  0.29110838  0.24978413  1
  Cu  Cu71  1  0.49758862  0.28794457  0.25191595  1
  Cu  Cu72  1  0.14734561  0.29173191  0.74944973  1
  Cu  Cu73  1  0.64722946  0.29145437  0.74933693  1
  Cu  Cu74  1  0.99837898  0.70551637  0.74980149  1
  Cu  Cu75  1  0.49839243  0.70581008  0.74968461  1
  Cu  Cu76  1  0.35449689  0.00328954  0.75024024  1
  Cu  Cu77  1  0.85434855  0.00317967  0.75032573  1
  Cu  Cu78  1  0.47883067  0.33808366  0.58469687  1
  Cu  Cu79  1  0.97978498  0.33823629  0.58572061  1
  Cu  Cu80  1  0.18952208  0.04078737  0.58577324  1
  Cu  Cu81  1  0.69024707  0.04240205  0.58458637  1
  Cu  Cu82  1  0.33092002  0.61960636  0.58472796  1
  Cu  Cu83  1  0.83092476  0.62020181  0.58502031  1
  Cu  Cu84  1  0.47940350  0.62103937  0.08500326  1
  Cu  Cu85  1  0.97897332  0.61959274  0.08542972  1
  Cu  Cu86  1  0.33118621  0.04258714  0.08464873  1
  Cu  Cu87  1  0.83105393  0.04243148  0.08424706  1
  Cu  Cu88  1  0.19026245  0.33802231  0.08496538  1
  Cu  Cu89  1  0.68978880  0.33767651  0.08504908  1
  Cu  Cu90  1  0.31013551  0.66390301  0.91900596  1
  Cu  Cu91  1  0.81008130  0.66406413  0.91899804  1
  Cu  Cu92  1  0.02303349  0.37973400  0.91977508  1
  Cu  Cu93  1  0.52298034  0.37952030  0.91975594  1
  Cu  Cu94  1  0.16558155  0.95380388  0.91989490  1
  Cu  Cu95  1  0.66553889  0.95371080  0.91987888  1
  Cu  Cu96  1  0.31232383  0.95544600  0.41896207  1
  Cu  Cu97  1  0.81114338  0.95501939  0.41871466  1
  Cu  Cu98  1  0.16524010  0.37857492  0.41970369  1
  Cu  Cu99  1  0.66448777  0.37334713  0.41874859  1
  Cu  Cu100  1  0.02424618  0.66804986  0.41918274  1
  Cu  Cu101  1  0.52197001  0.67086545  0.41913061  1
  C  C102  1  0.09669319  0.02872394  0.30561342  1
  C  C103  1  0.60311827  0.03688427  0.31035948  1
  C  C104  1  0.41493814  0.79310639  0.31028790  1
  C  C105  1  0.91588266  0.80184984  0.30832318  1
  C  C106  1  0.48187807  0.17039336  0.31031636  1
  C  C107  1  0.98493674  0.16244698  0.30603301  1
  C  C108  1  0.09642315  0.16340857  0.80552060  1
  C  C109  1  0.59654555  0.16350705  0.80554935  1
  C  C110  1  0.48465446  0.80672682  0.80579606  1
  C  C111  1  0.98457762  0.80674442  0.80575899  1
  C  C112  1  0.41592026  0.03025120  0.80797452  1
  C  C113  1  0.91595244  0.03029017  0.80792527  1
  C  C114  1  0.39995840  0.96499486  0.69180016  1
  C  C115  1  0.89977188  0.96489250  0.69178232  1
  C  C116  1  0.08312571  0.20169225  0.69085642  1
  C  C117  1  0.58323689  0.20178455  0.69075232  1
  C  C118  1  0.01774997  0.83394312  0.69105455  1
  C  C119  1  0.51791903  0.83425648  0.69101962  1
  C  C120  1  0.39967789  0.83485269  0.19230871  1
  C  C121  1  0.89995464  0.83478799  0.19197818  1
  C  C122  1  0.01771644  0.20113150  0.19123712  1
  C  C123  1  0.51773298  0.20065968  0.19225721  1
  C  C124  1  0.08291069  0.96443704  0.19093926  1
  C  C125  1  0.58265331  0.96491556  0.19224326  1
  C  C126  1  0.43711091  0.37073798  0.64412901  1
  C  C127  1  0.93740803  0.37064027  0.64475212  1
  C  C128  1  0.24770205  0.12450820  0.64494374  1
  C  C129  1  0.74844654  0.12578213  0.64388310  1
  C  C130  1  0.31482178  0.50327230  0.64405576  1
  C  C131  1  0.81483697  0.50360037  0.64412760  1
  C  C132  1  0.43785770  0.50530441  0.14442018  1
  C  C133  1  0.93716974  0.50392888  0.14504898  1
  C  C134  1  0.31451948  0.12605338  0.14400872  1
  C  C135  1  0.81553475  0.12631470  0.14384596  1
  C  C136  1  0.24752214  0.36980025  0.14456899  1
  C  C137  1  0.74788588  0.37220609  0.14460826  1
  C  C138  1  0.23484053  0.29634159  0.02712784  1
  C  C139  1  0.73519408  0.29682358  0.02738610  1
  C  C140  1  0.41388000  0.52958834  0.02728607  1
  C  C141  1  0.91374516  0.52948884  0.02755504  1
  C  C142  1  0.35121964  0.16777543  0.02511504  1
  C  C143  1  0.85167387  0.16795989  0.02492058  1
  C  C144  1  0.23449441  0.17213631  0.52779871  1
  C  C145  1  0.73361256  0.16960883  0.52532276  1
  C  C146  1  0.35141611  0.53373531  0.52545167  1
  C  C147  1  0.85111430  0.53412758  0.52550126  1
  C  C148  1  0.41538970  0.29791253  0.52560149  1
  C  C149  1  0.91413556  0.29788401  0.52765235  1
  C  C150  1  0.27137652  0.70880152  0.97677434  1
  C  C151  1  0.77143395  0.70893516  0.97683072  1
  C  C152  1  0.08011100  0.45976501  0.97849216  1
  C  C153  1  0.58017650  0.45962162  0.97838814  1
  C  C154  1  0.15040122  0.84057377  0.97871128  1
  C  C155  1  0.65068340  0.84072357  0.97868126  1
  C  C156  1  0.26980953  0.83500924  0.47708366  1
  C  C157  1  0.77168662  0.83595883  0.47719447  1
  C  C158  1  0.15019113  0.45924118  0.47918375  1
  C  C159  1  0.64880886  0.46079393  0.47702016  1
  C  C160  1  0.07909288  0.69933688  0.47886809  1
  C  C161  1  0.58254387  0.70498571  0.47687544  1
  C  C162  1  0.06744659  0.63783956  0.35804177  1
  C  C163  1  0.56705007  0.63291115  0.35933949  1
  C  C164  1  0.25111675  0.86469837  0.35848308  1
  C  C165  1  0.75010099  0.86699969  0.35845204  1
  C  C166  1  0.18241482  0.49943734  0.35895276  1
  C  C167  1  0.68431346  0.50200708  0.35913246  1
  C  C168  1  0.06773132  0.49664465  0.85830443  1
  C  C169  1  0.56773300  0.49668545  0.85830558  1
  C  C170  1  0.18222749  0.86514877  0.85889793  1
  C  C171  1  0.68237904  0.86533451  0.85885896  1
  C  C172  1  0.25165084  0.63853828  0.85777528  1
  C  C173  1  0.75169716  0.63862987  0.85775486  1
  C  C174  1  0.00753440  0.83093155  0.40953123  1
  C  C175  1  0.51040319  0.83657374  0.41173916  1
  C  C176  1  0.40726677  0.97853605  0.41163840  1
  C  C177  1  0.90519794  0.97141565  0.40921059  1
  C  C178  1  0.08263257  0.18630106  0.40962581  1
  C  C179  1  0.58146113  0.18462318  0.41167842  1
  C  C180  1  0.00790302  0.18436466  0.90938615  1
  C  C181  1  0.50790994  0.18433611  0.90932498  1
  C  C182  1  0.08222218  0.97780143  0.90938558  1
  C  C183  1  0.58226210  0.97779495  0.90939008  1
  C  C184  1  0.40437229  0.83808192  0.90851814  1
  C  C185  1  0.90439986  0.83817122  0.90854739  1
  C  C186  1  0.48562964  0.15991836  0.58934267  1
  C  C187  1  0.98562558  0.15920095  0.58921818  1
  C  C188  1  0.09398366  0.02854753  0.58938901  1
  C  C189  1  0.59450571  0.02897586  0.58930837  1
  C  C190  1  0.42020601  0.81151618  0.58946250  1
  C  C191  1  0.92024454  0.81197907  0.58922976  1
  C  C192  1  0.48592807  0.81250839  0.08903206  1
  C  C193  1  0.98554075  0.81141198  0.08933320  1
  C  C194  1  0.42030862  0.02853508  0.08939105  1
  C  C195  1  0.92023671  0.02819823  0.08925683  1
  C  C196  1  0.09409344  0.15959687  0.08925809  1
  C  C197  1  0.59405542  0.15944543  0.08930064  1
  C  C198  1  0.34513596  0.17133421  0.74573497  1
  C  C199  1  0.84508933  0.17127400  0.74568737  1
  C  C200  1  0.24049354  0.30986222  0.74562647  1
  C  C201  1  0.74051423  0.30974932  0.74554602  1
  C  C202  1  0.41428019  0.51922615  0.74565868  1
  C  C203  1  0.91417448  0.51922050  0.74563850  1
  C  C204  1  0.34326430  0.51757025  0.24484231  1
  C  C205  1  0.84533688  0.51903873  0.24623419  1
  C  C206  1  0.41515492  0.31263730  0.24494225  1
  C  C207  1  0.91440205  0.30895754  0.24610515  1
  C  C208  1  0.24058804  0.17091215  0.24592936  1
  C  C209  1  0.74114310  0.16992399  0.24476240  1
  C  C210  1  0.32067117  0.49454102  0.92204478  1
  C  C211  1  0.82075544  0.49478474  0.92206969  1
  C  C212  1  0.42525466  0.35111902  0.92227100  1
  C  C213  1  0.92527362  0.35127488  0.92232164  1
  C  C214  1  0.25421337  0.14193281  0.92228689  1
  C  C215  1  0.75421222  0.14201824  0.92237535  1
  C  C216  1  0.32242874  0.14848264  0.42264198  1
  C  C217  1  0.81702845  0.14300923  0.42239703  1
  C  C218  1  0.25421416  0.36735477  0.42276549  1
  C  C219  1  0.75341932  0.36103795  0.42256886  1
  C  C220  1  0.42718236  0.49305271  0.42260769  1
  C  C221  1  0.92582860  0.49898450  0.42259933  1
  C  C222  1  0.17738417  0.50262201  0.07814628  1
  C  C223  1  0.67744675  0.50289180  0.07805720  1
  C  C224  1  0.07431718  0.64614156  0.07899008  1
  C  C225  1  0.57460483  0.64649535  0.07861732  1
  C  C226  1  0.24888520  0.85110740  0.07865428  1
  C  C227  1  0.74894135  0.85105801  0.07865316  1
  C  C228  1  0.17685279  0.85111398  0.57868560  1
  C  C229  1  0.67730153  0.85190162  0.57798546  1
  C  C230  1  0.24899619  0.64659491  0.57876238  1
  C  C231  1  0.74874439  0.64614024  0.57850691  1
  C  C232  1  0.07465623  0.50269879  0.57894898  1
  C  C233  1  0.57433557  0.50277736  0.57834069  1
  C  C234  1  0.15232736  0.82570273  0.25543973  1
  C  C235  1  0.65291091  0.82679435  0.25610621  1
  C  C236  1  0.26012636  0.69417455  0.25575410  1
  C  C237  1  0.76081342  0.69520829  0.25598599  1
  C  C238  1  0.08682581  0.47833612  0.25608707  1
  C  C239  1  0.58705410  0.47906829  0.25601043  1
  C  C240  1  0.15268774  0.47919438  0.75537687  1
  C  C241  1  0.65285426  0.47927812  0.75538338  1
  C  C242  1  0.08674285  0.69477200  0.75585637  1
  C  C243  1  0.58674412  0.69471359  0.75587904  1
  C  C244  1  0.26012369  0.82640077  0.75544872  1
  C  C245  1  0.76010699  0.82628427  0.75534581  1
