# generated using pymatgen
data_Cu2NiC
_symmetry_space_group_name_H-M   'P 1'
_cell_length_a   8.09209700
_cell_length_b   9.18641800
_cell_length_c   10.08302700
_cell_angle_alpha   90.00000000
_cell_angle_beta   90.00000000
_cell_angle_gamma   90.00000000
_symmetry_Int_Tables_number   1
_chemical_formula_structural   Cu2NiC
_chemical_formula_sum   'Cu24 Ni12 C12'
_cell_volume   749.54586549
_cell_formula_units_Z   12
loop_
 _symmetry_equiv_pos_site_id
 _symmetry_equiv_pos_as_xyz
  1  'x, y, z'
loop_
 _atom_site_type_symbol
 _atom_site_label
 _atom_site_symmetry_multiplicity
 _atom_site_fract_x
 _atom_site_fract_y
 _atom_site_fract_z
 _atom_site_occupancy
  C  C0  1  0.00000000  0.16982400  0.82120900  1
  C  C1  1  0.24780900  0.67492000  0.95088100  1
  C  C2  1  0.75219100  0.82508000  0.45088100  1
  C  C3  1  0.75219100  0.17492000  0.54911900  1
  C  C4  1  0.75219100  0.67492000  0.95088100  1
  C  C5  1  0.75219100  0.32508000  0.04911900  1
  C  C6  1  0.24780900  0.17492000  0.54911900  1
  C  C7  1  0.24780900  0.82508000  0.45088100  1
  C  C8  1  0.00000000  0.33017600  0.32120900  1
  C  C9  1  0.00000000  0.66982400  0.67879100  1
  C  C10  1  0.00000000  0.83017600  0.17879100  1
  C  C11  1  0.24780900  0.32508000  0.04911900  1
  Ni  Ni12  1  0.24921400  0.08517400  0.26212700  1
  Ni  Ni13  1  0.24921400  0.91482600  0.73787300  1
  Ni  Ni14  1  0.75078600  0.58517400  0.23787300  1
  Ni  Ni15  1  0.75078600  0.41482600  0.76212700  1
  Ni  Ni16  1  0.75078600  0.91482600  0.73787300  1
  Ni  Ni17  1  0.75078600  0.08517400  0.26212700  1
  Ni  Ni18  1  0.24921400  0.41482600  0.76212700  1
  Ni  Ni19  1  0.24921400  0.58517400  0.23787300  1
  Ni  Ni20  1  0.24441400  0.00000000  0.00000000  1
  Ni  Ni21  1  0.75558600  0.50000000  0.50000000  1
  Ni  Ni22  1  0.75558600  0.00000000  0.00000000  1
  Ni  Ni23  1  0.24441400  0.50000000  0.50000000  1
  Cu  Cu24  1  0.00000000  0.36817900  0.60162800  1
  Cu  Cu25  1  0.00000000  0.63182100  0.39837200  1
  Cu  Cu26  1  0.00000000  0.86817900  0.89837200  1
  Cu  Cu27  1  0.00000000  0.13182100  0.10162800  1
  Cu  Cu28  1  0.00000000  0.46557200  0.88636600  1
  Cu  Cu29  1  0.00000000  0.53442800  0.11363400  1
  Cu  Cu30  1  0.00000000  0.96557200  0.61363400  1
  Cu  Cu31  1  0.00000000  0.03442800  0.38636600  1
  Cu  Cu32  1  0.50000000  0.37547700  0.59609200  1
  Cu  Cu33  1  0.50000000  0.62452300  0.40390800  1
  Cu  Cu34  1  0.50000000  0.87547700  0.90390800  1
  Cu  Cu35  1  0.50000000  0.12452300  0.09609200  1
  Cu  Cu36  1  0.50000000  0.46199800  0.88630800  1
  Cu  Cu37  1  0.50000000  0.53800200  0.11369200  1
  Cu  Cu38  1  0.50000000  0.96199800  0.61369200  1
  Cu  Cu39  1  0.50000000  0.03800200  0.38630800  1
  Cu  Cu40  1  0.35398300  0.83386800  0.18082500  1
  Cu  Cu41  1  0.35398300  0.33386800  0.31917500  1
  Cu  Cu42  1  0.64601700  0.33386800  0.31917500  1
  Cu  Cu43  1  0.64601700  0.66613200  0.68082500  1
  Cu  Cu44  1  0.64601700  0.16613200  0.81917500  1
  Cu  Cu45  1  0.64601700  0.83386800  0.18082500  1
  Cu  Cu46  1  0.35398300  0.66613200  0.68082500  1
  Cu  Cu47  1  0.35398300  0.16613200  0.81917500  1
