# generated using pymatgen
data_Cu4NiC14
_symmetry_space_group_name_H-M   'P 1'
_cell_length_a   5.71439636
_cell_length_b   6.98373023
_cell_length_c   6.98262480
_cell_angle_alpha   81.78454493
_cell_angle_beta   73.61246078
_cell_angle_gamma   73.59684019
_symmetry_Int_Tables_number   1
_chemical_formula_structural   Cu4NiC14
_chemical_formula_sum   'Cu4 Ni1 C14'
_cell_volume   255.85364866
_cell_formula_units_Z   1
loop_
 _symmetry_equiv_pos_site_id
 _symmetry_equiv_pos_as_xyz
  1  'x, y, z'
loop_
 _atom_site_type_symbol
 _atom_site_label
 _atom_site_symmetry_multiplicity
 _atom_site_fract_x
 _atom_site_fract_y
 _atom_site_fract_z
 _atom_site_occupancy
  Ni  Ni0  1  0.75001754  0.27787722  0.72129431  1
  Cu  Cu1  1  0.72276702  0.38798288  0.20404205  1
  Cu  Cu2  1  0.77701095  0.79528537  0.61164109  1
  Cu  Cu3  1  0.26868102  0.61499028  0.79362047  1
  Cu  Cu4  1  0.23112035  0.20623658  0.38442544  1
  C  C5  1  0.75010773  0.90234218  0.09721363  1
  C  C6  1  0.25004964  0.09034963  0.90919751  1
  C  C7  1  0.41965762  0.37602513  0.35234648  1
  C  C8  1  0.07977495  0.64656089  0.62416111  1
  C  C9  1  0.59454604  0.61259097  0.66639121  1
  C  C10  1  0.90504921  0.33277194  0.38702918  1
  C  C11  1  0.13596586  0.12971381  0.63910152  1
  C  C12  1  0.36420358  0.36033663  0.87001359  1
  C  C13  1  0.76291820  0.92876123  0.38729193  1
  C  C14  1  0.73789032  0.61216781  0.07058442  1
  C  C15  1  0.84127085  0.20227895  0.01978515  1
  C  C16  1  0.65875310  0.97969092  0.79736898  1
  C  C17  1  0.15251390  0.80435272  0.96372291  1
  C  C18  1  0.34770213  0.03598184  0.19521400  1
