# generated using pymatgen
data_Cu2NiC5
_symmetry_space_group_name_H-M   'P 1'
_cell_length_a   12.14470700
_cell_length_b   4.05842600
_cell_length_c   6.74736764
_cell_angle_alpha   79.08499150
_cell_angle_beta   90.00000000
_cell_angle_gamma   90.00000000
_symmetry_Int_Tables_number   1
_chemical_formula_structural   Cu2NiC5
_chemical_formula_sum   'Cu8 Ni4 C20'
_cell_volume   326.55049966
_cell_formula_units_Z   4
loop_
 _symmetry_equiv_pos_site_id
 _symmetry_equiv_pos_as_xyz
  1  'x, y, z'
loop_
 _atom_site_type_symbol
 _atom_site_label
 _atom_site_symmetry_multiplicity
 _atom_site_fract_x
 _atom_site_fract_y
 _atom_site_fract_z
 _atom_site_occupancy
  C  C0  1  0.60237100  0.21237100  0.09230400  1
  C  C1  1  0.10237100  0.78762900  0.40769600  1
  C  C2  1  0.39762900  0.78762900  0.90769600  1
  C  C3  1  0.89762900  0.21237100  0.59230400  1
  C  C4  1  0.48317400  0.19759800  0.20022700  1
  C  C5  1  0.98317400  0.80240200  0.29977300  1
  C  C6  1  0.51682600  0.80240200  0.79977300  1
  C  C7  1  0.01682600  0.19759800  0.70022700  1
  C  C8  1  0.69631200  0.70360600  0.42342300  1
  C  C9  1  0.19631200  0.29639400  0.07657700  1
  C  C10  1  0.30368800  0.29639400  0.57657700  1
  C  C11  1  0.80368800  0.70360600  0.92342300  1
  C  C12  1  0.89944200  0.42409100  0.84242900  1
  C  C13  1  0.39944200  0.57590900  0.65757100  1
  C  C14  1  0.10055800  0.57590900  0.15757100  1
  C  C15  1  0.60055800  0.42409100  0.34242900  1
  C  C16  1  0.84865300  0.38434000  0.09078000  1
  C  C17  1  0.34865300  0.61566000  0.40922000  1
  C  C18  1  0.15134700  0.61566000  0.90922000  1
  C  C19  1  0.65134700  0.38434000  0.59078000  1
  Ni  Ni20  1  0.83008500  0.02745800  0.34186700  1
  Ni  Ni21  1  0.33008500  0.97254200  0.15813300  1
  Ni  Ni22  1  0.16991500  0.97254200  0.65813300  1
  Ni  Ni23  1  0.66991500  0.02745800  0.84186700  1
  Cu  Cu24  1  0.55944500  0.28564300  0.20127100  1
  Cu  Cu25  1  0.05944500  0.71435700  0.29872900  1
  Cu  Cu26  1  0.44055500  0.71435700  0.79872900  1
  Cu  Cu27  1  0.94055500  0.28564300  0.70127100  1
  Cu  Cu28  1  0.63117200  0.55464700  0.46644700  1
  Cu  Cu29  1  0.13117200  0.44535300  0.03355300  1
  Cu  Cu30  1  0.36882800  0.44535300  0.53355300  1
  Cu  Cu31  1  0.86882800  0.55464700  0.96644700  1
