# generated using pymatgen
data_Cu5Ni7C58
_symmetry_space_group_name_H-M   'P 1'
_cell_length_a   17.54859090
_cell_length_b   8.78202519
_cell_length_c   22.65324322
_cell_angle_alpha   90.05091531
_cell_angle_beta   89.96935905
_cell_angle_gamma   120.05041140
_symmetry_Int_Tables_number   1
_chemical_formula_structural   Cu5Ni7C58
_chemical_formula_sum   'Cu15 Ni21 C174'
_cell_volume   3021.87807047
_cell_formula_units_Z   3
loop_
 _symmetry_equiv_pos_site_id
 _symmetry_equiv_pos_as_xyz
  1  'x, y, z'
loop_
 _atom_site_type_symbol
 _atom_site_label
 _atom_site_symmetry_multiplicity
 _atom_site_fract_x
 _atom_site_fract_y
 _atom_site_fract_z
 _atom_site_occupancy
  C  C0  1  0.99936695  0.00183462  0.49652048  1
  C  C1  1  0.50016873  0.00406917  0.99249529  1
  C  C2  1  0.33497912  0.32716336  0.83183681  1
  C  C3  1  0.82664582  0.32964676  0.83496803  1
  C  C4  1  0.32762136  0.32481466  0.34089975  1
  C  C5  1  0.83374248  0.34325793  0.33779916  1
  C  C6  1  0.49928383  0.99150474  0.36027413  1
  C  C7  1  0.99913271  0.00367769  0.85769952  1
  C  C8  1  0.49713975  0.00129196  0.64075546  1
  C  C9  1  0.99615034  0.99342720  0.14123419  1
  C  C10  1  0.32787776  0.33610986  0.68981117  1
  C  C11  1  0.83132418  0.31697704  0.68916355  1
  C  C12  1  0.32696735  0.33563708  0.19232202  1
  C  C13  1  0.82823969  0.31903269  0.19146266  1
  C  C14  1  0.32998798  0.33434217  0.97267612  1
  C  C15  1  0.83463690  0.32238792  0.47494713  1
  C  C16  1  0.17309577  0.67341029  0.02105595  1
  C  C17  1  0.67290237  0.66937447  0.02096425  1
  C  C18  1  0.16780222  0.66909303  0.52436931  1
  C  C19  1  0.67544683  0.67259069  0.52192147  1
  C  C20  1  0.17077421  0.68891003  0.31197490  1
  C  C21  1  0.67650207  0.67657048  0.30776091  1
  C  C22  1  0.17581670  0.67593920  0.80600842  1
  C  C23  1  0.66931604  0.65001615  0.80967472  1
  C  C24  1  0.99802505  0.96886279  0.35703755  1
  C  C25  1  0.49783097  0.02781371  0.85536726  1
  C  C26  1  0.99464442  0.02767368  0.64860274  1
  C  C27  1  0.49770529  0.98673511  0.15448713  1
  C  C28  1  0.83081640  0.32871252  0.98006980  1
  C  C29  1  0.32875741  0.32915457  0.48095546  1
  Ni  Ni30  1  0.13440633  0.99932102  0.25333744  1
  Ni  Ni31  1  0.63531102  0.99188568  0.24856604  1
  Ni  Ni32  1  0.35847870  0.72255903  0.24841024  1
  Ni  Ni33  1  0.86309188  0.71785812  0.25124131  1
  Ni  Ni34  1  0.13642147  0.27771855  0.74836534  1
  Ni  Ni35  1  0.63849889  0.26819849  0.75287127  1
  Ni  Ni36  1  0.36377769  0.01029260  0.75085283  1
  Ni  Ni37  1  0.85803826  0.99670731  0.74866788  1
  Ni  Ni38  1  0.97772065  0.32532829  0.58412475  1
  Ni  Ni39  1  0.68853335  0.04519162  0.58170085  1
  Ni  Ni40  1  0.33499404  0.61239036  0.57726700  1
  Ni  Ni41  1  0.83361382  0.05692176  0.07800286  1
  Ni  Ni42  1  0.18866845  0.33256290  0.08275972  1
  Ni  Ni43  1  0.31950716  0.68578359  0.91290643  1
  Ni  Ni44  1  0.81211622  0.64898267  0.91803897  1
  Ni  Ni45  1  0.52624420  0.37768824  0.91688827  1
  Ni  Ni46  1  0.16310353  0.94636195  0.91624981  1
  Ni  Ni47  1  0.31081176  0.97230625  0.42066877  1
  Ni  Ni48  1  0.82017597  0.95571841  0.41344252  1
  Ni  Ni49  1  0.66628892  0.38074299  0.41680660  1
  Ni  Ni50  1  0.02537113  0.67451718  0.41689560  1
  Cu  Cu51  1  0.00118383  0.28391297  0.25123347  1
  Cu  Cu52  1  0.50022604  0.28121979  0.24788293  1
  Cu  Cu53  1  0.99989652  0.71861007  0.74839584  1
  Cu  Cu54  1  0.50083311  0.71781091  0.75131993  1
  Cu  Cu55  1  0.47455672  0.33549237  0.58088405  1
  Cu  Cu56  1  0.18757313  0.04850865  0.58271239  1
  Cu  Cu57  1  0.83871827  0.62639556  0.58429623  1
  Cu  Cu58  1  0.47744059  0.62754326  0.08392787  1
  Cu  Cu59  1  0.97434397  0.61365775  0.08102798  1
  Cu  Cu60  1  0.33933527  0.04929668  0.08405042  1
  Cu  Cu61  1  0.68616114  0.32476483  0.08304148  1
  Cu  Cu62  1  0.02028268  0.38274848  0.91749768  1
  Cu  Cu63  1  0.66794961  0.95895958  0.91717951  1
  Cu  Cu64  1  0.16725745  0.37649339  0.41696812  1
  Cu  Cu65  1  0.52078249  0.65652822  0.41772743  1
  C  C66  1  0.09563827  0.04252013  0.30998844  1
  C  C67  1  0.59641071  0.03428128  0.30757692  1
  C  C68  1  0.41993625  0.80753128  0.30656900  1
  C  C69  1  0.91866516  0.80103104  0.30906272  1
  C  C70  1  0.48185952  0.17291146  0.30137048  1
  C  C71  1  0.98087511  0.17572671  0.30308313  1
  C  C72  1  0.09818684  0.16208444  0.80878516  1
  C  C73  1  0.59612532  0.15003131  0.81046850  1
  C  C74  1  0.48089764  0.78660845  0.80387490  1
  C  C75  1  0.98527142  0.79729807  0.80298047  1
  C  C76  1  0.41696277  0.03583045  0.81005544  1
  C  C77  1  0.91905116  0.03137507  0.80763309  1
  C  C78  1  0.40203058  0.97098231  0.69120976  1
  C  C79  1  0.89916077  0.95964077  0.69172126  1
  C  C80  1  0.08391114  0.18753564  0.68990614  1
  C  C81  1  0.58084269  0.18375524  0.69307321  1
  C  C82  1  0.01484705  0.82337408  0.69557811  1
  C  C83  1  0.51250929  0.81898263  0.69668129  1
  C  C84  1  0.39948897  0.83711427  0.18998451  1
  C  C85  1  0.90210044  0.83276321  0.19093273  1
  C  C86  1  0.01195358  0.20438507  0.19594333  1
  C  C87  1  0.51402814  0.20204284  0.19435919  1
  C  C88  1  0.08090030  0.97706407  0.19230977  1
  C  C89  1  0.58428137  0.97798149  0.18876671  1
  C  C90  1  0.43476616  0.35930123  0.63531285  1
  C  C91  1  0.93124096  0.36322180  0.64139855  1
  C  C92  1  0.24454621  0.13110381  0.63684403  1
  C  C93  1  0.75075828  0.13438736  0.64045324  1
  C  C94  1  0.32143801  0.49410188  0.63773806  1
  C  C95  1  0.81976868  0.51463185  0.63719441  1
  C  C96  1  0.43722209  0.51455098  0.13684383  1
  C  C97  1  0.93477465  0.50981642  0.13515368  1
  C  C98  1  0.32417094  0.13029420  0.13681933  1
  C  C99  1  0.82037085  0.14806430  0.13799042  1
  C  C100  1  0.25320388  0.36614152  0.14024373  1
  C  C101  1  0.74225815  0.35774417  0.13685457  1
  C  C102  1  0.24010380  0.30556144  0.02766771  1
  C  C103  1  0.72816329  0.30107759  0.03036968  1
  C  C104  1  0.42145869  0.54120963  0.03109675  1
  C  C105  1  0.91950418  0.53521982  0.02854345  1
  C  C106  1  0.35108601  0.15529127  0.03048850  1
  C  C107  1  0.84628838  0.18076517  0.02327573  1
  C  C108  1  0.23042693  0.15813015  0.53027995  1
  C  C109  1  0.73516626  0.17166738  0.52566563  1
  C  C110  1  0.34815091  0.51214994  0.52312827  1
  C  C111  1  0.84872447  0.54476858  0.53026395  1
  C  C112  1  0.41952234  0.30354632  0.52854727  1
  C  C113  1  0.91407222  0.30148719  0.52722255  1
  C  C114  1  0.26610096  0.70117580  0.97225503  1
  C  C115  1  0.76596248  0.69063963  0.97500244  1
  C  C116  1  0.07695249  0.46523940  0.97109122  1
  C  C117  1  0.58472818  0.47956921  0.97559783  1
  C  C118  1  0.15115254  0.83149763  0.97590745  1
  C  C119  1  0.65576902  0.84523726  0.97105380  1
  C  C120  1  0.26548908  0.83975634  0.47553498  1
  C  C121  1  0.76668617  0.83153208  0.47211854  1
  C  C122  1  0.15506041  0.46239309  0.47047285  1
  C  C123  1  0.65010585  0.47085303  0.47525297  1
  C  C124  1  0.08629656  0.69319798  0.47390198  1
  C  C125  1  0.57656968  0.68830052  0.47070145  1
  C  C126  1  0.06841896  0.63066099  0.35902196  1
  C  C127  1  0.56021670  0.63243318  0.36383333  1
  C  C128  1  0.24951549  0.87514722  0.36085030  1
  C  C129  1  0.75159297  0.86244790  0.35799693  1
  C  C130  1  0.18385999  0.48918466  0.36372157  1
  C  C131  1  0.67585663  0.50116056  0.35934862  1
  C  C132  1  0.05987490  0.48882773  0.86448989  1
  C  C133  1  0.56753398  0.50703676  0.86008117  1
  C  C134  1  0.17726745  0.85206480  0.85954272  1
  C  C135  1  0.68380744  0.87967523  0.86453464  1
  C  C136  1  0.25060144  0.63753539  0.85829390  1
  C  C137  1  0.74812127  0.62323894  0.86108396  1
  C  C138  1  0.01929206  0.84964802  0.41262641  1
  C  C139  1  0.51377654  0.82032607  0.41214254  1
  C  C140  1  0.40450785  0.98407613  0.40417798  1
  C  C141  1  0.91649748  0.98575408  0.40599596  1
  C  C142  1  0.08839963  0.20505396  0.41111894  1
  C  C143  1  0.58033918  0.18889734  0.40640711  1
  C  C144  1  0.01372336  0.20704972  0.91212070  1
  C  C145  1  0.51848862  0.18900192  0.91286147  1
  C  C146  1  0.08029171  0.97411216  0.90801773  1
  C  C147  1  0.58826622  0.97116849  0.91334627  1
  C  C148  1  0.41655406  0.84751600  0.90632946  1
  C  C149  1  0.90512110  0.82594295  0.90530555  1
  C  C150  1  0.48517692  0.17782834  0.58825747  1
  C  C151  1  0.98585167  0.15055288  0.58862693  1
  C  C152  1  0.09986443  0.02362768  0.59062155  1
  C  C153  1  0.59347175  0.02353080  0.59375823  1
  C  C154  1  0.41908025  0.80431343  0.59263759  1
  C  C155  1  0.91595052  0.80152448  0.59120715  1
  C  C156  1  0.48507704  0.80287376  0.09021078  1
  C  C157  1  0.98530567  0.79272688  0.08833844  1
  C  C158  1  0.41688481  0.02743608  0.09072351  1
  C  C159  1  0.91697277  0.02959207  0.09220137  1
  C  C160  1  0.09410630  0.16320723  0.09324969  1
  C  C161  1  0.59708648  0.17190022  0.09091561  1
  C  C162  1  0.34931974  0.17890989  0.73898162  1
  C  C163  1  0.85042037  0.17786419  0.74481932  1
  C  C164  1  0.23933107  0.31170714  0.74298064  1
  C  C165  1  0.74143383  0.31498302  0.74219876  1
  C  C166  1  0.42180207  0.53218536  0.74189007  1
  C  C167  1  0.91929498  0.54071648  0.74391947  1
  C  C168  1  0.35243632  0.52507921  0.24207486  1
  C  C169  1  0.84892163  0.52049647  0.23809023  1
  C  C170  1  0.42036932  0.30118224  0.23918838  1
  C  C171  1  0.92160930  0.31078575  0.24113888  1
  C  C172  1  0.23913119  0.16655899  0.24141123  1
  C  C173  1  0.73807500  0.16534745  0.24235679  1
  C  C174  1  0.32254727  0.50211882  0.92474081  1
  C  C175  1  0.82153049  0.47859957  0.93008833  1
  C  C176  1  0.42872307  0.35796229  0.92889500  1
  C  C177  1  0.93202803  0.36021210  0.92580127  1
  C  C178  1  0.25301867  0.14016872  0.92444611  1
  C  C179  1  0.74781547  0.13533850  0.92585994  1
  C  C180  1  0.32224432  0.16528927  0.42967290  1
  C  C181  1  0.82034461  0.14168167  0.42136838  1
  C  C182  1  0.24787234  0.36028342  0.42454811  1
  C  C183  1  0.75414730  0.36699091  0.42446756  1
  C  C184  1  0.43194463  0.50365166  0.42467617  1
  C  C185  1  0.92749102  0.49977933  0.42522052  1
  C  C186  1  0.17760242  0.50402560  0.07235944  1
  C  C187  1  0.67954892  0.48862218  0.07670215  1
  C  C188  1  0.06321314  0.63397646  0.07394991  1
  C  C189  1  0.56516407  0.64558099  0.07556870  1
  C  C190  1  0.25723236  0.87193515  0.07684660  1
  C  C191  1  0.74605874  0.86166288  0.07145660  1
  C  C192  1  0.18372109  0.87534449  0.57766166  1
  C  C193  1  0.67635647  0.84998877  0.57142750  1
  C  C194  1  0.24936639  0.63486936  0.57075143  1
  C  C195  1  0.75650381  0.64313478  0.57687762  1
  C  C196  1  0.07276085  0.50082604  0.57267895  1
  C  C197  1  0.56304584  0.49271996  0.57417810  1
  C  C198  1  0.15049770  0.83069279  0.25904134  1
  C  C199  1  0.64591208  0.82075640  0.26044796  1
  C  C200  1  0.25870148  0.67841684  0.26185881  1
  C  C201  1  0.76239915  0.68741324  0.25694235  1
  C  C202  1  0.07917850  0.46032918  0.25684424  1
  C  C203  1  0.57605060  0.45859731  0.25620822  1
  C  C204  1  0.14675307  0.47058538  0.76074945  1
  C  C205  1  0.64928510  0.46724076  0.75913715  1
  C  C206  1  0.07627538  0.69233134  0.75906245  1
  C  C207  1  0.57898891  0.69765728  0.75816021  1
  C  C208  1  0.26289952  0.83766569  0.75698063  1
  C  C209  1  0.75880156  0.83650427  0.76308164  1
