# generated using pymatgen
data_Cu3Ni2C3
_symmetry_space_group_name_H-M   'P 1'
_cell_length_a   8.78124378
_cell_length_b   8.78124378
_cell_length_c   8.78124429
_cell_angle_alpha   89.98961357
_cell_angle_beta   89.98961357
_cell_angle_gamma   89.98960989
_symmetry_Int_Tables_number   1
_chemical_formula_structural   Cu3Ni2C3
_chemical_formula_sum   'Cu12 Ni8 C12'
_cell_volume   677.12384192
_cell_formula_units_Z   4
loop_
 _symmetry_equiv_pos_site_id
 _symmetry_equiv_pos_as_xyz
  1  'x, y, z'
loop_
 _atom_site_type_symbol
 _atom_site_label
 _atom_site_symmetry_multiplicity
 _atom_site_fract_x
 _atom_site_fract_y
 _atom_site_fract_z
 _atom_site_occupancy
  Ni  Ni0  1  0.24513900  0.24513900  0.24513900  1
  Ni  Ni1  1  0.75486100  0.75486100  0.75486100  1
  Ni  Ni2  1  0.74583500  0.24875000  0.74806500  1
  Ni  Ni3  1  0.24875000  0.74806500  0.74583500  1
  Ni  Ni4  1  0.74806500  0.74583500  0.24875000  1
  Ni  Ni5  1  0.25416500  0.75125000  0.25193500  1
  Ni  Ni6  1  0.75125000  0.25193500  0.25416500  1
  Ni  Ni7  1  0.25193500  0.25416500  0.75125000  1
  Cu  Cu8  1  0.31912200  0.99658700  0.16765400  1
  Cu  Cu9  1  0.99658700  0.16765400  0.31912200  1
  Cu  Cu10  1  0.16765400  0.31912200  0.99658700  1
  Cu  Cu11  1  0.68087800  0.00341300  0.83234600  1
  Cu  Cu12  1  0.00341300  0.83234600  0.68087800  1
  Cu  Cu13  1  0.83234600  0.68087800  0.00341300  1
  Cu  Cu14  1  0.81909200  0.50077400  0.33164600  1
  Cu  Cu15  1  0.50077400  0.33164600  0.81909200  1
  Cu  Cu16  1  0.33164600  0.81909200  0.50077400  1
  Cu  Cu17  1  0.18090800  0.49922600  0.66835400  1
  Cu  Cu18  1  0.49922600  0.66835400  0.18090800  1
  Cu  Cu19  1  0.66835400  0.18090800  0.49922600  1
  C  C20  1  0.34406400  0.99919800  0.85156700  1
  C  C21  1  0.99919800  0.85156700  0.34406400  1
  C  C22  1  0.85156700  0.34406400  0.99919800  1
  C  C23  1  0.65593600  0.00080200  0.14843300  1
  C  C24  1  0.00080200  0.14843300  0.65593600  1
  C  C25  1  0.14843300  0.65593600  0.00080200  1
  C  C26  1  0.84447100  0.50421300  0.64796400  1
  C  C27  1  0.50421300  0.64796400  0.84447100  1
  C  C28  1  0.64796400  0.84447100  0.50421300  1
  C  C29  1  0.15552900  0.49578700  0.35203600  1
  C  C30  1  0.49578700  0.35203600  0.15552900  1
  C  C31  1  0.35203600  0.15552900  0.49578700  1
