# generated using pymatgen
data_Cu5NiC29
_symmetry_space_group_name_H-M   'P 1'
_cell_length_a   8.85523429
_cell_length_b   8.85387000
_cell_length_c   22.97442307
_cell_angle_alpha   89.96392495
_cell_angle_beta   90.06825343
_cell_angle_gamma   119.93590981
_symmetry_Int_Tables_number   1
_chemical_formula_structural   Cu5NiC29
_chemical_formula_sum   'Cu15 Ni3 C87'
_cell_volume   1560.94731930
_cell_formula_units_Z   3
loop_
 _symmetry_equiv_pos_site_id
 _symmetry_equiv_pos_as_xyz
  1  'x, y, z'
loop_
 _atom_site_type_symbol
 _atom_site_label
 _atom_site_symmetry_multiplicity
 _atom_site_fract_x
 _atom_site_fract_y
 _atom_site_fract_z
 _atom_site_occupancy
  C  C0  1  0.99958809  0.99670869  0.99870873  1
  C  C1  1  0.66344358  0.33279002  0.83568754  1
  C  C2  1  0.66912950  0.33285511  0.33183059  1
  C  C3  1  0.99782617  0.00639243  0.35234294  1
  C  C4  1  0.99954791  0.99307142  0.85628756  1
  C  C5  1  0.00035584  0.00053311  0.64647664  1
  C  C6  1  0.00217991  0.00850830  0.14854836  1
  C  C7  1  0.66621800  0.33327544  0.68622771  1
  C  C8  1  0.67373509  0.33351087  0.18538253  1
  C  C9  1  0.65945074  0.33330303  0.97810940  1
  C  C10  1  0.66700727  0.33329638  0.48167667  1
  C  C11  1  0.33994083  0.67519953  0.01841710  1
  C  C12  1  0.33343346  0.66715182  0.52139809  1
  C  C13  1  0.32723247  0.66021650  0.30880665  1
  C  C14  1  0.34205621  0.67348016  0.81596310  1
  Ni  Ni15  1  0.99864287  0.28982810  0.25022660  1
  Ni  Ni16  1  0.62310708  0.66668268  0.91680767  1
  Ni  Ni17  1  0.33408433  0.95681255  0.91673326  1
  Cu  Cu18  1  0.29049703  0.00057769  0.25032882  1
  Cu  Cu19  1  0.70977676  0.70966934  0.25025373  1
  Cu  Cu20  1  0.28970808  0.29119122  0.75003732  1
  Cu  Cu21  1  0.00120248  0.70918430  0.74973307  1
  Cu  Cu22  1  0.70991660  0.99982394  0.74989443  1
  Cu  Cu23  1  0.95727016  0.33337031  0.58341876  1
  Cu  Cu24  1  0.37602855  0.04293388  0.58334641  1
  Cu  Cu25  1  0.66692029  0.62405197  0.58335147  1
  Cu  Cu26  1  0.95866377  0.62482568  0.08294727  1
  Cu  Cu27  1  0.66643835  0.04252686  0.08297626  1
  Cu  Cu28  1  0.37605211  0.33468939  0.08353193  1
  Cu  Cu29  1  0.04349203  0.37704576  0.91668197  1
  Cu  Cu30  1  0.62257670  0.95589582  0.41644462  1
  Cu  Cu31  1  0.33347019  0.37669358  0.41667575  1
  Cu  Cu32  1  0.04336298  0.66772748  0.41655635  1
  C  C33  1  0.21044743  0.02967890  0.30272133  1
  C  C34  1  0.81995585  0.78823817  0.30270018  1
  C  C35  1  0.96878747  0.17432452  0.30441204  1
  C  C36  1  0.21113148  0.17990277  0.80178599  1
  C  C37  1  0.96785245  0.78775651  0.80152300  1
  C  C38  1  0.82045018  0.03215548  0.80178771  1
  C  C39  1  0.79218087  0.97417001  0.69723630  1
  C  C40  1  0.18202903  0.20758775  0.69720927  1
  C  C41  1  0.02588566  0.81780131  0.69727983  1
  C  C42  1  0.78973672  0.81698917  0.19794437  1
  C  C43  1  0.02839551  0.20471856  0.19636585  1
  C  C44  1  0.18221540  0.97092589  0.19795407  1
  C  C45  1  0.87595802  0.36312307  0.63520796  1
  C  C46  1  0.48719758  0.12404297  0.63520735  1
  C  C47  1  0.63710803  0.51291645  0.63519976  1
  C  C48  1  0.87540588  0.51603914  0.13566608  1
  C  C49  1  0.63973844  0.12395382  0.13561800  1
  C  C50  1  0.48428136  0.35948591  0.13590952  1
  C  C51  1  0.45536346  0.30215557  0.03152079  1
  C  C52  1  0.84659435  0.54345856  0.03124573  1
  C  C53  1  0.69810303  0.15373880  0.03124790  1
  C  C54  1  0.45744225  0.15356804  0.53125834  1
  C  C55  1  0.69589480  0.54240290  0.53126779  1
  C  C56  1  0.84650231  0.30404940  0.53126772  1
  C  C57  1  0.53996637  0.69582439  0.97116917  1
  C  C58  1  0.15019836  0.45400628  0.96926897  1
  C  C59  1  0.30188332  0.84329539  0.97109951  1
  C  C60  1  0.54170970  0.84867719  0.46919458  1
  C  C61  1  0.30661991  0.45784491  0.46913334  1
  C  C62  1  0.15118329  0.69306304  0.46916578  1
  C  C63  1  0.12245968  0.63580849  0.36469323  1
  C  C64  1  0.51308073  0.87734153  0.36446632  1
  C  C65  1  0.36515877  0.48705292  0.36471493  1
  C  C66  1  0.12069771  0.48338200  0.86383121  1
  C  C67  1  0.36209258  0.87341428  0.86195851  1
  C  C68  1  0.51038670  0.63532598  0.86201967  1
  C  C69  1  0.02383776  0.82141961  0.40834484  1
  C  C70  1  0.79638328  0.97461628  0.40914985  1
  C  C71  1  0.17979470  0.20272013  0.40885602  1
  C  C72  1  0.02410805  0.20128958  0.90941501  1
  C  C73  1  0.17196293  0.97865274  0.90903433  1
  C  C74  1  0.80542681  0.83033128  0.90901592  1
  C  C75  1  0.97508589  0.17804887  0.59200547  1
  C  C76  1  0.20297470  0.02496443  0.59195795  1
  C  C77  1  0.82190183  0.79699472  0.59202640  1
  C  C78  1  0.97524029  0.79963608  0.09106923  1
  C  C79  1  0.82369853  0.02361790  0.09055241  1
  C  C80  1  0.20086291  0.17466856  0.09032019  1
  C  C81  1  0.69143995  0.15800095  0.74183543  1
  C  C82  1  0.46612360  0.30843433  0.74185477  1
  C  C83  1  0.84180938  0.53353489  0.74184397  1
  C  C84  1  0.68978812  0.53336095  0.24322799  1
  C  C85  1  0.83547958  0.30984526  0.24280360  1
  C  C86  1  0.46556139  0.15788690  0.24316068  1
  C  C87  1  0.64547592  0.50486127  0.92389287  1
  C  C88  1  0.86768496  0.35731487  0.92355661  1
  C  C89  1  0.49743690  0.13933669  0.92398694  1
  C  C90  1  0.64231988  0.13304085  0.42439979  1
  C  C91  1  0.49119967  0.35781397  0.42438679  1
  C  C92  1  0.86709963  0.50908844  0.42437082  1
  C  C93  1  0.35606304  0.48709681  0.07538183  1
  C  C94  1  0.12995789  0.64090650  0.07562401  1
  C  C95  1  0.51219969  0.87011249  0.07623810  1
  C  C96  1  0.35850316  0.87001164  0.57433035  1
  C  C97  1  0.51153715  0.64159799  0.57427062  1
  C  C98  1  0.13001484  0.48843900  0.57432053  1
  C  C99  1  0.30999832  0.84660113  0.25891633  1
  C  C100  1  0.53745892  0.69246742  0.25891887  1
  C  C101  1  0.15968094  0.46918424  0.26013914  1
  C  C102  1  0.30815745  0.46344129  0.75723433  1
  C  C103  1  0.15369273  0.68921335  0.75748284  1
  C  C104  1  0.53692310  0.84607116  0.75667975  1
