# generated using pymatgen
data_Cu3NiC31
_symmetry_space_group_name_H-M   'P 1'
_cell_length_a   18.23738313
_cell_length_b   9.13347011
_cell_length_c   23.99881881
_cell_angle_alpha   89.89516847
_cell_angle_beta   90.12961713
_cell_angle_gamma   120.16122574
_symmetry_Int_Tables_number   1
_chemical_formula_structural   Cu3NiC31
_chemical_formula_sum   'Cu18 Ni6 C186'
_cell_volume   3456.28641023
_cell_formula_units_Z   6
loop_
 _symmetry_equiv_pos_site_id
 _symmetry_equiv_pos_as_xyz
  1  'x, y, z'
loop_
 _atom_site_type_symbol
 _atom_site_label
 _atom_site_symmetry_multiplicity
 _atom_site_fract_x
 _atom_site_fract_y
 _atom_site_fract_z
 _atom_site_occupancy
  Ni  Ni0  1  0.99901070  0.98568825  0.49884059  1
  Ni  Ni1  1  0.50218004  0.01443865  0.99602411  1
  Ni  Ni2  1  0.34421653  0.33730951  0.83509448  1
  Ni  Ni3  1  0.83844354  0.36124514  0.83032799  1
  Ni  Ni4  1  0.33966758  0.31870084  0.33678824  1
  Ni  Ni5  1  0.84340761  0.34784945  0.34400729  1
  Cu  Cu6  1  0.00536162  0.98971243  0.35969885  1
  Cu  Cu7  1  0.50404229  0.01805412  0.85669341  1
  Cu  Cu8  1  0.00093775  0.99486379  0.64914918  1
  Cu  Cu9  1  0.50173869  0.00685940  0.14981830  1
  Cu  Cu10  1  0.32702115  0.33851521  0.68231147  1
  Cu  Cu11  1  0.83981114  0.33895476  0.68476148  1
  Cu  Cu12  1  0.34483217  0.33934863  0.18893147  1
  Cu  Cu13  1  0.82511928  0.31255196  0.18283212  1
  Cu  Cu14  1  0.33448640  0.33241084  0.98100903  1
  Cu  Cu15  1  0.83930489  0.33311991  0.98210151  1
  Cu  Cu16  1  0.33997351  0.34632992  0.48340841  1
  Cu  Cu17  1  0.82862809  0.32706801  0.48452780  1
  Cu  Cu18  1  0.16206912  0.66173079  0.01878772  1
  Cu  Cu19  1  0.66341705  0.67423653  0.52302254  1
  Cu  Cu20  1  0.16162655  0.67208591  0.31297227  1
  Cu  Cu21  1  0.66793546  0.66492636  0.30874716  1
  Cu  Cu22  1  0.16796514  0.67251364  0.80716012  1
  Cu  Cu23  1  0.66054567  0.64925186  0.81075800  1
  C  C24  1  0.49245022  0.00450609  0.35628365  1
  C  C25  1  0.99193975  0.97990410  0.85376753  1
  C  C26  1  0.49863819  0.99055782  0.64264616  1
  C  C27  1  0.99522112  0.00045617  0.14572949  1
  C  C28  1  0.67524242  0.66610379  0.01446295  1
  C  C29  1  0.17359959  0.68324645  0.51573566  1
  C  C30  1  0.49675504  0.28559810  0.25265568  1
  C  C31  1  0.99406398  0.70128566  0.75178633  1
  C  C32  1  0.68756030  0.04300477  0.58633369  1
  C  C33  1  0.32901453  0.62827302  0.58266474  1
  C  C34  1  0.82918974  0.03050831  0.08263496  1
  C  C35  1  0.81180508  0.66077632  0.91298249  1
  C  C36  1  0.52080265  0.37546446  0.91854535  1
  C  C37  1  0.31082500  0.96382372  0.41395366  1
  C  C38  1  0.01827290  0.65901199  0.41857704  1
  C  C39  1  0.14194219  0.00461965  0.24574097  1
  C  C40  1  0.64422945  0.00793274  0.25478175  1
  C  C41  1  0.35793323  0.71153781  0.25378075  1
  C  C42  1  0.86098753  0.71593332  0.24756173  1
  C  C43  1  0.99891638  0.27926261  0.24763251  1
  C  C44  1  0.14403196  0.27958393  0.75500072  1
  C  C45  1  0.64231278  0.28064995  0.74627898  1
  C  C46  1  0.49806966  0.71810129  0.74823043  1
  C  C47  1  0.36012291  0.00797599  0.74831046  1
  C  C48  1  0.85865296  0.00562179  0.75413024  1
  C  C49  1  0.47907356  0.32147291  0.58699950  1
  C  C50  1  0.98839157  0.34230955  0.57994086  1
  C  C51  1  0.18504934  0.03170179  0.57983451  1
  C  C52  1  0.83547207  0.63330230  0.58195838  1
  C  C53  1  0.48642075  0.63278191  0.08020694  1
  C  C54  1  0.98034384  0.63797705  0.08730951  1
  C  C55  1  0.33311161  0.03582060  0.08249272  1
  C  C56  1  0.18155648  0.32374534  0.08699575  1
  C  C57  1  0.68520552  0.33870899  0.07961564  1
  C  C58  1  0.31282539  0.66711619  0.91730403  1
  C  C59  1  0.02180874  0.36692007  0.91284550  1
  C  C60  1  0.16220421  0.96076122  0.91388236  1
  C  C61  1  0.66648038  0.95019984  0.91871064  1
  C  C62  1  0.81396391  0.96019705  0.41586763  1
  C  C63  1  0.16738016  0.38272295  0.41877517  1
  C  C64  1  0.66293881  0.36392092  0.41298313  1
  C  C65  1  0.52041121  0.67590299  0.41171332  1
  C  C66  1  0.10467821  0.02717719  0.29721364  1
  C  C67  1  0.59680683  0.01996858  0.30278277  1
  C  C68  1  0.41330891  0.80222445  0.30324421  1
  C  C69  1  0.91205756  0.79464241  0.29766725  1
  C  C70  1  0.48888895  0.15682470  0.30724637  1
  C  C71  1  0.98740177  0.17734672  0.29736461  1
  C  C72  1  0.09611964  0.17229706  0.80360441  1
  C  C73  1  0.60429374  0.18346587  0.79852825  1
  C  C74  1  0.48702773  0.79648385  0.79876639  1
  C  C75  1  0.98857651  0.81893036  0.80737495  1
  C  C76  1  0.40991420  0.03027101  0.79983027  1
  C  C77  1  0.91432221  0.02104928  0.80416893  1
  C  C78  1  0.40510817  0.99455106  0.69902329  1
  C  C79  1  0.89857535  0.99092373  0.70315113  1
  C  C80  1  0.09809482  0.20960520  0.70257148  1
  C  C81  1  0.58743013  0.18503335  0.69832209  1
  C  C82  1  0.00466749  0.81405096  0.69788220  1
  C  C83  1  0.50143734  0.81997523  0.69809637  1
  C  C84  1  0.39765244  0.80618344  0.20221684  1
  C  C85  1  0.90815234  0.82298603  0.19725773  1
  C  C86  1  0.00264549  0.18098068  0.19674217  1
  C  C87  1  0.50462650  0.19593138  0.19719344  1
  C  C88  1  0.08719336  0.99173917  0.19703801  1
  C  C89  1  0.59858527  0.98647607  0.20183367  1
  C  C90  1  0.43809276  0.35033129  0.63519764  1
  C  C91  1  0.95249438  0.37040927  0.63124350  1
  C  C92  1  0.23379280  0.10378456  0.63148131  1
  C  C93  1  0.74542057  0.13257885  0.64022894  1
  C  C94  1  0.31026600  0.51253205  0.63754742  1
  C  C95  1  0.82853414  0.53710467  0.63286748  1
  C  C96  1  0.44789427  0.53162517  0.13151659  1
  C  C97  1  0.93984091  0.52853647  0.13567379  1
  C  C98  1  0.32381132  0.11764030  0.13271776  1
  C  C99  1  0.81247933  0.10809110  0.13817575  1
  C  C100  1  0.23683060  0.35429110  0.13517007  1
  C  C101  1  0.73392964  0.36399187  0.13142879  1
  C  C102  1  0.21352319  0.28285196  0.03688405  1
  C  C103  1  0.72838627  0.31581579  0.03174981  1
  C  C104  1  0.42790971  0.54821227  0.03272031  1
  C  C105  1  0.92792265  0.57444092  0.03705321  1
  C  C106  1  0.34448506  0.14133412  0.03288052  1
  C  C107  1  0.85750387  0.15514871  0.03022052  1
  C  C108  1  0.22782101  0.14001306  0.53157501  1
  C  C109  1  0.72027062  0.15673064  0.53097899  1
  C  C110  1  0.35463241  0.55746153  0.52966015  1
  C  C111  1  0.84987678  0.55530139  0.53248109  1
  C  C112  1  0.42633890  0.28317492  0.53665867  1
  C  C113  1  0.93134751  0.31058311  0.53207815  1
  C  C114  1  0.27081032  0.68579791  0.96782905  1
  C  C115  1  0.76426345  0.68650748  0.97019305  1
  C  C116  1  0.07020618  0.44100628  0.96536782  1
  C  C117  1  0.58433928  0.49240736  0.97201050  1
  C  C118  1  0.14756900  0.85802597  0.96497000  1
  C  C119  1  0.66050268  0.84662736  0.96910729  1
  C  C120  1  0.26336153  0.84294592  0.47028349  1
  C  C121  1  0.77278655  0.85717511  0.46579753  1
  C  C122  1  0.16064881  0.47278295  0.46851588  1
  C  C123  1  0.64724392  0.43217374  0.46353386  1
  C  C124  1  0.08341029  0.67211234  0.47133820  1
  C  C125  1  0.56787863  0.70026824  0.46362600  1
  C  C126  1  0.06061745  0.64379556  0.36113434  1
  C  C127  1  0.56359680  0.65158281  0.36393748  1
  C  C128  1  0.25814509  0.87069020  0.35946892  1
  C  C129  1  0.76556878  0.87611361  0.36503504  1
  C  C130  1  0.17629743  0.47540712  0.36687699  1
  C  C131  1  0.67516141  0.47212579  0.36425754  1
  C  C132  1  0.06546025  0.47990152  0.86591733  1
  C  C133  1  0.56048682  0.47803400  0.86170766  1
  C  C134  1  0.17793060  0.88156841  0.86606407  1
  C  C135  1  0.67569474  0.87545344  0.86746299  1
  C  C136  1  0.26431733  0.65283142  0.86697831  1
  C  C137  1  0.75641601  0.64603021  0.86014735  1
  C  C138  1  0.01766337  0.83907078  0.42149286  1
  C  C139  1  0.51272626  0.82957315  0.40131666  1
  C  C140  1  0.40547149  0.96982738  0.40416141  1
  C  C141  1  0.90041611  0.98183639  0.41208425  1
  C  C142  1  0.08807871  0.21403128  0.41715612  1
  C  C143  1  0.58547156  0.18962658  0.40251086  1
  C  C144  1  0.01457055  0.19895273  0.90381618  1
  C  C145  1  0.51707441  0.19251595  0.92145963  1
  C  C146  1  0.08532417  0.97723613  0.90427161  1
  C  C147  1  0.58727121  0.95927183  0.91783200  1
  C  C148  1  0.39926271  0.81718687  0.91447769  1
  C  C149  1  0.90578712  0.84327706  0.90358716  1
  C  C150  1  0.48849243  0.17024036  0.59922138  1
  C  C151  1  0.99925707  0.19230077  0.58627532  1
  C  C152  1  0.09908766  0.00953003  0.58446072  1
  C  C153  1  0.58881435  0.01627841  0.60260883  1
  C  C154  1  0.41029073  0.81992567  0.60185638  1
  C  C155  1  0.90998455  0.80897705  0.58574641  1
  C  C156  1  0.49643510  0.80363868  0.08591854  1
  C  C157  1  0.99259345  0.81165952  0.10012329  1
  C  C158  1  0.40828182  0.01401616  0.08649249  1
  C  C159  1  0.91211073  0.00177043  0.10239303  1
  C  C160  1  0.09400617  0.17079987  0.09972324  1
  C  C161  1  0.59919090  0.18834006  0.08433296  1
  C  C162  1  0.34854000  0.15659915  0.74299356  1
  C  C163  1  0.85535486  0.16360680  0.75419352  1
  C  C164  1  0.22786925  0.28789321  0.75341055  1
  C  C165  1  0.72712299  0.30046799  0.74158680  1
  C  C166  1  0.42289780  0.54478002  0.74251826  1
  C  C167  1  0.90832799  0.52074322  0.75468687  1
  C  C168  1  0.35202715  0.54300243  0.25130323  1
  C  C169  1  0.85097896  0.54727378  0.23954627  1
  C  C170  1  0.40947563  0.29406659  0.25393737  1
  C  C171  1  0.92421224  0.30043026  0.23991789  1
  C  C172  1  0.22610637  0.15715433  0.23841888  1
  C  C173  1  0.72853654  0.16792863  0.25237417  1
  C  C174  1  0.31887565  0.51160838  0.92247286  1
  C  C175  1  0.83122947  0.51107308  0.92465660  1
  C  C176  1  0.42558146  0.34890609  0.92509683  1
  C  C177  1  0.93606415  0.34498855  0.91796656  1
  C  C178  1  0.23519419  0.13388298  0.92099499  1
  C  C179  1  0.74042306  0.12238625  0.92554647  1
  C  C180  1  0.33114746  0.15379695  0.42352092  1
  C  C181  1  0.82140275  0.12879754  0.41940129  1
  C  C182  1  0.24093605  0.35786747  0.42479056  1
  C  C183  1  0.73641774  0.33853164  0.41681270  1
  C  C184  1  0.43365175  0.52721866  0.41577727  1
  C  C185  1  0.92359640  0.49808344  0.42348338  1
  C  C186  1  0.16728953  0.46714094  0.07720847  1
  C  C187  1  0.67681649  0.49196681  0.07083511  1
  C  C188  1  0.06569675  0.66326828  0.07791599  1
  C  C189  1  0.56970911  0.64753531  0.07031253  1
  C  C190  1  0.25641160  0.86749715  0.07484437  1
  C  C191  1  0.74981077  0.84287268  0.06631539  1
  C  C192  1  0.17631825  0.86096050  0.57130601  1
  C  C193  1  0.66643673  0.85136218  0.57574913  1
  C  C194  1  0.24882021  0.65500691  0.56565913  1
  C  C195  1  0.75824546  0.64400721  0.57470943  1
  C  C196  1  0.07290664  0.49403901  0.56948586  1
  C  C197  1  0.56413953  0.46541907  0.57786296  1
  C  C198  1  0.14687008  0.84983297  0.24754954  1
  C  C199  1  0.65727019  0.86327488  0.26140919  1
  C  C200  1  0.27455322  0.69314641  0.26026475  1
  C  C201  1  0.77968656  0.71054610  0.24971703  1
  C  C202  1  0.07784576  0.44128780  0.24742067  1
  C  C203  1  0.57884095  0.46427187  0.26319205  1
  C  C204  1  0.15659153  0.44999160  0.76222675  1
  C  C205  1  0.64681732  0.44568693  0.74860632  1
  C  C206  1  0.07843379  0.69454528  0.76389874  1
  C  C207  1  0.57636977  0.71133977  0.74988481  1
  C  C208  1  0.27751924  0.85142801  0.75249352  1
  C  C209  1  0.77565790  0.85639863  0.76144968  1
