# generated using pymatgen
data_Cu7Ni5C58
_symmetry_space_group_name_H-M   'P 1'
_cell_length_a   17.50387400
_cell_length_b   8.67873498
_cell_length_c   22.84416605
_cell_angle_alpha   89.91248932
_cell_angle_beta   91.41202183
_cell_angle_gamma   119.93673929
_symmetry_Int_Tables_number   1
_chemical_formula_structural   Cu7Ni5C58
_chemical_formula_sum   'Cu21 Ni15 C174'
_cell_volume   3006.12873535
_cell_formula_units_Z   3
loop_
 _symmetry_equiv_pos_site_id
 _symmetry_equiv_pos_as_xyz
  1  'x, y, z'
loop_
 _atom_site_type_symbol
 _atom_site_label
 _atom_site_symmetry_multiplicity
 _atom_site_fract_x
 _atom_site_fract_y
 _atom_site_fract_z
 _atom_site_occupancy
  C  C0  1  0.99335602  0.00143122  0.49957984  1
  C  C1  1  0.49277414  0.98794852  0.99501611  1
  C  C2  1  0.34226813  0.34974011  0.83014727  1
  C  C3  1  0.83273086  0.34394746  0.83042124  1
  C  C4  1  0.33589376  0.32688042  0.33185833  1
  C  C5  1  0.83550068  0.33319042  0.33410767  1
  C  C6  1  0.99701500  0.97953579  0.35743434  1
  C  C7  1  0.49466778  0.99948896  0.85257669  1
  C  C8  1  0.00367029  0.99863451  0.64876981  1
  C  C9  1  0.50293124  0.00906856  0.14750329  1
  C  C10  1  0.84294289  0.35499634  0.68997643  1
  C  C11  1  0.34428560  0.33087672  0.18936216  1
  C  C12  1  0.33597628  0.35358134  0.97397585  1
  C  C13  1  0.84570834  0.32896737  0.97872014  1
  C  C14  1  0.34545320  0.36335811  0.48112356  1
  C  C15  1  0.83386788  0.31510852  0.47602813  1
  C  C16  1  0.15913513  0.67631704  0.30736583  1
  C  C17  1  0.65406224  0.63923093  0.80403672  1
  Ni  Ni18  1  0.13965940  0.01270951  0.24546587  1
  Ni  Ni19  1  0.51048402  0.29737072  0.25865908  1
  Ni  Ni20  1  0.63953098  0.26620984  0.74475232  1
  Ni  Ni21  1  0.01034189  0.72293035  0.75891176  1
  Ni  Ni22  1  0.49240872  0.70643963  0.74692645  1
  Ni  Ni23  1  0.98387814  0.33536331  0.58357411  1
  Ni  Ni24  1  0.33487423  0.64134513  0.58676726  1
  Ni  Ni25  1  0.48526251  0.63223370  0.08304878  1
  Ni  Ni26  1  0.83397866  0.03073760  0.08653487  1
  Ni  Ni27  1  0.30336096  0.67141545  0.91333308  1
  Ni  Ni28  1  0.02679173  0.36888785  0.91190815  1
  Ni  Ni29  1  0.52953293  0.38457186  0.92230203  1
  Ni  Ni30  1  0.80084592  0.93322465  0.41372676  1
  Ni  Ni31  1  0.02893672  0.66485946  0.42321146  1
  Ni  Ni32  1  0.52521454  0.68296511  0.41299935  1
  C  C33  1  0.49772687  0.00761141  0.35978360  1
  C  C34  1  0.99649230  0.98835678  0.85874356  1
  C  C35  1  0.49862947  0.98484775  0.64969993  1
  C  C36  1  0.00040224  0.99845789  0.14295605  1
  C  C37  1  0.34050560  0.35671021  0.68136957  1
  C  C38  1  0.83262974  0.32311661  0.17941168  1
  C  C39  1  0.16794179  0.64328805  0.01111862  1
  C  C40  1  0.66077240  0.67181364  0.02672287  1
  C  C41  1  0.16072825  0.65787662  0.53099831  1
  C  C42  1  0.66563329  0.69208953  0.51487729  1
  C  C43  1  0.65373593  0.66295504  0.31770143  1
  C  C44  1  0.15683329  0.64624245  0.81516259  1
  Cu  Cu45  1  0.65146522  0.00564151  0.25264230  1
  Cu  Cu46  1  0.35866671  0.71634309  0.25376762  1
  Cu  Cu47  1  0.85118474  0.69578129  0.24394548  1
  Cu  Cu48  1  0.99279298  0.28152417  0.24525038  1
  Cu  Cu49  1  0.14936776  0.29513683  0.75366877  1
  Cu  Cu50  1  0.34840836  0.00179475  0.74494293  1
  Cu  Cu51  1  0.85998457  0.00144826  0.75390160  1
  Cu  Cu52  1  0.48503704  0.33753621  0.58548925  1
  Cu  Cu53  1  0.19474142  0.04683615  0.58362628  1
  Cu  Cu54  1  0.68209650  0.03091955  0.58292907  1
  Cu  Cu55  1  0.82242161  0.62279263  0.57911368  1
  Cu  Cu56  1  0.98279647  0.62917828  0.08634749  1
  Cu  Cu57  1  0.32194942  0.02145577  0.07924155  1
  Cu  Cu58  1  0.18176565  0.33431035  0.08338770  1
  Cu  Cu59  1  0.69447727  0.34427388  0.08305786  1
  Cu  Cu60  1  0.81527411  0.67772856  0.91745957  1
  Cu  Cu61  1  0.16030697  0.93940019  0.91661318  1
  Cu  Cu62  1  0.66635257  0.94967348  0.91858732  1
  Cu  Cu63  1  0.31535338  0.95407075  0.41770694  1
  Cu  Cu64  1  0.16678412  0.38356523  0.41818077  1
  Cu  Cu65  1  0.66095541  0.38116391  0.41657462  1
  C  C66  1  0.09558991  0.03643071  0.30387189  1
  C  C67  1  0.61357985  0.04025417  0.30387171  1
  C  C68  1  0.41501796  0.79768207  0.30680223  1
  C  C69  1  0.90787542  0.76794930  0.29868322  1
  C  C70  1  0.48822201  0.15661976  0.31266006  1
  C  C71  1  0.97583061  0.17855033  0.29933659  1
  C  C72  1  0.10908298  0.18408203  0.80479152  1
  C  C73  1  0.59803106  0.15898076  0.80433660  1
  C  C74  1  0.47065125  0.77888733  0.80583486  1
  C  C75  1  0.98815482  0.81884028  0.81279433  1
  C  C76  1  0.40599556  0.04880640  0.79929379  1
  C  C77  1  0.91742195  0.03631753  0.80679932  1
  C  C78  1  0.39009189  0.97221336  0.69410366  1
  C  C79  1  0.90011451  0.97806529  0.70060788  1
  C  C80  1  0.09351132  0.21704892  0.69905777  1
  C  C81  1  0.57580792  0.18191012  0.68611480  1
  C  C82  1  0.02080331  0.83173364  0.69862276  1
  C  C83  1  0.50873355  0.82348997  0.68922874  1
  C  C84  1  0.39823438  0.82110309  0.20057518  1
  C  C85  1  0.89265827  0.80805293  0.19317173  1
  C  C86  1  0.00458267  0.19785833  0.19371169  1
  C  C87  1  0.52101859  0.20962499  0.19883799  1
  C  C88  1  0.07540719  0.97564723  0.18777771  1
  C  C89  1  0.59664532  0.97615144  0.19834758  1
  C  C90  1  0.44347455  0.37497420  0.63678841  1
  C  C91  1  0.93653325  0.36369184  0.63929468  1
  C  C92  1  0.24868316  0.13116168  0.63821329  1
  C  C93  1  0.74036092  0.11187692  0.63448257  1
  C  C94  1  0.31072578  0.49582433  0.64036684  1
  C  C95  1  0.81282340  0.52114946  0.63317067  1
  C  C96  1  0.43812777  0.50948674  0.13980062  1
  C  C97  1  0.94115795  0.51199246  0.13886364  1
  C  C98  1  0.31259591  0.10384734  0.13374409  1
  C  C99  1  0.81211094  0.12541226  0.14265181  1
  C  C100  1  0.23879244  0.36774635  0.13575591  1
  C  C101  1  0.74856955  0.36937310  0.13938272  1
  C  C102  1  0.21820056  0.29851107  0.03116653  1
  C  C103  1  0.73434974  0.31080423  0.03286982  1
  C  C104  1  0.41895141  0.54318288  0.02669999  1
  C  C105  1  0.92471217  0.55056378  0.03382211  1
  C  C106  1  0.33642620  0.13566997  0.02869349  1
  C  C107  1  0.85699538  0.16572657  0.03171618  1
  C  C108  1  0.23338127  0.15515007  0.53139507  1
  C  C109  1  0.72146371  0.13761232  0.52983112  1
  C  C110  1  0.35612956  0.55216728  0.53037847  1
  C  C111  1  0.83642430  0.53770790  0.52802749  1
  C  C112  1  0.42659032  0.30367309  0.53198861  1
  C  C113  1  0.91982304  0.29577715  0.52562129  1
  C  C114  1  0.26554331  0.70472804  0.97505799  1
  C  C115  1  0.77911126  0.70924450  0.96974237  1
  C  C116  1  0.08137139  0.45424658  0.97466519  1
  C  C117  1  0.59611191  0.48808343  0.97934836  1
  C  C118  1  0.14458100  0.82924259  0.97071781  1
  C  C119  1  0.66019248  0.85146365  0.97290788  1
  C  C120  1  0.27875193  0.85002911  0.46883488  1
  C  C121  1  0.76265965  0.82219499  0.47449955  1
  C  C122  1  0.15995489  0.46974605  0.47077406  1
  C  C123  1  0.64565080  0.45851458  0.46974396  1
  C  C124  1  0.09736150  0.70162684  0.47828706  1
  C  C125  1  0.58210846  0.70927064  0.47400139  1
  C  C126  1  0.06735398  0.63503146  0.36237811  1
  C  C127  1  0.56263432  0.63405687  0.35627656  1
  C  C128  1  0.26160766  0.87361449  0.36266175  1
  C  C129  1  0.74573542  0.83776325  0.35320856  1
  C  C130  1  0.18044205  0.48463336  0.36379431  1
  C  C131  1  0.67740608  0.48924190  0.36354093  1
  C  C132  1  0.06559594  0.49563774  0.85628135  1
  C  C133  1  0.56675363  0.49809289  0.86305861  1
  C  C134  1  0.17736583  0.86502980  0.86434501  1
  C  C135  1  0.68207460  0.87632537  0.86568468  1
  C  C136  1  0.24578623  0.65334276  0.85434430  1
  C  C137  1  0.76224189  0.64962292  0.86343327  1
  C  C138  1  0.02181950  0.84594525  0.41890239  1
  C  C139  1  0.51750402  0.86049406  0.40111599  1
  C  C140  1  0.40501470  0.97307614  0.41016441  1
  C  C141  1  0.90038169  0.96661117  0.40945705  1
  C  C142  1  0.08430651  0.20777982  0.41302936  1
  C  C143  1  0.58155488  0.20112858  0.40984153  1
  C  C144  1  0.01804556  0.17499100  0.90164882  1
  C  C145  1  0.52132106  0.19117306  0.91885524  1
  C  C146  1  0.08146069  0.96018293  0.91031525  1
  C  C147  1  0.58561794  0.96143786  0.91478909  1
  C  C148  1  0.40144358  0.83840875  0.91302042  1
  C  C149  1  0.90584894  0.83792646  0.91099813  1
  C  C150  1  0.49058883  0.17762090  0.59312586  1
  C  C151  1  0.99600823  0.16206383  0.58854653  1
  C  C152  1  0.10482355  0.02333860  0.58884253  1
  C  C153  1  0.59393200  0.00793143  0.58855427  1
  C  C154  1  0.41895683  0.83843892  0.59761404  1
  C  C155  1  0.90269670  0.80226278  0.58638369  1
  C  C156  1  0.49644654  0.82916176  0.09006674  1
  C  C157  1  0.98752466  0.80408383  0.09347543  1
  C  C158  1  0.40221757  0.00294370  0.08727528  1
  C  C159  1  0.92057597  0.01189804  0.10049956  1
  C  C160  1  0.09148860  0.17955172  0.09132607  1
  C  C161  1  0.60548906  0.18498543  0.08984198  1
  C  C162  1  0.33910808  0.16630264  0.73586062  1
  C  C163  1  0.85062472  0.16035643  0.74784875  1
  C  C164  1  0.23586277  0.30647938  0.74509561  1
  C  C165  1  0.73684099  0.28757498  0.73843533  1
  C  C166  1  0.40704061  0.50097384  0.73872599  1
  C  C167  1  0.92054731  0.52798827  0.75294143  1
  C  C168  1  0.34905549  0.53816992  0.24774241  1
  C  C169  1  0.84527471  0.51194802  0.23682317  1
  C  C170  1  0.42105689  0.31326013  0.25298833  1
  C  C171  1  0.91470313  0.31223097  0.23799072  1
  C  C172  1  0.23746989  0.18162212  0.23951205  1
  C  C173  1  0.74087910  0.17007068  0.24428235  1
  C  C174  1  0.30287587  0.48236277  0.91577621  1
  C  C175  1  0.82573761  0.51742741  0.92390951  1
  C  C176  1  0.42882687  0.35497943  0.92606111  1
  C  C177  1  0.92888623  0.34791401  0.91864195  1
  C  C178  1  0.23849761  0.11734637  0.92478383  1
  C  C179  1  0.74326412  0.13489728  0.92518618  1
  C  C180  1  0.32496782  0.13442217  0.42180700  1
  C  C181  1  0.80309196  0.12354205  0.41558282  1
  C  C182  1  0.24246651  0.34998675  0.42359083  1
  C  C183  1  0.73886073  0.35883376  0.42294058  1
  C  C184  1  0.42724685  0.50843909  0.41877365  1
  C  C185  1  0.92795140  0.49910277  0.42489019  1
  C  C186  1  0.17406547  0.50001270  0.07552877  1
  C  C187  1  0.68750507  0.50379875  0.07880600  1
  C  C188  1  0.06950199  0.64774815  0.07825767  1
  C  C189  1  0.58035600  0.64893488  0.07600713  1
  C  C190  1  0.24139944  0.84475284  0.07258564  1
  C  C191  1  0.75172216  0.83790903  0.06872494  1
  C  C192  1  0.18738911  0.87125587  0.57868403  1
  C  C193  1  0.67625382  0.84975138  0.57585093  1
  C  C194  1  0.25024673  0.66188494  0.56847314  1
  C  C195  1  0.74185460  0.63783246  0.57212710  1
  C  C196  1  0.07833455  0.51204622  0.57671882  1
  C  C197  1  0.57175960  0.49826808  0.57562336  1
  C  C198  1  0.14866508  0.83464227  0.25176469  1
  C  C199  1  0.65993031  0.84435788  0.25814919  1
  C  C200  1  0.27119527  0.69769086  0.25948421  1
  C  C201  1  0.76495308  0.67513951  0.25292515  1
  C  C202  1  0.07322972  0.45755892  0.25175245  1
  C  C203  1  0.59921726  0.49108561  0.26577667  1
  C  C204  1  0.15814253  0.47424476  0.75845680  1
  C  C205  1  0.65364318  0.46508465  0.75034414  1
  C  C206  1  0.09873227  0.70759345  0.76547123  1
  C  C207  1  0.58147540  0.69492926  0.75277119  1
  C  C208  1  0.26332691  0.84636713  0.75462261  1
  C  C209  1  0.77381156  0.84310106  0.75989433  1
