# generated using pymatgen
data_Cu2NiC16
_symmetry_space_group_name_H-M   'P 1'
_cell_length_a   4.95097972
_cell_length_b   5.02761351
_cell_length_c   9.98334823
_cell_angle_alpha   97.91965793
_cell_angle_beta   93.80058194
_cell_angle_gamma   60.35345705
_symmetry_Int_Tables_number   1
_chemical_formula_structural   Cu2NiC16
_chemical_formula_sum   'Cu2 Ni1 C16'
_cell_volume   213.91074755
_cell_formula_units_Z   1
loop_
 _symmetry_equiv_pos_site_id
 _symmetry_equiv_pos_as_xyz
  1  'x, y, z'
loop_
 _atom_site_type_symbol
 _atom_site_label
 _atom_site_symmetry_multiplicity
 _atom_site_fract_x
 _atom_site_fract_y
 _atom_site_fract_z
 _atom_site_occupancy
  Ni  Ni0  1  0.68057100  0.75396800  0.25242700  1
  Cu  Cu1  1  0.99364000  0.02059400  0.00223300  1
  Cu  Cu2  1  0.02060000  0.46883500  0.50237900  1
  C  C3  1  0.32693900  0.35833200  0.00114800  1
  C  C4  1  0.35707800  0.80086700  0.50242600  1
  C  C5  1  0.68940300  0.13609000  0.50870300  1
  C  C6  1  0.66151100  0.68739600  0.98466500  1
  C  C7  1  0.02712500  0.15835400  0.59673600  1
  C  C8  1  0.97636100  0.40111900  0.09901300  1
  C  C9  1  0.97812200  0.68335400  0.89690300  1
  C  C10  1  0.32699300  0.99793900  0.90325400  1
  C  C11  1  0.01058100  0.77923300  0.40060500  1
  C  C12  1  0.36756700  0.09431700  0.40069800  1
  C  C13  1  0.35626900  0.50389100  0.59569300  1
  C  C14  1  0.34645200  0.71739000  0.10065800  1
  C  C15  1  0.67994600  0.01108500  0.10600900  1
  C  C16  1  0.65997600  0.32370900  0.90326100  1
  C  C17  1  0.68312200  0.47634100  0.39047100  1
  C  C18  1  0.68274500  0.80218700  0.60271600  1
