# generated using pymatgen
data_CuNi5C31
_symmetry_space_group_name_H-M   'P 1'
_cell_length_a   8.53264806
_cell_length_b   8.51559662
_cell_length_c   21.96048564
_cell_angle_alpha   90.16788349
_cell_angle_beta   89.95069536
_cell_angle_gamma   119.98070622
_symmetry_Int_Tables_number   1
_chemical_formula_structural   CuNi5C31
_chemical_formula_sum   'Cu3 Ni15 C93'
_cell_volume   1382.14598625
_cell_formula_units_Z   3
loop_
 _symmetry_equiv_pos_site_id
 _symmetry_equiv_pos_as_xyz
  1  'x, y, z'
loop_
 _atom_site_type_symbol
 _atom_site_label
 _atom_site_symmetry_multiplicity
 _atom_site_fract_x
 _atom_site_fract_y
 _atom_site_fract_z
 _atom_site_occupancy
  C  C0  1  0.00059331  0.36461099  0.75062446  1
  C  C1  1  0.66701633  0.96823594  0.58334463  1
  C  C2  1  0.03247815  0.33342629  0.08329861  1
  C  C3  1  0.00457964  0.99821731  0.50047889  1
  C  C4  1  0.00188312  0.99617484  0.00014313  1
  C  C5  1  0.66199847  0.33095467  0.83400062  1
  C  C6  1  0.67028260  0.33441651  0.33328883  1
  C  C7  1  0.33855371  0.66986578  0.16730990  1
  C  C8  1  0.33344254  0.66716949  0.66676078  1
  C  C9  1  0.98313607  0.98947357  0.35379311  1
  C  C10  1  0.00868187  0.00553673  0.85315708  1
  C  C11  1  0.66165081  0.33389125  0.68603146  1
  C  C12  1  0.67290164  0.33942084  0.18597323  1
  C  C13  1  0.66537061  0.32597117  0.98042923  1
  C  C14  1  0.67355437  0.33429778  0.48022331  1
  C  C15  1  0.00399640  0.99844746  0.64786817  1
  C  C16  1  0.99453387  0.99707895  0.14734956  1
  C  C17  1  0.33081511  0.67044665  0.01947363  1
  C  C18  1  0.32906870  0.66955872  0.51937633  1
  C  C19  1  0.33068637  0.66545685  0.31393935  1
  C  C20  1  0.33343066  0.67437571  0.81363922  1
  Ni  Ni21  1  0.70529019  0.71285327  0.24819589  1
  Ni  Ni22  1  0.00625330  0.29184326  0.24908740  1
  Ni  Ni23  1  0.28929553  0.29145220  0.74882815  1
  Ni  Ni24  1  0.00434832  0.71677219  0.74905566  1
  Ni  Ni25  1  0.70642107  0.99069027  0.74922321  1
  Ni  Ni26  1  0.96649704  0.33780039  0.58381134  1
  Ni  Ni27  1  0.36871848  0.04060213  0.58272973  1
  Ni  Ni28  1  0.66593985  0.62593447  0.58279530  1
  Ni  Ni29  1  0.96031929  0.63247688  0.08267490  1
  Ni  Ni30  1  0.66118060  0.03395972  0.08387617  1
  Ni  Ni31  1  0.37473566  0.33345858  0.08343814  1
  Ni  Ni32  1  0.05129117  0.38510374  0.91674211  1
  Ni  Ni33  1  0.33282325  0.94741589  0.91696549  1
  Ni  Ni34  1  0.61130696  0.94720895  0.41665341  1
  Ni  Ni35  1  0.05334520  0.66764618  0.41623823  1
  Cu  Cu36  1  0.28578785  0.99683175  0.24948618  1
  Cu  Cu37  1  0.61626277  0.66683800  0.91675459  1
  Cu  Cu38  1  0.33304240  0.38288723  0.41670284  1
  C  C39  1  0.20774395  0.03167559  0.30491709  1
  C  C40  1  0.82883125  0.79593916  0.30599462  1
  C  C41  1  0.97073547  0.16880300  0.30586079  1
  C  C42  1  0.20468411  0.17133884  0.80623671  1
  C  C43  1  0.96712289  0.79798035  0.80663837  1
  C  C44  1  0.83258991  0.03522139  0.80550346  1
  C  C45  1  0.79479790  0.96726068  0.69153985  1
  C  C46  1  0.16578231  0.20453820  0.69376113  1
  C  C47  1  0.03351754  0.83214806  0.69301722  1
  C  C48  1  0.79896725  0.83139879  0.19345322  1
  C  C49  1  0.03359579  0.20439794  0.19184013  1
  C  C50  1  0.17493916  0.96746531  0.19502268  1
  C  C51  1  0.87599727  0.36785337  0.64059060  1
  C  C52  1  0.49743626  0.12783244  0.63866824  1
  C  C53  1  0.63339151  0.50405128  0.63922764  1
  C  C54  1  0.87325913  0.50324853  0.13868580  1
  C  C55  1  0.63240032  0.12822050  0.13951852  1
  C  C56  1  0.49678705  0.36611398  0.13972844  1
  C  C57  1  0.46396073  0.30057484  0.02701265  1
  C  C58  1  0.83742536  0.53837743  0.02706461  1
  C  C59  1  0.70358436  0.16330119  0.02791620  1
  C  C60  1  0.46297198  0.16285941  0.52695452  1
  C  C61  1  0.69907558  0.53587221  0.52686067  1
  C  C62  1  0.83644423  0.29671794  0.52825715  1
  C  C63  1  0.53784638  0.69763255  0.97180493  1
  C  C64  1  0.16398462  0.46482491  0.97464533  1
  C  C65  1  0.30182282  0.83482552  0.97383256  1
  C  C66  1  0.53650833  0.83625732  0.47513821  1
  C  C67  1  0.30221760  0.46182188  0.47183135  1
  C  C68  1  0.16527817  0.69837452  0.47363529  1
  C  C69  1  0.13388659  0.63378715  0.35917806  1
  C  C70  1  0.49938243  0.86358475  0.35957940  1
  C  C71  1  0.36497079  0.49261979  0.36162855  1
  C  C72  1  0.13306895  0.49646800  0.85856885  1
  C  C73  1  0.36735650  0.86792923  0.85956445  1
  C  C74  1  0.50646260  0.63521490  0.86139909  1
  C  C75  1  0.02789694  0.83615694  0.40875503  1
  C  C76  1  0.80752405  0.97577739  0.40990686  1
  C  C77  1  0.17247128  0.19851110  0.41012190  1
  C  C78  1  0.02354231  0.19055664  0.90971360  1
  C  C79  1  0.16539395  0.97360101  0.90966857  1
  C  C80  1  0.80017234  0.82834323  0.91067094  1
  C  C81  1  0.97301540  0.16157438  0.59151146  1
  C  C82  1  0.18523041  0.02513846  0.59193493  1
  C  C83  1  0.83431372  0.81402940  0.59152902  1
  C  C84  1  0.97704957  0.81640886  0.09289904  1
  C  C85  1  0.83736000  0.02715145  0.09136280  1
  C  C86  1  0.18623993  0.16485202  0.09219939  1
  C  C87  1  0.69369937  0.16709697  0.74283190  1
  C  C88  1  0.47666134  0.30819826  0.74294700  1
  C  C89  1  0.83511632  0.52288083  0.74300940  1
  C  C90  1  0.69028773  0.52369697  0.24257722  1
  C  C91  1  0.83240837  0.30710051  0.24263823  1
  C  C92  1  0.46826133  0.16058651  0.24355194  1
  C  C93  1  0.63893107  0.50510707  0.92258418  1
  C  C94  1  0.85827380  0.36034646  0.92378745  1
  C  C95  1  0.49982005  0.14258997  0.92418091  1
  C  C96  1  0.64028021  0.14188922  0.42373258  1
  C  C97  1  0.49489860  0.36087427  0.42272205  1
  C  C98  1  0.85820977  0.50080128  0.42414070  1
  C  C99  1  0.35451632  0.50186701  0.07463143  1
  C  C100  1  0.14326021  0.63935536  0.07542579  1
  C  C101  1  0.49432135  0.85035132  0.07398141  1
  C  C102  1  0.36107703  0.85675520  0.57528386  1
  C  C103  1  0.49726806  0.64503660  0.57460197  1
  C  C104  1  0.14974917  0.50572894  0.57401327  1
  C  C105  1  0.30677238  0.83560787  0.25689773  1
  C  C106  1  0.51897735  0.69151892  0.25947521  1
  C  C107  1  0.17164544  0.48037729  0.25889634  1
  C  C108  1  0.30713672  0.47840240  0.75918474  1
  C  C109  1  0.16721060  0.68698542  0.75769784  1
  C  C110  1  0.51930116  0.82607692  0.75876066  1
