# generated using pymatgen
data_Cu(NiC4)2
_symmetry_space_group_name_H-M   'P 1'
_cell_length_a   8.28281600
_cell_length_b   5.53836400
_cell_length_c   13.77385108
_cell_angle_alpha   67.17186262
_cell_angle_beta   90.00000000
_cell_angle_gamma   90.00000000
_symmetry_Int_Tables_number   1
_chemical_formula_structural   Cu(NiC4)2
_chemical_formula_sum   'Cu4 Ni8 C32'
_cell_volume   582.36012831
_cell_formula_units_Z   4
loop_
 _symmetry_equiv_pos_site_id
 _symmetry_equiv_pos_as_xyz
  1  'x, y, z'
loop_
 _atom_site_type_symbol
 _atom_site_label
 _atom_site_symmetry_multiplicity
 _atom_site_fract_x
 _atom_site_fract_y
 _atom_site_fract_z
 _atom_site_occupancy
  C  C0  1  0.64381500  0.67214700  0.11280100  1
  C  C1  1  0.14381500  0.32785300  0.38719900  1
  C  C2  1  0.35618500  0.32785300  0.88719900  1
  C  C3  1  0.85618500  0.67214700  0.61280100  1
  Ni  Ni4  1  0.96330000  0.40564100  0.83857900  1
  Ni  Ni5  1  0.46330000  0.59435900  0.66142100  1
  Ni  Ni6  1  0.03670000  0.59435900  0.16142100  1
  Ni  Ni7  1  0.53670000  0.40564100  0.33857900  1
  Ni  Ni8  1  0.69481900  0.33316800  0.98757400  1
  Ni  Ni9  1  0.19481900  0.66683200  0.51242600  1
  Ni  Ni10  1  0.30518100  0.66683200  0.01242600  1
  Ni  Ni11  1  0.80518100  0.33316800  0.48757400  1
  Cu  Cu12  1  0.83129200  0.01385200  0.27672200  1
  Cu  Cu13  1  0.33129200  0.98614800  0.22327800  1
  Cu  Cu14  1  0.16870800  0.98614800  0.72327800  1
  Cu  Cu15  1  0.66870800  0.01385200  0.77672200  1
  C  C16  1  0.94207000  0.17458400  0.80535500  1
  C  C17  1  0.44207000  0.82541600  0.69464500  1
  C  C18  1  0.05793000  0.82541600  0.19464500  1
  C  C19  1  0.55793000  0.17458400  0.30535500  1
  C  C20  1  0.87800800  0.65853500  0.76267000  1
  C  C21  1  0.37800800  0.34146500  0.73733000  1
  C  C22  1  0.12199200  0.34146500  0.23733000  1
  C  C23  1  0.62199200  0.65853500  0.26267000  1
  C  C24  1  0.13943700  0.47673900  0.84881000  1
  C  C25  1  0.63943700  0.52326100  0.65119000  1
  C  C26  1  0.86056300  0.52326100  0.15119000  1
  C  C27  1  0.36056300  0.47673900  0.34881000  1
  C  C28  1  0.88282900  0.32691100  0.95295400  1
  C  C29  1  0.38282900  0.67308900  0.54704600  1
  C  C30  1  0.11717100  0.67308900  0.04704600  1
  C  C31  1  0.61717100  0.32691100  0.45295400  1
  C  C32  1  0.83573500  0.61607900  0.48026300  1
  C  C33  1  0.33573500  0.38392100  0.01973700  1
  C  C34  1  0.16426500  0.38392100  0.51973700  1
  C  C35  1  0.66426500  0.61607900  0.98026300  1
  C  C36  1  0.81738400  0.11868200  0.59702100  1
  C  C37  1  0.31738400  0.88131800  0.90297900  1
  C  C38  1  0.18261600  0.88131800  0.40297900  1
  C  C39  1  0.68261600  0.11868200  0.09702100  1
  C  C40  1  0.90598100  0.28044400  0.40285900  1
  C  C41  1  0.40598100  0.71955600  0.09714100  1
  C  C42  1  0.09401900  0.71955600  0.59714100  1
  C  C43  1  0.59401900  0.28044400  0.90285900  1
