# generated using pymatgen
data_Cu2Ni2C9
_symmetry_space_group_name_H-M   'P 1'
_cell_length_a   5.72441300
_cell_length_b   6.63913170
_cell_length_c   6.26545602
_cell_angle_alpha   61.98350872
_cell_angle_beta   94.70859297
_cell_angle_gamma   94.69118294
_symmetry_Int_Tables_number   1
_chemical_formula_structural   Cu2Ni2C9
_chemical_formula_sum   'Cu2 Ni2 C9'
_cell_volume   209.25237997
_cell_formula_units_Z   1
loop_
 _symmetry_equiv_pos_site_id
 _symmetry_equiv_pos_as_xyz
  1  'x, y, z'
loop_
 _atom_site_type_symbol
 _atom_site_label
 _atom_site_symmetry_multiplicity
 _atom_site_fract_x
 _atom_site_fract_y
 _atom_site_fract_z
 _atom_site_occupancy
  Ni  Ni0  1  0.21344901  0.36836859  0.51482935  1
  Ni  Ni1  1  0.78655099  0.63163141  0.48517065  1
  Cu  Cu2  1  0.21360616  0.62505550  0.86546828  1
  Cu  Cu3  1  0.78639384  0.37494450  0.13453172  1
  C  C4  1  0.50000000  0.00000000  0.50000000  1
  C  C5  1  0.75930393  0.03508754  0.90852691  1
  C  C6  1  0.24069607  0.96491246  0.09147209  1
  C  C7  1  0.40641919  0.95913239  0.83117715  1
  C  C8  1  0.95754983  0.77538989  0.04844721  1
  C  C9  1  0.04245117  0.22461011  0.95155279  1
  C  C10  1  0.59358081  0.04086761  0.16882285  1
  C  C11  1  0.23893682  0.81198328  0.43533529  1
  C  C12  1  0.76106318  0.18801672  0.56466471  1
