# generated using pymatgen
data_Cu2Ni3C32
_symmetry_space_group_name_H-M   'P 1'
_cell_length_a   17.64869581
_cell_length_b   8.82632263
_cell_length_c   22.85837510
_cell_angle_alpha   89.93378157
_cell_angle_beta   89.95242395
_cell_angle_gamma   120.04100067
_symmetry_Int_Tables_number   1
_chemical_formula_structural   Cu2Ni3C32
_chemical_formula_sum   'Cu12 Ni18 C192'
_cell_volume   3082.39264953
_cell_formula_units_Z   6
loop_
 _symmetry_equiv_pos_site_id
 _symmetry_equiv_pos_as_xyz
  1  'x, y, z'
loop_
 _atom_site_type_symbol
 _atom_site_label
 _atom_site_symmetry_multiplicity
 _atom_site_fract_x
 _atom_site_fract_y
 _atom_site_fract_z
 _atom_site_occupancy
  Ni  Ni0  1  0.81873484  0.99737950  0.24852507  1
  Ni  Ni1  1  0.99729537  0.63662063  0.25242037  1
  Ni  Ni2  1  0.31739728  0.64549572  0.74954005  1
  Ni  Ni3  1  0.81741194  0.64334798  0.74746615  1
  Ni  Ni4  1  0.99514388  0.35747713  0.75011204  1
  Ni  Ni5  1  0.68814683  0.00191431  0.74880356  1
  Ni  Ni6  1  0.99895089  0.99910880  0.49891395  1
  Ni  Ni7  1  0.50224639  0.00174142  0.49618867  1
  Ni  Ni8  1  0.00173253  0.00170396  0.00090682  1
  Ni  Ni9  1  0.50032587  0.00003554  0.00079237  1
  Ni  Ni10  1  0.33422512  0.31641816  0.83623901  1
  Ni  Ni11  1  0.83383513  0.32535358  0.83628706  1
  Ni  Ni12  1  0.33420818  0.33489254  0.33086511  1
  Ni  Ni13  1  0.82862811  0.34355155  0.33551424  1
  Ni  Ni14  1  0.17370588  0.66899247  0.16782570  1
  Ni  Ni15  1  0.66482819  0.65667703  0.16833797  1
  Ni  Ni16  1  0.17102780  0.68348685  0.66473710  1
  Ni  Ni17  1  0.66886962  0.66989444  0.66323450  1
  C  C18  1  0.49867655  -0.00020155  0.35191448  1
  C  C19  1  0.83349697  0.32589122  0.67918885  1
  C  C20  1  0.33399725  0.33651827  0.18429161  1
  C  C21  1  0.82904285  0.33942694  0.18374874  1
  C  C22  1  0.33283836  0.33246179  0.98315295  1
  C  C23  1  0.83273599  0.33246009  0.98279214  1
  C  C24  1  0.83278428  0.33354257  0.48208797  1
  C  C25  1  0.16549147  0.66494842  0.51606558  1
  C  C26  1  0.66840326  0.66893117  0.51679469  1
  C  C27  1  0.17291325  0.67136405  0.31857059  1
  C  C28  1  0.17133130  0.68351565  0.81716481  1
  C  C29  1  0.66706323  0.66726319  0.81754711  1
  Cu  Cu30  1  0.99703585  0.98667322  0.35273557  1
  Cu  Cu31  1  0.99621059  0.00346840  0.85271056  1
  Cu  Cu32  1  0.49487843  0.00689281  0.85294269  1
  Cu  Cu33  1  0.99172538  0.99440945  0.64601904  1
  Cu  Cu34  1  0.49482941  0.99867782  0.64671014  1
  Cu  Cu35  1  0.99579902  0.99341751  0.14875911  1
  Cu  Cu36  1  0.49762132  0.99776832  0.14934711  1
  Cu  Cu37  1  0.33396601  0.31634033  0.68474080  1
  Cu  Cu38  1  0.33271087  0.33187174  0.47855563  1
  Cu  Cu39  1  0.16741923  0.66768866  0.01906846  1
  Cu  Cu40  1  0.66602442  0.66720559  0.01921022  1
  Cu  Cu41  1  0.66609950  0.65514202  0.31554486  1
  C  C42  1  0.85063025  0.69788787  0.24971925  1
  C  C43  1  0.34959809  0.99659727  0.75027775  1
  C  C44  1  0.84940560  0.00013168  0.75048207  1
  C  C45  1  0.14938631  0.00272195  0.25013223  1
  C  C46  1  0.64495870  0.00110044  0.25102378  1
  C  C47  1  0.35316725  0.70546934  0.25147745  1
  C  C48  1  0.00264300  0.29659314  0.24986521  1
  C  C49  1  0.49666515  0.28802092  0.25075223  1
  C  C50  1  0.14592207  0.29180597  0.75038326  1
  C  C51  1  0.64611455  0.29466594  0.74987121  1
  C  C52  1  0.00115557  0.70799986  0.74971652  1
  C  C53  1  0.50081590  0.70760134  0.75056112  1
  C  C54  1  0.48236369  0.33896665  0.58155885  1
  C  C55  1  0.98123911  0.33948312  0.58248331  1
  C  C56  1  0.18602223  0.03594807  0.58192230  1
  C  C57  1  0.68717847  0.03849396  0.58283273  1
  C  C58  1  0.33128845  0.62428929  0.58312578  1
  C  C59  1  0.83105226  0.62028826  0.58291920  1
  C  C60  1  0.47735546  0.62199558  0.08319282  1
  C  C61  1  0.97833501  0.62186930  0.08289841  1
  C  C62  1  0.33342802  0.04582263  0.08337344  1
  C  C63  1  0.83345079  0.04563633  0.08322546  1
  C  C64  1  0.18916636  0.33302676  0.08306922  1
  C  C65  1  0.68780667  0.33203601  0.08246074  1
  C  C66  1  0.31220353  0.66056850  0.91626383  1
  C  C67  1  0.81210109  0.66084029  0.91640998  1
  C  C68  1  0.02008875  0.37764604  0.91590766  1
  C  C69  1  0.52025679  0.37875742  0.91667272  1
  C  C70  1  0.16810404  0.96228442  0.91693715  1
  C  C71  1  0.66798560  0.96224618  0.91597459  1
  C  C72  1  0.31289442  0.95544759  0.41704144  1
  C  C73  1  0.81228481  0.96242217  0.41774585  1
  C  C74  1  0.16622271  0.37748098  0.41703359  1
  C  C75  1  0.66601198  0.37005130  0.41881035  1
  C  C76  1  0.02090652  0.66238708  0.41694004  1
  C  C77  1  0.52156904  0.67091263  0.41761607  1
  C  C78  1  0.10864428  0.03071929  0.30272760  1
  C  C79  1  0.60462414  0.02780120  0.30262091  1
  C  C80  1  0.40774962  0.78953282  0.30279936  1
  C  C81  1  0.91547427  0.79749598  0.30561896  1
  C  C82  1  0.48600018  0.18266758  0.30272538  1
  C  C83  1  0.98782130  0.18574419  0.30205363  1
  C  C84  1  0.10834117  0.18223198  0.80301248  1
  C  C85  1  0.60799051  0.17983372  0.80207015  1
  C  C86  1  0.48573404  0.78861245  0.80267779  1
  C  C87  1  0.98660359  0.78935182  0.80223238  1
  C  C88  1  0.41269024  0.02861861  0.80708058  1
  C  C89  1  0.91639581  0.03734810  0.80599827  1
  C  C90  1  0.39841003  0.96403133  0.69410781  1
  C  C91  1  0.89748594  0.96284028  0.69504211  1
  C  C92  1  0.09219392  0.20987859  0.69789793  1
  C  C93  1  0.59298474  0.21149633  0.69735664  1
  C  C94  1  0.01719274  0.81778288  0.69731265  1
  C  C95  1  0.51818745  0.81926736  0.69793066  1
  C  C96  1  0.39469589  0.81514068  0.19751964  1
  C  C97  1  0.89702089  0.83257774  0.19382839  1
  C  C98  1  0.01794756  0.21828462  0.19710837  1
  C  C99  1  0.51190343  0.20863448  0.19722802  1
  C  C100  1  0.09237136  0.97107397  0.19790545  1
  C  C101  1  0.59220359  0.97589581  0.19720077  1
  C  C102  1  0.44105331  0.36248876  0.63517597  1
  C  C103  1  0.94308375  0.36192881  0.63783842  1
  C  C104  1  0.23976570  0.11932099  0.63533581  1
  C  C105  1  0.73717587  0.11540363  0.63803855  1
  C  C106  1  0.32070825  0.52332964  0.63794678  1
  C  C107  1  0.82079280  0.52268315  0.63845407  1
  C  C108  1  0.43873892  0.51755632  0.13603951  1
  C  C109  1  0.94075548  0.52022769  0.13701431  1
  C  C110  1  0.32019971  0.12353878  0.13607497  1
  C  C111  1  0.82102121  0.12056747  0.13775144  1
  C  C112  1  0.24147412  0.36000523  0.13590963  1
  C  C113  1  0.73980846  0.35896433  0.13535254  1
  C  C114  1  0.22920015  0.30929499  0.03006086  1
  C  C115  1  0.72745160  0.30688933  0.02970466  1
  C  C116  1  0.42559090  0.54414810  0.03013630  1
  C  C117  1  0.92483132  0.53985285  0.03091916  1
  C  C118  1  0.34659598  0.14947028  0.03017319  1
  C  C119  1  0.84423844  0.15169203  0.03123672  1
  C  C120  1  0.22895978  0.14832734  0.53040780  1
  C  C121  1  0.72971092  0.14982911  0.53184859  1
  C  C122  1  0.34361203  0.53564387  0.53211294  1
  C  C123  1  0.84388220  0.53587798  0.53202861  1
  C  C124  1  0.42589088  0.31046645  0.53035555  1
  C  C125  1  0.92516560  0.31054822  0.53181227  1
  C  C126  1  0.26998356  0.68916182  0.96816209  1
  C  C127  1  0.76977522  0.68895631  0.96823023  1
  C  C128  1  0.07541142  0.46363873  0.96792610  1
  C  C129  1  0.57475296  0.46202936  0.96944345  1
  C  C130  1  0.15463921  0.85175528  0.96971970  1
  C  C131  1  0.65525870  0.85023260  0.96814141  1
  C  C132  1  0.27187964  0.85071877  0.46986228  1
  C  C133  1  0.77039476  0.85010154  0.46867494  1
  C  C134  1  0.15465094  0.45772781  0.46983558  1
  C  C135  1  0.65310404  0.45507018  0.47012402  1
  C  C136  1  0.07570023  0.68823780  0.46839968  1
  C  C137  1  0.57435375  0.69265938  0.46980517  1
  C  C138  1  0.06011885  0.64167021  0.36203462  1
  C  C139  1  0.56048827  0.64069378  0.36428919  1
  C  C140  1  0.25937399  0.87981150  0.36422480  1
  C  C141  1  0.76101266  0.88272776  0.36283863  1
  C  C142  1  0.18007451  0.48229343  0.36391426  1
  C  C143  1  0.67961271  0.47948484  0.36490567  1
  C  C144  1  0.06028782  0.47860875  0.86183187  1
  C  C145  1  0.56174757  0.48245172  0.86390471  1
  C  C146  1  0.17963133  0.88016812  0.86447870  1
  C  C147  1  0.67926255  0.88176123  0.86230951  1
  C  C148  1  0.26083933  0.63786733  0.86265392  1
  C  C149  1  0.76122307  0.63845585  0.86256170  1
  C  C150  1  0.01341424  0.82541864  0.41272584  1
  C  C151  1  0.51077687  0.82530823  0.41049688  1
  C  C152  1  0.40147202  0.97794122  0.41056892  1
  C  C153  1  0.90139184  0.98151439  0.41149971  1
  C  C154  1  0.08832204  0.19905295  0.41110051  1
  C  C155  1  0.58715490  0.19588708  0.41075491  1
  C  C156  1  0.01346840  0.20148167  0.91288239  1
  C  C157  1  0.51392095  0.20277465  0.91330181  1
  C  C158  1  0.08798966  0.97813508  0.91180374  1
  C  C159  1  0.58811770  0.97827682  0.91150847  1
  C  C160  1  0.40109708  0.82079332  0.91216958  1
  C  C161  1  0.90097034  0.82113128  0.91202825  1
  C  C162  1  0.49013562  0.17898761  0.58751784  1
  C  C163  1  0.99109508  0.17944658  0.58845524  1
  C  C164  1  0.09914037  0.02158594  0.58857239  1
  C  C165  1  0.59832469  0.02053360  0.58924933  1
  C  C166  1  0.41287783  0.79930081  0.58688751  1
  C  C167  1  0.91263183  0.79873956  0.58728409  1
  C  C168  1  0.48893380  0.80203304  0.08940529  1
  C  C169  1  0.99012869  0.80181475  0.08801393  1
  C  C170  1  0.41201766  0.02270048  0.08934941  1
  C  C171  1  0.91310358  0.02689286  0.08718727  1
  C  C172  1  0.09954801  0.17695515  0.08883470  1
  C  C173  1  0.59816297  0.17485877  0.08900393  1
  C  C174  1  0.34261820  0.17423604  0.74452381  1
  C  C175  1  0.84226501  0.17716542  0.74446662  1
  C  C176  1  0.23683423  0.32388542  0.74340745  1
  C  C177  1  0.73564691  0.31768799  0.74313977  1
  C  C178  1  0.41876764  0.53628236  0.74301550  1
  C  C179  1  0.91923781  0.53441892  0.74303366  1
  C  C180  1  0.34436274  0.53057836  0.24333924  1
  C  C181  1  0.84762241  0.51315966  0.24408247  1
  C  C182  1  0.41888599  0.30754943  0.24291908  1
  C  C183  1  0.92116169  0.30700034  0.24257476  1
  C  C184  1  0.23665932  0.15721052  0.24238522  1
  C  C185  1  0.73543988  0.15188627  0.24323844  1
  C  C186  1  0.32171533  0.50497108  0.92365996  1
  C  C187  1  0.82168186  0.50515699  0.92373250  1
  C  C188  1  0.43211012  0.35690167  0.92339374  1
  C  C189  1  0.93204219  0.35648217  0.92296596  1
  C  C190  1  0.24664124  0.13717498  0.92390650  1
  C  C191  1  0.74676858  0.13669574  0.92315695  1
  C  C192  1  0.32235059  0.13527650  0.42352626  1
  C  C193  1  0.82162351  0.13753036  0.42335670  1
  C  C194  1  0.24593075  0.35720939  0.42306048  1
  C  C195  1  0.74574256  0.35498180  0.42385397  1
  C  C196  1  0.43222495  0.50980780  0.42351382  1
  C  C197  1  0.93211388  0.50781685  0.42309083  1
  C  C198  1  0.17869329  0.49217477  0.07658239  1
  C  C199  1  0.67726465  0.49047968  0.07617402  1
  C  C200  1  0.06791651  0.64284135  0.07650486  1
  C  C201  1  0.56759943  0.64476535  0.07673578  1
  C  C202  1  0.25469617  0.86528461  0.07700929  1
  C  C203  1  0.75467154  0.86566761  0.07699105  1
  C  C204  1  0.17818889  0.86274040  0.57602602  1
  C  C205  1  0.67744386  0.86201617  0.57690487  1
  C  C206  1  0.25372961  0.64420913  0.57665173  1
  C  C207  1  0.75371479  0.64319979  0.57739111  1
  C  C208  1  0.06955419  0.49530201  0.57649819  1
  C  C209  1  0.56926405  0.49508301  0.57576572  1
  C  C210  1  0.15364053  0.83855244  0.25675704  1
  C  C211  1  0.65408923  0.84142344  0.25616872  1
  C  C212  1  0.26523097  0.68929135  0.25621120  1
  C  C213  1  0.75673501  0.69387309  0.25623655  1
  C  C214  1  0.07824935  0.47648833  0.25681590  1
  C  C215  1  0.57643130  0.46587203  0.25542998  1
  C  C216  1  0.15136961  0.46457718  0.75751575  1
  C  C217  1  0.65481923  0.46870184  0.75773567  1
  C  C218  1  0.07555744  0.67703564  0.75735928  1
  C  C219  1  0.57768582  0.68579829  0.75798682  1
  C  C220  1  0.25628330  0.81737111  0.75507322  1
  C  C221  1  0.75368957  0.82355406  0.75642136  1
