# generated using pymatgen
data_Cu4Ni4C11
_symmetry_space_group_name_H-M   'P 1'
_cell_length_a   5.67632150
_cell_length_b   6.09360155
_cell_length_c   9.68588154
_cell_angle_alpha   84.13580419
_cell_angle_beta   70.81143810
_cell_angle_gamma   72.35745581
_symmetry_Int_Tables_number   1
_chemical_formula_structural   Cu4Ni4C11
_chemical_formula_sum   'Cu4 Ni4 C11'
_cell_volume   301.53038892
_cell_formula_units_Z   1
loop_
 _symmetry_equiv_pos_site_id
 _symmetry_equiv_pos_as_xyz
  1  'x, y, z'
loop_
 _atom_site_type_symbol
 _atom_site_label
 _atom_site_symmetry_multiplicity
 _atom_site_fract_x
 _atom_site_fract_y
 _atom_site_fract_z
 _atom_site_occupancy
  C  C0  1  0.25776345  0.73226487  0.99602351  1
  C  C1  1  0.60713857  0.10781356  0.96143595  1
  C  C2  1  0.03252995  0.79015369  0.42477591  1
  C  C3  1  0.92849794  0.25738317  0.59925022  1
  C  C4  1  0.46348409  0.80543395  0.55737072  1
  C  C5  1  0.51462967  0.33271148  0.41401496  1
  C  C6  1  0.60726488  0.78154132  0.22389621  1
  C  C7  1  0.36077908  0.30452430  0.78435886  1
  C  C8  1  0.81173209  0.42393882  0.02960627  1
  C  C9  1  0.87363441  0.69731111  0.75676940  1
  C  C10  1  0.15409856  0.30536020  0.25352443  1
  Ni  Ni11  1  0.27225047  0.07037694  0.37185921  1
  Ni  Ni12  1  0.18669922  0.56661735  0.62196146  1
  Ni  Ni13  1  0.85527870  0.51812091  0.35538098  1
  Ni  Ni14  1  0.67680125  0.95454161  0.68657693  1
  Cu  Cu15  1  0.71919598  0.43043824  0.84203182  1
  Cu  Cu16  1  0.15059928  0.22234191  0.04862962  1
  Cu  Cu17  1  0.45260485  0.45162371  0.16434969  1
  Cu  Cu18  1  0.85626755  0.73708586  0.97246985  1
