# generated using pymatgen
data_CuNiC6
_symmetry_space_group_name_H-M   'P 1'
_cell_length_a   3.85288490
_cell_length_b   3.89460137
_cell_length_c   9.88149033
_cell_angle_alpha   101.36539611
_cell_angle_beta   101.24207128
_cell_angle_gamma   89.99998718
_symmetry_Int_Tables_number   1
_chemical_formula_structural   CuNiC6
_chemical_formula_sum   'Cu1 Ni1 C6'
_cell_volume   142.46543767
_cell_formula_units_Z   1
loop_
 _symmetry_equiv_pos_site_id
 _symmetry_equiv_pos_as_xyz
  1  'x, y, z'
loop_
 _atom_site_type_symbol
 _atom_site_label
 _atom_site_symmetry_multiplicity
 _atom_site_fract_x
 _atom_site_fract_y
 _atom_site_fract_z
 _atom_site_occupancy
  C  C0  1  0.68615508  0.68615508  0.37230916  1
  C  C1  1  0.31384492  0.31384492  0.62769084  1
  Ni  Ni2  1  0.50000000  0.50000000  0.00000000  1
  Cu  Cu3  1  -0.00000000  -0.00000000  0.00000000  1
  C  C4  1  0.80952397  0.80952397  0.61904793  1
  C  C5  1  0.19047603  0.19047603  0.38095207  1
  C  C6  1  -0.00000000  0.50000000  0.00000000  1
  C  C7  1  0.50000000  -0.00000000  0.00000000  1
