# generated using pymatgen
data_CuNi5C36
_symmetry_space_group_name_H-M   'P 1'
_cell_length_a   9.45862459
_cell_length_b   9.44174850
_cell_length_c   23.16196173
_cell_angle_alpha   89.96707018
_cell_angle_beta   90.23555535
_cell_angle_gamma   120.01880327
_symmetry_Int_Tables_number   1
_chemical_formula_structural   CuNi5C36
_chemical_formula_sum   'Cu3 Ni15 C108'
_cell_volume   1791.01722480
_cell_formula_units_Z   3
loop_
 _symmetry_equiv_pos_site_id
 _symmetry_equiv_pos_as_xyz
  1  'x, y, z'
loop_
 _atom_site_type_symbol
 _atom_site_label
 _atom_site_symmetry_multiplicity
 _atom_site_fract_x
 _atom_site_fract_y
 _atom_site_fract_z
 _atom_site_occupancy
  C  C0  1  0.61277429  0.99778659  0.25227429  1
  C  C1  1  0.36553496  0.34865956  0.25668200  1
  C  C2  1  0.01813588  0.65081342  0.24808220  1
  C  C3  1  0.64009519  0.62244533  0.74719099  1
  C  C4  1  0.00486457  0.36810301  0.73768463  1
  C  C5  1  0.35059986  0.00581446  0.74253630  1
  C  C6  1  0.29885581  0.34339833  0.58047316  1
  C  C7  1  0.04195470  0.70101001  0.58092553  1
  C  C8  1  0.66140708  0.95858271  0.57591827  1
  C  C9  1  0.30063392  0.95613938  0.08167933  1
  C  C10  1  0.65672693  0.70065568  0.07620857  1
  C  C11  1  0.04238318  0.34161917  0.07679020  1
  C  C12  1  0.96901151  0.67732674  0.91521862  1
  C  C13  1  0.70169836  0.02336027  0.92059078  1
  C  C14  1  0.32346480  0.29471726  0.91420961  1
  C  C15  1  0.97672282  0.30527710  0.42463341  1
  C  C16  1  0.33169988  0.02642645  0.41933180  1
  C  C17  1  0.69359534  0.67170242  0.42447372  1
  C  C18  1  0.99908360  0.00100512  0.50212643  1
  C  C19  1  0.99846286  0.99848353  0.99919998  1
  C  C20  1  0.66522076  0.34743326  0.83158622  1
  C  C21  1  0.64933320  0.31818438  0.34274933  1
  C  C22  1  0.33115149  0.68094735  0.15844496  1
  C  C23  1  0.32615489  0.66109975  0.65431804  1
  C  C24  1  0.00956173  0.00139416  0.35369883  1
  C  C25  1  0.00645058  0.99793107  0.84967781  1
  C  C26  1  0.01635702  0.00506269  0.64563626  1
  C  C27  1  0.00929488  0.99679420  0.14102313  1
  C  C28  1  0.66728816  0.33988593  0.68149727  1
  C  C29  1  0.65969652  0.32748391  0.17997730  1
  C  C30  1  0.33205096  0.66610143  0.01551490  1
  C  C31  1  0.33311770  0.66828702  0.51440648  1
  C  C32  1  0.33066402  0.67350830  0.32632500  1
  C  C33  1  0.66457619  0.33263792  0.98072381  1
  C  C34  1  0.66666889  0.33413155  0.48459009  1
  C  C35  1  0.32041181  0.65552354  0.82172220  1
  Ni  Ni36  1  0.30499281  0.99699552  0.24933439  1
  Ni  Ni37  1  0.30303815  0.31142250  0.75351213  1
  Ni  Ni38  1  0.00716603  0.69566144  0.75301628  1
  Ni  Ni39  1  0.95952611  0.33107321  0.58391273  1
  Ni  Ni40  1  0.37610821  0.04048307  0.58390208  1
  Ni  Ni41  1  0.66749041  0.63094377  0.58313140  1
  Ni  Ni42  1  0.95564869  0.62188821  0.08306181  1
  Ni  Ni43  1  0.66866472  0.04126556  0.08159722  1
  Ni  Ni44  1  0.37456225  0.33541791  0.08155741  1
  Ni  Ni45  1  0.62630439  0.66100552  0.91811224  1
  Ni  Ni46  1  0.02563169  0.36679633  0.91944667  1
  Ni  Ni47  1  0.34199322  0.96713694  0.91754889  1
  Ni  Ni48  1  0.63896943  0.97958627  0.41782046  1
  Ni  Ni49  1  0.34268204  0.36702997  0.41679181  1
  Ni  Ni50  1  0.01875501  0.65569846  0.41742291  1
  Cu  Cu51  1  0.69984896  0.70296340  0.24916270  1
  Cu  Cu52  1  0.00202161  0.29925764  0.24899868  1
  Cu  Cu53  1  0.69175302  0.98922514  0.75230844  1
  C  C54  1  0.21378527  0.01998232  0.30541914  1
  C  C55  1  0.79700986  0.78692798  0.30133137  1
  C  C56  1  0.98052026  0.19863734  0.30099655  1
  C  C57  1  0.21703890  0.20158384  0.81019896  1
  C  C58  1  0.97142447  0.77577900  0.80908704  1
  C  C59  1  0.79345814  0.01357676  0.80398104  1
  C  C60  1  0.77002790  0.96668541  0.70011568  1
  C  C61  1  0.18469688  0.23694457  0.69616055  1
  C  C62  1  0.04722151  0.81424391  0.69600486  1
  C  C63  1  0.77972440  0.80232828  0.19694825  1
  C  C64  1  0.01376348  0.21477183  0.19672001  1
  C  C65  1  0.19235583  0.97469004  0.19151784  1
  C  C66  1  0.88264065  0.35358504  0.64344546  1
  C  C67  1  0.47459162  0.11520937  0.64407037  1
  C  C68  1  0.64222290  0.52991292  0.64279568  1
  C  C69  1  0.88141940  0.52444912  0.14313137  1
  C  C70  1  0.64448899  0.11795841  0.14101372  1
  C  C71  1  0.47650748  0.36176302  0.14097375  1
  C  C72  1  0.48422474  0.31952137  0.02563374  1
  C  C73  1  0.83173793  0.51090131  0.02676715  1
  C  C74  1  0.68092885  0.16485785  0.02516672  1
  C  C75  1  0.48623159  0.16303825  0.52868222  1
  C  C76  1  0.67940648  0.51924040  0.52781728  1
  C  C77  1  0.83734602  0.32189620  0.52837300  1
  C  C78  1  0.55387529  0.69438013  0.97586072  1
  C  C79  1  0.13933181  0.44034275  0.97546853  1
  C  C80  1  0.30642205  0.85903858  0.97480855  1
  C  C81  1  0.55811050  0.85821331  0.47240925  1
  C  C82  1  0.30740818  0.45160437  0.47127648  1
  C  C83  1  0.14209191  0.69784588  0.47156127  1
  C  C84  1  0.09153402  0.61462686  0.35885143  1
  C  C85  1  0.52395885  0.90566837  0.35928561  1
  C  C86  1  0.38017836  0.47767402  0.35738856  1
  C  C87  1  0.13530616  0.49889689  0.86400354  1
  C  C88  1  0.36523950  0.86091613  0.86239768  1
  C  C89  1  0.49621819  0.63789021  0.86320782  1
  C  C90  1  0.98448368  0.80870700  0.41116278  1
  C  C91  1  0.82408142  0.01160347  0.40998364  1
  C  C92  1  0.18423549  0.18206171  0.41291454  1
  C  C93  1  0.99068419  0.18307222  0.90822603  1
  C  C94  1  0.18768211  0.99717440  0.90997078  1
  C  C95  1  0.80785597  0.81700274  0.90893688  1
  C  C96  1  0.96065619  0.15763075  0.58146183  1
  C  C97  1  0.20179280  0.04027112  0.58065062  1
  C  C98  1  0.83954067  0.80645404  0.58221099  1
  C  C99  1  0.95535661  0.79623241  0.07949534  1
  C  C100  1  0.84074904  0.03848851  0.08021006  1
  C  C101  1  0.19877125  0.16296572  0.07925114  1
  C  C102  1  0.67032635  0.13490952  0.74788604  1
  C  C103  1  0.48606374  0.33178572  0.75043879  1
  C  C104  1  0.85491920  0.50642408  0.74993321  1
  C  C105  1  0.68960010  0.53977218  0.24702029  1
  C  C106  1  0.85805854  0.32377275  0.24668041  1
  C  C107  1  0.48944740  0.16398941  0.25041441  1
  C  C108  1  0.63288788  0.48631662  0.92216914  1
  C  C109  1  0.85066054  0.36916068  0.92261339  1
  C  C110  1  0.51590083  0.14806498  0.92184838  1
  C  C111  1  0.65000828  0.16039971  0.42776937  1
  C  C112  1  0.50868122  0.34935580  0.42677046  1
  C  C113  1  0.83783612  0.48788713  0.42745583  1
  C  C114  1  0.35188136  0.49460418  0.07809448  1
  C  C115  1  0.13784941  0.64535780  0.07838630  1
  C  C116  1  0.50731382  0.85994084  0.07800469  1
  C  C117  1  0.35294802  0.85827318  0.57852171  1
  C  C118  1  0.50565751  0.64953702  0.57811535  1
  C  C119  1  0.14044148  0.49303785  0.57832261  1
  C  C120  1  0.31973450  0.82795394  0.25174167  1
  C  C121  1  0.53243980  0.68097094  0.25252564  1
  C  C122  1  0.15554124  0.46161581  0.25283181  1
  C  C123  1  0.32337087  0.49990522  0.76389555  1
  C  C124  1  0.18216207  0.68828400  0.76415813  1
  C  C125  1  0.52707083  0.83785063  0.75829685  1
