# generated using pymatgen
data_Cu2Ni2C9
_symmetry_space_group_name_H-M   'P 1'
_cell_length_a   3.42018317
_cell_length_b   3.42029964
_cell_length_c   42.15985359
_cell_angle_alpha   90.00025521
_cell_angle_beta   90.12330268
_cell_angle_gamma   120.00103001
_symmetry_Int_Tables_number   1
_chemical_formula_structural   Cu2Ni2C9
_chemical_formula_sum   'Cu2 Ni2 C9'
_cell_volume   427.10769371
_cell_formula_units_Z   1
loop_
 _symmetry_equiv_pos_site_id
 _symmetry_equiv_pos_as_xyz
  1  'x, y, z'
loop_
 _atom_site_type_symbol
 _atom_site_label
 _atom_site_symmetry_multiplicity
 _atom_site_fract_x
 _atom_site_fract_y
 _atom_site_fract_z
 _atom_site_occupancy
  C  C0  1  0.67246700  0.33618800  0.36535100  1
  C  C1  1  0.33555800  0.66776600  0.70206300  1
  C  C2  1  0.66453900  0.33225800  0.04947700  1
  C  C3  1  0.66840000  0.33419100  0.13844600  1
  C  C4  1  0.33206600  0.66605600  0.61312800  1
  Ni  Ni5  1  0.33297300  0.66645800  0.47329600  1
  Ni  Ni6  1  0.66882900  0.33446400  0.27704600  1
  Cu  Cu7  1  0.33308100  0.66652700  0.09395900  1
  Cu  Cu8  1  0.66719500  0.33360600  0.65758000  1
  C  C9  1  0.66460700  0.33227400  0.43413300  1
  C  C10  1  0.66802600  0.33398800  0.51213800  1
  C  C11  1  0.33613300  0.66811400  0.31298400  1
  C  C12  1  0.33469700  0.66739400  0.24199500  1
