# generated using pymatgen
data_Cu2Ni2C7
_symmetry_space_group_name_H-M   'P 1'
_cell_length_a   7.75371516
_cell_length_b   7.55082392
_cell_length_c   8.23723419
_cell_angle_alpha   60.19434511
_cell_angle_beta   60.29371663
_cell_angle_gamma   58.39148406
_symmetry_Int_Tables_number   1
_chemical_formula_structural   Cu2Ni2C7
_chemical_formula_sum   'Cu4 Ni4 C14'
_cell_volume   337.88245532
_cell_formula_units_Z   2
loop_
 _symmetry_equiv_pos_site_id
 _symmetry_equiv_pos_as_xyz
  1  'x, y, z'
loop_
 _atom_site_type_symbol
 _atom_site_label
 _atom_site_symmetry_multiplicity
 _atom_site_fract_x
 _atom_site_fract_y
 _atom_site_fract_z
 _atom_site_occupancy
  Ni  Ni0  1  0.12500000  0.12500000  0.12500000  1
  Ni  Ni1  1  0.62500000  0.12500000  0.12500000  1
  Ni  Ni2  1  0.12500000  0.12500000  0.62500000  1
  Ni  Ni3  1  0.12500000  0.62500000  0.12500000  1
  Cu  Cu4  1  0.62500000  0.62500000  0.62500000  1
  Cu  Cu5  1  0.12500000  0.62500000  0.62500000  1
  Cu  Cu6  1  0.62500000  0.62500000  0.12500000  1
  Cu  Cu7  1  0.62500000  0.12500000  0.62500000  1
  C  C8  1  0.74357836  0.73521361  0.76847240  1
  C  C9  1  0.50642164  0.51478639  0.48152760  1
  C  C10  1  0.42623330  0.43538718  0.05357159  1
  C  C11  1  0.42873544  0.05319551  0.48324178  1
  C  C12  1  0.82376670  0.81461282  0.19642841  1
  C  C13  1  0.04393289  0.03959292  0.40526641  1
  C  C14  1  0.20945846  0.80807939  0.15340851  1
  C  C15  1  0.18740888  0.81542617  0.77376042  1
  C  C16  1  0.04054154  0.44192061  0.09659149  1
  C  C17  1  0.82126456  0.19680449  0.76675822  1
  C  C18  1  0.20606711  0.21040708  0.84473359  1
  C  C19  1  0.47203027  0.02970457  0.08157300  1
  C  C20  1  0.06259112  0.43457383  0.47623958  1
  C  C21  1  0.77796973  0.22029543  0.16842700  1
