# generated using pymatgen
data_Cu2NiC16
_symmetry_space_group_name_H-M   'P 1'
_cell_length_a   5.08472636
_cell_length_b   5.66439276
_cell_length_c   9.49641984
_cell_angle_alpha   89.11471953
_cell_angle_beta   107.72361123
_cell_angle_gamma   89.88597843
_symmetry_Int_Tables_number   1
_chemical_formula_structural   Cu2NiC16
_chemical_formula_sum   'Cu2 Ni1 C16'
_cell_volume   260.49520420
_cell_formula_units_Z   1
loop_
 _symmetry_equiv_pos_site_id
 _symmetry_equiv_pos_as_xyz
  1  'x, y, z'
loop_
 _atom_site_type_symbol
 _atom_site_label
 _atom_site_symmetry_multiplicity
 _atom_site_fract_x
 _atom_site_fract_y
 _atom_site_fract_z
 _atom_site_occupancy
  Ni  Ni0  1  0.00108700  0.99750900  0.50286600  1
  C  C1  1  0.41345400  0.13283800  0.34053600  1
  C  C2  1  0.08310600  0.38882000  0.68284100  1
  C  C3  1  0.58900300  0.86109200  0.66546700  1
  C  C4  1  0.91944600  0.60551500  0.32332100  1
  Cu  Cu5  1  0.78012600  0.23590500  0.99582000  1
  Cu  Cu6  1  0.22387500  0.75779900  0.01056200  1
  C  C7  1  0.72451900  0.16842100  0.56699700  1
  C  C8  1  0.14448100  0.31861500  0.43065000  1
  C  C9  1  0.27631400  0.82471900  0.43869200  1
  C  C10  1  0.85746600  0.67444900  0.57492600  1
  C  C11  1  0.59741300  0.40893000  0.28866200  1
  C  C12  1  0.29891600  0.08344200  0.69640000  1
  C  C13  1  0.97472700  0.58560000  0.13626700  1
  C  C14  1  0.84684300  0.91450600  0.85991800  1
  C  C15  1  0.02983200  0.40788000  0.87029000  1
  C  C16  1  0.15676300  0.07859800  0.14563600  1
  C  C17  1  0.70282300  0.91041400  0.30927800  1
  C  C18  1  0.40480600  0.58542400  0.71801500  1
