# generated using pymatgen
data_Cu2NiC7
_symmetry_space_group_name_H-M   'P 1'
_cell_length_a   7.03281516
_cell_length_b   3.74612997
_cell_length_c   5.86475399
_cell_angle_alpha   90.03633883
_cell_angle_beta   90.07294600
_cell_angle_gamma   89.94980184
_symmetry_Int_Tables_number   1
_chemical_formula_structural   Cu2NiC7
_chemical_formula_sum   'Cu2 Ni1 C7'
_cell_volume   154.51165279
_cell_formula_units_Z   1
loop_
 _symmetry_equiv_pos_site_id
 _symmetry_equiv_pos_as_xyz
  1  'x, y, z'
loop_
 _atom_site_type_symbol
 _atom_site_label
 _atom_site_symmetry_multiplicity
 _atom_site_fract_x
 _atom_site_fract_y
 _atom_site_fract_z
 _atom_site_occupancy
  C  C0  1  0.00052470  0.99986993  0.99990664  1
  C  C1  1  0.50071876  0.00166767  0.00020550  1
  Ni  Ni2  1  0.49973363  0.99966206  0.50010626  1
  Cu  Cu3  1  0.19752370  0.50028112  0.50174877  1
  Cu  Cu4  1  0.80223900  0.49950032  0.49853899  1
  C  C5  1  0.24634923  0.49975664  0.99903837  1
  C  C6  1  0.75355895  0.49982994  0.00071318  1
  C  C7  1  0.49985433  0.49965142  0.49941976  1
  C  C8  1  0.21276341  0.00025340  0.49990147  1
  C  C9  1  0.78673329  0.99951550  0.50041404  1
