# generated using pymatgen
data_Cu5(NiC10)7
_symmetry_space_group_name_H-M   'P 1'
_cell_length_a   18.27348792
_cell_length_b   9.14756333
_cell_length_c   22.40723644
_cell_angle_alpha   90.06757543
_cell_angle_beta   89.84543610
_cell_angle_gamma   119.93429532
_symmetry_Int_Tables_number   1
_chemical_formula_structural   Cu5(NiC10)7
_chemical_formula_sum   'Cu15 Ni21 C210'
_cell_volume   3245.87188493
_cell_formula_units_Z   3
loop_
 _symmetry_equiv_pos_site_id
 _symmetry_equiv_pos_as_xyz
  1  'x, y, z'
loop_
 _atom_site_type_symbol
 _atom_site_label
 _atom_site_symmetry_multiplicity
 _atom_site_fract_x
 _atom_site_fract_y
 _atom_site_fract_z
 _atom_site_occupancy
  C  C0  1  0.80532078  0.98327253  0.25888227  1
  C  C1  1  0.18356461  0.35331773  0.25761353  1
  C  C2  1  0.69296402  0.36727623  0.25731154  1
  C  C3  1  0.98972881  0.64343532  0.24400536  1
  C  C4  1  0.50181674  0.65095599  0.25290280  1
  C  C5  1  0.30634637  0.62856847  0.74435993  1
  C  C6  1  0.00108776  0.34990114  0.74639931  1
  C  C7  1  0.49263439  0.34196046  0.73705146  1
  C  C8  1  0.19170177  0.01740455  0.75169475  1
  C  C9  1  0.68618419  0.01528461  0.75199029  1
  C  C10  1  0.14771547  0.33022198  0.58661557  1
  C  C11  1  0.65906294  0.33608518  0.58023350  1
  C  C12  1  0.33885186  0.99654344  0.57881659  1
  C  C13  1  0.83624072  0.98350777  0.57670473  1
  C  C14  1  0.15746718  0.98250855  0.08728779  1
  C  C15  1  0.64822743  0.96483169  0.09188151  1
  C  C16  1  0.33606873  0.68757929  0.08759233  1
  C  C17  1  0.83744660  0.68550526  0.08439267  1
  C  C18  1  0.48338751  0.67856207  0.92658622  1
  C  C19  1  0.97288784  0.66479087  0.92324174  1
  C  C20  1  0.35447980  0.04303803  0.91488556  1
  C  C21  1  0.84885590  0.02967336  0.90795621  1
  C  C22  1  0.16774632  0.28548824  0.91354638  1
  C  C23  1  0.67324519  0.29083013  0.90613824  1
  C  C24  1  0.47564721  0.28511234  0.42433446  1
  C  C25  1  0.97411724  0.27091018  0.42639081  1
  C  C26  1  0.17080861  0.05674735  0.40624438  1
  C  C27  1  0.67790681  0.04166538  0.41126847  1
  C  C28  1  0.35093024  0.66987362  0.40851413  1
  C  C29  1  0.85028435  0.68014066  0.41752812  1
  C  C30  1  0.98965983  0.99536413  0.49328250  1
  C  C31  1  0.50382485  0.00339170  0.49747461  1
  C  C32  1  0.99880077  0.99793011  0.00065949  1
  C  C33  1  0.49974317  0.00071095  0.00123781  1
  C  C34  1  0.32484227  0.31747681  0.82179082  1
  C  C35  1  0.82177381  0.33226537  0.83285945  1
  C  C36  1  0.32346326  0.31340071  0.33626709  1
  C  C37  1  0.82249563  0.31339885  0.33081997  1
  C  C38  1  0.16936838  0.67936857  0.17056777  1
  C  C39  1  0.66208266  0.66431993  0.17876161  1
  C  C40  1  0.16028400  0.65584628  0.67452969  1
  C  C41  1  0.66890203  0.65865539  0.66237595  1
  C  C42  1  0.99368945  0.00007278  0.64903856  1
  C  C43  1  0.50092099  0.01469467  0.64946292  1
  C  C44  1  0.00073041  0.98912645  0.14994791  1
  C  C45  1  0.49382163  0.98827781  0.15026400  1
  C  C46  1  0.83085637  0.33296939  0.68091292  1
  C  C47  1  0.33000220  0.32631461  0.18175057  1
  C  C48  1  0.16481502  0.66497682  0.02562491  1
  C  C49  1  0.66593798  0.67260078  0.01712506  1
  C  C50  1  0.16585754  0.66037065  0.51715835  1
  C  C51  1  0.67147154  0.67557539  0.52252147  1
  C  C52  1  0.17739674  0.68005159  0.31420749  1
  C  C53  1  0.67766156  0.67623653  0.81294913  1
  C  C54  1  0.99901568  0.99857934  0.35157039  1
  C  C55  1  0.49800703  0.99186185  0.34649752  1
  C  C56  1  0.99626266  0.00076452  0.84500843  1
  C  C57  1  0.50658525  0.00960976  0.84642560  1
  C  C58  1  0.33619052  0.32590507  0.68561416  1
  C  C59  1  0.83612260  0.34212037  0.18730228  1
  C  C60  1  0.33514374  0.33405663  0.99908564  1
  C  C61  1  0.83157919  0.33996043  0.97976052  1
  C  C62  1  0.33326293  0.32644929  0.47950285  1
  C  C63  1  0.83247337  0.32085138  0.49000159  1
  C  C64  1  0.67374285  0.68786709  0.31325438  1
  C  C65  1  0.16837383  0.66241248  0.81085758  1
  Ni  Ni66  1  0.14789525  0.99832332  0.25392929  1
  Ni  Ni67  1  0.64975912  0.00504040  0.25089221  1
  Ni  Ni68  1  0.35116451  0.69456222  0.25259328  1
  Ni  Ni69  1  0.84961060  0.69979871  0.25336938  1
  Ni  Ni70  1  0.14993340  0.29320681  0.75286458  1
  Ni  Ni71  1  0.65020139  0.30187794  0.75347914  1
  Ni  Ni72  1  0.34996365  0.99608475  0.75570201  1
  Ni  Ni73  1  0.85195390  0.00953180  0.75328850  1
  Ni  Ni74  1  0.47820177  0.33641490  0.58279672  1
  Ni  Ni75  1  0.98565499  0.34252509  0.58421102  1
  Ni  Ni76  1  0.68113070  0.03510000  0.58148616  1
  Ni  Ni77  1  0.83900731  0.62928868  0.57574403  1
  Ni  Ni78  1  0.48463858  0.63029141  0.08245259  1
  Ni  Ni79  1  0.97552722  0.61986952  0.08291267  1
  Ni  Ni80  1  0.33895843  0.04365939  0.07544119  1
  Ni  Ni81  1  0.18204937  0.32643912  0.07944833  1
  Ni  Ni82  1  0.82001499  0.67086731  0.91931394  1
  Ni  Ni83  1  0.66343699  0.96569354  0.91579349  1
  Ni  Ni84  1  0.32019938  0.96972848  0.41983471  1
  Ni  Ni85  1  0.81581344  0.97265121  0.41400974  1
  Ni  Ni86  1  0.16663021  0.36584148  0.41606066  1
  Cu  Cu87  1  0.99920146  0.29038393  0.25158092  1
  Cu  Cu88  1  0.49844910  0.29045150  0.25251729  1
  Cu  Cu89  1  0.99967593  0.70729685  0.75344862  1
  Cu  Cu90  1  0.49824562  0.70647967  0.75347871  1
  Cu  Cu91  1  0.18615109  0.03860427  0.58383618  1
  Cu  Cu92  1  0.33299451  0.62580653  0.58291907  1
  Cu  Cu93  1  0.83309062  0.04171407  0.08123791  1
  Cu  Cu94  1  0.68566267  0.33355202  0.08252492  1
  Cu  Cu95  1  0.31165760  0.66212292  0.91507872  1
  Cu  Cu96  1  0.02382885  0.37964786  0.91553216  1
  Cu  Cu97  1  0.51917814  0.37758588  0.91535215  1
  Cu  Cu98  1  0.16719515  0.95586044  0.91423636  1
  Cu  Cu99  1  0.66461787  0.37425984  0.41365240  1
  Cu  Cu100  1  0.02125799  0.66360795  0.41482132  1
  Cu  Cu101  1  0.52221115  0.66653725  0.41563473  1
  C  C102  1  0.10849206  0.03789236  0.31171736  1
  C  C103  1  0.60825859  0.04375156  0.30911731  1
  C  C104  1  0.40655444  0.77971080  0.31124324  1
  C  C105  1  0.91093400  0.79392701  0.30958505  1
  C  C106  1  0.48636853  0.19268208  0.30721697  1
  C  C107  1  0.99099157  0.19579102  0.30624576  1
  C  C108  1  0.11056020  0.17502124  0.81236406  1
  C  C109  1  0.61344696  0.18740473  0.81274216  1
  C  C110  1  0.48884740  0.78389788  0.80866461  1
  C  C111  1  0.98899210  0.78169606  0.80859645  1
  C  C112  1  0.40770598  0.02029601  0.81437609  1
  C  C113  1  0.90616160  0.03469441  0.81271823  1
  C  C114  1  0.39778052  0.96575787  0.69680758  1
  C  C115  1  0.89855713  0.98670849  0.69378340  1
  C  C116  1  0.08934237  0.18720764  0.69481764  1
  C  C117  1  0.58852450  0.20436812  0.69531406  1
  C  C118  1  0.01010755  0.81537248  0.70078793  1
  C  C119  1  0.51301692  0.81935568  0.70126139  1
  C  C120  1  0.39611305  0.80865314  0.19205031  1
  C  C121  1  0.89687726  0.82353186  0.19272445  1
  C  C122  1  0.01425637  0.20800092  0.19876634  1
  C  C123  1  0.50734607  0.20105566  0.19939151  1
  C  C124  1  0.08968310  0.97354823  0.19325851  1
  C  C125  1  0.59033312  0.99157185  0.19149265  1
  C  C126  1  0.43903423  0.36006728  0.64426837  1
  C  C127  1  0.93978194  0.35837133  0.64488030  1
  C  C128  1  0.23819077  0.11655924  0.63739738  1
  C  C129  1  0.74299307  0.12646267  0.64028820  1
  C  C130  1  0.32003369  0.52453230  0.63707764  1
  C  C131  1  0.82210265  0.50354593  0.63277282  1
  C  C132  1  0.43462721  0.51551415  0.14051659  1
  C  C133  1  0.93681705  0.51574061  0.14328155  1
  C  C134  1  0.31868297  0.13601683  0.13050126  1
  C  C135  1  0.82024168  0.11731607  0.13489494  1
  C  C136  1  0.24470319  0.35936382  0.13715785  1
  C  C137  1  0.73786622  0.35971243  0.13561967  1
  C  C138  1  0.22068428  0.29002196  0.01984231  1
  C  C139  1  0.72291724  0.30403422  0.02802095  1
  C  C140  1  0.42906045  0.55741272  0.02214996  1
  C  C141  1  0.91997151  0.54197873  0.02309353  1
  C  C142  1  0.34984958  0.13933010  0.01320839  1
  C  C143  1  0.83938955  0.13414952  0.02625309  1
  C  C144  1  0.22380749  0.14361741  0.52984668  1
  C  C145  1  0.71770403  0.15223219  0.52310700  1
  C  C146  1  0.33920254  0.54406843  0.52839007  1
  C  C147  1  0.84785786  0.54830346  0.51474496  1
  C  C148  1  0.41865038  0.29690727  0.52458837  1
  C  C149  1  0.92931987  0.30409046  0.52529577  1
  C  C150  1  0.26824390  0.67800547  0.96964315  1
  C  C151  1  0.76952286  0.68790607  0.97885992  1
  C  C152  1  0.07861208  0.47597373  0.96747682  1
  C  C153  1  0.57312377  0.46835827  0.96860328  1
  C  C154  1  0.16320228  0.85763389  0.96922969  1
  C  C155  1  0.65171094  0.84019155  0.97387541  1
  C  C156  1  0.26995901  0.85248913  0.47957824  1
  C  C157  1  0.76522784  0.85041067  0.47334730  1
  C  C158  1  0.15532939  0.46740618  0.47461509  1
  C  C159  1  0.65660355  0.45985932  0.46875034  1
  C  C160  1  0.07569095  0.67979324  0.46804132  1
  C  C161  1  0.57567806  0.67819033  0.46751497  1
  C  C162  1  0.06408903  0.64713475  0.36083478  1
  C  C163  1  0.55756130  0.63886371  0.36030445  1
  C  C164  1  0.25598045  0.86251413  0.36372882  1
  C  C165  1  0.75637518  0.88675333  0.35619022  1
  C  C166  1  0.17491441  0.48514636  0.35796915  1
  C  C167  1  0.66776821  0.47259621  0.36054320  1
  C  C168  1  0.06176434  0.47942708  0.86097470  1
  C  C169  1  0.56199836  0.47625283  0.86126454  1
  C  C170  1  0.17229813  0.86539169  0.86137516  1
  C  C171  1  0.67134977  0.86159675  0.85816703  1
  C  C172  1  0.25996613  0.64551694  0.86200343  1
  C  C173  1  0.75588954  0.65036481  0.86330348  1
  C  C174  1  0.01788750  0.82220835  0.41419549  1
  C  C175  1  0.51904641  0.82648389  0.41482694  1
  C  C176  1  0.41215869  0.98109558  0.41611938  1
  C  C177  1  0.90718933  0.97863320  0.41405642  1
  C  C178  1  0.08302525  0.18095587  0.41586567  1
  C  C179  1  0.58803729  0.20262464  0.41411783  1
  C  C180  1  0.02083123  0.21405136  0.91542148  1
  C  C181  1  0.51182320  0.20859423  0.91528750  1
  C  C182  1  0.08929657  0.96889445  0.91558724  1
  C  C183  1  0.57732782  0.97900513  0.91540095  1
  C  C184  1  0.39641148  0.81641862  0.91368048  1
  C  C185  1  0.91217510  0.84302871  0.91575183  1
  C  C186  1  0.48647277  0.15815859  0.58887425  1
  C  C187  1  0.00021504  0.17529380  0.59085115  1
  C  C188  1  0.09999897  0.01454697  0.59049419  1
  C  C189  1  0.58649871  0.00738602  0.59348614  1
  C  C190  1  0.40689986  0.79951294  0.58742406  1
  C  C191  1  0.91792823  0.82250948  0.58770969  1
  C  C192  1  0.49874527  0.82522076  0.08933531  1
  C  C193  1  0.98679420  0.81546296  0.08815024  1
  C  C194  1  0.41778194  0.00995146  0.08686273  1
  C  C195  1  0.90714064  0.01472800  0.08540405  1
  C  C196  1  0.08832330  0.16375733  0.09052194  1
  C  C197  1  0.59924625  0.18563698  0.08854292  1
  C  C198  1  0.34316306  0.16755280  0.74782819  1
  C  C199  1  0.84336630  0.17967570  0.74715381  1
  C  C200  1  0.24658387  0.32937815  0.74245582  1
  C  C201  1  0.74421908  0.32611482  0.74319886  1
  C  C202  1  0.42185704  0.54065592  0.74611576  1
  C  C203  1  0.92560988  0.53498484  0.74641054  1
  C  C204  1  0.34291479  0.50730587  0.24554339  1
  C  C205  1  0.84143648  0.51302787  0.24705909  1
  C  C206  1  0.42405140  0.31455919  0.24454764  1
  C  C207  1  0.92265910  0.30312424  0.24392346  1
  C  C208  1  0.24231441  0.16269346  0.24323421  1
  C  C209  1  0.74623639  0.16067398  0.24114649  1
  C  C210  1  0.32032211  0.50886088  0.91818040  1
  C  C211  1  0.82468236  0.49785126  0.91797022  1
  C  C212  1  0.43571095  0.36623164  0.91916426  1
  C  C213  1  0.93809016  0.35533523  0.92309660  1
  C  C214  1  0.24395606  0.12651581  0.91518967  1
  C  C215  1  0.75130812  0.14511980  0.92067429  1
  C  C216  1  0.32481744  0.15179101  0.41859878  1
  C  C217  1  0.82717706  0.16241006  0.42063325  1
  C  C218  1  0.25554901  0.36512550  0.42061629  1
  C  C219  1  0.74255666  0.36258929  0.41540599  1
  C  C220  1  0.43535944  0.52079479  0.42342942  1
  C  C221  1  0.93798692  0.51356514  0.41860759  1
  C  C222  1  0.17885484  0.50380020  0.07595920  1
  C  C223  1  0.67880410  0.49013949  0.07606277  1
  C  C224  1  0.07666776  0.66764397  0.07501175  1
  C  C225  1  0.58177013  0.65743364  0.08106629  1
  C  C226  1  0.25316970  0.85042058  0.07447802  1
  C  C227  1  0.75475242  0.86385922  0.07804141  1
  C  C228  1  0.17967488  0.86918429  0.57755490  1
  C  C229  1  0.67740466  0.85140620  0.57859939  1
  C  C230  1  0.25487656  0.64721973  0.57982277  1
  C  C231  1  0.75215606  0.64809755  0.57635183  1
  C  C232  1  0.08349297  0.50874056  0.58264756  1
  C  C233  1  0.57745572  0.48655388  0.57389486  1
  C  C234  1  0.14697898  0.81673350  0.25619289  1
  C  C235  1  0.64694488  0.82246081  0.25112426  1
  C  C236  1  0.25360984  0.66403094  0.25217272  1
  C  C237  1  0.75437419  0.67591591  0.25300297  1
  C  C238  1  0.07533586  0.46493900  0.25389229  1
  C  C239  1  0.57579698  0.45855729  0.25456272  1
  C  C240  1  0.14991862  0.47386931  0.75398645  1
  C  C241  1  0.64730887  0.47941513  0.75566963  1
  C  C242  1  0.07756416  0.69276313  0.75575457  1
  C  C243  1  0.57406914  0.68403514  0.75632608  1
  C  C244  1  0.25424405  0.83044874  0.75474385  1
  C  C245  1  0.75430710  0.84504670  0.75284500  1
