# generated using pymatgen
data_Cu3Ni3C35
_symmetry_space_group_name_H-M   'P 1'
_cell_length_a   18.77303004
_cell_length_b   9.35085150
_cell_length_c   22.49072867
_cell_angle_alpha   90.15137093
_cell_angle_beta   89.70590373
_cell_angle_gamma   119.96173550
_symmetry_Int_Tables_number   1
_chemical_formula_structural   Cu3Ni3C35
_chemical_formula_sum   'Cu18 Ni18 C210'
_cell_volume   3420.43463537
_cell_formula_units_Z   6
loop_
 _symmetry_equiv_pos_site_id
 _symmetry_equiv_pos_as_xyz
  1  'x, y, z'
loop_
 _atom_site_type_symbol
 _atom_site_label
 _atom_site_symmetry_multiplicity
 _atom_site_fract_x
 _atom_site_fract_y
 _atom_site_fract_z
 _atom_site_occupancy
  C  C0  1  0.19168134  0.34964203  0.24618000  1
  C  C1  1  0.68810149  0.34751702  0.23888448  1
  C  C2  1  0.99457075  0.64171853  0.25779527  1
  C  C3  1  0.49444853  0.63870226  0.24041064  1
  C  C4  1  0.32105726  0.64146286  0.75165334  1
  C  C5  1  0.81808971  0.63545202  0.73343473  1
  C  C6  1  0.18533692  0.03595414  0.74196763  1
  C  C7  1  0.68752939  0.03217164  0.74290960  1
  C  C8  1  0.15580804  0.32134285  0.57195942  1
  C  C9  1  0.67495572  0.35906285  0.57266817  1
  C  C10  1  0.00471680  0.70105653  0.58310574  1
  C  C11  1  0.51023846  0.69915686  0.58656435  1
  C  C12  1  0.32224027  0.97845710  0.60067176  1
  C  C13  1  0.82229191  0.96962005  0.59891810  1
  C  C14  1  0.15995350  0.98202807  0.07159082  1
  C  C15  1  0.64754241  0.96641355  0.06410830  1
  C  C16  1  0.81483724  0.65394996  0.09602285  1
  C  C17  1  0.01448202  0.32236594  0.08173112  1
  C  C18  1  0.51506015  0.34564231  0.09291002  1
  C  C19  1  0.49401791  0.67602864  0.92113779  1
  C  C20  1  0.99789221  0.68694306  0.91486644  1
  C  C21  1  0.84413738  0.03320695  0.90610917  1
  C  C22  1  0.16703460  0.28416938  0.90254813  1
  C  C23  1  0.66076476  0.27198828  0.91270644  1
  C  C24  1  0.49571722  0.31197346  0.41601717  1
  C  C25  1  0.98916654  0.30044550  0.42029752  1
  C  C26  1  0.16150954  0.05261151  0.41231922  1
  C  C27  1  0.66429271  0.05490387  0.41108165  1
  C  C28  1  0.34847665  0.65323866  0.40411983  1
  C  C29  1  0.84931075  0.66032525  0.41374703  1
  C  C30  1  0.00792766  -0.00120804  0.50490339  1
  C  C31  1  0.52476871  0.03117698  0.50058529  1
  C  C32  1  0.01247374  0.00667446  0.99821440  1
  C  C33  1  0.50031264  0.00052515  0.00342955  1
  C  C34  1  0.33800654  0.28631499  0.83640062  1
  C  C35  1  0.82598403  0.31167345  0.82522968  1
  C  C36  1  0.32287635  0.32233359  0.32422104  1
  C  C37  1  0.81467079  0.31550407  0.32639630  1
  C  C38  1  0.18962872  0.67381240  0.16349602  1
  C  C39  1  0.65643580  0.66263622  0.16142683  1
  C  C40  1  0.15444844  0.66206087  0.66734277  1
  C  C41  1  0.66780108  0.67058496  0.66202372  1
  C  C42  1  0.00117926  0.00301967  0.34626391  1
  C  C43  1  0.50246865  0.00400139  0.34434071  1
  C  C44  1  0.00405368  0.00990031  0.84481968  1
  C  C45  1  0.49902359  0.00369067  0.85162612  1
  C  C46  1  0.33239311  0.32899321  0.68454369  1
  C  C47  1  0.83133069  0.33047352  0.68225528  1
  C  C48  1  0.33129566  0.33178458  0.18287253  1
  C  C49  1  0.82963172  0.32026666  0.18196594  1
  C  C50  1  0.81750027  0.31039523  0.98274116  1
  C  C51  1  0.31896862  0.32147266  0.48222978  1
  C  C52  1  0.82179468  0.34212223  0.48666318  1
  C  C53  1  0.17064779  0.66412361  0.01557991  1
  C  C54  1  0.66431826  0.66004762  0.01495772  1
  C  C55  1  0.16648625  0.67002596  0.51602963  1
  C  C56  1  0.66946505  0.67366717  0.51723321  1
  C  C57  1  0.00027007  0.01687220  0.65380528  1
  C  C58  1  0.50813761  0.03418659  0.65912467  1
  C  C59  1  0.00813642  0.98647721  0.15756955  1
  C  C60  1  0.50516353  0.95630522  0.15116038  1
  C  C61  1  0.31835085  0.32299379  0.98962794  1
  C  C62  1  0.18098483  0.67291320  0.30830695  1
  C  C63  1  0.67938803  0.66610974  0.30603532  1
  C  C64  1  0.17704468  0.69207488  0.80889489  1
  C  C65  1  0.67443539  0.68565457  0.80803473  1
  Ni  Ni66  1  0.15299626  0.98307332  0.25748457  1
  Ni  Ni67  1  0.65133464  0.98053284  0.25481752  1
  Ni  Ni68  1  0.35363510  0.70676654  0.25405778  1
  Ni  Ni69  1  0.85301874  0.70140673  0.25353345  1
  Ni  Ni70  1  0.14820846  0.31729683  0.75212470  1
  Ni  Ni71  1  0.65100147  0.31608697  0.75968208  1
  Ni  Ni72  1  0.35085625  -0.00109875  0.75142246  1
  Ni  Ni73  1  0.85106702  0.00235244  0.75612181  1
  Ni  Ni74  1  0.17226019  0.01948626  0.58620196  1
  Ni  Ni75  1  0.66901036  0.02378741  0.58668567  1
  Ni  Ni76  1  0.84147392  0.66253485  0.58602341  1
  Ni  Ni77  1  0.47642370  0.62352730  0.08280792  1
  Ni  Ni78  1  0.17407990  0.31965895  0.09096852  1
  Ni  Ni79  1  0.66990332  0.31550765  0.08757957  1
  Ni  Ni80  1  0.17117106  0.96802712  0.92032956  1
  Ni  Ni81  1  0.66860746  0.96365397  0.91466410  1
  Ni  Ni82  1  0.16685173  0.37476039  0.41530631  1
  Ni  Ni83  1  0.66686871  0.37419290  0.41479362  1
  Cu  Cu84  1  0.01054051  0.30798299  0.24681530  1
  Cu  Cu85  1  0.50668617  0.31508897  0.25352052  1
  Cu  Cu86  1  0.00807376  0.70875418  0.75238921  1
  Cu  Cu87  1  0.50791673  0.71374098  0.74972949  1
  Cu  Cu88  1  0.48468896  0.32143042  0.58182644  1
  Cu  Cu89  1  0.98587335  0.32469044  0.58213163  1
  Cu  Cu90  1  0.34066608  0.65509286  0.58359247  1
  Cu  Cu91  1  0.98583908  0.64591311  0.08530713  1
  Cu  Cu92  1  0.33621655  0.04449620  0.08017124  1
  Cu  Cu93  1  0.84499872  0.02716279  0.08115412  1
  Cu  Cu94  1  0.31272612  0.64715041  0.91309744  1
  Cu  Cu95  1  0.81496346  0.66175436  0.91379337  1
  Cu  Cu96  1  0.01857855  0.37883810  0.91748474  1
  Cu  Cu97  1  0.51338056  0.37481496  0.91660609  1
  Cu  Cu98  1  0.31213815  0.96427840  0.41298639  1
  Cu  Cu99  1  0.81141026  0.96684075  0.41179588  1
  Cu  Cu100  1  0.01630578  0.65844440  0.41359876  1
  Cu  Cu101  1  0.51561007  0.66043515  0.41634616  1
  C  C102  1  0.11167347  0.00837011  0.31599206  1
  C  C103  1  0.61333066  0.01252967  0.31380998  1
  C  C104  1  0.39416499  0.77968487  0.31694942  1
  C  C105  1  0.89633504  0.77518982  0.31563519  1
  C  C106  1  0.50156024  0.23394810  0.31103765  1
  C  C107  1  0.99643274  0.22208521  0.30451072  1
  C  C108  1  0.11970725  0.20421691  0.81081741  1
  C  C109  1  0.61474596  0.20172646  0.81680507  1
  C  C110  1  0.49800186  0.77392375  0.80836925  1
  C  C111  1  0.99573335  0.76920516  0.81013103  1
  C  C112  1  0.39322811  0.97733533  0.80817390  1
  C  C113  1  0.89085866  0.00095277  0.81811567  1
  C  C114  1  0.39993951  0.98075004  0.69032191  1
  C  C115  1  0.90447259  0.98043552  0.69982505  1
  C  C116  1  0.08114903  0.20200369  0.69760843  1
  C  C117  1  0.58357878  0.20111869  0.70203602  1
  C  C118  1  0.01630583  0.82449693  0.70309587  1
  C  C119  1  0.51525199  0.83252646  0.70134418  1
  C  C120  1  0.41015536  0.83506675  0.19884696  1
  C  C121  1  0.91026727  0.83193799  0.19654160  1
  C  C122  1  0.01434265  0.20208276  0.19696930  1
  C  C123  1  0.51085094  0.21961193  0.20240159  1
  C  C124  1  0.08285238  0.96666606  0.20018522  1
  C  C125  1  0.58297701  0.94483798  0.19659157  1
  C  C126  1  0.43999208  0.34590111  0.63099521  1
  C  C127  1  0.94109923  0.34332366  0.63178070  1
  C  C128  1  0.24083434  0.10885559  0.63779181  1
  C  C129  1  0.73260839  0.10680878  0.64106627  1
  C  C130  1  0.33777880  0.56005204  0.63677750  1
  C  C131  1  0.83121439  0.54203573  0.64074528  1
  C  C132  1  0.44810515  0.52026061  0.14335672  1
  C  C133  1  0.94425671  0.54281587  0.13739390  1
  C  C134  1  0.32823499  0.11409155  0.13618554  1
  C  C135  1  0.83905039  0.12031222  0.13155810  1
  C  C136  1  0.22284254  0.33694365  0.14998960  1
  C  C137  1  0.73591280  0.35740901  0.14047543  1
  C  C138  1  0.22988450  0.29895559  0.03183831  1
  C  C139  1  0.70088622  0.26827454  0.02565478  1
  C  C140  1  0.40846367  0.50922285  0.02678273  1
  C  C141  1  0.93933040  0.56807968  0.02995585  1
  C  C142  1  0.33432531  0.15015010  0.02906836  1
  C  C143  1  0.85341349  0.11868212  0.02486980  1
  C  C144  1  0.20303563  0.12198538  0.52291508  1
  C  C145  1  0.69977696  0.13579830  0.52577560  1
  C  C146  1  0.34496211  0.56817946  0.52921706  1
  C  C147  1  0.86239009  0.59590218  0.52415928  1
  C  C148  1  0.44056269  0.30117134  0.52477221  1
  C  C149  1  0.94395614  0.31202024  0.52475795  1
  C  C150  1  0.27306455  0.66673461  0.96588219  1
  C  C151  1  0.77698889  0.66778812  0.97087072  1
  C  C152  1  0.05557496  0.44362965  0.97665309  1
  C  C153  1  0.55332460  0.44344260  0.97456061  1
  C  C154  1  0.15609063  0.86376726  0.98034320  1
  C  C155  1  0.67810989  0.88351056  0.97516255  1
  C  C156  1  0.27443733  0.88347633  0.47022031  1
  C  C157  1  0.77363282  0.88811357  0.46913946  1
  C  C158  1  0.16822183  0.45955245  0.47820507  1
  C  C159  1  0.66353337  0.45759304  0.47674022  1
  C  C160  1  0.06060358  0.66765218  0.46915650  1
  C  C161  1  0.55758103  0.66796552  0.47285813  1
  C  C162  1  0.06472553  0.66123361  0.36046567  1
  C  C163  1  0.56417948  0.65971646  0.36423708  1
  C  C164  1  0.25825364  0.86041861  0.36246254  1
  C  C165  1  0.75944871  0.86218283  0.36120707  1
  C  C166  1  0.16983538  0.50679320  0.35897356  1
  C  C167  1  0.66997365  0.50438702  0.35803654  1
  C  C168  1  0.07321977  0.48857442  0.86963282  1
  C  C169  1  0.56495074  0.48349156  0.86706395  1
  C  C170  1  0.17944560  0.85512585  0.86175667  1
  C  C171  1  0.66932099  0.83804731  0.85748230  1
  C  C172  1  0.26599388  0.64109094  0.85782083  1
  C  C173  1  0.76327361  0.65990131  0.86259222  1
  C  C174  1  0.00262523  0.80263167  0.41488082  1
  C  C175  1  0.50200265  0.80493112  0.41640230  1
  C  C176  1  0.39522300  0.98580646  0.41010247  1
  C  C177  1  0.89526010  0.98789463  0.41011150  1
  C  C178  1  0.08155097  0.19639757  0.41420770  1
  C  C179  1  0.58321916  0.19285281  0.41337937  1
  C  C180  1  0.00622681  0.20860176  0.91363398  1
  C  C181  1  0.50189561  0.20676740  0.91300127  1
  C  C182  1  0.09016464  0.98991250  0.91348400  1
  C  C183  1  0.58262054  0.96764971  0.91795253  1
  C  C184  1  0.39969979  0.77703507  0.91097485  1
  C  C185  1  0.89954529  0.80641326  0.91229835  1
  C  C186  1  0.48742081  0.16339466  0.59018415  1
  C  C187  1  0.98857857  0.16606927  0.58760276  1
  C  C188  1  0.08449337  0.02141516  0.60124362  1
  C  C189  1  0.57684285  0.01680252  0.60191944  1
  C  C190  1  0.41586760  0.82162563  0.58422119  1
  C  C191  1  0.92576632  0.84844221  0.59897027  1
  C  C192  1  0.48103658  0.80938869  0.08805678  1
  C  C193  1  0.98799693  0.81068147  0.09054710  1
  C  C194  1  0.41538138  0.04680259  0.07522918  1
  C  C195  1  0.92158995  0.01437586  0.08615979  1
  C  C196  1  0.08450006  0.13597728  0.09156205  1
  C  C197  1  0.57749401  0.14407274  0.10340250  1
  C  C198  1  0.33046084  0.14661225  0.75046690  1
  C  C199  1  0.82903785  0.14610550  0.74920828  1
  C  C200  1  0.24176078  0.36214097  0.73737554  1
  C  C201  1  0.74288735  0.34994949  0.74709600  1
  C  C202  1  0.43777991  0.55144462  0.73874814  1
  C  C203  1  0.94077137  0.54219482  0.74238143  1
  C  C204  1  0.33801243  0.52154758  0.24819260  1
  C  C205  1  0.84292672  0.52076817  0.24497010  1
  C  C206  1  0.43856438  0.34950965  0.25057599  1
  C  C207  1  0.94653807  0.34986398  0.23681836  1
  C  C208  1  0.24150905  0.13886875  0.24658611  1
  C  C209  1  0.73982709  0.13996543  0.24321956  1
  C  C210  1  0.30951687  0.48115400  0.91619099  1
  C  C211  1  0.81990395  0.50745966  0.91038989  1
  C  C212  1  0.43236945  0.37185774  0.91498278  1
  C  C213  1  0.93731089  0.37234846  0.91362992  1
  C  C214  1  0.25508568  0.15885899  0.92576339  1
  C  C215  1  0.75102721  0.14437058  0.90365871  1
  C  C216  1  0.31665948  0.12751888  0.40897971  1
  C  C217  1  0.81744672  0.13134042  0.40786815  1
  C  C218  1  0.24977831  0.36085217  0.40477184  1
  C  C219  1  0.75101574  0.36454813  0.40601164  1
  C  C220  1  0.43365631  0.50320261  0.41486054  1
  C  C221  1  0.93602975  0.50028853  0.41186200  1
  C  C222  1  0.15353469  0.46626691  0.08095896  1
  C  C223  1  0.65757876  0.47695230  0.08479554  1
  C  C224  1  0.07142312  0.67825277  0.08365188  1
  C  C225  1  0.57125874  0.67271984  0.07195095  1
  C  C226  1  0.26461774  0.87504224  0.07575462  1
  C  C227  1  0.77177031  0.85788575  0.08140547  1
  C  C228  1  0.15025870  0.82586911  0.58556187  1
  C  C229  1  0.64704051  0.83194530  0.58312141  1
  C  C230  1  0.26577337  0.67339080  0.58412562  1
  C  C231  1  0.76056353  0.68630082  0.58570650  1
  C  C232  1  0.07217004  0.46428760  0.58299164  1
  C  C233  1  0.56995493  0.46093355  0.58151360  1
  C  C234  1  0.14649408  0.79806914  0.25645926  1
  C  C235  1  0.65055970  0.80161356  0.25786425  1
  C  C236  1  0.25797598  0.69034512  0.25497456  1
  C  C237  1  0.75801373  0.68208470  0.25283051  1
  C  C238  1  0.09322211  0.46366071  0.24660772  1
  C  C239  1  0.58792050  0.48019918  0.25154951  1
  C  C240  1  0.15141853  0.50000948  0.76230037  1
  C  C241  1  0.65260509  0.49559926  0.76149794  1
  C  C242  1  0.09022942  0.71357945  0.75303911  1
  C  C243  1  0.58781993  0.71055691  0.74773289  1
  C  C244  1  0.25418435  0.81881826  0.75284049  1
  C  C245  1  0.75632011  0.81790494  0.75536751  1
