# generated using pymatgen
data_Cu8NiC32
_symmetry_space_group_name_H-M   'P 1'
_cell_length_a   5.54433895
_cell_length_b   11.27595712
_cell_length_c   11.30603108
_cell_angle_alpha   54.24384608
_cell_angle_beta   53.99228933
_cell_angle_gamma   54.96570420
_symmetry_Int_Tables_number   1
_chemical_formula_structural   Cu8NiC32
_chemical_formula_sum   'Cu8 Ni1 C32'
_cell_volume   434.45143533
_cell_formula_units_Z   1
loop_
 _symmetry_equiv_pos_site_id
 _symmetry_equiv_pos_as_xyz
  1  'x, y, z'
loop_
 _atom_site_type_symbol
 _atom_site_label
 _atom_site_symmetry_multiplicity
 _atom_site_fract_x
 _atom_site_fract_y
 _atom_site_fract_z
 _atom_site_occupancy
  Ni  Ni0  1  0.32003700  0.84987300  0.52321200  1
  C  C1  1  0.34513300  0.18383300  0.17438200  1
  C  C2  1  0.15137000  0.08908500  0.58922900  1
  C  C3  1  0.13949000  0.58944500  0.07136600  1
  C  C4  1  0.11966200  0.57572100  0.57276600  1
  C  C5  1  0.83766900  0.42185100  0.43619800  1
  C  C6  1  0.84941400  0.43323900  0.93510900  1
  C  C7  1  0.86480500  0.93289100  0.39076100  1
  C  C8  1  0.81421300  0.93369700  0.92937300  1
  Cu  Cu9  1  0.14049500  0.08122000  0.06660100  1
  Cu  Cu10  1  0.34900400  0.67454800  0.17925400  1
  Cu  Cu11  1  0.36657900  0.18020600  0.67851400  1
  Cu  Cu12  1  0.64839800  0.32568700  0.32883300  1
  Cu  Cu13  1  0.38254900  0.59650400  0.72551900  1
  Cu  Cu14  1  0.66432400  0.31381300  0.82958000  1
  Cu  Cu15  1  0.69996300  0.81216700  0.25354800  1
  Cu  Cu16  1  0.64399500  0.83175500  0.81560500  1
  C  C17  1  0.07293700  0.37163300  0.21482300  1
  C  C18  1  0.41264000  0.04635500  0.37798900  1
  C  C19  1  0.72048600  0.22433100  0.03987700  1
  C  C20  1  0.22812100  0.28605500  0.47797400  1
  C  C21  1  0.57890700  0.47542100  0.11808700  1
  C  C22  1  0.04447400  0.38327000  0.72650200  1
  C  C23  1  0.03320900  0.87871500  0.22116000  1
  C  C24  1  0.95083400  0.11647800  0.28300000  1
  C  C25  1  0.45660800  0.02409900  0.87413300  1
  C  C26  1  0.43386300  0.52402600  0.38779200  1
  C  C27  1  0.77899100  0.22188300  0.52539600  1
  C  C28  1  0.76200200  0.72365700  0.02728000  1
  C  C29  1  0.22607600  0.28883800  0.97781900  1
  C  C30  1  0.21921600  0.77960600  0.44675500  1
  C  C31  1  0.55917600  0.46246800  0.61469100  1
  C  C32  1  0.55198700  0.00444900  0.09588400  1
  C  C33  1  0.03922700  0.90528900  0.70901700  1
  C  C34  1  0.95605400  0.11516500  0.78451100  1
  C  C35  1  0.97600500  0.59328100  0.28192000  1
  C  C36  1  0.44368100  0.51982300  0.91022000  1
  C  C37  1  0.74347800  0.70860500  0.54194100  1
  C  C38  1  0.22547300  0.78055000  0.97056900  1
  C  C39  1  0.57007800  0.97220300  0.60123500  1
  C  C40  1  0.94130900  0.61648300  0.77968400  1
