# generated using pymatgen
data_Cu4(NiC21)3
_symmetry_space_group_name_H-M   'P 1'
_cell_length_a   18.03831279
_cell_length_b   9.04098213
_cell_length_c   23.66911727
_cell_angle_alpha   89.92442905
_cell_angle_beta   89.44228945
_cell_angle_gamma   120.18505184
_symmetry_Int_Tables_number   1
_chemical_formula_structural   Cu4(NiC21)3
_chemical_formula_sum   'Cu12 Ni9 C189'
_cell_volume   3336.41118180
_cell_formula_units_Z   3
loop_
 _symmetry_equiv_pos_site_id
 _symmetry_equiv_pos_as_xyz
  1  'x, y, z'
loop_
 _atom_site_type_symbol
 _atom_site_label
 _atom_site_symmetry_multiplicity
 _atom_site_fract_x
 _atom_site_fract_y
 _atom_site_fract_z
 _atom_site_occupancy
  C  C0  1  0.99410592  0.01468480  0.50079616  1
  C  C1  1  0.49508362  0.97536560  0.00608242  1
  C  C2  1  0.32350005  0.31279942  0.83906968  1
  C  C3  1  0.82625712  0.32945479  0.82810754  1
  C  C4  1  0.32888964  0.32571330  0.32605537  1
  C  C5  1  0.81410218  0.32209090  0.33351521  1
  C  C6  1  0.00592434  0.00307210  0.34911901  1
  C  C7  1  0.50666784  0.00979838  0.85053714  1
  C  C8  1  0.99923536  0.00704765  0.64477313  1
  C  C9  1  0.50328191  0.98972861  0.14759147  1
  C  C10  1  0.32672430  0.32817676  0.98281937  1
  C  C11  1  0.84086678  0.34392929  0.98410764  1
  C  C12  1  0.34141591  0.33498809  0.48161998  1
  C  C13  1  0.82693330  0.32559479  0.48046698  1
  C  C14  1  0.16341743  0.67301891  0.30431023  1
  C  C15  1  0.66826782  0.66554922  0.30856035  1
  C  C16  1  0.16927043  0.67756610  0.81177452  1
  C  C17  1  0.66241894  0.65267354  0.80519896  1
  Ni  Ni18  1  0.15290435  0.02054651  0.24592402  1
  Ni  Ni19  1  0.65345910  0.01417641  0.24829675  1
  Ni  Ni20  1  0.65322868  0.28606470  0.74599955  1
  Ni  Ni21  1  0.48347773  0.33537948  0.58476179  1
  Ni  Ni22  1  0.98182311  0.34263188  0.58099053  1
  Ni  Ni23  1  0.48039121  0.62457209  0.08045858  1
  Ni  Ni24  1  0.97987824  0.62765000  0.08642132  1
  Ni  Ni25  1  0.16605524  0.96121558  0.91438929  1
  Ni  Ni26  1  0.66458255  0.37067105  0.41392249  1
  Cu  Cu27  1  0.51446884  0.02118487  0.35185846  1
  Cu  Cu28  1  0.00312032  0.99519192  0.85529078  1
  Cu  Cu29  1  0.50574317  0.01845934  0.64520178  1
  Cu  Cu30  1  0.00452993  0.99235385  0.14643308  1
  Cu  Cu31  1  0.33702705  0.33646929  0.67945268  1
  Cu  Cu32  1  0.83404387  0.33497512  0.67912465  1
  Cu  Cu33  1  0.33690183  0.33762548  0.18171106  1
  Cu  Cu34  1  0.83238537  0.33194277  0.18313708  1
  Cu  Cu35  1  0.15870526  0.67681468  0.02154057  1
  Cu  Cu36  1  0.66467115  0.66930055  0.02345561  1
  Cu  Cu37  1  0.16540000  0.66225140  0.52024265  1
  Cu  Cu38  1  0.65766304  0.64339309  0.51692085  1
  C  C39  1  0.35969696  0.70488291  0.25399321  1
  C  C40  1  0.85756369  0.70533796  0.24604288  1
  C  C41  1  0.99380743  0.28178451  0.24538614  1
  C  C42  1  0.49242925  0.28329670  0.25040181  1
  C  C43  1  0.15240617  0.28768588  0.74940996  1
  C  C44  1  0.99391176  0.70256184  0.75071391  1
  C  C45  1  0.49087726  0.70208294  0.74542483  1
  C  C46  1  0.35632776  0.01122292  0.74562737  1
  C  C47  1  0.86075909  0.01501888  0.75421472  1
  C  C48  1  0.18916777  0.03519310  0.58240754  1
  C  C49  1  0.68323045  0.02510783  0.58474635  1
  C  C50  1  0.33371493  0.63247782  0.58582929  1
  C  C51  1  0.82878472  0.62637586  0.58227439  1
  C  C52  1  0.32964426  0.03236576  0.08272992  1
  C  C53  1  0.83443367  0.03389762  0.08539758  1
  C  C54  1  0.18275084  0.34074406  0.08491319  1
  C  C55  1  0.68777533  0.34309479  0.08105480  1
  C  C56  1  0.31028463  0.67070857  0.91955715  1
  C  C57  1  0.81097266  0.67355217  0.91639996  1
  C  C58  1  0.02123380  0.36571070  0.91438799  1
  C  C59  1  0.52364714  0.37757985  0.91958297  1
  C  C60  1  0.66675594  0.95355032  0.91831087  1
  C  C61  1  0.31212796  0.94720703  0.41618850  1
  C  C62  1  0.81109869  0.94928275  0.42006237  1
  C  C63  1  0.16589485  0.37746050  0.41869309  1
  C  C64  1  0.02411888  0.67144819  0.41931427  1
  C  C65  1  0.52185471  0.67840601  0.41512558  1
  C  C66  1  0.11500338  0.05805729  0.30371651  1
  C  C67  1  0.61149147  0.05122264  0.30592886  1
  C  C68  1  0.41326796  0.78957486  0.30485057  1
  C  C69  1  0.90950746  0.78403988  0.29744843  1
  C  C70  1  0.47474102  0.17224964  0.30234051  1
  C  C71  1  0.97901600  0.17743569  0.29733551  1
  C  C72  1  0.11298343  0.17949000  0.80117607  1
  C  C73  1  0.61482356  0.17110298  0.80343613  1
  C  C74  1  0.47634893  0.77650333  0.79714050  1
  C  C75  1  0.97861402  0.78203703  0.80276432  1
  C  C76  1  0.40774271  0.03911722  0.79706191  1
  C  C77  1  0.91595123  0.04032086  0.80552265  1
  C  C78  1  0.39804297  0.98773985  0.69478886  1
  C  C79  1  0.89890513  0.98689884  0.70330271  1
  C  C80  1  0.10092132  0.20714993  0.69909446  1
  C  C81  1  0.59206658  0.19414454  0.69210426  1
  C  C82  1  0.00665934  0.80800161  0.70051262  1
  C  C83  1  0.50132757  0.80592117  0.69422006  1
  C  C84  1  0.39433253  0.80612758  0.20207411  1
  C  C85  1  0.89839515  0.81605924  0.19523810  1
  C  C86  1  0.00428991  0.19754875  0.19430332  1
  C  C87  1  0.50202315  0.20295764  0.19929497  1
  C  C88  1  0.09241878  0.99056845  0.19179786  1
  C  C89  1  0.59869933  0.99274652  0.19343527  1
  C  C90  1  0.44077642  0.37305349  0.64219779  1
  C  C91  1  0.93743820  0.36904658  0.64098479  1
  C  C92  1  0.24010654  0.11461091  0.63523718  1
  C  C93  1  0.73723480  0.10511279  0.63634423  1
  C  C94  1  0.31081202  0.51513444  0.63726845  1
  C  C95  1  0.81399741  0.51993522  0.63502764  1
  C  C96  1  0.43604664  0.50659418  0.13937714  1
  C  C97  1  0.93310690  0.49902156  0.14127337  1
  C  C98  1  0.31399890  0.10981410  0.13420749  1
  C  C99  1  0.81318520  0.10719163  0.13505899  1
  C  C100  1  0.23727403  0.36928436  0.13529631  1
  C  C101  1  0.73888702  0.36583372  0.13255708  1
  C  C102  1  0.21720290  0.29769070  0.03498993  1
  C  C103  1  0.72577593  0.30891387  0.03059431  1
  C  C104  1  0.42413238  0.53289653  0.02591509  1
  C  C105  1  0.92415765  0.54534239  0.03024948  1
  C  C106  1  0.34096695  0.13533342  0.03181422  1
  C  C107  1  0.84971299  0.13943746  0.03408531  1
  C  C108  1  0.22653617  0.14707600  0.53292431  1
  C  C109  1  0.71829308  0.14038862  0.53604256  1
  C  C110  1  0.34917575  0.55473079  0.53613263  1
  C  C111  1  0.84309860  0.54702062  0.53285256  1
  C  C112  1  0.42265645  0.30284227  0.53159485  1
  C  C113  1  0.92308902  0.31198998  0.52765323  1
  C  C114  1  0.26608032  0.68357331  0.97157563  1
  C  C115  1  0.77191270  0.69638524  0.96944641  1
  C  C116  1  0.07189834  0.44058039  0.96637586  1
  C  C117  1  0.57806073  0.46021274  0.96999962  1
  C  C118  1  0.15224295  0.84461432  0.97177165  1
  C  C119  1  0.65828490  0.85245577  0.97090491  1
  C  C120  1  0.27241561  0.84532823  0.47111741  1
  C  C121  1  0.76758614  0.85014023  0.47365918  1
  C  C122  1  0.15681987  0.46044807  0.47217239  1
  C  C123  1  0.65258074  0.45644692  0.47352069  1
  C  C124  1  0.07810542  0.69771491  0.47095851  1
  C  C125  1  0.57181370  0.70398903  0.46843932  1
  C  C126  1  0.06567511  0.65316455  0.36827903  1
  C  C127  1  0.56248567  0.65148098  0.36601272  1
  C  C128  1  0.25591263  0.86348737  0.36825936  1
  C  C129  1  0.76226717  0.86846281  0.36937305  1
  C  C130  1  0.17415495  0.47795519  0.36824937  1
  C  C131  1  0.67859487  0.48599365  0.35953123  1
  C  C132  1  0.06224252  0.47023605  0.86365777  1
  C  C133  1  0.56456418  0.47743845  0.86756686  1
  C  C134  1  0.17748343  0.87248657  0.85839376  1
  C  C135  1  0.67456368  0.87041259  0.86716697  1
  C  C136  1  0.26131867  0.65252820  0.86763922  1
  C  C137  1  0.75807347  0.65006191  0.86671291  1
  C  C138  1  0.01566117  0.82649757  0.41630187  1
  C  C139  1  0.51051760  0.82920483  0.40915747  1
  C  C140  1  0.39639738  0.96102578  0.40924208  1
  C  C141  1  0.89745014  0.96506465  0.41786658  1
  C  C142  1  0.08661494  0.20617536  0.41786472  1
  C  C143  1  0.57261665  0.18496111  0.41218176  1
  C  C144  1  0.01135540  0.19163839  0.90757621  1
  C  C145  1  0.51494561  0.20454361  0.91578912  1
  C  C146  1  0.07600312  0.96974104  0.90897160  1
  C  C147  1  0.58696948  0.96561899  0.91695669  1
  C  C148  1  0.39626967  0.82843556  0.91577724  1
  C  C149  1  0.89685326  0.83223816  0.90962043  1
  C  C150  1  0.48776011  0.15981275  0.59209373  1
  C  C151  1  0.99600554  0.17895028  0.58831845  1
  C  C152  1  0.10130112  0.00408592  0.59002337  1
  C  C153  1  0.59406424  0.99315931  0.59460360  1
  C  C154  1  0.41141557  0.79936547  0.59744745  1
  C  C155  1  0.90748905  0.79604939  0.58928996  1
  C  C156  1  0.49207596  0.81375526  0.08395462  1
  C  C157  1  0.98776373  0.81458946  0.09323451  1
  C  C158  1  0.40697084  0.01850788  0.08865132  1
  C  C159  1  0.91181343  0.02025857  0.09577038  1
  C  C160  1  0.09365071  0.19479278  0.09409599  1
  C  C161  1  0.59911757  0.20101670  0.08653807  1
  C  C162  1  0.34577367  0.16655903  0.74035617  1
  C  C163  1  0.85479612  0.17259363  0.74872310  1
  C  C164  1  0.24021440  0.30193183  0.74255928  1
  C  C165  1  0.74979978  0.30425936  0.73756393  1
  C  C166  1  0.41119124  0.52644776  0.74115092  1
  C  C167  1  0.91504840  0.53045112  0.74624140  1
  C  C168  1  0.35371727  0.53391003  0.24821703  1
  C  C169  1  0.85237212  0.53637511  0.24046635  1
  C  C170  1  0.41380694  0.30140349  0.24630449  1
  C  C171  1  0.91737124  0.30214384  0.24058954  1
  C  C172  1  0.24914602  0.19480707  0.23758988  1
  C  C173  1  0.74967745  0.19611971  0.24239589  1
  C  C174  1  0.32055062  0.51863356  0.92190834  1
  C  C175  1  0.82192048  0.52138409  0.92115223  1
  C  C176  1  0.43820395  0.35942057  0.92383515  1
  C  C177  1  0.93412268  0.34398002  0.91923629  1
  C  C178  1  0.24819258  0.15199632  0.91711240  1
  C  C179  1  0.74296263  0.12700670  0.92240292  1
  C  C180  1  0.32053031  0.11937617  0.42232932  1
  C  C181  1  0.82161961  0.12236286  0.42315230  1
  C  C182  1  0.24235193  0.35816431  0.42379865  1
  C  C183  1  0.74665759  0.34242276  0.41861184  1
  C  C184  1  0.43442513  0.52353731  0.42105528  1
  C  C185  1  0.93916105  0.51785849  0.42449281  1
  C  C186  1  0.17896886  0.49925262  0.07457029  1
  C  C187  1  0.68787410  0.50756064  0.07355180  1
  C  C188  1  0.07299639  0.63647584  0.07978395  1
  C  C189  1  0.57604998  0.63875843  0.07684348  1
  C  C190  1  0.25311757  0.85715530  0.07709897  1
  C  C191  1  0.75922405  0.85886932  0.07633627  1
  C  C192  1  0.18681406  0.86982430  0.57510354  1
  C  C193  1  0.67896051  0.86002406  0.57509265  1
  C  C194  1  0.25896952  0.65694579  0.57726322  1
  C  C195  1  0.75412055  0.65010245  0.57643000  1
  C  C196  1  0.07823904  0.51780787  0.57615573  1
  C  C197  1  0.57596404  0.51089264  0.57789909  1
  C  C198  1  0.16276725  0.85456760  0.25341287  1
  C  C199  1  0.66842979  0.85772221  0.25890575  1
  C  C200  1  0.27235405  0.67563875  0.26255539  1
  C  C201  1  0.77258496  0.68398555  0.25076702  1
  C  C202  1  0.07150611  0.44979976  0.25143933  1
  C  C203  1  0.56773663  0.45200254  0.25726742  1
  C  C204  1  0.16389828  0.45812503  0.75692149  1
  C  C205  1  0.66351263  0.47203463  0.75355449  1
  C  C206  1  0.06887573  0.68204878  0.75789147  1
  C  C207  1  0.56669299  0.68363894  0.75136827  1
  C  C208  1  0.27138566  0.85772044  0.75046661  1
  C  C209  1  0.77512756  0.86667613  0.76249954  1
