# generated using pymatgen
data_Cu5NiC29
_symmetry_space_group_name_H-M   'P 1'
_cell_length_a   8.60337165
_cell_length_b   8.60200242
_cell_length_c   22.17943967
_cell_angle_alpha   90.03608129
_cell_angle_beta   89.94441767
_cell_angle_gamma   119.98612822
_symmetry_Int_Tables_number   1
_chemical_formula_structural   Cu5NiC29
_chemical_formula_sum   'Cu15 Ni3 C87'
_cell_volume   1421.70642109
_cell_formula_units_Z   3
loop_
 _symmetry_equiv_pos_site_id
 _symmetry_equiv_pos_as_xyz
  1  'x, y, z'
loop_
 _atom_site_type_symbol
 _atom_site_label
 _atom_site_symmetry_multiplicity
 _atom_site_fract_x
 _atom_site_fract_y
 _atom_site_fract_z
 _atom_site_occupancy
  C  C0  1  0.99969518  0.99875931  0.99854812  1
  C  C1  1  0.66557879  0.33335599  0.82992412  1
  C  C2  1  0.66833527  0.33355297  0.33783492  1
  C  C3  1  0.99821882  0.00332193  0.36113419  1
  C  C4  1  0.00046178  0.99973737  0.63811365  1
  C  C5  1  0.66845389  0.33347319  0.19234320  1
  C  C6  1  0.66429676  0.33371949  0.97716625  1
  C  C7  1  0.33659870  0.67179505  0.02268026  1
  C  C8  1  0.33807984  0.66960859  0.80646357  1
  Ni  Ni9  1  0.01585253  0.29343939  0.25027643  1
  Ni  Ni10  1  0.63001806  0.67804852  0.91393324  1
  Ni  Ni11  1  0.32288579  0.95293349  0.91420965  1
  C  C12  1  -0.00012420  0.99759295  0.85336034  1
  C  C13  1  0.00197660  0.00290453  0.15011497  1
  C  C14  1  0.66625186  0.33356433  0.68402577  1
  C  C15  1  0.66733298  0.33359382  0.47995412  1
  C  C16  1  0.33233794  0.66618182  0.52232288  1
  C  C17  1  0.33102206  0.66422120  0.31210198  1
  Cu  Cu18  1  0.27824709  0.98802499  0.25075745  1
  Cu  Cu19  1  0.70996324  0.72231594  0.25085688  1
  Cu  Cu20  1  0.28928860  0.27822543  0.74913296  1
  Cu  Cu21  1  0.98792799  0.70793253  0.74885238  1
  Cu  Cu22  1  0.72280565  0.01284255  0.74904958  1
  Cu  Cu23  1  0.95287641  0.34538707  0.58137021  1
  Cu  Cu24  1  0.39306465  0.04707477  0.58130444  1
  Cu  Cu25  1  0.65402108  0.60734409  0.58132847  1
  Cu  Cu26  1  0.95537833  0.63181491  0.08568275  1
  Cu  Cu27  1  0.67707512  0.04550633  0.08537771  1
  Cu  Cu28  1  0.36763613  0.32324944  0.08552735  1
  Cu  Cu29  1  0.04915255  0.37490307  0.91475454  1
  Cu  Cu30  1  0.60499648  0.94897714  0.41847851  1
  Cu  Cu31  1  0.34496760  0.39317734  0.41883739  1
  Cu  Cu32  1  0.04907229  0.65709237  0.41881809  1
  C  C33  1  0.19810018  0.02967916  0.30641832  1
  C  C34  1  0.83292145  0.79793868  0.30651643  1
  C  C35  1  0.96726863  0.16156399  0.30886658  1
  C  C36  1  0.20602907  0.16375699  0.80638186  1
  C  C37  1  0.95524910  0.79043662  0.80603716  1
  C  C38  1  0.83667226  0.04428007  0.80631077  1
  C  C39  1  0.80583829  0.97738734  0.69308951  1
  C  C40  1  0.17168390  0.19352745  0.69306015  1
  C  C41  1  0.02350478  0.82717589  0.69298445  1
  C  C42  1  0.79415602  0.83104177  0.19278115  1
  C  C43  1  0.04083815  0.20146465  0.18982796  1
  C  C44  1  0.16681754  0.95687337  0.19283159  1
  C  C45  1  0.87133550  0.37647504  0.63943333  1
  C  C46  1  0.50505006  0.12847115  0.63946077  1
  C  C47  1  0.62289803  0.49491610  0.63939307  1
  C  C48  1  0.86510052  0.50931674  0.14052681  1
  C  C49  1  0.64225656  0.13377612  0.14016625  1
  C  C50  1  0.48954782  0.35804756  0.14015194  1
  C  C51  1  0.45987050  0.29662407  0.02884274  1
  C  C52  1  0.83823256  0.54366371  0.02908714  1
  C  C53  1  0.70567081  0.16254950  0.02890946  1
  C  C54  1  0.46829830  0.16955124  0.52565936  1
  C  C55  1  0.70170901  0.53217654  0.52573480  1
  C  C56  1  0.83041285  0.29792973  0.52571776  1
  C  C57  1  0.53529458  0.70203996  0.97463466  1
  C  C58  1  0.16167697  0.45929889  0.97232138  1
  C  C59  1  0.29307650  0.83204862  0.97477377  1
  C  C60  1  0.52879103  0.83229885  0.47495613  1
  C  C61  1  0.30225541  0.46832352  0.47522474  1
  C  C62  1  0.16588575  0.69747006  0.47534008  1
  C  C63  1  0.12862186  0.62388059  0.36123033  1
  C  C64  1  0.49416502  0.87013284  0.36041436  1
  C  C65  1  0.37924737  0.50560174  0.36123003  1
  C  C66  1  0.12855184  0.49440151  0.85895691  1
  C  C67  1  0.36397921  0.86354386  0.85648857  1
  C  C68  1  0.49763156  0.62940757  0.85634549  1
  C  C69  1  0.02713019  0.82433976  0.40938439  1
  C  C70  1  0.79406446  0.96772184  0.41020403  1
  C  C71  1  0.17712034  0.20235766  0.41003034  1
  C  C72  1  0.02898974  0.18975209  0.90748597  1
  C  C73  1  0.15279594  0.97992843  0.90721798  1
  C  C74  1  0.82166819  0.85572240  0.90691735  1
  C  C75  1  0.97188949  0.17530861  0.59137255  1
  C  C76  1  0.20395660  0.02821901  0.59118544  1
  C  C77  1  0.82428827  0.79629995  0.59138254  1
  C  C78  1  0.97293153  0.81728070  0.09285836  1
  C  C79  1  0.84241512  0.02381510  0.09142942  1
  C  C80  1  0.18416337  0.15162268  0.09036621  1
  C  C81  1  0.69745002  0.17784860  0.74154738  1
  C  C82  1  0.47928197  0.30205807  0.74160010  1
  C  C83  1  0.82057781  0.51874228  0.74107770  1
  C  C84  1  0.68802539  0.53066869  0.24291680  1
  C  C85  1  0.83213430  0.30998877  0.24344435  1
  C  C86  1  0.46627757  0.16223268  0.24281573  1
  C  C87  1  0.64967111  0.49996415  0.92366508  1
  C  C88  1  0.86267864  0.35786319  0.92411185  1
  C  C89  1  0.50668422  0.14618755  0.92382384  1
  C  C90  1  0.63425090  0.14245333  0.42475694  1
  C  C91  1  0.51010541  0.36523434  0.42527778  1
  C  C92  1  0.85635386  0.49034378  0.42525091  1
  C  C93  1  0.35040220  0.49023954  0.07593241  1
  C  C94  1  0.13728034  0.64264592  0.07741139  1
  C  C95  1  0.50521557  0.86194930  0.07771860  1
  C  C96  1  0.36539284  0.85828431  0.57341134  1
  C  C97  1  0.49294913  0.63497827  0.57324188  1
  C  C98  1  0.14165515  0.50674049  0.57340582  1
  C  C99  1  0.30811316  0.83026647  0.26039776  1
  C  C100  1  0.52614324  0.70215755  0.26051759  1
  C  C101  1  0.18392262  0.48922388  0.26114848  1
  C  C102  1  0.30404768  0.46341703  0.75625075  1
  C  C103  1  0.15518287  0.68782194  0.75662226  1
  C  C104  1  0.53573984  0.84224422  0.75574247  1
