# generated using pymatgen
data_Cu2NiC2
_symmetry_space_group_name_H-M   'P 1'
_cell_length_a   3.22757600
_cell_length_b   3.22757401
_cell_length_c   29.68325500
_cell_angle_alpha   89.99996860
_cell_angle_beta   90.00010730
_cell_angle_gamma   120.00055320
_symmetry_Int_Tables_number   1
_chemical_formula_structural   Cu2NiC2
_chemical_formula_sum   'Cu4 Ni2 C4'
_cell_volume   267.78880684
_cell_formula_units_Z   2
loop_
 _symmetry_equiv_pos_site_id
 _symmetry_equiv_pos_as_xyz
  1  'x, y, z'
loop_
 _atom_site_type_symbol
 _atom_site_label
 _atom_site_symmetry_multiplicity
 _atom_site_fract_x
 _atom_site_fract_y
 _atom_site_fract_z
 _atom_site_occupancy
  C  C0  1  0.38750900  0.81606400  0.84343600  1
  C  C1  1  0.33330800  0.66661500  0.11557900  1
  C  C2  1  0.33331600  0.66662100  0.57838300  1
  C  C3  1  0.66669000  0.33339200  0.34697700  1
  Ni  Ni4  1  0.33335900  0.66671500  0.40452200  1
  Ni  Ni5  1  0.33335600  0.66671000  0.28944700  1
  Cu  Cu6  1  0.66664100  0.33328600  0.06329700  1
  Cu  Cu7  1  0.66664300  0.33329200  0.52610000  1
  Cu  Cu8  1  0.66664800  0.33329800  0.16797500  1
  Cu  Cu9  1  0.66664400  0.33329300  0.63057800  1
