# generated using pymatgen
data_Cu3NiC32
_symmetry_space_group_name_H-M   'P 1'
_cell_length_a   8.69610953
_cell_length_b   8.67893913
_cell_length_c   22.53782658
_cell_angle_alpha   89.30796228
_cell_angle_beta   90.10135767
_cell_angle_gamma   119.95218044
_symmetry_Int_Tables_number   1
_chemical_formula_structural   Cu3NiC32
_chemical_formula_sum   'Cu9 Ni3 C96'
_cell_volume   1473.69104210
_cell_formula_units_Z   3
loop_
 _symmetry_equiv_pos_site_id
 _symmetry_equiv_pos_as_xyz
  1  'x, y, z'
loop_
 _atom_site_type_symbol
 _atom_site_label
 _atom_site_symmetry_multiplicity
 _atom_site_fract_x
 _atom_site_fract_y
 _atom_site_fract_z
 _atom_site_occupancy
  C  C0  1  0.99197186  0.99174103  0.50589554  1
  C  C1  1  0.01624706  0.01115447  0.00183496  1
  C  C2  1  0.67116080  0.32608887  0.83440269  1
  C  C3  1  0.66346122  0.32064614  0.33458452  1
  C  C4  1  0.33466511  0.66492805  0.16536865  1
  C  C5  1  0.34738458  0.67361540  0.67063222  1
  Ni  Ni6  1  0.98357736  0.98828062  0.64561268  1
  Ni  Ni7  1  0.00810163  0.00753732  0.14493118  1
  Ni  Ni8  1  0.33806502  0.67523283  0.31522044  1
  Cu  Cu9  1  0.98808384  0.99932730  0.35462241  1
  Cu  Cu10  1  0.99688556  0.01795928  0.85628592  1
  Cu  Cu11  1  0.66374344  0.33469530  0.69038751  1
  Cu  Cu12  1  0.65409459  0.33441031  0.18319729  1
  Cu  Cu13  1  0.65075318  0.31810430  0.97538626  1
  Cu  Cu14  1  0.67281556  0.33767081  0.48141586  1
  Cu  Cu15  1  0.31776968  0.65092934  0.01845084  1
  Cu  Cu16  1  0.35907417  0.67666517  0.52169625  1
  Cu  Cu17  1  0.33368410  0.68395006  0.81549889  1
  C  C18  1  0.70875029  0.99608039  0.74771777  1
  C  C19  1  0.67469379  0.62425058  0.58335749  1
  C  C20  1  0.37179085  0.33518880  0.07991288  1
  C  C21  1  0.04207984  0.38335961  0.91592559  1
  C  C22  1  0.32180814  0.94943801  0.91805188  1
  C  C23  1  0.62014918  0.96193025  0.41403085  1
  C  C24  1  0.28863360  0.99908632  0.24910109  1
  C  C25  1  0.71187538  0.70993911  0.24873209  1
  C  C26  1  0.00072285  0.29201965  0.24965399  1
  C  C27  1  0.28704440  0.28948706  0.74887789  1
  C  C28  1  0.00028891  0.71143999  0.74952444  1
  C  C29  1  0.95837526  0.33910355  0.58317856  1
  C  C30  1  0.37989220  0.04546859  0.58344676  1
  C  C31  1  0.95155687  0.61896349  0.08328197  1
  C  C32  1  0.66518040  0.04577718  0.08393999  1
  C  C33  1  0.62051537  0.66725808  0.91670417  1
  C  C34  1  0.33260837  0.37541893  0.41626761  1
  C  C35  1  0.04546705  0.66812605  0.41607917  1
  C  C36  1  0.20808240  0.02713609  0.30357512  1
  C  C37  1  0.82225864  0.79674449  0.30350120  1
  C  C38  1  0.97644132  0.17605914  0.30473124  1
  C  C39  1  0.20710712  0.17886519  0.80352509  1
  C  C40  1  0.97379323  0.78973729  0.80285933  1
  C  C41  1  0.83400177  0.02844692  0.80776949  1
  C  C42  1  0.78604644  0.96139953  0.68979258  1
  C  C43  1  0.18590472  0.20760440  0.69550888  1
  C  C44  1  0.03141974  0.81574556  0.69529000  1
  C  C45  1  0.79660785  0.81690395  0.19619613  1
  C  C46  1  0.02272235  0.20857380  0.19754006  1
  C  C47  1  0.18596424  0.98290995  0.19631575  1
  C  C48  1  0.87073706  0.35912798  0.63632994  1
  C  C49  1  0.49063018  0.12085773  0.63691512  1
  C  C50  1  0.64086253  0.49445180  0.64136975  1
  C  C51  1  0.86720865  0.50508915  0.13860296  1
  C  C52  1  0.64539189  0.13900876  0.13752026  1
  C  C53  1  0.50232028  0.36118716  0.14050526  1
  C  C54  1  0.48677977  0.31943219  0.02528340  1
  C  C55  1  0.84977610  0.53366482  0.03023034  1
  C  C56  1  0.69359318  0.15502211  0.02952018  1
  C  C57  1  0.46901628  0.15063089  0.52892982  1
  C  C58  1  0.67954187  0.51103187  0.52554357  1
  C  C59  1  0.84595155  0.31149054  0.52897217  1
  C  C60  1  0.53963075  0.69389724  0.97058580  1
  C  C61  1  0.16757548  0.46551772  0.97565385  1
  C  C62  1  0.30463981  0.82922639  0.97654232  1
  C  C63  1  0.53310091  0.83282966  0.47467454  1
  C  C64  1  0.30123431  0.45515608  0.46983281  1
  C  C65  1  0.15208906  0.69355005  0.46948818  1
  C  C66  1  0.11729714  0.63487584  0.36259377  1
  C  C67  1  0.50741439  0.88130140  0.35691147  1
  C  C68  1  0.35928200  0.48090725  0.36268439  1
  C  C69  1  0.14156565  0.50255158  0.85809342  1
  C  C70  1  0.36572308  0.86720940  0.85954834  1
  C  C71  1  0.51248070  0.63872171  0.86318252  1
  C  C72  1  0.02646663  0.83084760  0.40870544  1
  C  C73  1  0.82205777  0.97938887  0.40586795  1
  C  C74  1  0.17305138  0.19275733  0.41062644  1
  C  C75  1  0.02188695  0.18556055  0.90972038  1
  C  C76  1  0.14754538  0.96573978  0.90729694  1
  C  C77  1  0.79917468  0.82566287  0.91078997  1
  C  C78  1  0.98412403  0.18579578  0.58687739  1
  C  C79  1  0.20787872  0.03499013  0.58862152  1
  C  C80  1  0.84577252  0.81431591  0.58214318  1
  C  C81  1  0.96595163  0.79238874  0.09071559  1
  C  C82  1  0.82041084  0.02489552  0.09109484  1
  C  C83  1  0.18343918  0.16167248  0.08511791  1
  C  C84  1  0.68511417  0.17560503  0.74125186  1
  C  C85  1  0.46914294  0.30559521  0.74515839  1
  C  C86  1  0.83751967  0.52780469  0.74392920  1
  C  C87  1  0.70328106  0.53109864  0.24567208  1
  C  C88  1  0.83563845  0.30420881  0.24704161  1
  C  C89  1  0.47305574  0.16447509  0.24385666  1
  C  C90  1  0.64194307  0.50853428  0.92269826  1
  C  C91  1  0.85010671  0.36561128  0.92625997  1
  C  C92  1  0.50046124  0.14713264  0.92475241  1
  C  C93  1  0.65706146  0.16063369  0.42861900  1
  C  C94  1  0.49027985  0.35214064  0.42409457  1
  C  C95  1  0.86098813  0.51268096  0.42384815  1
  C  C96  1  0.37196238  0.52384664  0.07707614  1
  C  C97  1  0.13131402  0.63496353  0.08099849  1
  C  C98  1  0.49969224  0.87376778  0.08086504  1
  C  C99  1  0.35634099  0.86243113  0.57646944  1
  C  C100  1  0.48483469  0.63077315  0.57531279  1
  C  C101  1  0.13017583  0.50629486  0.57499938  1
  C  C102  1  0.30962283  0.84206882  0.25441541  1
  C  C103  1  0.53175533  0.68081729  0.25555407  1
  C  C104  1  0.15724213  0.46769621  0.25825689  1
  C  C105  1  0.31234801  0.46912414  0.75573588  1
  C  C106  1  0.15596307  0.68228838  0.75574279  1
  C  C107  1  0.50923233  0.82425370  0.76048666  1
