# generated using pymatgen
data_CuNiC5
_symmetry_space_group_name_H-M   'P 1'
_cell_length_a   6.08395300
_cell_length_b   6.99918800
_cell_length_c   7.77859699
_cell_angle_alpha   58.42123899
_cell_angle_beta   90.00000000
_cell_angle_gamma   90.00000000
_symmetry_Int_Tables_number   1
_chemical_formula_structural   CuNiC5
_chemical_formula_sum   'Cu4 Ni4 C20'
_cell_volume   282.18515411
_cell_formula_units_Z   4
loop_
 _symmetry_equiv_pos_site_id
 _symmetry_equiv_pos_as_xyz
  1  'x, y, z'
loop_
 _atom_site_type_symbol
 _atom_site_label
 _atom_site_symmetry_multiplicity
 _atom_site_fract_x
 _atom_site_fract_y
 _atom_site_fract_z
 _atom_site_occupancy
  C  C0  1  0.48387100  0.25841200  0.68729300  1
  C  C1  1  0.98387100  0.74158800  0.81270700  1
  C  C2  1  0.51612900  0.74158800  0.31270700  1
  C  C3  1  0.01612900  0.25841200  0.18729300  1
  C  C4  1  0.15620700  0.37532600  0.72564200  1
  C  C5  1  0.65620700  0.62467400  0.77435800  1
  C  C6  1  0.84379300  0.62467400  0.27435800  1
  C  C7  1  0.34379300  0.37532600  0.22564200  1
  C  C8  1  0.03605500  0.21669900  0.64316900  1
  C  C9  1  0.53605500  0.78330100  0.85683100  1
  C  C10  1  0.96394500  0.78330100  0.35683100  1
  C  C11  1  0.46394500  0.21669900  0.14316900  1
  C  C12  1  0.31968200  0.08499500  0.36751800  1
  C  C13  1  0.81968200  0.91500500  0.13248200  1
  C  C14  1  0.68031800  0.91500500  0.63248200  1
  C  C15  1  0.18031800  0.08499500  0.86751800  1
  Ni  Ni16  1  0.83015400  0.77235800  0.27720900  1
  Ni  Ni17  1  0.33015400  0.22764200  0.22279100  1
  Ni  Ni18  1  0.66984600  0.77235800  0.77720900  1
  Ni  Ni19  1  0.16984600  0.22764200  0.72279100  1
  Cu  Cu20  1  0.31971400  0.74074900  0.10116900  1
  Cu  Cu21  1  0.81971400  0.25925100  0.39883100  1
  Cu  Cu22  1  0.68028600  0.25925100  0.89883100  1
  Cu  Cu23  1  0.18028600  0.74074900  0.60116900  1
  C  C24  1  0.35932300  0.23968600  0.61114800  1
  C  C25  1  0.64067700  0.76031400  0.38885200  1
  C  C26  1  0.85932300  0.76031400  0.88885200  1
  C  C27  1  0.14067700  0.23968600  0.11114800  1
