# generated using pymatgen
data_Cu2NiC9
_symmetry_space_group_name_H-M   'P 1'
_cell_length_a   3.93728300
_cell_length_b   5.10899900
_cell_length_c   11.24064600
_cell_angle_alpha   90.00000000
_cell_angle_beta   90.00000000
_cell_angle_gamma   90.00000000
_symmetry_Int_Tables_number   1
_chemical_formula_structural   Cu2NiC9
_chemical_formula_sum   'Cu2 Ni1 C9'
_cell_volume   226.11205665
_cell_formula_units_Z   1
loop_
 _symmetry_equiv_pos_site_id
 _symmetry_equiv_pos_as_xyz
  1  'x, y, z'
loop_
 _atom_site_type_symbol
 _atom_site_label
 _atom_site_symmetry_multiplicity
 _atom_site_fract_x
 _atom_site_fract_y
 _atom_site_fract_z
 _atom_site_occupancy
  C  C0  1  0.00000000  0.00000000  0.50009600  1
  C  C1  1  0.00000000  0.00000000  0.99925100  1
  Ni  Ni2  1  0.00000000  0.50000000  0.00032200  1
  Cu  Cu3  1  0.50000000  0.50000000  0.20465600  1
  Cu  Cu4  1  0.50000000  0.50000000  0.79553000  1
  C  C5  1  0.50000000  0.50000000  0.63693800  1
  C  C6  1  0.00000000  0.50000000  0.16938000  1
  C  C7  1  0.50000000  0.00000000  0.13654000  1
  C  C8  1  0.00000000  0.50000000  0.83111000  1
  C  C9  1  0.50000000  0.00000000  0.86292600  1
  C  C10  1  0.50000000  0.50000000  0.36322400  1
  C  C11  1  0.50000000  0.50000000  0.00002600  1
