# generated using pymatgen
data_Cu2Ni10C7
_symmetry_space_group_name_H-M   'P 1'
_cell_length_a   7.01773550
_cell_length_b   5.67654112
_cell_length_c   5.83080286
_cell_angle_alpha   82.70021375
_cell_angle_beta   71.59315469
_cell_angle_gamma   74.72070293
_symmetry_Int_Tables_number   1
_chemical_formula_structural   Cu2Ni10C7
_chemical_formula_sum   'Cu2 Ni10 C7'
_cell_volume   212.36032175
_cell_formula_units_Z   1
loop_
 _symmetry_equiv_pos_site_id
 _symmetry_equiv_pos_as_xyz
  1  'x, y, z'
loop_
 _atom_site_type_symbol
 _atom_site_label
 _atom_site_symmetry_multiplicity
 _atom_site_fract_x
 _atom_site_fract_y
 _atom_site_fract_z
 _atom_site_occupancy
  C  C0  1  0.16228785  0.33753284  0.83099319  1
  C  C1  1  0.83439739  0.66966340  0.64249554  1
  C  C2  1  0.67468605  0.29067374  0.37270821  1
  C  C3  1  0.33821901  0.73827695  0.59771332  1
  C  C4  1  0.16544614  0.33280538  0.33779193  1
  C  C5  1  0.51520202  0.98609481  0.00121907  1
  C  C6  1  0.00496499  0.93253147  0.04985850  1
  Ni  Ni7  1  0.69034834  -0.00010921  0.66918468  1
  Ni  Ni8  1  0.28838961  0.95942792  0.85896908  1
  Ni  Ni9  1  0.63472239  0.59289837  0.52304422  1
  Ni  Ni10  1  0.97900893  0.25066773  0.18490795  1
  Ni  Ni11  1  0.71162215  0.05249889  0.14468775  1
  Ni  Ni12  1  0.05053889  0.71342198  0.79133960  1
  Ni  Ni13  1  0.36225561  0.41025780  0.48305989  1
  Ni  Ni14  1  0.31806019  0.00047858  0.32132169  1
  Ni  Ni15  1  0.97857732  0.32272549  0.63921505  1
  Ni  Ni16  1  0.02357705  0.67516380  0.33221405  1
  Cu  Cu17  1  0.34657084  0.38367573  0.00423958  1
  Cu  Cu18  1  0.67112522  0.61321931  0.97753671  1
