# generated using pymatgen
data_CuNiC9
_symmetry_space_group_name_H-M   'P 1'
_cell_length_a   6.88252135
_cell_length_b   6.60394196
_cell_length_c   6.37356183
_cell_angle_alpha   56.12331725
_cell_angle_beta   56.10665654
_cell_angle_gamma   51.04478832
_symmetry_Int_Tables_number   1
_chemical_formula_structural   CuNiC9
_chemical_formula_sum   'Cu1 Ni1 C9'
_cell_volume   177.13766911
_cell_formula_units_Z   1
loop_
 _symmetry_equiv_pos_site_id
 _symmetry_equiv_pos_as_xyz
  1  'x, y, z'
loop_
 _atom_site_type_symbol
 _atom_site_label
 _atom_site_symmetry_multiplicity
 _atom_site_fract_x
 _atom_site_fract_y
 _atom_site_fract_z
 _atom_site_occupancy
  C  C0  1  0.69726851  0.70990146  0.73247284  1
  C  C1  1  0.32501181  0.33233524  0.32685088  1
  C  C2  1  0.07359818  0.08660915  0.13680822  1
  Ni  Ni3  1  0.57084557  0.53103733  0.45693025  1
  Cu  Cu4  1  0.93663209  0.92198899  0.87269984  1
  C  C5  1  0.38805555  0.72496768  0.16920726  1
  C  C6  1  0.72674111  0.14907387  0.41623526  1
  C  C7  1  0.09806610  0.35605491  0.77604687  1
  C  C8  1  0.61749427  0.31546704  0.86358032  1
  C  C9  1  0.88515492  0.59672237  0.31688729  1
  C  C10  1  0.30613189  0.90084196  0.56769796  1
