# generated using pymatgen
data_CuNi2C17
_symmetry_space_group_name_H-M   'P 1'
_cell_length_a   9.07849811
_cell_length_b   9.07849779
_cell_length_c   22.52288117
_cell_angle_alpha   89.70702117
_cell_angle_beta   90.29297888
_cell_angle_gamma   119.84458781
_symmetry_Int_Tables_number   1
_chemical_formula_structural   CuNi2C17
_chemical_formula_sum   'Cu6 Ni12 C102'
_cell_volume   1610.10050846
_cell_formula_units_Z   6
loop_
 _symmetry_equiv_pos_site_id
 _symmetry_equiv_pos_as_xyz
  1  'x, y, z'
loop_
 _atom_site_type_symbol
 _atom_site_label
 _atom_site_symmetry_multiplicity
 _atom_site_fract_x
 _atom_site_fract_y
 _atom_site_fract_z
 _atom_site_occupancy
  C  C0  1  0.99578239  0.99326157  0.49493168  1
  C  C1  1  0.00673843  0.00421761  0.99493168  1
  C  C2  1  0.66244939  0.32659457  0.82826468  1
  C  C3  1  0.67340543  0.33755061  0.32826468  1
  C  C4  1  0.32911539  0.65992857  0.16159868  1
  C  C5  1  0.34007143  0.67088461  0.66159868  1
  C  C6  1  0.64835457  0.01326572  0.24959344  1
  C  C7  1  0.98601893  0.62444520  0.24837976  1
  C  C8  1  0.98673428  0.35164543  0.74959344  1
  C  C9  1  0.37555480  0.01398107  0.74837976  1
  C  C10  1  0.31502157  0.34659872  0.58292644  1
  C  C11  1  0.65268593  0.95777820  0.58171276  1
  C  C12  1  0.65340128  0.68497843  0.08292644  1
  C  C13  1  0.04222180  0.34731407  0.08171276  1
  C  C14  1  0.98168757  0.67993272  0.91626044  1
  C  C15  1  0.31935193  0.29111220  0.91504676  1
  C  C16  1  0.32006728  0.01831243  0.41626044  1
  C  C17  1  0.70888780  0.68064807  0.41504676  1
  C  C18  1  0.99303429  0.00176175  0.35243687  1
  C  C19  1  0.99823825  0.00696571  0.85243687  1
  C  C20  1  0.65970129  0.33509475  0.68576987  1
  C  C21  1  0.66490525  0.34029871  0.18576987  1
  C  C22  1  0.32636729  0.66842875  0.01910387  1
  C  C23  1  0.33157125  0.67363271  0.51910387  1
  C  C24  1  0.99676519  0.99488507  0.64675704  1
  C  C25  1  0.00511493  0.00323481  0.14675704  1
  C  C26  1  0.66343219  0.32821807  0.98009004  1
  C  C27  1  0.67178193  0.33656781  0.48009004  1
  C  C28  1  0.33009819  0.66155207  0.31342404  1
  C  C29  1  0.33844793  0.66990181  0.81342404  1
  Ni  Ni30  1  0.70493171  0.70757225  0.25140252  1
  Ni  Ni31  1  0.00342448  0.29389379  0.24984027  1
  Ni  Ni32  1  0.29242775  0.29506829  0.75140252  1
  Ni  Ni33  1  0.70610621  0.99657552  0.74984027  1
  Ni  Ni34  1  0.37159871  0.04090525  0.58473552  1
  Ni  Ni35  1  0.67009148  0.62722679  0.58317327  1
  Ni  Ni36  1  0.95909475  0.62840129  0.08473552  1
  Ni  Ni37  1  0.37277321  0.32990852  0.08317327  1
  Ni  Ni38  1  0.03826471  0.37423925  0.91806952  1
  Ni  Ni39  1  0.33675748  0.96056079  0.91650727  1
  Ni  Ni40  1  0.62576075  0.96173529  0.41806952  1
  Ni  Ni41  1  0.03943921  0.66324252  0.41650727  1
  Cu  Cu42  1  0.29041141  0.99740361  0.25251573  1
  Cu  Cu43  1  0.00259639  0.70958859  0.75251573  1
  Cu  Cu44  1  0.95707841  0.33073661  0.58584873  1
  Cu  Cu45  1  0.66926339  0.04292159  0.08584873  1
  Cu  Cu46  1  0.62374441  0.66407061  0.91918273  1
  Cu  Cu47  1  0.33592939  0.37625559  0.41918273  1
  C  C48  1  0.21376341  0.01865648  0.30918898  1
  C  C49  1  0.81966023  0.79161244  0.30970823  1
  C  C50  1  0.97349517  0.17177463  0.30480338  1
  C  C51  1  0.20838756  0.18033977  0.80970823  1
  C  C52  1  0.98134352  0.78623659  0.80918898  1
  C  C53  1  0.82822537  0.02650483  0.80480338  1
  C  C54  1  0.79976164  0.97092562  0.68947305  1
  C  C55  1  0.16348092  0.19613496  0.69257160  1
  C  C56  1  0.02735305  0.83162032  0.69768444  1
  C  C57  1  0.80386504  0.83651908  0.19257160  1
  C  C58  1  0.02907438  0.20023836  0.18947305  1
  C  C59  1  0.16837968  0.97264695  0.19768444  1
  C  C60  1  0.88043041  0.35198948  0.64252198  1
  C  C61  1  0.48632723  0.12494544  0.64304123  1
  C  C62  1  0.64016217  0.50510763  0.63813638  1
  C  C63  1  0.87505456  0.51367277  0.14304123  1
  C  C64  1  0.64801052  0.11956959  0.14252198  1
  C  C65  1  0.49489237  0.35983783  0.13813638  1
  C  C66  1  0.46642864  0.30425862  0.02280605  1
  C  C67  1  0.83014792  0.52946796  0.02590460  1
  C  C68  1  0.69402005  0.16495332  0.03101744  1
  C  C69  1  0.47053204  0.16985208  0.52590460  1
  C  C70  1  0.69574138  0.53357136  0.52280605  1
  C  C71  1  0.83504668  0.30597995  0.53101744  1
  C  C72  1  0.54709641  0.68532348  0.97585598  1
  C  C73  1  0.15299323  0.45827944  0.97637523  1
  C  C74  1  0.30682817  0.83844163  0.97147038  1
  C  C75  1  0.54172056  0.84700677  0.47637523  1
  C  C76  1  0.31467652  0.45290359  0.47585598  1
  C  C77  1  0.16155837  0.69317183  0.47147038  1
  C  C78  1  0.13309464  0.63759262  0.35614005  1
  C  C79  1  0.49681392  0.86280196  0.35923860  1
  C  C80  1  0.36068605  0.49828732  0.36435144  1
  C  C81  1  0.13719804  0.50318608  0.85923860  1
  C  C82  1  0.36240738  0.86690536  0.85614005  1
  C  C83  1  0.50171268  0.63931395  0.86435144  1
  C  C84  1  0.01748336  0.82976163  0.41162282  1
  C  C85  1  0.81099257  0.98008678  0.41200266  1
  C  C86  1  0.19245417  0.19442225  0.41053504  1
  C  C87  1  0.01991322  0.18900743  0.91200266  1
  C  C88  1  0.17023837  0.98251664  0.91162282  1
  C  C89  1  0.80557775  0.80754583  0.91053504  1
  C  C90  1  0.96077756  0.15777350  0.58757862  1
  C  C91  1  0.18691302  0.03828712  0.58996321  1
  C  C92  1  0.84181454  0.81912791  0.58901067  1
  C  C93  1  0.96171288  0.81308698  0.08996321  1
  C  C94  1  0.84222650  0.03922244  0.08757862  1
  C  C95  1  0.18087209  0.15818546  0.08901067  1
  C  C96  1  0.68415036  0.16309463  0.74495582  1
  C  C97  1  0.47765957  0.31341978  0.74533566  1
  C  C98  1  0.85912117  0.52775525  0.74386804  1
  C  C99  1  0.68658022  0.52234043  0.24533566  1
  C  C100  1  0.83690537  0.31584964  0.24495582  1
  C  C101  1  0.47224475  0.14087883  0.24386804  1
  C  C102  1  0.62744456  0.49110650  0.92091162  1
  C  C103  1  0.85358002  0.37162012  0.92329621  1
  C  C104  1  0.50848154  0.15246091  0.92234367  1
  C  C105  1  0.62837988  0.14641998  0.42329621  1
  C  C106  1  0.50889350  0.37255544  0.42091162  1
  C  C107  1  0.84753909  0.49151846  0.42234367  1
  C  C108  1  0.35081636  0.49642863  0.07828982  1
  C  C109  1  0.14432557  0.64675378  0.07866966  1
  C  C110  1  0.52578717  0.86108925  0.07720204  1
  C  C111  1  0.35324622  0.85567443  0.57866966  1
  C  C112  1  0.50357137  0.64918364  0.57828982  1
  C  C113  1  0.13891075  0.47421283  0.57720204  1
  C  C114  1  0.29411056  0.82444050  0.25424562  1
  C  C115  1  0.52024602  0.70495412  0.25663021  1
  C  C116  1  0.17514754  0.48579491  0.25567767  1
  C  C117  1  0.29504588  0.47975398  0.75663021  1
  C  C118  1  0.17555950  0.70588944  0.75424562  1
  C  C119  1  0.51420509  0.82485246  0.75567767  1
