# generated using pymatgen
data_CuNi2C5
_symmetry_space_group_name_H-M   'P 1'
_cell_length_a   8.85540188
_cell_length_b   8.85540188
_cell_length_c   11.71846300
_cell_angle_alpha   90.00000000
_cell_angle_beta   90.00000000
_cell_angle_gamma   143.08132064
_symmetry_Int_Tables_number   1
_chemical_formula_structural   CuNi2C5
_chemical_formula_sum   'Cu4 Ni8 C20'
_cell_volume   551.98977025
_cell_formula_units_Z   4
loop_
 _symmetry_equiv_pos_site_id
 _symmetry_equiv_pos_as_xyz
  1  'x, y, z'
loop_
 _atom_site_type_symbol
 _atom_site_label
 _atom_site_symmetry_multiplicity
 _atom_site_fract_x
 _atom_site_fract_y
 _atom_site_fract_z
 _atom_site_occupancy
  Ni  Ni0  1  0.74649300  0.24649300  0.61699800  1
  Ni  Ni1  1  0.24649300  0.74649300  0.38300200  1
  Ni  Ni2  1  0.26079700  0.76079700  0.87018900  1
  Ni  Ni3  1  0.76079700  0.26079700  0.12981100  1
  Ni  Ni4  1  0.94547700  0.11477200  0.39249800  1
  Ni  Ni5  1  0.11477200  0.94547700  0.60750200  1
  Ni  Ni6  1  0.44547700  0.61477200  0.60750200  1
  Ni  Ni7  1  0.61477200  0.44547700  0.39249800  1
  Cu  Cu8  1  0.44034600  0.60792800  0.13254100  1
  Cu  Cu9  1  0.60792800  0.44034600  0.86745900  1
  Cu  Cu10  1  0.94034600  0.10792800  0.86745900  1
  Cu  Cu11  1  0.10792800  0.94034600  0.13254100  1
  C  C12  1  0.55485600  0.87298500  0.21306100  1
  C  C13  1  0.87298500  0.55485600  0.78693900  1
  C  C14  1  0.05485600  0.37298500  0.78693900  1
  C  C15  1  0.37298500  0.05485600  0.21306100  1
  C  C16  1  0.14267500  0.46380400  0.48525800  1
  C  C17  1  0.46380400  0.14267500  0.51474200  1
  C  C18  1  0.64267500  0.96380400  0.51474200  1
  C  C19  1  0.96380400  0.64267500  0.48525800  1
  C  C20  1  0.39425400  0.89425400  0.70372800  1
  C  C21  1  0.89425400  0.39425400  0.29627200  1
  C  C22  1  0.13339900  0.43515700  0.06699800  1
  C  C23  1  0.43515700  0.13339900  0.93300200  1
  C  C24  1  0.89489600  0.81027500  0.25754800  1
  C  C25  1  0.81027500  0.89489600  0.74245200  1
  C  C26  1  0.39489600  0.31027500  0.74245200  1
  C  C27  1  0.31027500  0.39489600  0.25754800  1
  C  C28  1  0.73898700  0.73898700  0.50000000  1
  C  C29  1  0.23898700  0.23898700  0.50000000  1
  C  C30  1  0.93515700  0.63339900  0.06699800  1
  C  C31  1  0.63339900  0.93515700  0.93300200  1
