# generated using pymatgen
data_Cu12Ni3C2
_symmetry_space_group_name_H-M   'P 1'
_cell_length_a   8.84779214
_cell_length_b   8.84779185
_cell_length_c   22.73011676
_cell_angle_alpha   90.00000000
_cell_angle_beta   90.00000000
_cell_angle_gamma   120.00000107
_symmetry_Int_Tables_number   1
_chemical_formula_structural   Cu12Ni3C2
_chemical_formula_sum   'Cu72 Ni18 C12'
_cell_volume   1540.99809587
_cell_formula_units_Z   6
loop_
 _symmetry_equiv_pos_site_id
 _symmetry_equiv_pos_as_xyz
  1  'x, y, z'
loop_
 _atom_site_type_symbol
 _atom_site_label
 _atom_site_symmetry_multiplicity
 _atom_site_fract_x
 _atom_site_fract_y
 _atom_site_fract_z
 _atom_site_occupancy
  C  C0  1  0.00000000  0.00000000  0.64430446  1
  C  C1  1  0.00000000  0.00000000  0.14430446  1
  C  C2  1  0.66666700  0.33333300  0.97763746  1
  C  C3  1  0.66666700  0.33333300  0.47763746  1
  C  C4  1  0.33333300  0.66666700  0.31097146  1
  C  C5  1  0.33333300  0.66666700  0.81097146  1
  C  C6  1  0.00000000  0.00000000  0.35316523  1
  C  C7  1  0.00000000  0.00000000  0.85316523  1
  C  C8  1  0.66666700  0.33333300  0.68649823  1
  C  C9  1  0.66666700  0.33333300  0.18649823  1
  C  C10  1  0.33333300  0.66666700  0.01983223  1
  C  C11  1  0.33333300  0.66666700  0.51983223  1
  Ni  Ni12  1  0.29347024  0.00670198  0.25105817  1
  Ni  Ni13  1  0.71323175  0.70652976  0.25105817  1
  Ni  Ni14  1  0.99329802  0.28676825  0.25105817  1
  Ni  Ni15  1  0.29347024  0.28676825  0.75105817  1
  Ni  Ni16  1  0.99329802  0.70652976  0.75105817  1
  Ni  Ni17  1  0.71323175  0.00670198  0.75105817  1
  Ni  Ni18  1  0.96013724  0.34003498  0.58439117  1
  Ni  Ni19  1  0.37989875  0.03986276  0.58439117  1
  Ni  Ni20  1  0.65996502  0.62010125  0.58439117  1
  Ni  Ni21  1  0.96013724  0.62010125  0.08439117  1
  Ni  Ni22  1  0.65996502  0.03986276  0.08439117  1
  Ni  Ni23  1  0.37989875  0.34003498  0.08439117  1
  Ni  Ni24  1  0.62680324  0.67336898  0.91772517  1
  Ni  Ni25  1  0.04656475  0.37319676  0.91772517  1
  Ni  Ni26  1  0.32663102  0.95343525  0.91772517  1
  Ni  Ni27  1  0.62680324  0.95343525  0.41772517  1
  Ni  Ni28  1  0.32663102  0.37319676  0.41772517  1
  Ni  Ni29  1  0.04656475  0.67336898  0.41772517  1
  Cu  Cu30  1  0.21081897  0.03033286  0.30301949  1
  Cu  Cu31  1  0.81951389  0.78918103  0.30301949  1
  Cu  Cu32  1  0.96966714  0.18048611  0.30301949  1
  Cu  Cu33  1  0.21081897  0.18048611  0.80301949  1
  Cu  Cu34  1  0.96966714  0.78918103  0.80301949  1
  Cu  Cu35  1  0.81951389  0.03033286  0.80301949  1
  Cu  Cu36  1  0.79036110  0.96892804  0.69747177  1
  Cu  Cu37  1  0.17856694  0.20963890  0.69747177  1
  Cu  Cu38  1  0.03107196  0.82143306  0.69747177  1
  Cu  Cu39  1  0.79036110  0.82143306  0.19747177  1
  Cu  Cu40  1  0.03107196  0.20963890  0.19747177  1
  Cu  Cu41  1  0.17856694  0.96892804  0.19747177  1
  Cu  Cu42  1  0.87748597  0.36366586  0.63635249  1
  Cu  Cu43  1  0.48618089  0.12251403  0.63635249  1
  Cu  Cu44  1  0.63633414  0.51381911  0.63635249  1
  Cu  Cu45  1  0.87748597  0.51381911  0.13635249  1
  Cu  Cu46  1  0.63633414  0.12251403  0.13635249  1
  Cu  Cu47  1  0.48618089  0.36366586  0.13635249  1
  Cu  Cu48  1  0.45702810  0.30226104  0.03080477  1
  Cu  Cu49  1  0.84523394  0.54297190  0.03080477  1
  Cu  Cu50  1  0.69773896  0.15476606  0.03080477  1
  Cu  Cu51  1  0.45702810  0.15476606  0.53080477  1
  Cu  Cu52  1  0.69773896  0.54297190  0.53080477  1
  Cu  Cu53  1  0.84523394  0.30226104  0.53080477  1
  Cu  Cu54  1  0.54415197  0.69699986  0.96968649  1
  Cu  Cu55  1  0.15284689  0.45584803  0.96968649  1
  Cu  Cu56  1  0.30300014  0.84715311  0.96968649  1
  Cu  Cu57  1  0.54415197  0.84715311  0.46968649  1
  Cu  Cu58  1  0.30300014  0.45584803  0.46968649  1
  Cu  Cu59  1  0.15284689  0.69699986  0.46968649  1
  Cu  Cu60  1  0.12369410  0.63559504  0.36413877  1
  Cu  Cu61  1  0.51189994  0.87630590  0.36413877  1
  Cu  Cu62  1  0.36440496  0.48810006  0.36413877  1
  Cu  Cu63  1  0.12369410  0.48810006  0.86413877  1
  Cu  Cu64  1  0.36440496  0.87630590  0.86413877  1
  Cu  Cu65  1  0.51189994  0.63559504  0.86413877  1
  Cu  Cu66  1  0.02308379  0.82301974  0.40788067  1
  Cu  Cu67  1  0.79993595  0.97691620  0.40788067  1
  Cu  Cu68  1  0.17698026  0.20006405  0.40788067  1
  Cu  Cu69  1  0.02308380  0.20006405  0.90788067  1
  Cu  Cu70  1  0.17698026  0.97691620  0.90788067  1
  Cu  Cu71  1  0.79993595  0.82301974  0.90788067  1
  Cu  Cu72  1  0.97421307  0.17749720  0.59141334  1
  Cu  Cu73  1  0.20328413  0.02578693  0.59141334  1
  Cu  Cu74  1  0.82250280  0.79671587  0.59141334  1
  Cu  Cu75  1  0.97421307  0.79671587  0.09141334  1
  Cu  Cu76  1  0.82250280  0.02578693  0.09141334  1
  Cu  Cu77  1  0.20328413  0.17749720  0.09141334  1
  Cu  Cu78  1  0.68975079  0.15635274  0.74121367  1
  Cu  Cu79  1  0.46660295  0.31024920  0.74121367  1
  Cu  Cu80  1  0.84364726  0.53339705  0.74121367  1
  Cu  Cu81  1  0.68975080  0.53339705  0.24121367  1
  Cu  Cu82  1  0.84364726  0.31024920  0.24121367  1
  Cu  Cu83  1  0.46660295  0.15635274  0.24121367  1
  Cu  Cu84  1  0.64088007  0.51083020  0.92474634  1
  Cu  Cu85  1  0.86995113  0.35911993  0.92474634  1
  Cu  Cu86  1  0.48916980  0.13004887  0.92474634  1
  Cu  Cu87  1  0.64088007  0.13004887  0.42474634  1
  Cu  Cu88  1  0.48916980  0.35911993  0.42474634  1
  Cu  Cu89  1  0.86995113  0.51083020  0.42474634  1
  Cu  Cu90  1  0.35641679  0.48968674  0.07454767  1
  Cu  Cu91  1  0.13326895  0.64358320  0.07454767  1
  Cu  Cu92  1  0.51031326  0.86673105  0.07454767  1
  Cu  Cu93  1  0.35641680  0.86673105  0.57454767  1
  Cu  Cu94  1  0.51031326  0.64358320  0.57454767  1
  Cu  Cu95  1  0.13326895  0.48968674  0.57454767  1
  Cu  Cu96  1  0.30754607  0.84416420  0.25808034  1
  Cu  Cu97  1  0.53661713  0.69245393  0.25808034  1
  Cu  Cu98  1  0.15583580  0.46338287  0.25808034  1
  Cu  Cu99  1  0.30754607  0.46338287  0.75808034  1
  Cu  Cu100  1  0.15583580  0.69245393  0.75808034  1
  Cu  Cu101  1  0.53661713  0.84416420  0.75808034  1
