# generated using pymatgen
data_Cu2NiC17
_symmetry_space_group_name_H-M   'P 1'
_cell_length_a   5.18955159
_cell_length_b   5.22694125
_cell_length_c   9.77215234
_cell_angle_alpha   81.05944831
_cell_angle_beta   91.57061711
_cell_angle_gamma   57.33471505
_symmetry_Int_Tables_number   1
_chemical_formula_structural   Cu2NiC17
_chemical_formula_sum   'Cu2 Ni1 C17'
_cell_volume   218.45561513
_cell_formula_units_Z   1
loop_
 _symmetry_equiv_pos_site_id
 _symmetry_equiv_pos_as_xyz
  1  'x, y, z'
loop_
 _atom_site_type_symbol
 _atom_site_label
 _atom_site_symmetry_multiplicity
 _atom_site_fract_x
 _atom_site_fract_y
 _atom_site_fract_z
 _atom_site_occupancy
  Ni  Ni0  1  0.83180100  0.27893300  0.51072400  1
  Cu  Cu1  1  0.25073500  0.24288800  0.74614700  1
  Cu  Cu2  1  0.75597700  0.76025500  0.25376600  1
  C  C3  1  0.09583100  0.08192600  0.23596800  1
  C  C4  1  0.99762300  0.56874300  0.98460000  1
  C  C5  1  0.50854200  0.98008500  0.50493600  1
  C  C6  1  0.42768900  0.43311800  0.24017200  1
  C  C7  1  0.57588200  0.58783000  0.77117200  1
  C  C8  1  0.95598200  0.28137100  0.87263300  1
  C  C9  1  0.24937100  0.95421600  0.63765700  1
  C  C10  1  0.09792800  0.34961400  0.36693700  1
  C  C11  1  0.39065600  0.13712700  0.14194100  1
  C  C12  1  0.30804300  0.49971900  0.84433000  1
  C  C13  1  0.51360600  0.24130800  0.60829400  1
  C  C14  1  0.48312000  0.72428300  0.37273700  1
  C  C15  1  0.74473500  0.50070500  0.14125100  1
  C  C16  1  0.59038200  0.87016800  0.86174900  1
  C  C17  1  0.83700200  0.56250500  0.63082400  1
  C  C18  1  0.76902800  0.03661400  0.37244900  1
  C  C19  1  0.03214300  0.81216800  0.14476600  1
