# generated using pymatgen
data_Cu3Ni9C70
_symmetry_space_group_name_H-M   'P 1'
_cell_length_a   18.24082837
_cell_length_b   9.09556750
_cell_length_c   22.44312671
_cell_angle_alpha   90.05993354
_cell_angle_beta   90.04615497
_cell_angle_gamma   119.96381866
_symmetry_Int_Tables_number   1
_chemical_formula_structural   Cu3Ni9C70
_chemical_formula_sum   'Cu9 Ni27 C210'
_cell_volume   3225.86230671
_cell_formula_units_Z   3
loop_
 _symmetry_equiv_pos_site_id
 _symmetry_equiv_pos_as_xyz
  1  'x, y, z'
loop_
 _atom_site_type_symbol
 _atom_site_label
 _atom_site_symmetry_multiplicity
 _atom_site_fract_x
 _atom_site_fract_y
 _atom_site_fract_z
 _atom_site_occupancy
  C  C0  1  0.81774801  0.99886692  0.25525793  1
  C  C1  1  0.17485071  0.35001097  0.24957872  1
  C  C2  1  0.67071799  0.35722716  0.25116281  1
  C  C3  1  0.00590363  0.64784551  0.24709345  1
  C  C4  1  0.50911807  0.64209156  0.25166440  1
  C  C5  1  0.31806646  0.63659821  0.75749433  1
  C  C6  1  0.00974201  0.37556356  0.75582195  1
  C  C7  1  0.50514963  0.36833161  0.74900179  1
  C  C8  1  0.17230777  0.98487869  0.75442464  1
  C  C9  1  0.67128766  0.99156550  0.75265735  1
  C  C10  1  0.14645611  0.31529863  0.58583675  1
  C  C11  1  0.64361234  0.31460263  0.58740276  1
  C  C12  1  0.33815063  0.98393479  0.58160563  1
  C  C13  1  0.83666193  0.97011511  0.59109622  1
  C  C14  1  0.14568453  0.97628441  0.08765273  1
  C  C15  1  0.63964673  0.96906299  0.08588077  1
  C  C16  1  0.34223377  0.70160079  0.08856286  1
  C  C17  1  0.83728921  0.69473069  0.07906973  1
  C  C18  1  0.48066074  0.66549632  0.91867916  1
  C  C19  1  0.97824054  0.64999789  0.92011107  1
  C  C20  1  0.35127611  0.04441969  0.91637493  1
  C  C21  1  0.84885637  0.04184561  0.91843192  1
  C  C22  1  0.17006275  0.29485840  0.92396184  1
  C  C23  1  0.66646874  0.28437705  0.91766473  1
  C  C24  1  0.47860108  0.30743803  0.41851301  1
  C  C25  1  0.98354585  0.29819881  0.40912058  1
  C  C26  1  0.16738271  0.04992661  0.41413423  1
  C  C27  1  0.66840506  0.04300403  0.42122183  1
  C  C28  1  0.35007705  0.65477468  0.41536160  1
  C  C29  1  0.85013906  0.65918677  0.41351050  1
  C  C30  1  0.01035677  0.99431233  0.49889330  1
  C  C31  1  0.50571891  0.00168603  0.50407655  1
  C  C32  1  0.00616824  0.01124259  0.00638490  1
  C  C33  1  0.50831009  0.01251673  0.00405197  1
  C  C34  1  0.33308335  0.33219130  0.84159794  1
  C  C35  1  0.83271838  0.33896516  0.84343147  1
  C  C36  1  0.33179273  0.32351774  0.33794652  1
  C  C37  1  0.83291748  0.33374764  0.33805318  1
  C  C38  1  0.16770712  0.66603002  0.16850063  1
  C  C39  1  0.65294423  0.64773047  0.16987725  1
  C  C40  1  0.15624003  0.66175596  0.67301919  1
  C  C41  1  0.66538686  0.66789036  0.67063686  1
  C  C42  1  0.01046569  0.01904549  0.35092461  1
  C  C43  1  0.50999837  0.99956753  0.85273697  1
  C  C44  1  0.00512168  -0.00006850  0.65299971  1
  C  C45  1  0.51232345  0.00691943  0.64828644  1
  C  C46  1  0.01293582  0.01678520  0.14896087  1
  C  C47  1  0.50390865  0.00138049  0.14947073  1
  C  C48  1  0.33373168  0.33342683  0.98307944  1
  C  C49  1  0.83149911  0.33939313  0.97885328  1
  C  C50  1  0.33110286  0.32319420  0.47862038  1
  C  C51  1  0.83101659  0.33693361  0.48043199  1
  C  C52  1  0.65859333  0.65516159  0.31513560  1
  C  C53  1  0.15937052  0.66174687  0.81654125  1
  C  C54  1  0.50251264  0.00809838  0.35084498  1
  C  C55  1  0.00175029  0.99520885  0.85224420  1
  C  C56  1  0.33371892  0.32775381  0.68532131  1
  C  C57  1  0.82989812  0.32527840  0.69262643  1
  C  C58  1  0.33669604  0.34656552  0.18917456  1
  C  C59  1  0.83410783  0.33843129  0.18426401  1
  C  C60  1  0.15468441  0.65053700  0.02096336  1
  C  C61  1  0.65770768  0.64725413  0.01900319  1
  C  C62  1  0.16501827  0.67970080  0.51528675  1
  C  C63  1  0.65366441  0.65820468  0.52060074  1
  C  C64  1  0.16711780  0.66690664  0.31204946  1
  C  C65  1  0.66751424  0.66749785  0.81415252  1
  Ni  Ni66  1  0.14696791  0.00066658  0.24954273  1
  Ni  Ni67  1  0.64888497  0.99621489  0.24786685  1
  Ni  Ni68  1  0.35544321  0.71698554  0.24694057  1
  Ni  Ni69  1  0.99698079  0.28439426  0.25178903  1
  Ni  Ni70  1  0.50091462  0.29290718  0.24605557  1
  Ni  Ni71  1  0.14733809  0.29982281  0.74716821  1
  Ni  Ni72  1  0.64325206  0.29274833  0.74982227  1
  Ni  Ni73  1  0.00259405  0.70929705  0.74687311  1
  Ni  Ni74  1  0.49758532  0.71053748  0.75130898  1
  Ni  Ni75  1  0.85565157  0.99207978  0.74621189  1
  Ni  Ni76  1  0.47659132  0.32326247  0.58013492  1
  Ni  Ni77  1  0.18180037  0.03672105  0.58015845  1
  Ni  Ni78  1  0.68821449  0.04192218  0.57939439  1
  Ni  Ni79  1  0.47867252  0.62716396  0.07955067  1
  Ni  Ni80  1  0.97685145  0.63033479  0.08010487  1
  Ni  Ni81  1  0.18756737  0.33298677  0.07971681  1
  Ni  Ni82  1  0.68375048  0.32916665  0.07928537  1
  Ni  Ni83  1  0.81248590  0.66787038  0.91820465  1
  Ni  Ni84  1  0.01660838  0.36688509  0.91291140  1
  Ni  Ni85  1  0.51503782  0.36310452  0.91342895  1
  Ni  Ni86  1  0.17103227  0.96151768  0.91350997  1
  Ni  Ni87  1  0.66572948  0.95896431  0.91841321  1
  Ni  Ni88  1  0.31440326  0.96193904  0.41495057  1
  Ni  Ni89  1  0.16522730  0.37197637  0.41872711  1
  Ni  Ni90  1  0.67032306  0.38016072  0.41335407  1
  Ni  Ni91  1  0.01495952  0.66494780  0.41359612  1
  Ni  Ni92  1  0.51604608  0.66636737  0.41271564  1
  Cu  Cu93  1  0.85491197  0.71104830  0.24962140  1
  Cu  Cu94  1  0.35530481  -0.00112563  0.74873471  1
  Cu  Cu95  1  0.97903290  0.33600982  0.58168005  1
  Cu  Cu96  1  0.33276562  0.62527040  0.58336297  1
  Cu  Cu97  1  0.83557084  0.62616738  0.58150880  1
  Cu  Cu98  1  0.33420375  0.04353147  0.08123946  1
  Cu  Cu99  1  0.83372481  0.04164283  0.08315831  1
  Cu  Cu100  1  0.31100218  0.67020480  0.91571434  1
  Cu  Cu101  1  0.81197762  0.95407604  0.41727078  1
  C  C102  1  0.11231605  0.04586641  0.30916713  1
  C  C103  1  0.60197594  0.03477983  0.30745798  1
  C  C104  1  0.41693896  0.80451477  0.30708454  1
  C  C105  1  0.90651019  0.78417322  0.30360815  1
  C  C106  1  0.48670511  0.17393725  0.30955312  1
  C  C107  1  0.97275091  0.17401142  0.31261564  1
  C  C108  1  0.10055933  0.16698973  0.80569514  1
  C  C109  1  0.61169268  0.17580617  0.80828067  1
  C  C110  1  0.47223346  0.77232537  0.81146118  1
  C  C111  1  0.98544379  0.79588336  0.80878195  1
  C  C112  1  0.40676206  0.02960642  0.80267461  1
  C  C113  1  0.91736037  0.03074373  0.80548865  1
  C  C114  1  0.39398603  0.97969251  0.69443675  1
  C  C115  1  0.89420663  0.97397886  0.68517617  1
  C  C116  1  0.08945582  0.22359382  0.68899726  1
  C  C117  1  0.58876958  0.22415480  0.68989068  1
  C  C118  1  0.01978514  0.83303123  0.69315227  1
  C  C119  1  0.51573254  0.82865547  0.69447477  1
  C  C120  1  0.39225088  0.81631571  0.18690482  1
  C  C121  1  0.89427954  0.80958719  0.19526370  1
  C  C122  1  0.01541986  0.20117177  0.19559434  1
  C  C123  1  0.51825022  0.19780206  0.19419272  1
  C  C124  1  0.08760143  0.94876172  0.19127430  1
  C  C125  1  0.59014403  0.95764587  0.19088361  1
  C  C126  1  0.43082495  0.35518857  0.64079273  1
  C  C127  1  0.93969546  0.35926569  0.63700751  1
  C  C128  1  0.24897389  0.13595041  0.63966430  1
  C  C129  1  0.75201515  0.13975448  0.63962953  1
  C  C130  1  0.32000747  0.51388046  0.63769860  1
  C  C131  1  0.82307767  0.51451592  0.63424524  1
  C  C132  1  0.43202169  0.50432805  0.14023175  1
  C  C133  1  0.93184371  0.50674490  0.14093253  1
  C  C134  1  0.31907039  0.12577670  0.13384370  1
  C  C135  1  0.82194261  0.12954482  0.13787917  1
  C  C136  1  0.25087052  0.36559521  0.13960790  1
  C  C137  1  0.75094987  0.36172614  0.13952278  1
  C  C138  1  0.23072945  0.30896973  0.02139240  1
  C  C139  1  0.73113747  0.30540373  0.02328786  1
  C  C140  1  0.42357856  0.53731779  0.02160255  1
  C  C141  1  0.92294610  0.53966402  0.02217509  1
  C  C142  1  0.34272920  0.13781180  0.02604946  1
  C  C143  1  0.84494573  0.14261900  0.02956237  1
  C  C144  1  0.22979941  0.15173213  0.52362379  1
  C  C145  1  0.73574057  0.15468055  0.52263714  1
  C  C146  1  0.34341339  0.54671379  0.52964457  1
  C  C147  1  0.84514315  0.54861931  0.52684166  1
  C  C148  1  0.42216985  0.30521139  0.52249715  1
  C  C149  1  0.92911321  0.32095297  0.52881971  1
  C  C150  1  0.26813001  0.69035002  0.97032356  1
  C  C151  1  0.76843120  0.70194965  0.97718125  1
  C  C152  1  0.08243290  0.46703370  0.97291810  1
  C  C153  1  0.58199205  0.46573984  0.97157171  1
  C  C154  1  0.15488492  0.83170773  0.97305560  1
  C  C155  1  0.65586962  0.83104624  0.97553436  1
  C  C156  1  0.26719927  0.83766076  0.47569820  1
  C  C157  1  0.76889303  0.84704414  0.47195192  1
  C  C158  1  0.15483335  0.47839967  0.47811645  1
  C  C159  1  0.65577795  0.47966298  0.47375133  1
  C  C160  1  0.08405954  0.69999253  0.47178500  1
  C  C161  1  0.58185849  0.69731701  0.47367405  1
  C  C162  1  0.06577913  0.63863605  0.35800161  1
  C  C163  1  0.56168125  0.63837856  0.35750435  1
  C  C164  1  0.24888220  0.85156728  0.36174125  1
  C  C165  1  0.76001279  0.87806594  0.36390196  1
  C  C166  1  0.17530941  0.49494575  0.36135824  1
  C  C167  1  0.68747147  0.49826498  0.35647027  1
  C  C168  1  0.06049089  0.48301656  0.85640666  1
  C  C169  1  0.56805307  0.49291835  0.85760322  1
  C  C170  1  0.18660362  0.87809380  0.85550443  1
  C  C171  1  0.67613462  0.85911750  0.85918647  1
  C  C172  1  0.25947673  0.64625208  0.86207019  1
  C  C173  1  0.74951362  0.64830195  0.86183909  1
  C  C174  1  0.00655164  0.83268321  0.41179868  1
  C  C175  1  0.51537217  0.84761064  0.41305511  1
  C  C176  1  0.40514449  0.96654910  0.41176262  1
  C  C177  1  0.89571757  0.96383186  0.41463070  1
  C  C178  1  0.07779533  0.19256786  0.41797915  1
  C  C179  1  0.58020146  0.19325025  0.41253987  1
  C  C180  1  0.01537591  0.18314442  0.91186881  1
  C  C181  1  0.50803134  0.17990220  0.91041904  1
  C  C182  1  0.08025963  0.96792944  0.91109098  1
  C  C183  1  0.57861642  0.96376513  0.91706572  1
  C  C184  1  0.39505253  0.82678081  0.91329027  1
  C  C185  1  0.90520333  0.84351137  0.91007012  1
  C  C186  1  0.48667592  0.15814448  0.58892235  1
  C  C187  1  0.98712097  0.18168794  0.58567920  1
  C  C188  1  0.09099501  0.02248873  0.58760782  1
  C  C189  1  0.59613455  0.02184025  0.58615037  1
  C  C190  1  0.40370445  0.79833070  0.59167985  1
  C  C191  1  0.90711618  0.79946916  0.58752406  1
  C  C192  1  0.48996239  0.81409109  0.08675075  1
  C  C193  1  0.98632212  0.81498805  0.08911157  1
  C  C194  1  0.40623916  0.01599930  0.08768535  1
  C  C195  1  0.90545965  0.01274718  0.09184645  1
  C  C196  1  0.09484570  0.17015718  0.08722482  1
  C  C197  1  0.59285136  0.16691536  0.08825994  1
  C  C198  1  0.34575316  0.15901257  0.74447551  1
  C  C199  1  0.84710864  0.17208686  0.74322540  1
  C  C200  1  0.24190005  0.30584674  0.74183168  1
  C  C201  1  0.74127671  0.31555502  0.73862286  1
  C  C202  1  0.41330368  0.50965599  0.74004601  1
  C  C203  1  0.91645035  0.51560400  0.73910241  1
  C  C204  1  0.34606498  0.52194848  0.24608894  1
  C  C205  1  0.84607638  0.53320208  0.24496628  1
  C  C206  1  0.41466191  0.31216424  0.24253874  1
  C  C207  1  0.91399830  0.31871808  0.24144709  1
  C  C208  1  0.24191106  0.17029390  0.23769973  1
  C  C209  1  0.74328624  0.17973231  0.24337885  1
  C  C210  1  0.32059937  0.51760758  0.92071970  1
  C  C211  1  0.82156553  0.50187674  0.91751783  1
  C  C212  1  0.42602315  0.35932402  0.91804353  1
  C  C213  1  0.92415257  0.34153175  0.92363361  1
  C  C214  1  0.25019548  0.15161365  0.92179875  1
  C  C215  1  0.75183361  0.13962474  0.92008373  1
  C  C216  1  0.32156306  0.14360180  0.41732873  1
  C  C217  1  0.82403288  0.12773084  0.42407800  1
  C  C218  1  0.25106201  0.36367081  0.42167268  1
  C  C219  1  0.74999607  0.34919788  0.42146315  1
  C  C220  1  0.42386321  0.50605554  0.42384855  1
  C  C221  1  0.92713690  0.48890459  0.42232107  1
  C  C222  1  0.18735498  0.52080425  0.07606470  1
  C  C223  1  0.68683139  0.51777322  0.07891875  1
  C  C224  1  0.07506201  0.65077008  0.07829933  1
  C  C225  1  0.57697716  0.64862531  0.07779520  1
  C  C226  1  0.25332912  0.86842838  0.07793054  1
  C  C227  1  0.75310474  0.87403570  0.08229513  1
  C  C228  1  0.18213964  0.84885075  0.57961881  1
  C  C229  1  0.68812928  0.85460261  0.57704968  1
  C  C230  1  0.25136588  0.63251362  0.58194820  1
  C  C231  1  0.75438878  0.63612226  0.57901582  1
  C  C232  1  0.06754785  0.48935383  0.57926746  1
  C  C233  1  0.57503253  0.49948254  0.57856472  1
  C  C234  1  0.15790044  0.82977719  0.25893785  1
  C  C235  1  0.66976182  0.84519104  0.25897130  1
  C  C236  1  0.25695310  0.67280220  0.25863642  1
  C  C237  1  0.76850820  0.68644002  0.25462452  1
  C  C238  1  0.08117388  0.48086874  0.25786909  1
  C  C239  1  0.58244172  0.48225886  0.25384903  1
  C  C240  1  0.16895730  0.49349133  0.75774194  1
  C  C241  1  0.65729430  0.48599114  0.75742175  1
  C  C242  1  0.08304434  0.68083794  0.75439455  1
  C  C243  1  0.58084254  0.68054772  0.75729833  1
  C  C244  1  0.26829365  0.85041976  0.75370762  1
  C  C245  1  0.75717360  0.84156062  0.75663204  1
