# generated using pymatgen
data_Cu11NiC66
_symmetry_space_group_name_H-M   'P 1'
_cell_length_a   17.87517338
_cell_length_b   8.93233939
_cell_length_c   22.41034261
_cell_angle_alpha   89.79638753
_cell_angle_beta   89.80315437
_cell_angle_gamma   120.02420644
_symmetry_Int_Tables_number   1
_chemical_formula_structural   Cu11NiC66
_chemical_formula_sum   'Cu33 Ni3 C198'
_cell_volume   3097.97568734
_cell_formula_units_Z   3
loop_
 _symmetry_equiv_pos_site_id
 _symmetry_equiv_pos_as_xyz
  1  'x, y, z'
loop_
 _atom_site_type_symbol
 _atom_site_label
 _atom_site_symmetry_multiplicity
 _atom_site_fract_x
 _atom_site_fract_y
 _atom_site_fract_z
 _atom_site_occupancy
  C  C0  1  0.81834604  0.99106068  0.24759928  1
  C  C1  1  0.68578909  0.37483757  0.25012249  1
  C  C2  1  0.99619077  0.63883493  0.25240783  1
  C  C3  1  0.49866585  0.63112487  0.25028780  1
  C  C4  1  0.31812841  0.64688181  0.74724355  1
  C  C5  1  0.81771661  0.64628487  0.74735954  1
  C  C6  1  0.99463830  0.35373936  0.75255042  1
  C  C7  1  0.49458951  0.35345691  0.75259557  1
  C  C8  1  0.18749230  -0.00001949  0.75002752  1
  C  C9  1  0.68719640  0.99963128  0.75016798  1
  C  C10  1  0.33502372  0.96763122  0.58717779  1
  C  C11  1  0.83421488  0.96717822  0.58831480  1
  C  C12  1  0.15251712  0.97160133  0.08313551  1
  C  C13  1  0.83474264  0.70308692  0.08845276  1
  C  C14  1  0.35136978  0.03328007  0.91302359  1
  C  C15  1  0.85055247  0.03236987  0.91171517  1
  C  C16  1  0.16719083  0.03335157  0.41640365  1
  C  C17  1  0.85038778  0.66998663  0.41187679  1
  C  C18  1  0.00515520  0.01384246  0.50168191  1
  C  C19  1  0.50564296  0.99821649  0.49864752  1
  C  C20  1  0.00614969  0.01423475  0.99825084  1
  C  C21  1  0.50500957  0.99728704  0.00131252  1
  C  C22  1  0.33410698  0.33477312  0.83508121  1
  C  C23  1  0.83340974  0.33352324  0.83469397  1
  C  C24  1  0.33394121  0.33636954  0.33385939  1
  C  C25  1  0.83340722  0.33247080  0.33441672  1
  C  C26  1  0.17493410  0.65831944  0.16694106  1
  C  C27  1  0.66474951  0.66487344  0.16501036  1
  C  C28  1  0.16691748  0.66572973  0.66517784  1
  C  C29  1  0.66608470  0.66541958  0.66508961  1
  C  C30  1  0.99702512  0.99806970  0.34387733  1
  C  C31  1  0.49624831  0.99507233  0.35107316  1
  C  C32  1  0.99774801  0.00329395  0.84711652  1
  C  C33  1  0.49770528  0.00364528  0.84740127  1
  C  C34  1  0.99660530  0.99692319  0.65272026  1
  C  C35  1  0.49635383  0.99664227  0.65242092  1
  C  C36  1  0.99702174  0.00554050  0.15599258  1
  C  C37  1  0.49611471  0.99633244  0.14864125  1
  C  C38  1  0.33454950  0.32454277  0.67998201  1
  C  C39  1  0.83407163  0.32317965  0.68014864  1
  C  C40  1  0.33124043  0.33220987  0.18011791  1
  C  C41  1  0.83412540  0.34404020  0.18119545  1
  C  C42  1  0.33625040  0.34530541  0.98648219  1
  C  C43  1  0.83154249  0.33507423  0.98461043  1
  C  C44  1  0.33929246  0.34661621  0.48352600  1
  C  C45  1  0.83095900  0.32650306  0.48597326  1
  C  C46  1  0.16718009  0.65721056  0.01478645  1
  C  C47  1  0.65876070  0.66325383  0.01593972  1
  C  C48  1  0.16538514  0.65503735  0.51466802  1
  C  C49  1  0.65977128  0.65903022  0.51383616  1
  C  C50  1  0.17327042  0.66709357  0.31889532  1
  C  C51  1  0.67023632  0.66564629  0.31959039  1
  C  C52  1  0.17244497  0.67535631  0.82004512  1
  C  C53  1  0.67173093  0.67540618  0.82011888  1
  Ni  Ni54  1  0.85039960  0.70118662  0.25027951  1
  Ni  Ni55  1  0.35064905  0.00000623  0.75000448  1
  Ni  Ni56  1  0.85055464  0.99957035  0.75007910  1
  Cu  Cu57  1  0.15125767  0.00250400  0.25013597  1
  Cu  Cu58  1  0.64446543  0.99908961  0.24990789  1
  Cu  Cu59  1  0.35246893  0.70568517  0.24981875  1
  Cu  Cu60  1  0.00313531  0.30054353  0.25004264  1
  Cu  Cu61  1  0.49686931  0.28826903  0.24986659  1
  Cu  Cu62  1  0.14679222  0.29287474  0.74979317  1
  Cu  Cu63  1  0.64685650  0.29303333  0.74976597  1
  Cu  Cu64  1  0.00021255  0.70706028  0.75017100  1
  Cu  Cu65  1  0.50025571  0.70705387  0.75018307  1
  Cu  Cu66  1  0.48333797  0.33694322  0.58270192  1
  Cu  Cu67  1  0.98343080  0.33771128  0.58261494  1
  Cu  Cu68  1  0.18272011  0.03525312  0.58199649  1
  Cu  Cu69  1  0.68240725  0.03476025  0.58334149  1
  Cu  Cu70  1  0.33326002  0.62659082  0.58358937  1
  Cu  Cu71  1  0.83328292  0.62709087  0.58226698  1
  Cu  Cu72  1  0.48194129  0.63096429  0.08477167  1
  Cu  Cu73  1  0.98347288  0.62843733  0.08242403  1
  Cu  Cu74  1  0.33364680  0.03803461  0.08193947  1
  Cu  Cu75  1  0.83343447  0.03992918  0.08252419  1
  Cu  Cu76  1  0.18516816  0.33283809  0.08383633  1
  Cu  Cu77  1  0.68349929  0.33112631  0.08302943  1
  Cu  Cu78  1  0.31524864  0.66297430  0.91708503  1
  Cu  Cu79  1  0.81479388  0.66296728  0.91861869  1
  Cu  Cu80  1  0.01975685  0.37365605  0.91657367  1
  Cu  Cu81  1  0.51988929  0.37307762  0.91642124  1
  Cu  Cu82  1  0.16507896  0.96504199  0.91795880  1
  Cu  Cu83  1  0.66516217  0.96465030  0.91682459  1
  Cu  Cu84  1  0.31470842  0.96211304  0.41811027  1
  Cu  Cu85  1  0.81495093  0.96720881  0.41816893  1
  Cu  Cu86  1  0.16609289  0.36859463  0.41628611  1
  Cu  Cu87  1  0.66573160  0.36655263  0.41726853  1
  Cu  Cu88  1  0.01974267  0.66457798  0.41678819  1
  Cu  Cu89  1  0.51900472  0.66754310  0.41481114  1
  C  C90  1  0.11180421  0.02737833  0.30515076  1
  C  C91  1  0.60636215  0.03277131  0.30336722  1
  C  C92  1  0.40726121  0.78438359  0.30321270  1
  C  C93  1  0.91042704  0.78099459  0.30990358  1
  C  C94  1  0.48608374  0.18640387  0.30446416  1
  C  C95  1  0.98888551  0.19341846  0.30394828  1
  C  C96  1  0.11029025  0.18183398  0.80343021  1
  C  C97  1  0.61045600  0.18202464  0.80337962  1
  C  C98  1  0.48746864  0.78661088  0.80413183  1
  C  C99  1  0.98721526  0.78634748  0.80411856  1
  C  C100  1  0.41037124  0.04026473  0.80965439  1
  C  C101  1  0.91034741  0.03986641  0.80975810  1
  C  C102  1  0.39054389  0.95979095  0.69023500  1
  C  C103  1  0.89051288  0.95957158  0.69020175  1
  C  C104  1  0.09417623  0.21359099  0.69601351  1
  C  C105  1  0.59431294  0.21380924  0.69598945  1
  C  C106  1  0.01943569  0.81821842  0.69658781  1
  C  C107  1  0.51929214  0.81799202  0.69659430  1
  C  C108  1  0.39202606  0.81004425  0.19539072  1
  C  C109  1  0.89136269  0.82097732  0.19013095  1
  C  C110  1  0.01880767  0.22708047  0.19584107  1
  C  C111  1  0.51291316  0.21078180  0.19643821  1
  C  C112  1  0.09693341  0.97488276  0.19608113  1
  C  C113  1  0.59155928  0.97294783  0.19614128  1
  C  C114  1  0.44620364  0.36132691  0.63917536  1
  C  C115  1  0.94585722  0.36087295  0.63903725  1
  C  C116  1  0.23647685  0.11491300  0.63642916  1
  C  C117  1  0.73538828  0.11077338  0.63848321  1
  C  C118  1  0.32244381  0.52718392  0.63964632  1
  C  C119  1  0.82320524  0.52506235  0.63740479  1
  C  C120  1  0.44311351  0.52915907  0.14079438  1
  C  C121  1  0.94592729  0.53028071  0.13870031  1
  C  C122  1  0.31837927  0.12072320  0.13441458  1
  C  C123  1  0.82322583  0.12097169  0.13761695  1
  C  C124  1  0.23738189  0.35870262  0.13803564  1
  C  C125  1  0.73593805  0.35952444  0.13839365  1
  C  C126  1  0.22488824  0.30123108  0.03033109  1
  C  C127  1  0.72616306  0.30817846  0.03023635  1
  C  C128  1  0.42855052  0.54705238  0.03176836  1
  C  C129  1  0.92668731  0.54367321  0.03090644  1
  C  C130  1  0.34482227  0.13869114  0.02609239  1
  C  C131  1  0.84247134  0.14185612  0.02779718  1
  C  C132  1  0.22425039  0.13984458  0.52739697  1
  C  C133  1  0.72477625  0.14324330  0.53025401  1
  C  C134  1  0.34160679  0.53987316  0.53048753  1
  C  C135  1  0.84223314  0.54353625  0.52771104  1
  C  C136  1  0.42545190  0.30732770  0.53136100  1
  C  C137  1  0.92607204  0.30917865  0.53104166  1
  C  C138  1  0.27237682  0.69337488  0.96873758  1
  C  C139  1  0.77248871  0.68963962  0.97182382  1
  C  C140  1  0.07151676  0.46001371  0.96963181  1
  C  C141  1  0.57236310  0.45873874  0.96921115  1
  C  C142  1  0.15385022  0.86012949  0.97260452  1
  C  C143  1  0.65444702  0.85742830  0.96989863  1
  C  C144  1  0.27547186  0.86032756  0.47381427  1
  C  C145  1  0.77300578  0.85576529  0.47181335  1
  C  C146  1  0.15347056  0.44659828  0.47055339  1
  C  C147  1  0.65494563  0.45261972  0.46995851  1
  C  C148  1  0.07517343  0.68895881  0.46887715  1
  C  C149  1  0.57222391  0.69145730  0.46810039  1
  C  C150  1  0.05800114  0.64374650  0.36062106  1
  C  C151  1  0.55891902  0.64487690  0.35915792  1
  C  C152  1  0.25793311  0.88001747  0.36569339  1
  C  C153  1  0.76446417  0.88883613  0.36291713  1
  C  C154  1  0.17840107  0.47337430  0.36218797  1
  C  C155  1  0.68065807  0.47173481  0.36158113  1
  C  C156  1  0.05914202  0.47275293  0.86052465  1
  C  C157  1  0.55897977  0.47275895  0.86029681  1
  C  C158  1  0.17899963  0.88462881  0.86358739  1
  C  C159  1  0.68011734  0.88899222  0.86142112  1
  C  C160  1  0.26572518  0.63843102  0.86096799  1
  C  C161  1  0.76465370  0.64033632  0.86306568  1
  C  C162  1  0.01294700  0.82632797  0.41460352  1
  C  C163  1  0.50986762  0.82432641  0.41049786  1
  C  C164  1  0.40141818  0.98097305  0.41155062  1
  C  C165  1  0.90157136  0.97953158  0.41404158  1
  C  C166  1  0.08860518  0.19009978  0.41125486  1
  C  C167  1  0.58862100  0.19237683  0.41229036  1
  C  C168  1  0.01003632  0.19703187  0.91481728  1
  C  C169  1  0.50992098  0.19650789  0.91442687  1
  C  C170  1  0.08780993  0.98404691  0.91201302  1
  C  C171  1  0.58816860  0.98443845  0.91138459  1
  C  C172  1  0.40205618  0.82299742  0.91320701  1
  C  C173  1  0.90154604  0.82390088  0.91442516  1
  C  C174  1  0.49030340  0.17708374  0.58637588  1
  C  C175  1  0.98996740  0.17702538  0.58617265  1
  C  C176  1  0.09587424  0.01627254  0.58824358  1
  C  C177  1  0.59550242  0.01483454  0.58923188  1
  C  C178  1  0.41170083  0.80298178  0.58520107  1
  C  C179  1  0.91198358  0.80345628  0.58433014  1
  C  C180  1  0.49098424  0.80586693  0.08867407  1
  C  C181  1  0.99278025  0.80548722  0.08577503  1
  C  C182  1  0.41087165  0.01882539  0.08794452  1
  C  C183  1  0.91214975  0.02115554  0.08478113  1
  C  C184  1  0.09829409  0.17049386  0.08969296  1
  C  C185  1  0.59629647  0.17706736  0.08858631  1
  C  C186  1  0.34016672  0.17444141  0.74475553  1
  C  C187  1  0.84046665  0.17443439  0.74502126  1
  C  C188  1  0.23647450  0.32249212  0.74369302  1
  C  C189  1  0.73675200  0.32317299  0.74363217  1
  C  C190  1  0.41951495  0.53522169  0.74417053  1
  C  C191  1  0.91940201  0.53539091  0.74395810  1
  C  C192  1  0.34617378  0.53144044  0.24487356  1
  C  C193  1  0.84008740  0.50625273  0.24535516  1
  C  C194  1  0.42025903  0.31260631  0.24446358  1
  C  C195  1  0.92134283  0.30950879  0.24462233  1
  C  C196  1  0.23857187  0.15636941  0.24392438  1
  C  C197  1  0.73408676  0.15044154  0.24409682  1
  C  C198  1  0.32352749  0.50670759  0.92363329  1
  C  C199  1  0.82426002  0.50758273  0.92374377  1
  C  C200  1  0.43057669  0.35001970  0.92087508  1
  C  C201  1  0.93031010  0.34950351  0.92081561  1
  C  C202  1  0.24668178  0.13716149  0.92222972  1
  C  C203  1  0.74708585  0.13740883  0.92158713  1
  C  C204  1  0.32060092  0.13565924  0.42236609  1
  C  C205  1  0.82440168  0.14140107  0.42338697  1
  C  C206  1  0.24394684  0.34613958  0.42098309  1
  C  C207  1  0.74738440  0.35711714  0.42220027  1
  C  C208  1  0.43190163  0.50899279  0.42003978  1
  C  C209  1  0.93048838  0.51313015  0.42242122  1
  C  C210  1  0.17494639  0.48705657  0.07753180  1
  C  C211  1  0.67919526  0.49458743  0.07767402  1
  C  C212  1  0.07194987  0.65242631  0.07665709  1
  C  C213  1  0.56911658  0.64716767  0.07963010  1
  C  C214  1  0.25259365  0.86359623  0.07803153  1
  C  C215  1  0.75599973  0.86121579  0.07911352  1
  C  C216  1  0.17787586  0.86261513  0.57768291  1
  C  C217  1  0.67830820  0.86282075  0.57783719  1
  C  C218  1  0.25555330  0.65043792  0.57975811  1
  C  C219  1  0.75585273  0.65078098  0.57886850  1
  C  C220  1  0.07013442  0.49341427  0.57651334  1
  C  C221  1  0.57006728  0.49316071  0.57645747  1
  C  C222  1  0.15537174  0.83902696  0.25550977  1
  C  C223  1  0.65157915  0.83961994  0.25582662  1
  C  C224  1  0.26497898  0.68526602  0.25582121  1
  C  C225  1  0.75349108  0.68322215  0.25548031  1
  C  C226  1  0.07721937  0.48075355  0.25575725  1
  C  C227  1  0.57550588  0.46655202  0.25424544  1
  C  C228  1  0.15200253  0.46462847  0.75608301  1
  C  C229  1  0.65229396  0.46496603  0.75613781  1
  C  C230  1  0.07504917  0.67727689  0.75598248  1
  C  C231  1  0.57515329  0.67725547  0.75581908  1
  C  C232  1  0.25293460  0.82525482  0.75531989  1
  C  C233  1  0.75312084  0.82457003  0.75538028  1
