# generated using pymatgen
data_CuNiC10
_symmetry_space_group_name_H-M   'P 1'
_cell_length_a   6.67151262
_cell_length_b   6.35238445
_cell_length_c   6.37460709
_cell_angle_alpha   74.09817111
_cell_angle_beta   58.44692674
_cell_angle_gamma   58.32376087
_symmetry_Int_Tables_number   1
_chemical_formula_structural   CuNiC10
_chemical_formula_sum   'Cu1 Ni1 C10'
_cell_volume   195.91946530
_cell_formula_units_Z   1
loop_
 _symmetry_equiv_pos_site_id
 _symmetry_equiv_pos_as_xyz
  1  'x, y, z'
loop_
 _atom_site_type_symbol
 _atom_site_label
 _atom_site_symmetry_multiplicity
 _atom_site_fract_x
 _atom_site_fract_y
 _atom_site_fract_z
 _atom_site_occupancy
  Ni  Ni0  1  0.99303080  0.00000000  -0.00000000  1
  Cu  Cu1  1  0.74845264  0.50000000  0.50000000  1
  C  C2  1  0.24776639  0.50000000  0.50000000  1
  C  C3  1  0.67125401  0.84033324  0.95830456  1
  C  C4  1  0.46989181  0.15966676  0.04169544  1
  C  C5  1  0.34889568  0.95813073  0.15841797  1
  C  C6  1  0.46544437  0.04186927  0.84158203  1
  C  C7  1  0.90978659  0.42846019  0.83385575  1
  C  C8  1  0.17210352  0.57153981  0.16614425  1
  C  C9  1  0.25237375  0.83421467  0.57261864  1
  C  C10  1  0.65920606  0.16578533  0.42738136  1
  C  C11  1  0.48887738  0.00000000  -0.00000000  1
