# generated using pymatgen
data_Cu2Ni12C49
_symmetry_space_group_name_H-M   'P 1'
_cell_length_a   9.24816595
_cell_length_b   9.24816562
_cell_length_c   22.66108547
_cell_angle_alpha   90.00000000
_cell_angle_beta   90.00000000
_cell_angle_gamma   120.00000121
_symmetry_Int_Tables_number   1
_chemical_formula_structural   Cu2Ni12C49
_chemical_formula_sum   'Cu4 Ni24 C98'
_cell_volume   1678.50464789
_cell_formula_units_Z   2
loop_
 _symmetry_equiv_pos_site_id
 _symmetry_equiv_pos_as_xyz
  1  'x, y, z'
loop_
 _atom_site_type_symbol
 _atom_site_label
 _atom_site_symmetry_multiplicity
 _atom_site_fract_x
 _atom_site_fract_y
 _atom_site_fract_z
 _atom_site_occupancy
  Ni  Ni0  1  0.64467883  0.02262938  0.24672452  1
  Ni  Ni1  1  0.37795055  0.35532117  0.24672452  1
  Ni  Ni2  1  0.97737062  0.62204945  0.24672452  1
  Ni  Ni3  1  0.64467883  0.62204945  0.74672452  1
  Ni  Ni4  1  0.97737062  0.35532117  0.74672452  1
  Ni  Ni5  1  0.37795055  0.02262938  0.74672452  1
  Ni  Ni6  1  0.31091907  0.33548302  0.58665136  1
  Ni  Ni7  1  0.02456495  0.68908093  0.58665136  1
  Ni  Ni8  1  0.66451698  0.97543505  0.58665136  1
  Ni  Ni9  1  0.31091907  0.97543505  0.08665136  1
  Ni  Ni10  1  0.66451698  0.68908093  0.08665136  1
  Ni  Ni11  1  0.02456495  0.33548302  0.08665136  1
  Ni  Ni12  1  0.96515961  0.68386820  0.90889769  1
  Ni  Ni13  1  0.71870759  0.03484039  0.90889769  1
  Ni  Ni14  1  0.31613180  0.28129241  0.90889769  1
  Ni  Ni15  1  0.96515961  0.28129241  0.40889769  1
  Ni  Ni16  1  0.31613180  0.03484039  0.40889769  1
  Ni  Ni17  1  0.71870759  0.68386820  0.40889769  1
  Ni  Ni18  1  -0.00000000  0.00000000  0.49519501  1
  Ni  Ni19  1  -0.00000000  0.00000000  0.99519501  1
  Ni  Ni20  1  0.66666700  0.33333300  0.82141634  1
  Ni  Ni21  1  0.66666700  0.33333300  0.32141634  1
  Ni  Ni22  1  0.33333300  0.66666700  0.16902646  1
  Ni  Ni23  1  0.33333300  0.66666700  0.66902646  1
  Cu  Cu24  1  -0.00000000  0.00000000  0.35378081  1
  Cu  Cu25  1  -0.00000000  0.00000000  0.85378081  1
  Cu  Cu26  1  0.66666700  0.33333300  0.67887771  1
  Cu  Cu27  1  0.66666700  0.33333300  0.17887771  1
  C  C28  1  -0.00000000  0.00000000  0.64991504  1
  C  C29  1  -0.00000000  0.00000000  0.14991504  1
  C  C30  1  0.66666700  0.33333300  0.98049291  1
  C  C31  1  0.66666700  0.33333300  0.48049291  1
  C  C32  1  0.33333300  0.66666700  0.01822395  1
  C  C33  1  0.33333300  0.66666700  0.51822395  1
  C  C34  1  0.33333300  0.66666700  0.31202927  1
  C  C35  1  0.33333300  0.66666700  0.81202927  1
  C  C36  1  0.29396015  0.99503163  0.25298020  1
  C  C37  1  0.70107148  0.70603985  0.25298020  1
  C  C38  1  0.00496837  0.29892852  0.25298020  1
  C  C39  1  0.29396015  0.29892852  0.75298020  1
  C  C40  1  0.00496837  0.70603985  0.75298020  1
  C  C41  1  0.70107148  0.99503163  0.75298020  1
  C  C42  1  0.96676978  0.33291013  0.58251060  1
  C  C43  1  0.36614135  0.03323022  0.58251060  1
  C  C44  1  0.66708987  0.63385865  0.58251060  1
  C  C45  1  0.96676978  0.63385865  0.08251060  1
  C  C46  1  0.66708987  0.03323022  0.08251060  1
  C  C47  1  0.36614135  0.33291013  0.08251060  1
  C  C48  1  0.61567658  0.65594899  0.91766501  1
  C  C49  1  0.04027141  0.38432342  0.91766501  1
  C  C50  1  0.34405101  0.95972859  0.91766501  1
  C  C51  1  0.61567658  0.95972859  0.41766501  1
  C  C52  1  0.34405101  0.38432342  0.41766501  1
  C  C53  1  0.04027141  0.65594899  0.41766501  1
  C  C54  1  0.22172310  0.02664962  0.31206913  1
  C  C55  1  0.80492652  0.77827690  0.31206913  1
  C  C56  1  0.97335038  0.19507348  0.31206913  1
  C  C57  1  0.22172310  0.19507348  0.81206913  1
  C  C58  1  0.97335038  0.77827690  0.81206913  1
  C  C59  1  0.80492652  0.02664962  0.81206913  1
  C  C60  1  0.80589630  0.97148084  0.69383214  1
  C  C61  1  0.16558454  0.19410370  0.69383214  1
  C  C62  1  0.02851916  0.83441546  0.69383214  1
  C  C63  1  0.80589630  0.83441546  0.19383214  1
  C  C64  1  0.02851916  0.19410370  0.19383214  1
  C  C65  1  0.16558454  0.97148084  0.19383214  1
  C  C66  1  0.91283515  0.38956761  0.64054235  1
  C  C67  1  0.47673345  0.08716485  0.64054235  1
  C  C68  1  0.61043239  0.52326655  0.64054235  1
  C  C69  1  0.91283515  0.52326655  0.14054235  1
  C  C70  1  0.61043239  0.08716485  0.14054235  1
  C  C71  1  0.47673345  0.38956761  0.14054235  1
  C  C72  1  0.47073057  0.30309877  0.02714332  1
  C  C73  1  0.83236920  0.52926943  0.02714332  1
  C  C74  1  0.69690123  0.16763080  0.02714332  1
  C  C75  1  0.47073057  0.16763080  0.52714332  1
  C  C76  1  0.69690123  0.52926943  0.52714332  1
  C  C77  1  0.83236920  0.30309877  0.52714332  1
  C  C78  1  0.51081751  0.66744173  0.97383471  1
  C  C79  1  0.15662322  0.48918249  0.97383471  1
  C  C80  1  0.33255827  0.84337678  0.97383471  1
  C  C81  1  0.51081751  0.84337678  0.47383471  1
  C  C82  1  0.33255827  0.48918249  0.47383471  1
  C  C83  1  0.15662322  0.66744173  0.47383471  1
  C  C84  1  0.13621482  0.63250187  0.35914740  1
  C  C85  1  0.49628606  0.86378518  0.35914740  1
  C  C86  1  0.36749813  0.50371394  0.35914740  1
  C  C87  1  0.13621482  0.50371394  0.85914740  1
  C  C88  1  0.36749813  0.86378518  0.85914740  1
  C  C89  1  0.49628606  0.63250187  0.85914740  1
  C  C90  1  0.02100490  0.81802259  0.42161881  1
  C  C91  1  0.79701769  0.97899510  0.42161881  1
  C  C92  1  0.18197741  0.20298231  0.42161881  1
  C  C93  1  0.02100490  0.20298231  0.92161881  1
  C  C94  1  0.18197741  0.97899510  0.92161881  1
  C  C95  1  0.79701769  0.81802259  0.92161881  1
  C  C96  1  0.97602553  0.15864184  0.58858768  1
  C  C97  1  0.18261631  0.02397447  0.58858768  1
  C  C98  1  0.84135816  0.81738369  0.58858768  1
  C  C99  1  0.97602553  0.81738369  0.08858768  1
  C  C100  1  0.84135816  0.02397447  0.08858768  1
  C  C101  1  0.18261631  0.15864184  0.08858768  1
  C  C102  1  0.66928931  0.14876085  0.74482437  1
  C  C103  1  0.47947254  0.33071069  0.74482437  1
  C  C104  1  0.85123915  0.52052746  0.74482437  1
  C  C105  1  0.66928931  0.52052746  0.24482437  1
  C  C106  1  0.85123915  0.33071069  0.24482437  1
  C  C107  1  0.47947254  0.14876085  0.24482437  1
  C  C108  1  0.62567553  0.48168902  0.92442598  1
  C  C109  1  0.85601449  0.37432447  0.92442598  1
  C  C110  1  0.51831098  0.14398551  0.92442598  1
  C  C111  1  0.62567553  0.14398551  0.42442598  1
  C  C112  1  0.51831098  0.37432447  0.42442598  1
  C  C113  1  0.85601449  0.48168902  0.42442598  1
  C  C114  1  0.33053836  0.48916253  0.07003475  1
  C  C115  1  0.15862317  0.66946164  0.07003475  1
  C  C116  1  0.51083747  0.84137683  0.07003475  1
  C  C117  1  0.33053836  0.84137683  0.57003475  1
  C  C118  1  0.51083747  0.66946164  0.57003475  1
  C  C119  1  0.15862317  0.48916253  0.57003475  1
  C  C120  1  0.29281159  0.81261824  0.25552413  1
  C  C121  1  0.51980565  0.70718841  0.25552413  1
  C  C122  1  0.18738176  0.48019435  0.25552413  1
  C  C123  1  0.29281159  0.48019435  0.75552413  1
  C  C124  1  0.18738176  0.70718841  0.75552413  1
  C  C125  1  0.51980565  0.81261824  0.75552413  1
