# generated using pymatgen
data_Cu8Ni8C25
_symmetry_space_group_name_H-M   'P 1'
_cell_length_a   5.61120152
_cell_length_b   11.15791002
_cell_length_c   11.22610059
_cell_angle_alpha   53.78365916
_cell_angle_beta   53.95579577
_cell_angle_gamma   54.09362883
_symmetry_Int_Tables_number   1
_chemical_formula_structural   Cu8Ni8C25
_chemical_formula_sum   'Cu8 Ni8 C25'
_cell_volume   426.67630212
_cell_formula_units_Z   1
loop_
 _symmetry_equiv_pos_site_id
 _symmetry_equiv_pos_as_xyz
  1  'x, y, z'
loop_
 _atom_site_type_symbol
 _atom_site_label
 _atom_site_symmetry_multiplicity
 _atom_site_fract_x
 _atom_site_fract_y
 _atom_site_fract_z
 _atom_site_occupancy
  C  C0  1  0.99524000  0.99974600  0.50148200  1
  Ni  Ni1  1  0.35419400  0.18170200  0.16464200  1
  Ni  Ni2  1  0.18731400  0.08062000  0.59230300  1
  Ni  Ni3  1  0.14923700  0.57902500  0.06354800  1
  Ni  Ni4  1  0.13902200  0.58244700  0.56631400  1
  Ni  Ni5  1  0.83869800  0.42294600  0.43413600  1
  Ni  Ni6  1  0.86063800  0.42785000  0.92416200  1
  Ni  Ni7  1  0.84496800  0.90985500  0.39781800  1
  Ni  Ni8  1  0.82353500  0.92945400  0.93308000  1
  Cu  Cu9  1  0.14371800  0.07424800  0.07382000  1
  Cu  Cu10  1  0.35060300  0.66857800  0.17188100  1
  Cu  Cu11  1  0.36161600  0.18508800  0.68569200  1
  Cu  Cu12  1  0.64800200  0.32729900  0.32047900  1
  Cu  Cu13  1  0.34183600  0.67149000  0.67811800  1
  Cu  Cu14  1  0.65312300  0.32889100  0.82397700  1
  Cu  Cu15  1  0.65000600  0.80926700  0.31818100  1
  Cu  Cu16  1  0.63805500  0.82424000  0.83150000  1
  C  C17  1  0.06944700  0.37377000  0.21228700  1
  C  C18  1  0.41219800  0.03629100  0.37609800  1
  C  C19  1  0.72757900  0.22252800  0.03555100  1
  C  C20  1  0.23379200  0.28589200  0.47182400  1
  C  C21  1  0.56274600  0.47166700  0.11212400  1
  C  C22  1  0.04503500  0.38576700  0.72578200  1
  C  C23  1  0.05006500  0.86795500  0.21756000  1
  C  C24  1  0.94374100  0.11037800  0.29061100  1
  C  C25  1  0.46215100  0.02220800  0.87711100  1
  C  C26  1  0.43980400  0.52377100  0.38571100  1
  C  C27  1  0.78690700  0.21347900  0.52614600  1
  C  C28  1  0.76442700  0.71733000  0.02765400  1
  C  C29  1  0.22708200  0.28472600  0.97701600  1
  C  C30  1  0.21570000  0.78653600  0.47058900  1
  C  C31  1  0.56144300  0.47039400  0.61551300  1
  C  C32  1  0.56160400  0.97626900  0.11724400  1
  C  C33  1  0.06766600  0.89263200  0.70571200  1
  C  C34  1  0.94920200  0.11432300  0.78795900  1
  C  C35  1  0.94853400  0.60553000  0.27900400  1
  C  C36  1  0.43551500  0.52870700  0.88265900  1
  C  C37  1  0.74521800  0.71338000  0.53055300  1
  C  C38  1  0.22233600  0.77759500  0.97117700  1
  C  C39  1  0.58753700  0.96901500  0.61244900  1
  C  C40  1  0.94097000  0.61735500  0.78078300  1
