# generated using pymatgen
data_CuNi3C
_symmetry_space_group_name_H-M   'P 1'
_cell_length_a   14.27481600
_cell_length_b   6.22247800
_cell_length_c   6.25415929
_cell_angle_alpha   87.69728263
_cell_angle_beta   90.00000000
_cell_angle_gamma   90.00000000
_symmetry_Int_Tables_number   1
_chemical_formula_structural   CuNi3C
_chemical_formula_sum   'Cu4 Ni12 C4'
_cell_volume   555.07541038
_cell_formula_units_Z   4
loop_
 _symmetry_equiv_pos_site_id
 _symmetry_equiv_pos_as_xyz
  1  'x, y, z'
loop_
 _atom_site_type_symbol
 _atom_site_label
 _atom_site_symmetry_multiplicity
 _atom_site_fract_x
 _atom_site_fract_y
 _atom_site_fract_z
 _atom_site_occupancy
  C  C0  1  0.66470700  0.30340500  0.96883300  1
  C  C1  1  0.16470700  0.19659500  0.03116700  1
  C  C2  1  0.33529300  0.69659500  0.03116700  1
  C  C3  1  0.83529300  0.80340500  0.96883300  1
  Ni  Ni4  1  0.92844900  0.64719800  0.71596900  1
  Ni  Ni5  1  0.42844900  0.85280200  0.28403100  1
  Ni  Ni6  1  0.07155100  0.35280200  0.28403100  1
  Ni  Ni7  1  0.57155100  0.14719800  0.71596900  1
  Ni  Ni8  1  0.68750800  0.61134000  0.73584800  1
  Ni  Ni9  1  0.18750800  0.88866000  0.26415200  1
  Ni  Ni10  1  0.31249200  0.38866000  0.26415200  1
  Ni  Ni11  1  0.81249200  0.11134000  0.73584800  1
  Ni  Ni12  1  0.80611300  0.44630600  0.15883400  1
  Ni  Ni13  1  0.30611300  0.05369400  0.84116600  1
  Ni  Ni14  1  0.19388700  0.55369400  0.84116600  1
  Ni  Ni15  1  0.69388700  0.94630600  0.15883400  1
  Cu  Cu16  1  0.58596300  0.38411000  0.15043300  1
  Cu  Cu17  1  0.08596300  0.11589000  0.84956700  1
  Cu  Cu18  1  0.41403700  0.61589000  0.84956700  1
  Cu  Cu19  1  0.91403700  0.88411000  0.15043300  1
