# generated using pymatgen
data_CuNiC12
_symmetry_space_group_name_H-M   'P 1'
_cell_length_a   9.59923009
_cell_length_b   9.65485983
_cell_length_c   23.11500696
_cell_angle_alpha   89.35298437
_cell_angle_beta   88.87331420
_cell_angle_gamma   120.29315223
_symmetry_Int_Tables_number   1
_chemical_formula_structural   CuNiC12
_chemical_formula_sum   'Cu9 Ni9 C108'
_cell_volume   1848.84897304
_cell_formula_units_Z   9
loop_
 _symmetry_equiv_pos_site_id
 _symmetry_equiv_pos_as_xyz
  1  'x, y, z'
loop_
 _atom_site_type_symbol
 _atom_site_label
 _atom_site_symmetry_multiplicity
 _atom_site_fract_x
 _atom_site_fract_y
 _atom_site_fract_z
 _atom_site_occupancy
  C  C0  1  0.63896061  0.02910305  0.26109332  1
  C  C1  1  0.35383631  0.34182615  0.25254093  1
  C  C2  1  0.99677178  0.61979466  0.24178684  1
  C  C3  1  0.62427209  0.61439050  0.72977018  1
  C  C4  1  0.98364508  0.34682487  0.73266983  1
  C  C5  1  0.40249063  0.03731971  0.75002849  1
  C  C6  1  0.30480004  0.36040305  0.59334495  1
  C  C7  1  0.01956839  0.67558621  0.58350659  1
  C  C8  1  0.66502795  0.95127171  0.57987934  1
  C  C9  1  0.28589739  0.93632374  0.08260722  1
  C  C10  1  0.67123826  0.69322084  0.07956173  1
  C  C11  1  0.03725749  0.35480132  0.09664982  1
  C  C12  1  0.98238881  0.70443012  0.91587500  1
  C  C13  1  0.69117370  0.02143953  0.89790514  1
  C  C14  1  0.30634036  0.25797485  0.90033088  1
  C  C15  1  0.95188814  0.26591457  0.41712129  1
  C  C16  1  0.33507429  0.02742537  0.40755094  1
  C  C17  1  0.70771410  0.69533798  0.43088520  1
  C  C18  1  0.96863006  0.99613855  0.50055416  1
  C  C19  1  0.00768204  0.97934139  0.99140198  1
  C  C20  1  0.64486122  0.31315917  0.81628336  1
  C  C21  1  0.66306393  0.30205159  0.32738941  1
  C  C22  1  0.30368672  0.66348223  0.16789603  1
  C  C23  1  0.33873559  0.65090824  0.65832499  1
  C  C24  1  0.99699982  0.00926935  0.65162752  1
  C  C25  1  0.00850591  0.00192956  0.15790327  1
  C  C26  1  0.66264100  0.32934375  0.98782301  1
  C  C27  1  0.67345545  0.33088653  0.49071713  1
  C  C28  1  0.33368687  0.67530920  0.32029470  1
  C  C29  1  0.34267356  0.67574052  0.81798390  1
  C  C30  1  0.00893136  0.02749357  0.34162222  1
  C  C31  1  0.01116460  0.02395395  0.82389944  1
  C  C32  1  0.68037163  0.34877661  0.67652002  1
  C  C33  1  0.69201574  0.33140437  0.19014010  1
  C  C34  1  0.26457573  0.66874735  0.01060593  1
  C  C35  1  0.36700053  0.66738747  0.52272952  1
  Ni  Ni36  1  0.31347305  0.01530099  0.24994082  1
  Ni  Ni37  1  0.99751405  0.30603010  0.24910901  1
  Ni  Ni38  1  0.31758207  0.30543850  0.74920218  1
  Ni  Ni39  1  0.70357060  0.01216286  0.75359153  1
  Ni  Ni40  1  0.98653218  0.35281260  0.58174926  1
  Ni  Ni41  1  0.66582525  0.63350477  0.58291101  1
  Ni  Ni42  1  0.96409445  0.62784755  0.08497041  1
  Ni  Ni43  1  0.32510738  0.97251512  0.91913085  1
  Ni  Ni44  1  0.64313583  0.96487173  0.41644893  1
  Cu  Cu45  1  0.69763857  0.68561741  0.25137399  1
  Cu  Cu46  1  0.98955220  0.69511490  0.75440992  1
  Cu  Cu47  1  0.36482876  0.01806308  0.58536647  1
  Cu  Cu48  1  0.65785948  0.01893647  0.08584250  1
  Cu  Cu49  1  0.36326446  0.34783020  0.08492714  1
  Cu  Cu50  1  0.63790359  0.67343763  0.92274767  1
  Cu  Cu51  1  0.03659629  0.35767059  0.92251964  1
  Cu  Cu52  1  0.32544421  0.35545311  0.41763911  1
  Cu  Cu53  1  0.02730940  0.67771555  0.41792969  1
  C  C54  1  0.21038101  0.03311915  0.30533438  1
  C  C55  1  0.79935659  0.77796912  0.29953764  1
  C  C56  1  0.97368535  0.18864871  0.30491850  1
  C  C57  1  0.22805782  0.18967900  0.80799473  1
  C  C58  1  0.98163695  0.78493021  0.80548971  1
  C  C59  1  0.81051723  0.01801230  0.81101944  1
  C  C60  1  0.77744637  0.97320017  0.69630007  1
  C  C61  1  0.20369771  0.22380594  0.69393151  1
  C  C62  1  0.01613834  0.78927307  0.70029327  1
  C  C63  1  0.76282802  0.77730021  0.19525446  1
  C  C64  1  0.01860128  0.23071583  0.18825908  1
  C  C65  1  0.21096045  0.97987490  0.19017176  1
  C  C66  1  0.88683738  0.37038716  0.63825677  1
  C  C67  1  0.46458345  0.10981904  0.63405600  1
  C  C68  1  0.64801057  0.51784136  0.63870280  1
  C  C69  1  0.86492838  0.50996402  0.14102717  1
  C  C70  1  0.64389315  0.10590566  0.13551468  1
  C  C71  1  0.45578475  0.35282034  0.13545574  1
  C  C72  1  0.43905386  0.32659972  0.03098150  1
  C  C73  1  0.87193887  0.55397895  0.02404025  1
  C  C74  1  0.67984899  0.11271053  0.03094179  1
  C  C75  1  0.42967732  0.11064411  0.52960266  1
  C  C76  1  0.67990451  0.55542655  0.52192481  1
  C  C77  1  0.87948612  0.31656842  0.52328920  1
  C  C78  1  0.54675918  0.67548884  0.97497471  1
  C  C79  1  0.13460241  0.44833730  0.97324595  1
  C  C80  1  0.31011630  0.86847133  0.97921406  1
  C  C81  1  0.54176222  0.84407676  0.47264043  1
  C  C82  1  0.31382957  0.44434497  0.46739765  1
  C  C83  1  0.12285016  0.68262106  0.46793084  1
  C  C84  1  0.09988584  0.65657011  0.36325727  1
  C  C85  1  0.54437993  0.89247762  0.35649360  1
  C  C86  1  0.34470855  0.44560067  0.36238303  1
  C  C87  1  0.11318122  0.45268480  0.86812217  1
  C  C88  1  0.35783547  0.88996254  0.86316372  1
  C  C89  1  0.54516553  0.65460886  0.87004842  1
  C  C90  1  0.02129991  0.82904129  0.41455592  1
  C  C91  1  0.82455859  0.97987804  0.41300269  1
  C  C92  1  0.17531979  0.19363680  0.41687882  1
  C  C93  1  0.02448109  0.20071349  0.92178933  1
  C  C94  1  0.15859760  0.97939174  0.91591749  1
  C  C95  1  0.79863262  0.82466488  0.91901933  1
  C  C96  1  0.01741400  0.19919357  0.58527210  1
  C  C97  1  0.19572769  0.98606494  0.59047082  1
  C  C98  1  0.82832016  0.81464264  0.58343307  1
  C  C99  1  0.99023152  0.81148301  0.08675738  1
  C  C100  1  0.80446660  0.00043452  0.08811749  1
  C  C101  1  0.19429232  0.20502848  0.08596678  1
  C  C102  1  0.70347095  0.18189359  0.74956552  1
  C  C103  1  0.49598739  0.32013635  0.74284400  1
  C  C104  1  0.83674951  0.53766704  0.75307890  1
  C  C105  1  0.68959178  0.52780833  0.24884686  1
  C  C106  1  0.83338380  0.32123122  0.25029287  1
  C  C107  1  0.49158112  0.18483390  0.24450279  1
  C  C108  1  0.66582117  0.53355414  0.92357381  1
  C  C109  1  0.87141603  0.33765288  0.92540144  1
  C  C110  1  0.48622372  0.15760490  0.92057858  1
  C  C111  1  0.66077797  0.14610627  0.41914273  1
  C  C112  1  0.46888031  0.33296741  0.42017921  1
  C  C113  1  0.85884945  0.53670935  0.42004422  1
  C  C114  1  0.35587424  0.49789622  0.08045351  1
  C  C115  1  0.14479410  0.63849035  0.08410966  1
  C  C116  1  0.51130794  0.85656558  0.08366148  1
  C  C117  1  0.35932829  0.86137086  0.58270758  1
  C  C118  1  0.50187092  0.64992259  0.58486892  1
  C  C119  1  0.16373327  0.52311571  0.57600848  1
  C  C120  1  0.34267772  0.86046322  0.25478466  1
  C  C121  1  0.52881001  0.65547148  0.25669936  1
  C  C122  1  0.15906385  0.48824898  0.25136197  1
  C  C123  1  0.33687942  0.48574246  0.75415851  1
  C  C124  1  0.12753601  0.66474253  0.75821926  1
  C  C125  1  0.51545929  0.86215714  0.75593016  1
