# generated using pymatgen
data_CuNi7C33
_symmetry_space_group_name_H-M   'P 1'
_cell_length_a   8.81959670
_cell_length_b   8.84000744
_cell_length_c   21.64262985
_cell_angle_alpha   90.07286796
_cell_angle_beta   90.00651555
_cell_angle_gamma   119.92109735
_symmetry_Int_Tables_number   1
_chemical_formula_structural   CuNi7C33
_chemical_formula_sum   'Cu3 Ni21 C99'
_cell_volume   1462.46760788
_cell_formula_units_Z   3
loop_
 _symmetry_equiv_pos_site_id
 _symmetry_equiv_pos_as_xyz
  1  'x, y, z'
loop_
 _atom_site_type_symbol
 _atom_site_label
 _atom_site_symmetry_multiplicity
 _atom_site_fract_x
 _atom_site_fract_y
 _atom_site_fract_z
 _atom_site_occupancy
  Ni  Ni0  1  0.64543494  0.00879136  0.24572838  1
  Ni  Ni1  1  0.36328582  0.35262388  0.24609998  1
  Ni  Ni2  1  0.99067214  0.63682693  0.24626865  1
  Ni  Ni3  1  0.62972789  0.62271893  0.74901063  1
  Ni  Ni4  1  0.99235206  0.37018466  0.74922982  1
  Ni  Ni5  1  0.37864829  0.00659440  0.74911188  1
  Ni  Ni6  1  0.02121606  0.68754857  0.58380936  1
  Ni  Ni7  1  0.66443659  0.97797618  0.58317734  1
  Ni  Ni8  1  0.31353232  0.97674256  0.08251022  1
  Ni  Ni9  1  0.66515503  0.68671141  0.08304713  1
  Ni  Ni10  1  0.69791034  0.03243177  0.91895193  1
  Ni  Ni11  1  0.33116604  0.30059309  0.91832928  1
  Ni  Ni12  1  0.96585382  0.29222778  0.41573315  1
  Ni  Ni13  1  0.32611758  0.03476138  0.41541715  1
  Ni  Ni14  1  0.70885547  0.67442758  0.41540152  1
  Ni  Ni15  1  0.01190671  0.01336902  0.50285397  1
  Ni  Ni16  1  0.99974047  0.99861682  0.99998460  1
  Ni  Ni17  1  0.68017233  0.34857289  0.83645168  1
  Ni  Ni18  1  0.66684310  0.33332143  0.32894903  1
  Ni  Ni19  1  0.31567375  0.64875442  0.16124273  1
  Ni  Ni20  1  0.33202815  0.64863292  0.66352761  1
  Cu  Cu21  1  0.99987330  0.00048986  0.35375472  1
  Cu  Cu22  1  0.66386956  0.33431472  0.68094509  1
  Cu  Cu23  1  0.67268499  0.33635810  0.16965146  1
  C  C24  1  0.99964393  0.99495002  0.85522397  1
  C  C25  1  0.00572667  0.00528483  0.64779367  1
  C  C26  1  0.00096461  0.00693459  0.14743111  1
  C  C27  1  0.67562467  0.34082634  0.98320225  1
  C  C28  1  0.66388042  0.33218343  0.48427708  1
  C  C29  1  0.32956197  0.66488993  0.01229694  1
  C  C30  1  0.33294861  0.66373914  0.51866438  1
  C  C31  1  0.33363630  0.66559308  0.31355131  1
  C  C32  1  0.32926272  0.66406117  0.81568752  1
  C  C33  1  0.29527629  0.98992577  0.24996772  1
  C  C34  1  0.69461179  0.70491747  0.25007586  1
  C  C35  1  0.00974832  0.30355544  0.25157154  1
  C  C36  1  0.27424942  0.28692006  0.75527713  1
  C  C37  1  0.01335422  0.72526610  0.75264599  1
  C  C38  1  0.71239327  0.98733761  0.75390451  1
  C  C39  1  0.97563882  0.33443258  0.58245155  1
  C  C40  1  0.36036714  0.02736658  0.58197685  1
  C  C41  1  0.66398332  0.63828614  0.58262653  1
  C  C42  1  0.97789665  0.63992842  0.08113998  1
  C  C43  1  0.66446918  0.02334542  0.07894979  1
  C  C44  1  0.35696791  0.33671070  0.07916874  1
  C  C45  1  0.62512460  0.66392828  0.91529803  1
  C  C46  1  0.03943487  0.37977793  0.91484064  1
  C  C47  1  0.33310107  0.95770308  0.91514415  1
  C  C48  1  0.60785815  0.95881613  0.42002473  1
  C  C49  1  0.35124344  0.39281178  0.41917595  1
  C  C50  1  0.04118168  0.64961644  0.41995281  1
  C  C51  1  0.22894971  0.02142952  0.31115502  1
  C  C52  1  0.79243375  0.77158604  0.31123089  1
  C  C53  1  0.97796199  0.21068526  0.31371857  1
  C  C54  1  0.18555446  0.18166880  0.81402269  1
  C  C55  1  0.99571973  0.82291633  0.80790095  1
  C  C56  1  0.82347833  0.00716521  0.81146072  1
  C  C57  1  0.79967426  0.96857600  0.69389601  1
  C  C58  1  0.16317023  0.19495771  0.69729088  1
  C  C59  1  0.03206304  0.82768803  0.69167129  1
  C  C60  1  0.79775563  0.82670011  0.19416743  1
  C  C61  1  0.02961959  0.19533395  0.19811321  1
  C  C62  1  0.17375800  0.97218874  0.19392921  1
  C  C63  1  0.91643677  0.38187383  0.64246291  1
  C  C64  1  0.46670378  0.08415650  0.64179070  1
  C  C65  1  0.62880553  0.54606828  0.64448284  1
  C  C66  1  0.93169896  0.55683573  0.14443010  1
  C  C67  1  0.61495666  0.07545312  0.13941523  1
  C  C68  1  0.45898008  0.38517150  0.13989386  1
  C  C69  1  0.46133926  0.30170975  0.02701632  1
  C  C70  1  0.83157333  0.52817825  0.03289540  1
  C  C71  1  0.68892565  0.15267415  0.02556949  1
  C  C72  1  0.46241703  0.15318106  0.52762363  1
  C  C73  1  0.69584665  0.53474250  0.53002861  1
  C  C74  1  0.84038593  0.30116217  0.52912897  1
  C  C75  1  0.53562178  0.69594128  0.97068607  1
  C  C76  1  0.16816801  0.47444806  0.96715318  1
  C  C77  1  0.31440995  0.84759874  0.97204597  1
  C  C78  1  0.50990399  0.85029499  0.47628610  1
  C  C79  1  0.33734584  0.49524224  0.47276078  1
  C  C80  1  0.15180714  0.66438861  0.47619778  1
  C  C81  1  0.12800464  0.63136324  0.35974491  1
  C  C82  1  0.50376785  0.87107003  0.35972922  1
  C  C83  1  0.37023412  0.49337403  0.35767245  1
  C  C84  1  0.11908520  0.48529869  0.85444355  1
  C  C85  1  0.36478949  0.87042949  0.85757111  1
  C  C86  1  0.50547366  0.62902712  0.85737954  1
  C  C87  1  0.01837803  0.81126312  0.42171096  1
  C  C88  1  0.79217333  0.98070678  0.42243500  1
  C  C89  1  0.19015024  0.20834631  0.42147561  1
  C  C90  1  0.01551136  0.19039638  0.91200343  1
  C  C91  1  0.17192119  0.98523792  0.91074779  1
  C  C92  1  0.80878192  0.83042988  0.90990129  1
  C  C93  1  0.97774393  0.16019014  0.58907617  1
  C  C94  1  0.17850369  0.01387524  0.58824818  1
  C  C95  1  0.83732110  0.82055770  0.58592766  1
  C  C96  1  0.98714769  0.82279249  0.08436676  1
  C  C97  1  0.83237727  0.00818961  0.08607284  1
  C  C98  1  0.17986215  0.16248740  0.08646803  1
  C  C99  1  0.69027102  0.14963982  0.75306488  1
  C  C100  1  0.45854264  0.30830271  0.75376437  1
  C  C101  1  0.85123543  0.54120601  0.75256140  1
  C  C102  1  0.66503351  0.51997227  0.24301864  1
  C  C103  1  0.85377984  0.33194948  0.24306417  1
  C  C104  1  0.48041538  0.14550387  0.24267873  1
  C  C105  1  0.64031083  0.49670640  0.92439686  1
  C  C106  1  0.85259493  0.35450428  0.92462107  1
  C  C107  1  0.50015641  0.14485949  0.92101243  1
  C  C108  1  0.62747876  0.14528087  0.42341568  1
  C  C109  1  0.51872104  0.37392817  0.42440821  1
  C  C110  1  0.85529885  0.48238293  0.42429620  1
  C  C111  1  0.33700417  0.49568956  0.06428077  1
  C  C112  1  0.16078149  0.66882819  0.06555010  1
  C  C113  1  0.50593137  0.83805067  0.06610308  1
  C  C114  1  0.32841894  0.83854653  0.57156829  1
  C  C115  1  0.51125032  0.67366979  0.57109416  1
  C  C116  1  0.15895056  0.49118380  0.57049524  1
  C  C117  1  0.29729603  0.81420205  0.25356487  1
  C  C118  1  0.51624889  0.70238069  0.25343127  1
  C  C119  1  0.18473815  0.48209359  0.25412642  1
  C  C120  1  0.29397527  0.47403332  0.75714018  1
  C  C121  1  0.18158349  0.70700955  0.75667303  1
  C  C122  1  0.52661696  0.81899185  0.75742962  1
