# generated using pymatgen
data_CuNiC16
_symmetry_space_group_name_H-M   'P 1'
_cell_length_a   8.86842903
_cell_length_b   8.86526559
_cell_length_c   23.06846709
_cell_angle_alpha   89.07318587
_cell_angle_beta   90.10541711
_cell_angle_gamma   119.89761479
_symmetry_Int_Tables_number   1
_chemical_formula_structural   CuNiC16
_chemical_formula_sum   'Cu6 Ni6 C96'
_cell_volume   1572.05211594
_cell_formula_units_Z   6
loop_
 _symmetry_equiv_pos_site_id
 _symmetry_equiv_pos_as_xyz
  1  'x, y, z'
loop_
 _atom_site_type_symbol
 _atom_site_label
 _atom_site_symmetry_multiplicity
 _atom_site_fract_x
 _atom_site_fract_y
 _atom_site_fract_z
 _atom_site_occupancy
  Ni  Ni0  1  0.00291431  0.00273613  0.49930902  1
  Ni  Ni1  1  0.99848790  0.99497873  0.00354778  1
  Ni  Ni2  1  0.66591039  0.31794527  0.83194319  1
  Ni  Ni3  1  0.64733510  0.32141081  0.33072430  1
  Ni  Ni4  1  0.31343631  0.66349514  0.16902620  1
  Ni  Ni5  1  0.33198563  0.66322857  0.66767215  1
  Cu  Cu6  1  0.01500803  0.00548192  0.34192239  1
  Cu  Cu7  1  0.00017809  0.00355323  0.85541551  1
  Cu  Cu8  1  0.66698854  0.33165089  0.68521656  1
  Cu  Cu9  1  0.66105494  0.33194286  0.48367198  1
  Cu  Cu10  1  0.32359354  0.66572242  0.02855057  1
  Cu  Cu11  1  0.33376345  0.66872273  0.52297304  1
  C  C12  1  0.31624629  0.00380598  0.24949684  1
  C  C13  1  0.69701303  0.98137056  0.75013571  1
  C  C14  1  0.94161658  0.61966325  0.08965882  1
  C  C15  1  0.98734353  0.99305044  0.65444483  1
  C  C16  1  0.01508308  0.96537196  0.15228701  1
  C  C17  1  0.66962691  0.32292014  0.18378047  1
  C  C18  1  0.69045226  0.36191195  0.98512030  1
  C  C19  1  0.33286997  0.68653345  0.31730462  1
  C  C20  1  0.34500017  0.68238104  0.81233735  1
  C  C21  1  0.69733470  0.69266839  0.24561460  1
  C  C22  1  0.00028919  0.30386205  0.24471583  1
  C  C23  1  0.28353322  0.30217944  0.74896478  1
  C  C24  1  0.01482325  0.71541811  0.74998673  1
  C  C25  1  0.97027969  0.31168617  0.58901970  1
  C  C26  1  0.33883037  0.02737922  0.59104817  1
  C  C27  1  0.68846709  0.65814912  0.58836370  1
  C  C28  1  0.68812382  0.06047066  0.08672177  1
  C  C29  1  0.37409391  0.31216298  0.08821956  1
  C  C30  1  0.61553832  0.64646242  0.91885555  1
  C  C31  1  0.03047616  0.38190295  0.91859639  1
  C  C32  1  0.35433632  0.97113976  0.91635156  1
  C  C33  1  0.62239711  0.96051294  0.41072460  1
  C  C34  1  0.33758877  0.39191011  0.40882202  1
  C  C35  1  0.03901364  0.65970850  0.41187121  1
  C  C36  1  0.25970687  0.05870630  0.30591412  1
  C  C37  1  0.80002834  0.76451050  0.29747431  1
  C  C38  1  0.96250742  0.20294490  0.29839132  1
  C  C39  1  0.21072059  0.20212724  0.80201404  1
  C  C40  1  0.99700591  0.79873868  0.80081015  1
  C  C41  1  0.80555035  0.02889509  0.80898224  1
  C  C42  1  0.79510440  0.95095309  0.69355657  1
  C  C43  1  0.17363718  0.21233031  0.69581540  1
  C  C44  1  0.04276005  0.82540048  0.69486272  1
  C  C45  1  0.78705018  0.81689275  0.19316649  1
  C  C46  1  0.03019562  0.21876650  0.19397814  1
  C  C47  1  0.17616854  0.94896908  0.19311459  1
  C  C48  1  0.88208092  0.32695560  0.63970771  1
  C  C49  1  0.44877005  0.11251033  0.64055668  1
  C  C50  1  0.66965051  0.55322751  0.63977924  1
  C  C51  1  0.82807555  0.49648626  0.14352521  1
  C  C52  1  0.65447030  0.13773823  0.13884355  1
  C  C53  1  0.47853878  0.32504536  0.13977363  1
  C  C54  1  0.44694715  0.28373345  0.03310343  1
  C  C55  1  0.82962960  0.54618645  0.02744428  1
  C  C56  1  0.71085832  0.16889349  0.03214632  1
  C  C57  1  0.41024613  0.12496127  0.53584767  1
  C  C58  1  0.70585456  0.58013688  0.53448621  1
  C  C59  1  0.87486137  0.29262429  0.53462836  1
  C  C60  1  0.52705114  0.65966064  0.96942461  1
  C  C61  1  0.13310298  0.46958938  0.96879794  1
  C  C62  1  0.33890386  0.86666346  0.96733518  1
  C  C63  1  0.53361505  0.86335137  0.46310748  1
  C  C64  1  0.33317875  0.47793973  0.46139135  1
  C  C65  1  0.13617550  0.66754405  0.46363076  1
  C  C66  1  0.13212230  0.64918247  0.35606898  1
  C  C67  1  0.51606712  0.87012110  0.35553016  1
  C  C68  1  0.35219799  0.50314185  0.35254539  1
  C  C69  1  0.10188081  0.47982559  0.86255804  1
  C  C70  1  0.37314280  0.88968639  0.86038530  1
  C  C71  1  0.51841211  0.62514051  0.86311648  1
  C  C72  1  0.02354286  0.81649561  0.40767756  1
  C  C73  1  0.79220856  0.97224532  0.40538025  1
  C  C74  1  0.17762715  0.22344704  0.40532098  1
  C  C75  1  0.00249347  0.20444604  0.91707468  1
  C  C76  1  0.20088724  0.99337409  0.91320095  1
  C  C77  1  0.79422054  0.79267423  0.91501041  1
  C  C78  1  0.97926955  0.14469754  0.59462076  1
  C  C79  1  0.16625484  0.02320640  0.59830499  1
  C  C80  1  0.85930029  0.83020611  0.59248303  1
  C  C81  1  0.95112347  0.81470664  0.09452165  1
  C  C82  1  0.85248871  0.05617980  0.09316783  1
  C  C83  1  0.19328779  0.15169741  0.09426954  1
  C  C84  1  0.66891277  0.14817179  0.75054078  1
  C  C85  1  0.46150223  0.33591939  0.74188353  1
  C  C86  1  0.86546901  0.54133961  0.74440463  1
  C  C87  1  0.67498827  0.51560332  0.23721264  1
  C  C88  1  0.84264826  0.32717833  0.23628837  1
  C  C89  1  0.51067922  0.16916285  0.23228393  1
  C  C90  1  0.62460813  0.47555391  0.92313823  1
  C  C91  1  0.84988435  0.37116674  0.92362736  1
  C  C92  1  0.51790424  0.14582008  0.91841102  1
  C  C93  1  0.63415290  0.13247949  0.40967836  1
  C  C94  1  0.49509127  0.37574599  0.40674851  1
  C  C95  1  0.86788846  0.50026717  0.41104562  1
  C  C96  1  0.35895288  0.46848778  0.08534880  1
  C  C97  1  0.13055472  0.64231034  0.09193898  1
  C  C98  1  0.53628150  0.88630491  0.08314766  1
  C  C99  1  0.30376009  0.84655429  0.58791499  1
  C  C100  1  0.54491575  0.69687767  0.58588412  1
  C  C101  1  0.15068336  0.45816204  0.58656674  1
  C  C102  1  0.33329917  0.82286318  0.25835578  1
  C  C103  1  0.52154104  0.67480931  0.24888783  1
  C  C104  1  0.15532394  0.48281067  0.25023702  1
  C  C105  1  0.28471614  0.47326189  0.75151657  1
  C  C106  1  0.17976502  0.70356272  0.75307211  1
  C  C107  1  0.50647003  0.79913936  0.75660497  1
