# generated using pymatgen
data_Cu7Ni2C69
_symmetry_space_group_name_H-M   'P 1'
_cell_length_a   17.79184669
_cell_length_b   8.94124460
_cell_length_c   22.20409725
_cell_angle_alpha   90.10005310
_cell_angle_beta   89.72694856
_cell_angle_gamma   120.13885227
_symmetry_Int_Tables_number   1
_chemical_formula_structural   Cu7Ni2C69
_chemical_formula_sum   'Cu21 Ni6 C207'
_cell_volume   3054.69848760
_cell_formula_units_Z   3
loop_
 _symmetry_equiv_pos_site_id
 _symmetry_equiv_pos_as_xyz
  1  'x, y, z'
loop_
 _atom_site_type_symbol
 _atom_site_label
 _atom_site_symmetry_multiplicity
 _atom_site_fract_x
 _atom_site_fract_y
 _atom_site_fract_z
 _atom_site_occupancy
  C  C0  1  0.81439658  0.00800504  0.24887835  1
  C  C1  1  0.18817564  0.37504828  0.24710749  1
  C  C2  1  0.68808280  0.36380794  0.25024399  1
  C  C3  1  0.99533466  0.61803832  0.25092315  1
  C  C4  1  0.49542725  0.63067013  0.24546524  1
  C  C5  1  0.31558225  0.62068279  0.74930741  1
  C  C6  1  0.99512413  0.35874070  0.74646624  1
  C  C7  1  0.49534239  0.37504872  0.75033395  1
  C  C8  1  0.19051995  0.01699091  0.74668100  1
  C  C9  1  0.68748652  0.99899009  0.74750985  1
  C  C10  1  0.15016986  0.33099251  0.58147877  1
  C  C11  1  0.01571694  0.69426063  0.58457795  1
  C  C12  1  0.48541253  0.66515792  0.91726610  1
  C  C13  1  0.99100409  0.67810919  0.92035119  1
  C  C14  1  0.84957451  0.02604704  0.91563282  1
  C  C15  1  0.49047132  0.30569421  0.42010540  1
  C  C16  1  0.16361507  0.02697547  0.41734028  1
  C  C17  1  0.35063936  0.66930918  0.41464526  1
  C  C18  1  0.99323056  0.99754646  0.49930180  1
  C  C19  1  0.51038748  0.00938585  0.49846717  1
  C  C20  1  0.00884286  0.01022927  0.99889882  1
  C  C21  1  0.50216157  0.01208523  0.00143456  1
  C  C22  1  0.32875220  0.32165655  0.83101255  1
  C  C23  1  0.82989159  0.33505348  0.83017197  1
  C  C24  1  0.33560284  0.33501237  0.32995767  1
  C  C25  1  0.83166146  0.33420884  0.33194015  1
  C  C26  1  0.17263692  0.67305353  0.16250832  1
  C  C27  1  0.66336755  0.66789158  0.16230848  1
  C  C28  1  0.16973070  0.67462952  0.66408413  1
  C  C29  1  0.67140218  0.67196330  0.66251882  1
  C  C30  1  0.99351768  0.99563853  0.35459480  1
  C  C31  1  0.50613037  0.99074294  0.35649912  1
  C  C32  1  0.00413725  0.01866926  0.85684553  1
  C  C33  1  0.49737614  0.00203132  0.85430731  1
  C  C34  1  0.99774844  0.02106070  0.64480282  1
  C  C35  1  0.49730237  0.98775498  0.64929316  1
  C  C36  1  0.99547797  0.00780442  0.14828859  1
  C  C37  1  0.49499235  0.96662776  0.14582537  1
  C  C38  1  0.33780565  0.32221282  0.98071790  1
  C  C39  1  0.83162565  0.33815009  0.97431965  1
  C  C40  1  0.32802105  0.32244387  0.47615786  1
  C  C41  1  0.83724683  0.34203792  0.47718615  1
  C  C42  1  0.65806727  0.65855431  0.01452501  1
  C  C43  1  0.16246454  0.67222751  0.51580217  1
  C  C44  1  0.17076386  0.66303963  0.31657061  1
  C  C45  1  0.66412632  0.65648705  0.31632778  1
  C  C46  1  0.16495355  0.67255412  0.81665705  1
  C  C47  1  0.67240577  0.68097642  0.81685994  1
  Ni  Ni48  1  0.33108072  0.32189816  0.68793023  1
  Ni  Ni49  1  0.83656353  0.32257912  0.67895187  1
  Ni  Ni50  1  0.33884295  0.35077869  0.17845368  1
  Ni  Ni51  1  0.83294275  0.33382710  0.18814488  1
  Ni  Ni52  1  0.16117310  0.66848003  0.01383010  1
  Ni  Ni53  1  0.66033125  0.65470569  0.51322045  1
  Cu  Cu54  1  0.64442245  0.99492676  0.24984261  1
  Cu  Cu55  1  0.35289774  0.71053241  0.25245830  1
  Cu  Cu56  1  0.85412571  0.71210701  0.25062566  1
  Cu  Cu57  1  0.00219500  0.29308369  0.25146975  1
  Cu  Cu58  1  0.14439071  0.29510680  0.75085140  1
  Cu  Cu59  1  0.50172557  0.71037129  0.75183910  1
  Cu  Cu60  1  0.35430501  0.99610199  0.75101872  1
  Cu  Cu61  1  0.85331802  0.99438692  0.75175135  1
  Cu  Cu62  1  0.97833260  0.33571479  0.58270468  1
  Cu  Cu63  1  0.18770143  0.03685478  0.58541850  1
  Cu  Cu64  1  0.48098895  0.62186284  0.08267743  1
  Cu  Cu65  1  0.80884331  0.66658539  0.91821642  1
  Cu  Cu66  1  0.02463352  0.37921361  0.91969008  1
  Cu  Cu67  1  0.52240126  0.37308762  0.91385711  1
  Cu  Cu68  1  0.16883909  0.96521111  0.91802540  1
  Cu  Cu69  1  0.66435009  0.95866606  0.91764607  1
  Cu  Cu70  1  0.31175098  0.95346815  0.41656854  1
  Cu  Cu71  1  0.16241220  0.37312147  0.41863630  1
  Cu  Cu72  1  0.66866416  0.37322624  0.41789776  1
  Cu  Cu73  1  0.01972640  0.66408293  0.41343722  1
  Cu  Cu74  1  0.52345123  0.66851194  0.41977437  1
  C  C75  1  0.14406745  0.99927420  0.24922365  1
  C  C76  1  0.49827844  0.28355108  0.25076589  1
  C  C77  1  0.64365978  0.28833841  0.74941284  1
  C  C78  1  0.99815258  0.71118896  0.75072260  1
  C  C79  1  0.48054721  0.33154187  0.58469128  1
  C  C80  1  0.68565121  0.03957280  0.58380808  1
  C  C81  1  0.33608632  0.63073023  0.58274647  1
  C  C82  1  0.83038715  0.62085182  0.58458554  1
  C  C83  1  0.97933644  0.62800980  0.08485860  1
  C  C84  1  0.33340918  0.04076959  0.08553644  1
  C  C85  1  0.83348900  0.04023663  0.08306029  1
  C  C86  1  0.18604541  0.33126516  0.08399510  1
  C  C87  1  0.68763689  0.33544579  0.08342339  1
  C  C88  1  0.31163652  0.66561666  0.91683183  1
  C  C89  1  0.81117386  0.95764822  0.41740571  1
  C  C90  1  0.10577433  0.02840616  0.30526386  1
  C  C91  1  0.59645668  0.02939136  0.30662774  1
  C  C92  1  0.41608755  0.80718661  0.30949169  1
  C  C93  1  0.91903879  0.81101040  0.30770293  1
  C  C94  1  0.48939404  0.18727525  0.30668648  1
  C  C95  1  0.99046833  0.16184454  0.30702901  1
  C  C96  1  0.09350221  0.16101140  0.80599651  1
  C  C97  1  0.60376296  0.17783990  0.80379763  1
  C  C98  1  0.48979348  0.81190946  0.80937576  1
  C  C99  1  0.98943352  0.79316720  0.80581053  1
  C  C100  1  0.41943011  0.02173415  0.80737816  1
  C  C101  1  0.91541759  0.02447987  0.80958115  1
  C  C102  1  0.40547453  0.96629285  0.69298985  1
  C  C103  1  0.90348677  0.97288765  0.69190381  1
  C  C104  1  0.08256095  0.20259796  0.68999578  1
  C  C105  1  0.58789746  0.20439635  0.69530007  1
  C  C106  1  0.01274409  0.81587702  0.69568808  1
  C  C107  1  0.51894990  0.84502002  0.69351858  1
  C  C108  1  0.40110536  0.83017558  0.19167454  1
  C  C109  1  0.90557156  0.84611833  0.19306771  1
  C  C110  1  0.01909678  0.19529184  0.19250033  1
  C  C111  1  0.51375717  0.20560059  0.19702772  1
  C  C112  1  0.08713880  0.97243552  0.19610455  1
  C  C113  1  0.57892100  0.96303850  0.19196013  1
  C  C114  1  0.44001592  0.35351707  0.63977068  1
  C  C115  1  0.94821987  0.38716477  0.64421407  1
  C  C116  1  0.24145036  0.11630606  0.64567856  1
  C  C117  1  0.73295702  0.11664401  0.64124817  1
  C  C118  1  0.32253904  0.52772203  0.63790459  1
  C  C119  1  0.81775177  0.51750441  0.63922194  1
  C  C120  1  0.44778224  0.52248438  0.14569181  1
  C  C121  1  0.93701044  0.52425747  0.13928263  1
  C  C122  1  0.31896133  0.11903517  0.13906617  1
  C  C123  1  0.82265345  0.11777235  0.13860200  1
  C  C124  1  0.23317715  0.34910541  0.14126203  1
  C  C125  1  0.73719706  0.35972264  0.13935906  1
  C  C126  1  0.23060463  0.30698589  0.03122354  1
  C  C127  1  0.73383673  0.31128165  0.03060441  1
  C  C128  1  0.41717427  0.52417062  0.02413004  1
  C  C129  1  0.92579979  0.54232995  0.02950614  1
  C  C130  1  0.34422130  0.15256872  0.03034650  1
  C  C131  1  0.84616699  0.14784664  0.02878405  1
  C  C132  1  0.23555439  0.16893374  0.52603025  1
  C  C133  1  0.72927338  0.15205405  0.53103606  1
  C  C134  1  0.34843180  0.54896418  0.52805379  1
  C  C135  1  0.84521132  0.53587249  0.53036586  1
  C  C136  1  0.42637969  0.30934999  0.52963141  1
  C  C137  1  0.91292452  0.30962447  0.52669293  1
  C  C138  1  0.27520506  0.69542218  0.97122778  1
  C  C139  1  0.76432011  0.70589158  0.97513542  1
  C  C140  1  0.08167586  0.45270542  0.97772538  1
  C  C141  1  0.58270397  0.46696643  0.97291508  1
  C  C142  1  0.14285638  0.83737047  0.97377008  1
  C  C143  1  0.64640519  0.82642291  0.97296587  1
  C  C144  1  0.26425723  0.82460367  0.47343690  1
  C  C145  1  0.77592132  0.85605942  0.47134894  1
  C  C146  1  0.15144369  0.46446672  0.47813738  1
  C  C147  1  0.64320696  0.44905326  0.47390284  1
  C  C148  1  0.08164258  0.70247207  0.47340641  1
  C  C149  1  0.58151437  0.71296292  0.47742476  1
  C  C150  1  0.06538614  0.63380368  0.35428306  1
  C  C151  1  0.56712069  0.63050398  0.35848669  1
  C  C152  1  0.24505251  0.86693810  0.35951997  1
  C  C153  1  0.75875998  0.87555006  0.36136574  1
  C  C154  1  0.18588058  0.50060977  0.35910741  1
  C  C155  1  0.68385967  0.49851362  0.35638031  1
  C  C156  1  0.06584585  0.50335463  0.85845176  1
  C  C157  1  0.56427088  0.50150885  0.85537623  1
  C  C158  1  0.18371999  0.86922483  0.85655887  1
  C  C159  1  0.68832927  0.87913884  0.85773376  1
  C  C160  1  0.25847783  0.64302742  0.86138973  1
  C  C161  1  0.74680147  0.63055466  0.85903303  1
  C  C162  1  0.01362624  0.84045513  0.40816658  1
  C  C163  1  0.50499625  0.82926118  0.40975220  1
  C  C164  1  0.40841977  0.98248040  0.41016158  1
  C  C165  1  0.90059043  0.97983830  0.40946815  1
  C  C166  1  0.08253911  0.17713670  0.40970559  1
  C  C167  1  0.58047519  0.18642531  0.40491434  1
  C  C168  1  0.00389527  0.18020003  0.91025234  1
  C  C169  1  0.51106444  0.18174808  0.90837706  1
  C  C170  1  0.08069187  0.97573214  0.90485796  1
  C  C171  1  0.57738841  0.97072672  0.90988864  1
  C  C172  1  0.40149174  0.82090789  0.90965521  1
  C  C173  1  0.90689850  0.83039877  0.90968539  1
  C  C174  1  0.48696203  0.16950230  0.58859906  1
  C  C175  1  0.98776091  0.15989780  0.58569356  1
  C  C176  1  0.08824366  0.01265440  0.58842337  1
  C  C177  1  0.59726505  0.02744713  0.58843792  1
  C  C178  1  0.41620690  0.80692992  0.58707443  1
  C  C179  1  0.91485280  0.79207248  0.58804624  1
  C  C180  1  0.48809816  0.81699892  0.08576512  1
  C  C181  1  0.98628324  0.80289658  0.08855241  1
  C  C182  1  0.41640915  0.03724714  0.08768747  1
  C  C183  1  0.91618474  0.02829492  0.08718336  1
  C  C184  1  0.09760612  0.16725086  0.08785566  1
  C  C185  1  0.59960961  0.17892207  0.08677806  1
  C  C186  1  0.34813690  0.16810045  0.75084004  1
  C  C187  1  0.84164961  0.16534508  0.74880234  1
  C  C188  1  0.23956880  0.31790066  0.74867209  1
  C  C189  1  0.73046312  0.30603690  0.74370549  1
  C  C190  1  0.41520324  0.52573210  0.74548580  1
  C  C191  1  0.92221890  0.53439800  0.74784990  1
  C  C192  1  0.34098695  0.51671320  0.24948019  1
  C  C193  1  0.84564960  0.52546260  0.24667470  1
  C  C194  1  0.42273884  0.30955345  0.24739088  1
  C  C195  1  0.91540787  0.30418442  0.24708076  1
  C  C196  1  0.23084558  0.15472403  0.24330427  1
  C  C197  1  0.73874809  0.16536888  0.24550150  1
  C  C198  1  0.32267686  0.51124960  0.91927139  1
  C  C199  1  0.82245263  0.49674395  0.92697524  1
  C  C200  1  0.42693646  0.36106272  0.92485284  1
  C  C201  1  0.92532360  0.35938030  0.92591640  1
  C  C202  1  0.25449173  0.15895017  0.92568843  1
  C  C203  1  0.75373358  0.14643759  0.92780231  1
  C  C204  1  0.32087404  0.14665626  0.42489899  1
  C  C205  1  0.82024500  0.13256852  0.42023563  1
  C  C206  1  0.25292508  0.35995736  0.42476141  1
  C  C207  1  0.75337502  0.34806622  0.42543701  1
  C  C208  1  0.42510150  0.49164387  0.42464670  1
  C  C209  1  0.92426115  0.49217720  0.42463794  1
  C  C210  1  0.17677855  0.48563113  0.07890095  1
  C  C211  1  0.68038740  0.49283059  0.07572519  1
  C  C212  1  0.06690919  0.64837317  0.08124740  1
  C  C213  1  0.57960373  0.65126112  0.07422770  1
  C  C214  1  0.25827731  0.86544107  0.07715105  1
  C  C215  1  0.75771218  0.86449064  0.07748643  1
  C  C216  1  0.17372471  0.84200034  0.57523559  1
  C  C217  1  0.67665441  0.86751634  0.57909513  1
  C  C218  1  0.25704507  0.64655420  0.57739930  1
  C  C219  1  0.75691040  0.64980339  0.57708046  1
  C  C220  1  0.07805128  0.50061818  0.57446979  1
  C  C221  1  0.56823161  0.48498847  0.58046765  1
  C  C222  1  0.14841418  0.83817791  0.25324603  1
  C  C223  1  0.65023818  0.81832346  0.25684762  1
  C  C224  1  0.25674917  0.69384118  0.25617252  1
  C  C225  1  0.75939062  0.70135009  0.25543573  1
  C  C226  1  0.08977899  0.48342481  0.25447769  1
  C  C227  1  0.58068218  0.46406012  0.25432729  1
  C  C228  1  0.14910880  0.48297756  0.75721627  1
  C  C229  1  0.64777838  0.45724566  0.75437187  1
  C  C230  1  0.08048083  0.69684078  0.75418934  1
  C  C231  1  0.58963375  0.69545210  0.75442126  1
  C  C232  1  0.25940903  0.81724684  0.75545563  1
  C  C233  1  0.75670438  0.82011545  0.75535818  1
