# generated using pymatgen
data_Cu2Ni2C15
_symmetry_space_group_name_H-M   'P 1'
_cell_length_a   5.67693801
_cell_length_b   5.67693801
_cell_length_c   9.41965381
_cell_angle_alpha   90.00000000
_cell_angle_beta   90.00000000
_cell_angle_gamma   90.00000000
_symmetry_Int_Tables_number   1
_chemical_formula_structural   Cu2Ni2C15
_chemical_formula_sum   'Cu2 Ni2 C15'
_cell_volume   303.57307221
_cell_formula_units_Z   1
loop_
 _symmetry_equiv_pos_site_id
 _symmetry_equiv_pos_as_xyz
  1  'x, y, z'
loop_
 _atom_site_type_symbol
 _atom_site_label
 _atom_site_symmetry_multiplicity
 _atom_site_fract_x
 _atom_site_fract_y
 _atom_site_fract_z
 _atom_site_occupancy
  C  C0  1  0.25000000  0.75000000  0.94747016  1
  C  C1  1  0.75000000  0.25000000  0.94747016  1
  Ni  Ni2  1  0.25000000  0.25000000  0.76924320  1
  Ni  Ni3  1  0.75000000  0.75000000  0.15574980  1
  Cu  Cu4  1  0.25000000  0.75000000  0.52848031  1
  Cu  Cu5  1  0.75000000  0.25000000  0.52848031  1
  C  C6  1  0.75000000  0.75000000  0.40465498  1
  C  C7  1  0.25000000  0.25000000  0.28380567  1
  C  C8  1  0.75000000  0.75000000  0.72296913  1
  C  C9  1  0.99393214  0.99393214  0.68376584  1
  C  C10  1  0.50606786  0.50606786  0.68376584  1
  C  C11  1  0.75000000  0.75000000  0.93392875  1
  C  C12  1  0.48978008  0.01021992  0.35078528  1
  C  C13  1  0.48978008  0.48978008  0.35078528  1
  C  C14  1  0.25000000  0.25000000  0.08485508  1
  C  C15  1  0.50606786  0.99393214  0.68376584  1
  C  C16  1  0.99393214  0.50606786  0.68376584  1
  C  C17  1  0.01021992  0.01021992  0.35078528  1
  C  C18  1  0.01021992  0.48978008  0.35078528  1
