# generated using pymatgen
data_Cu4NiC10
_symmetry_space_group_name_H-M   'P 1'
_cell_length_a   7.39423985
_cell_length_b   7.39596875
_cell_length_c   7.39475704
_cell_angle_alpha   59.99822203
_cell_angle_beta   60.00464944
_cell_angle_gamma   59.98884483
_symmetry_Int_Tables_number   1
_chemical_formula_structural   Cu4NiC10
_chemical_formula_sum   'Cu4 Ni1 C10'
_cell_volume   285.93696719
_cell_formula_units_Z   1
loop_
 _symmetry_equiv_pos_site_id
 _symmetry_equiv_pos_as_xyz
  1  'x, y, z'
loop_
 _atom_site_type_symbol
 _atom_site_label
 _atom_site_symmetry_multiplicity
 _atom_site_fract_x
 _atom_site_fract_y
 _atom_site_fract_z
 _atom_site_occupancy
  Ni  Ni0  1  0.62365800  0.62639900  0.62361100  1
  Cu  Cu1  1  0.47776100  0.06716600  0.47773600  1
  Cu  Cu2  1  0.06507200  0.47825400  0.47844100  1
  Cu  Cu3  1  0.47842800  0.47823900  0.06500000  1
  Cu  Cu4  1  0.47774500  0.47733500  0.47780100  1
  C  C5  1  0.87425900  0.87570700  0.87439300  1
  C  C6  1  0.12515400  0.12483100  0.12515600  1
  C  C7  1  0.74853800  0.74819800  0.74842900  1
  C  C8  1  0.25113300  0.25200300  0.74487800  1
  C  C9  1  0.25157100  0.74442300  0.25159400  1
  C  C10  1  0.74486600  0.25200500  0.25113500  1
  C  C11  1  0.74848600  0.25487100  0.74842800  1
  C  C12  1  0.25275600  0.74890000  0.74940400  1
  C  C13  1  0.25153500  0.25241600  0.25159000  1
  C  C14  1  0.74940700  0.74888300  0.25277400  1
