# generated using pymatgen
data_CuNiC5
_symmetry_space_group_name_H-M   'P 1'
_cell_length_a   5.18248700
_cell_length_b   8.73823331
_cell_length_c   8.97027693
_cell_angle_alpha   96.98878830
_cell_angle_beta   100.24835858
_cell_angle_gamma   106.33672147
_symmetry_Int_Tables_number   1
_chemical_formula_structural   CuNiC5
_chemical_formula_sum   'Cu4 Ni4 C20'
_cell_volume   377.20955244
_cell_formula_units_Z   4
loop_
 _symmetry_equiv_pos_site_id
 _symmetry_equiv_pos_as_xyz
  1  'x, y, z'
loop_
 _atom_site_type_symbol
 _atom_site_label
 _atom_site_symmetry_multiplicity
 _atom_site_fract_x
 _atom_site_fract_y
 _atom_site_fract_z
 _atom_site_occupancy
  C  C0  1  0.40765200  0.18661200  0.68837400  1
  C  C1  1  0.59234800  0.81338800  0.31162600  1
  Ni  Ni2  1  0.77765300  0.88676700  0.74236100  1
  Ni  Ni3  1  0.22234700  0.11323300  0.25763900  1
  Ni  Ni4  1  0.32394200  0.61759800  0.89236400  1
  Ni  Ni5  1  0.67605800  0.38240200  0.10763600  1
  Cu  Cu6  1  0.90726200  0.74921800  0.06039600  1
  Cu  Cu7  1  0.84217800  0.24580700  0.41686300  1
  Cu  Cu8  1  0.09273800  0.25078200  0.93960400  1
  Cu  Cu9  1  0.15782200  0.75419300  0.58313700  1
  C  C10  1  0.92199400  0.43085300  0.62143800  1
  C  C11  1  0.07800600  0.56914700  0.37856200  1
  C  C12  1  0.18930100  0.72891300  0.04914400  1
  C  C13  1  0.81069900  0.27108700  0.95085600  1
  C  C14  1  0.72554600  0.61462400  0.12911100  1
  C  C15  1  0.27445400  0.38537600  0.87088900  1
  C  C16  1  0.94023700  0.91068500  0.16353900  1
  C  C17  1  0.05976300  0.08931500  0.83646100  1
  C  C18  1  0.41232900  0.90303800  0.65423600  1
  C  C19  1  0.58767100  0.09696200  0.34576400  1
  C  C20  1  0.86693700  0.38332200  0.32100600  1
  C  C21  1  0.13306300  0.61667800  0.67899400  1
  C  C22  1  0.79793900  0.31533500  0.58048300  1
  C  C23  1  0.20206100  0.68466500  0.41951700  1
  C  C24  1  0.10733000  0.19660600  0.44311500  1
  C  C25  1  0.89267000  0.80339400  0.55688500  1
  C  C26  1  0.27542600  0.26150300  0.10531500  1
  C  C27  1  0.72457400  0.73849700  0.89468500  1
