# generated using pymatgen
data_Cu3Ni3C31
_symmetry_space_group_name_H-M   'P 1'
_cell_length_a   8.91883176
_cell_length_b   8.90872776
_cell_length_c   22.68211944
_cell_angle_alpha   89.85812465
_cell_angle_beta   89.59501098
_cell_angle_gamma   120.06302484
_symmetry_Int_Tables_number   1
_chemical_formula_structural   Cu3Ni3C31
_chemical_formula_sum   'Cu9 Ni9 C93'
_cell_volume   1559.69764263
_cell_formula_units_Z   3
loop_
 _symmetry_equiv_pos_site_id
 _symmetry_equiv_pos_as_xyz
  1  'x, y, z'
loop_
 _atom_site_type_symbol
 _atom_site_label
 _atom_site_symmetry_multiplicity
 _atom_site_fract_x
 _atom_site_fract_y
 _atom_site_fract_z
 _atom_site_occupancy
  C  C0  1  0.97830583  0.35375244  0.74690529  1
  C  C1  1  0.64827259  0.96875803  0.58060217  1
  C  C2  1  0.32579794  0.02681627  0.40696115  1
  C  C3  1  0.99015996  0.00486232  0.49227530  1
  C  C4  1  0.98351964  0.99708495  0.98999549  1
  C  C5  1  0.65768942  0.32446476  0.82727670  1
  C  C6  1  0.66630848  0.33054627  0.32043851  1
  C  C7  1  0.32951701  0.68504095  0.16278441  1
  C  C8  1  0.31527616  0.66915870  0.65503324  1
  C  C9  1  0.99540062  0.00078842  0.64479545  1
  C  C10  1  0.99938546  0.99241653  0.14406106  1
  C  C11  1  0.69095629  0.34442419  0.97812576  1
  C  C12  1  0.66375711  0.31738196  0.48202337  1
  C  C13  1  0.33360311  0.66416206  0.02081117  1
  C  C14  1  0.33878714  0.68148165  0.31106451  1
  C  C15  1  0.34370816  0.66550644  0.81326502  1
  C  C16  1  0.99575809  0.00433837  0.34832933  1
  C  C17  1  0.96383028  0.99937328  0.85957339  1
  C  C18  1  0.67147681  0.30847962  0.68095858  1
  C  C19  1  0.66437974  0.30785160  0.18234738  1
  C  C20  1  0.33247523  0.67376928  0.51963251  1
  Ni  Ni21  1  0.29461555  0.01819314  0.25475129  1
  Ni  Ni22  1  0.70423747  0.00377491  0.75135408  1
  Ni  Ni23  1  0.97346897  0.34690676  0.58723528  1
  Ni  Ni24  1  0.36688437  0.03546786  0.58586296  1
  Ni  Ni25  1  0.95368035  0.61425421  0.08823859  1
  Ni  Ni26  1  0.66394536  0.04178656  0.08560768  1
  Ni  Ni27  1  0.62628555  0.65769628  0.91851615  1
  Ni  Ni28  1  0.05138065  0.37409825  0.91495758  1
  Ni  Ni29  1  0.63767161  0.95499303  0.41994544  1
  Cu  Cu30  1  0.70776894  0.70885693  0.25096483  1
  Cu  Cu31  1  0.00550836  0.29592332  0.25164721  1
  Cu  Cu32  1  0.29017724  0.28830748  0.75122985  1
  Cu  Cu33  1  0.00318384  0.71660233  0.75294214  1
  Cu  Cu34  1  0.67259030  0.61890401  0.58602786  1
  Cu  Cu35  1  0.37559679  0.33215313  0.08409383  1
  Cu  Cu36  1  0.33719215  0.95497726  0.91685519  1
  Cu  Cu37  1  0.34152530  0.38369550  0.41828160  1
  Cu  Cu38  1  0.03807236  0.65938705  0.41669378  1
  C  C39  1  0.20391811  0.01709486  0.31619235  1
  C  C40  1  0.80399812  0.79029406  0.30385802  1
  C  C41  1  0.98213224  0.19489121  0.30496111  1
  C  C42  1  0.21480715  0.18656671  0.80412178  1
  C  C43  1  0.99733426  0.80472352  0.80526363  1
  C  C44  1  0.83627230  0.04218340  0.80326962  1
  C  C45  1  0.79711867  0.97073662  0.69027016  1
  C  C46  1  0.17212337  0.20094123  0.69769238  1
  C  C47  1  0.02667922  0.82471990  0.69749586  1
  C  C48  1  0.78795504  0.82428715  0.19676949  1
  C  C49  1  0.02753273  0.21138605  0.19768395  1
  C  C50  1  0.16116223  0.98480088  0.19783820  1
  C  C51  1  0.90061689  0.37561322  0.64796100  1
  C  C52  1  0.48962239  0.12917898  0.63915287  1
  C  C53  1  0.65654648  0.52070468  0.63870709  1
  C  C54  1  0.86733575  0.50452115  0.14541099  1
  C  C55  1  0.60776539  0.09594002  0.14395091  1
  C  C56  1  0.47356584  0.36577261  0.13762888  1
  C  C57  1  0.45332281  0.30401835  0.03069782  1
  C  C58  1  0.83582202  0.53189868  0.02691512  1
  C  C59  1  0.69092129  0.16648533  0.02680616  1
  C  C60  1  0.46052159  0.16288671  0.52320678  1
  C  C61  1  0.69630700  0.53756030  0.53052171  1
  C  C62  1  0.82664668  0.30451548  0.53080147  1
  C  C63  1  0.51689955  0.67730125  0.97315105  1
  C  C64  1  0.16234978  0.49238298  0.97093197  1
  C  C65  1  0.32055189  0.85138902  0.97112041  1
  C  C66  1  0.54762139  0.85374758  0.47924017  1
  C  C67  1  0.32161190  0.46437982  0.47029827  1
  C  C68  1  0.14267784  0.68192094  0.46805350  1
  C  C69  1  0.12371277  0.63282279  0.36163291  1
  C  C70  1  0.49585515  0.85434713  0.36246085  1
  C  C71  1  0.35412452  0.48480963  0.36276855  1
  C  C72  1  0.13413561  0.49550751  0.85469485  1
  C  C73  1  0.36483491  0.86712225  0.86361779  1
  C  C74  1  0.50225632  0.64100244  0.85952775  1
  C  C75  1  0.01987333  0.81314740  0.40976721  1
  C  C76  1  0.82868903  0.98932398  0.40836071  1
  C  C77  1  0.19854738  0.20242040  0.41424032  1
  C  C78  1  0.04475398  0.19362776  0.91652395  1
  C  C79  1  0.18391506  0.96817362  0.91106003  1
  C  C80  1  0.81696566  0.81716053  0.91622847  1
  C  C81  1  0.95971918  0.14858598  0.59074646  1
  C  C82  1  0.17642766  0.02316835  0.59167781  1
  C  C83  1  0.84041671  0.79836056  0.58800746  1
  C  C84  1  0.97821951  0.81508136  0.09359171  1
  C  C85  1  0.84502741  0.03111065  0.09378986  1
  C  C86  1  0.19468568  0.17386773  0.08999973  1
  C  C87  1  0.67929112  0.17098582  0.74845850  1
  C  C88  1  0.46741692  0.33284571  0.74042576  1
  C  C89  1  0.85000528  0.54309709  0.74731432  1
  C  C90  1  0.67930898  0.53636836  0.24270721  1
  C  C91  1  0.86449664  0.33246803  0.24680091  1
  C  C92  1  0.48620380  0.17775587  0.24692684  1
  C  C93  1  0.61647195  0.46874715  0.92491871  1
  C  C94  1  0.85688619  0.36052584  0.92219216  1
  C  C95  1  0.49902367  0.12599445  0.92131992  1
  C  C96  1  0.63587335  0.14842873  0.42276422  1
  C  C97  1  0.51057281  0.37681819  0.41973057  1
  C  C98  1  0.86213222  0.49941445  0.42040964  1
  C  C99  1  0.34264775  0.48181631  0.07509389  1
  C  C100  1  0.15078559  0.65086049  0.07476069  1
  C  C101  1  0.50663885  0.84385685  0.07030258  1
  C  C102  1  0.35262026  0.85135925  0.57724628  1
  C  C103  1  0.53044379  0.65426059  0.57987334  1
  C  C104  1  0.16548141  0.49091088  0.57242453  1
  C  C105  1  0.30352015  0.82568350  0.25936509  1
  C  C106  1  0.52750140  0.69649943  0.25579214  1
  C  C107  1  0.17697861  0.47040685  0.25660779  1
  C  C108  1  0.28568179  0.46137434  0.75390782  1
  C  C109  1  0.16365201  0.69458895  0.75312182  1
  C  C110  1  0.51031543  0.82131399  0.75640100  1
