# generated using pymatgen
data_Cu4NiC
_symmetry_space_group_name_H-M   'P 1'
_cell_length_a   9.13140620
_cell_length_b   9.13140589
_cell_length_c   24.35105868
_cell_angle_alpha   90.00000000
_cell_angle_beta   90.00000000
_cell_angle_gamma   120.00000113
_symmetry_Int_Tables_number   1
_chemical_formula_structural   Cu4NiC
_chemical_formula_sum   'Cu72 Ni18 C18'
_cell_volume   1758.42473302
_cell_formula_units_Z   18
loop_
 _symmetry_equiv_pos_site_id
 _symmetry_equiv_pos_as_xyz
  1  'x, y, z'
loop_
 _atom_site_type_symbol
 _atom_site_label
 _atom_site_symmetry_multiplicity
 _atom_site_fract_x
 _atom_site_fract_y
 _atom_site_fract_z
 _atom_site_occupancy
  C  C0  1  -0.00000000  0.00000000  0.51178053  1
  C  C1  1  -0.00000000  0.00000000  0.01178053  1
  C  C2  1  0.66666700  0.33333300  0.83284019  1
  C  C3  1  0.66666700  0.33333300  0.33284019  1
  C  C4  1  0.33333300  0.66666700  0.15363800  1
  C  C5  1  0.33333300  0.66666700  0.65363800  1
  C  C6  1  -0.00000000  0.00000000  0.35024630  1
  C  C7  1  -0.00000000  0.00000000  0.85024630  1
  C  C8  1  -0.00000000  0.00000000  0.65208720  1
  C  C9  1  -0.00000000  0.00000000  0.15208720  1
  C  C10  1  0.66666700  0.33333300  0.68186554  1
  C  C11  1  0.66666700  0.33333300  0.18186554  1
  C  C12  1  0.66666700  0.33333300  0.98257560  1
  C  C13  1  0.66666700  0.33333300  0.48257560  1
  C  C14  1  0.33333300  0.66666700  0.02057903  1
  C  C15  1  0.33333300  0.66666700  0.52057903  1
  C  C16  1  0.33333300  0.66666700  0.31651994  1
  C  C17  1  0.33333300  0.66666700  0.81651994  1
  Ni  Ni18  1  0.30335971  0.99179349  0.25463306  1
  Ni  Ni19  1  0.68843378  0.69664029  0.25463306  1
  Ni  Ni20  1  0.00820651  0.31156622  0.25463306  1
  Ni  Ni21  1  0.30335971  0.31156622  0.75463306  1
  Ni  Ni22  1  0.00820651  0.69664029  0.75463306  1
  Ni  Ni23  1  0.68843378  0.99179349  0.75463306  1
  Ni  Ni24  1  0.96655015  0.33035414  0.58339445  1
  Ni  Ni25  1  0.36380499  0.03344985  0.58339445  1
  Ni  Ni26  1  0.66964586  0.63619501  0.58339445  1
  Ni  Ni27  1  0.96655015  0.63619501  0.08339445  1
  Ni  Ni28  1  0.66964586  0.03344985  0.08339445  1
  Ni  Ni29  1  0.36380499  0.33035414  0.08339445  1
  Ni  Ni30  1  0.61888240  0.66376189  0.91326319  1
  Ni  Ni31  1  0.04487849  0.38111760  0.91326319  1
  Ni  Ni32  1  0.33623811  0.95512151  0.91326319  1
  Ni  Ni33  1  0.61888240  0.95512151  0.41326319  1
  Ni  Ni34  1  0.33623811  0.38111760  0.41326319  1
  Ni  Ni35  1  0.04487849  0.66376189  0.41326319  1
  Cu  Cu36  1  0.21988771  0.01360935  0.30257440  1
  Cu  Cu37  1  0.79372164  0.78011229  0.30257440  1
  Cu  Cu38  1  0.98639065  0.20627836  0.30257440  1
  Cu  Cu39  1  0.21988771  0.20627836  0.80257440  1
  Cu  Cu40  1  0.98639065  0.78011229  0.80257440  1
  Cu  Cu41  1  0.79372164  0.01360935  0.80257440  1
  Cu  Cu42  1  0.75034717  0.95277764  0.70437688  1
  Cu  Cu43  1  0.20243047  0.24965283  0.70437688  1
  Cu  Cu44  1  0.04722236  0.79756953  0.70437688  1
  Cu  Cu45  1  0.75034717  0.79756953  0.20437688  1
  Cu  Cu46  1  0.04722236  0.24965283  0.20437688  1
  Cu  Cu47  1  0.20243047  0.95277764  0.20437688  1
  Cu  Cu48  1  0.88075221  0.34055462  0.63368908  1
  Cu  Cu49  1  0.45980341  0.11924779  0.63368908  1
  Cu  Cu50  1  0.65944538  0.54019659  0.63368908  1
  Cu  Cu51  1  0.88075221  0.54019659  0.13368908  1
  Cu  Cu52  1  0.65944538  0.11924779  0.13368908  1
  Cu  Cu53  1  0.45980341  0.34055462  0.13368908  1
  Cu  Cu54  1  0.44991567  0.32120651  0.03283312  1
  Cu  Cu55  1  0.87129185  0.55008433  0.03283312  1
  Cu  Cu56  1  0.67879349  0.12870815  0.03283312  1
  Cu  Cu57  1  0.44991567  0.12870815  0.53283312  1
  Cu  Cu58  1  0.67879349  0.55008433  0.53283312  1
  Cu  Cu59  1  0.87129185  0.32120651  0.53283312  1
  Cu  Cu60  1  0.53815970  0.67618488  0.96301567  1
  Cu  Cu61  1  0.13802418  0.46184030  0.96301567  1
  Cu  Cu62  1  0.32381512  0.86197582  0.96301567  1
  Cu  Cu63  1  0.53815970  0.86197582  0.46301567  1
  Cu  Cu64  1  0.32381512  0.46184030  0.46301567  1
  Cu  Cu65  1  0.13802418  0.67618488  0.46301567  1
  Cu  Cu66  1  0.14998006  0.65861998  0.36289637  1
  Cu  Cu67  1  0.50863892  0.85001994  0.36289637  1
  Cu  Cu68  1  0.34138002  0.49136108  0.36289637  1
  Cu  Cu69  1  0.14998006  0.49136108  0.86289637  1
  Cu  Cu70  1  0.34138002  0.85001994  0.86289637  1
  Cu  Cu71  1  0.50863892  0.65861998  0.86289637  1
  Cu  Cu72  1  0.02858973  0.81455217  0.40659235  1
  Cu  Cu73  1  0.78596244  0.97141027  0.40659235  1
  Cu  Cu74  1  0.18544783  0.21403756  0.40659235  1
  Cu  Cu75  1  0.02858973  0.21403756  0.90659235  1
  Cu  Cu76  1  0.18544783  0.97141027  0.90659235  1
  Cu  Cu77  1  0.78596244  0.81455217  0.90659235  1
  Cu  Cu78  1  0.98416794  0.17614748  0.58561328  1
  Cu  Cu79  1  0.19197954  0.01583206  0.58561328  1
  Cu  Cu80  1  0.82385252  0.80802046  0.58561328  1
  Cu  Cu81  1  0.98416794  0.80802046  0.08561328  1
  Cu  Cu82  1  0.82385252  0.01583206  0.08561328  1
  Cu  Cu83  1  0.19197954  0.17614748  0.08561328  1
  Cu  Cu84  1  0.65655496  0.13410454  0.74962173  1
  Cu  Cu85  1  0.47755059  0.34344504  0.74962173  1
  Cu  Cu86  1  0.86589546  0.52244941  0.74962173  1
  Cu  Cu87  1  0.65655496  0.52244941  0.24962173  1
  Cu  Cu88  1  0.86589546  0.34344504  0.24962173  1
  Cu  Cu89  1  0.47755059  0.13410454  0.24962173  1
  Cu  Cu90  1  0.62335159  0.50489897  0.90948314  1
  Cu  Cu91  1  0.88154838  0.37664841  0.90948314  1
  Cu  Cu92  1  0.49510103  0.11845162  0.90948314  1
  Cu  Cu93  1  0.62335159  0.11845162  0.40948314  1
  Cu  Cu94  1  0.49510103  0.37664841  0.40948314  1
  Cu  Cu95  1  0.88154838  0.50489897  0.40948314  1
  Cu  Cu96  1  0.34577322  0.48418718  0.08197842  1
  Cu  Cu97  1  0.13841296  0.65422678  0.08197842  1
  Cu  Cu98  1  0.51581282  0.86158704  0.08197842  1
  Cu  Cu99  1  0.34577322  0.86158704  0.58197842  1
  Cu  Cu100  1  0.51581282  0.65422678  0.58197842  1
  Cu  Cu101  1  0.13841296  0.48418718  0.58197842  1
  Cu  Cu102  1  0.32038786  0.83207312  0.26532409  1
  Cu  Cu103  1  0.51168426  0.67961214  0.26532409  1
  Cu  Cu104  1  0.16792688  0.48831574  0.26532409  1
  Cu  Cu105  1  0.32038786  0.48831574  0.76532409  1
  Cu  Cu106  1  0.16792688  0.67961214  0.76532409  1
  Cu  Cu107  1  0.51168426  0.83207312  0.76532409  1
