# generated using pymatgen
data_Cu6NiC12
_symmetry_space_group_name_H-M   'P 1'
_cell_length_a   4.91007291
_cell_length_b   5.04305985
_cell_length_c   9.32940807
_cell_angle_alpha   86.23515147
_cell_angle_beta   88.93118246
_cell_angle_gamma   88.28643763
_symmetry_Int_Tables_number   1
_chemical_formula_structural   Cu6NiC12
_chemical_formula_sum   'Cu6 Ni1 C12'
_cell_volume   230.37897380
_cell_formula_units_Z   1
loop_
 _symmetry_equiv_pos_site_id
 _symmetry_equiv_pos_as_xyz
  1  'x, y, z'
loop_
 _atom_site_type_symbol
 _atom_site_label
 _atom_site_symmetry_multiplicity
 _atom_site_fract_x
 _atom_site_fract_y
 _atom_site_fract_z
 _atom_site_occupancy
  Ni  Ni0  1  0.49808400  0.00418000  0.82805100  1
  Cu  Cu1  1  0.96911000  0.93225400  0.01087900  1
  Cu  Cu2  1  0.02681800  0.02913500  0.32549300  1
  Cu  Cu3  1  0.03400600  0.01784000  0.64858800  1
  Cu  Cu4  1  0.45007800  0.51287900  0.83074300  1
  Cu  Cu5  1  0.53116700  0.45864200  0.16580000  1
  Cu  Cu6  1  0.45095300  0.50989700  0.48941300  1
  C  C7  1  0.17615600  0.82530800  0.49330100  1
  C  C8  1  0.16375700  0.80116200  0.81912400  1
  C  C9  1  0.33585300  0.28548700  0.32489500  1
  C  C10  1  0.33464500  0.29668400  0.68486900  1
  C  C11  1  0.63172100  0.69421600  0.97962300  1
  C  C12  1  0.83543100  0.19411600  0.15942300  1
  C  C13  1  0.21117100  0.74214700  0.16905800  1
  C  C14  1  0.33710000  0.21901700  0.98536100  1
  C  C15  1  0.71214000  0.72161200  0.32873100  1
  C  C16  1  0.65914200  0.77556600  0.67635200  1
  C  C17  1  0.82938600  0.24437300  0.50421600  1
  C  C18  1  0.81328000  0.22159500  0.82608300  1
