# generated using pymatgen
data_Cu3NiC2
_symmetry_space_group_name_H-M   'P 1'
_cell_length_a   9.26982450
_cell_length_b   9.26982450
_cell_length_c   9.26982450
_cell_angle_alpha   115.03505778
_cell_angle_beta   115.03505778
_cell_angle_gamma   98.83877250
_symmetry_Int_Tables_number   1
_chemical_formula_structural   Cu3NiC2
_chemical_formula_sum   'Cu12 Ni4 C8'
_cell_volume   597.79069806
_cell_formula_units_Z   4
loop_
 _symmetry_equiv_pos_site_id
 _symmetry_equiv_pos_as_xyz
  1  'x, y, z'
loop_
 _atom_site_type_symbol
 _atom_site_label
 _atom_site_symmetry_multiplicity
 _atom_site_fract_x
 _atom_site_fract_y
 _atom_site_fract_z
 _atom_site_occupancy
  C  C0  1  0.69588700  0.69588700  0.00000000  1
  C  C1  1  0.75000000  0.25000000  0.50000000  1
  C  C2  1  0.25000000  0.75000000  0.50000000  1
  C  C3  1  0.30411300  0.30411300  0.00000000  1
  C  C4  1  0.74564700  0.16649200  0.00000000  1
  C  C5  1  0.16649200  0.74564700  0.00000000  1
  C  C6  1  0.83350800  0.83350800  0.57915500  1
  C  C7  1  0.25435300  0.25435300  0.42084500  1
  Ni  Ni8  1  0.50000000  0.78996500  0.28996500  1
  Ni  Ni9  1  0.78996500  0.50000000  0.28996500  1
  Ni  Ni10  1  0.21003500  0.50000000  0.71003500  1
  Ni  Ni11  1  0.50000000  0.21003500  0.71003500  1
  Cu  Cu12  1  0.89286100  0.08788300  0.74765100  1
  Cu  Cu13  1  0.34023300  0.14521000  0.25234900  1
  Cu  Cu14  1  0.08788300  0.89286100  0.74765100  1
  Cu  Cu15  1  0.85479000  0.10713900  0.19502200  1
  Cu  Cu16  1  0.91211600  0.65976700  0.80497800  1
  Cu  Cu17  1  0.10713900  0.85479000  0.19502200  1
  Cu  Cu18  1  0.65976700  0.91211600  0.80497800  1
  Cu  Cu19  1  0.46520700  0.46520700  0.55656100  1
  Cu  Cu20  1  0.90864600  0.90864600  0.44343900  1
  Cu  Cu21  1  0.09135400  0.53479300  0.00000000  1
  Cu  Cu22  1  0.53479300  0.09135400  0.00000000  1
  Cu  Cu23  1  0.14521000  0.34023300  0.25234900  1
