# generated using pymatgen
data_CuNi2C17
_symmetry_space_group_name_H-M   'P 1'
_cell_length_a   16.11733713
_cell_length_b   27.81027818
_cell_length_c   9.18592448
_cell_angle_alpha   90.00000000
_cell_angle_beta   125.11816186
_cell_angle_gamma   90.00000000
_symmetry_Int_Tables_number   1
_chemical_formula_structural   CuNi2C17
_chemical_formula_sum   'Cu12 Ni24 C204'
_cell_volume   3367.88686192
_cell_formula_units_Z   12
loop_
 _symmetry_equiv_pos_site_id
 _symmetry_equiv_pos_as_xyz
  1  'x, y, z'
loop_
 _atom_site_type_symbol
 _atom_site_label
 _atom_site_symmetry_multiplicity
 _atom_site_fract_x
 _atom_site_fract_y
 _atom_site_fract_z
 _atom_site_occupancy
  C  C0  1  0.24920235  0.25625285  0.00017911  1
  C  C1  1  0.24247443  0.58793643  0.00902759  1
  C  C2  1  0.24419615  0.91960486  0.01009330  1
  C  C3  1  0.74920235  0.24374715  0.50017911  1
  C  C4  1  0.74419615  0.58039514  0.51009330  1
  C  C5  1  0.74247443  0.91206357  0.50902759  1
  C  C6  1  0.74247443  0.08793643  0.00902759  1
  C  C7  1  0.74419615  0.41960486  0.01009330  1
  C  C8  1  0.74920235  0.75625285  0.00017911  1
  C  C9  1  0.24419615  0.08039514  0.51009330  1
  C  C10  1  0.24247443  0.41206357  0.50902759  1
  C  C11  1  0.24920235  0.74374715  0.50017911  1
  C  C12  1  0.49322918  0.02979001  0.75104266  1
  C  C13  1  0.49514497  0.36352575  0.75737211  1
  C  C14  1  0.49263099  0.69622098  0.74735831  1
  C  C15  1  0.49263099  0.30377902  0.24735831  1
  C  C16  1  0.49514497  0.63647425  0.25737211  1
  C  C17  1  0.49322918  0.97020999  0.25104266  1
  C  C18  1  0.99263099  0.19622098  0.74735831  1
  C  C19  1  0.99322918  0.52979001  0.75104266  1
  C  C20  1  0.99514497  0.86352575  0.75737211  1
  C  C21  1  0.99514497  0.13647425  0.25737211  1
  C  C22  1  0.99322918  0.47020999  0.25104266  1
  C  C23  1  0.99263099  0.80377902  0.24735831  1
  C  C24  1  0.82096755  0.64246377  0.19950979  1
  C  C25  1  0.81955749  0.97610774  0.20356882  1
  C  C26  1  0.19021562  0.30551000  0.29466073  1
  C  C27  1  0.19021562  0.69449000  0.79466073  1
  C  C28  1  0.81955749  0.02389226  0.70356882  1
  C  C29  1  0.82096755  0.35753623  0.69950979  1
  C  C30  1  0.32096755  0.14246377  0.19950979  1
  C  C31  1  0.31955749  0.47610774  0.20356882  1
  C  C32  1  0.69021562  0.80551000  0.29466073  1
  C  C33  1  0.69021562  0.19449000  0.79466073  1
  C  C34  1  0.31955749  0.52389226  0.70356882  1
  C  C35  1  0.32096755  0.85753623  0.69950979  1
  C  C36  1  0.89907663  0.25149206  0.94460937  1
  C  C37  1  0.89315473  0.58413285  0.93068218  1
  C  C38  1  0.89250393  0.91527848  0.93372322  1
  C  C39  1  0.89250393  0.08472152  0.43372322  1
  C  C40  1  0.89315473  0.41586715  0.43068218  1
  C  C41  1  0.89907663  0.74850794  0.44460937  1
  C  C42  1  0.39315473  0.08413285  0.93068218  1
  C  C43  1  0.39250393  0.41527848  0.93372322  1
  C  C44  1  0.39907663  0.75149206  0.94460937  1
  C  C45  1  0.39907663  0.24850794  0.44460937  1
  C  C46  1  0.39250393  0.58472152  0.43372322  1
  C  C47  1  0.39315473  0.91586715  0.43068218  1
  C  C48  1  0.10597363  0.24760452  0.56403327  1
  C  C49  1  0.10429464  0.58213505  0.56293133  1
  C  C50  1  0.10524495  0.91656834  0.56317724  1
  C  C51  1  0.10524495  0.08343166  0.06317724  1
  C  C52  1  0.10429464  0.41786495  0.06293133  1
  C  C53  1  0.10597363  0.75239548  0.06403327  1
  C  C54  1  0.60429464  0.08213505  0.56293133  1
  C  C55  1  0.60524495  0.41656834  0.56317724  1
  C  C56  1  0.60597363  0.74760452  0.56403327  1
  C  C57  1  0.60597363  0.25239548  0.06403327  1
  C  C58  1  0.60524495  0.58343166  0.06317724  1
  C  C59  1  0.60429464  0.91786495  0.06293133  1
  Ni  Ni60  1  0.34611348  0.29533984  0.74563583  1
  Ni  Ni61  1  0.34954287  0.62961866  0.75855909  1
  Ni  Ni62  1  0.34838705  0.96255434  0.75273670  1
  Ni  Ni63  1  0.64602312  0.30362903  0.74319817  1
  Ni  Ni64  1  0.64419275  0.63493705  0.74027563  1
  Ni  Ni65  1  0.64496757  0.96946449  0.74068719  1
  Ni  Ni66  1  0.64496757  0.03053551  0.24068719  1
  Ni  Ni67  1  0.64419275  0.36506295  0.24027563  1
  Ni  Ni68  1  0.64602312  0.69637097  0.24319817  1
  Ni  Ni69  1  0.34838705  0.03744566  0.25273670  1
  Ni  Ni70  1  0.34954287  0.37038134  0.25855909  1
  Ni  Ni71  1  0.34611348  0.70466016  0.24563583  1
  Ni  Ni72  1  0.84954287  0.12961866  0.75855909  1
  Ni  Ni73  1  0.84838705  0.46255434  0.75273670  1
  Ni  Ni74  1  0.84611348  0.79533984  0.74563583  1
  Ni  Ni75  1  0.14419275  0.13493705  0.74027563  1
  Ni  Ni76  1  0.14496757  0.46946449  0.74068719  1
  Ni  Ni77  1  0.14602312  0.80362903  0.74319817  1
  Ni  Ni78  1  0.14602312  0.19637097  0.24319817  1
  Ni  Ni79  1  0.14496757  0.53053551  0.24068719  1
  Ni  Ni80  1  0.14419275  0.86506295  0.24027563  1
  Ni  Ni81  1  0.84611348  0.20466016  0.24563583  1
  Ni  Ni82  1  0.84838705  0.53744566  0.25273670  1
  Ni  Ni83  1  0.84954287  0.87038134  0.25855909  1
  Cu  Cu84  1  0.01104724  0.31903602  0.75551567  1
  Cu  Cu85  1  0.00782207  0.65146098  0.74972275  1
  Cu  Cu86  1  0.00847719  0.98628075  0.74947655  1
  Cu  Cu87  1  0.00847719  0.01371925  0.24947655  1
  Cu  Cu88  1  0.00782207  0.34853902  0.24972275  1
  Cu  Cu89  1  0.01104724  0.68096398  0.25551567  1
  Cu  Cu90  1  0.50782207  0.15146098  0.74972275  1
  Cu  Cu91  1  0.50847719  0.48628075  0.74947655  1
  Cu  Cu92  1  0.51104724  0.81903602  0.75551567  1
  Cu  Cu93  1  0.51104724  0.18096398  0.25551567  1
  Cu  Cu94  1  0.50847719  0.51371925  0.24947655  1
  Cu  Cu95  1  0.50782207  0.84853902  0.24972275  1
  C  C96  1  0.14212392  0.19599740  0.74319037  1
  C  C97  1  0.14357799  0.53040490  0.74672819  1
  C  C98  1  0.14465632  0.86347600  0.74616579  1
  C  C99  1  0.84023837  0.18779914  0.75230701  1
  C  C100  1  0.84482026  0.52024512  0.74825751  1
  C  C101  1  0.84239244  0.85360597  0.74889252  1
  C  C102  1  0.84239244  0.14639403  0.24889252  1
  C  C103  1  0.84482026  0.47975488  0.24825751  1
  C  C104  1  0.84023837  0.81220086  0.25230701  1
  C  C105  1  0.14465632  0.13652400  0.24616579  1
  C  C106  1  0.14357799  0.46959510  0.24672819  1
  C  C107  1  0.14212392  0.80400260  0.24319037  1
  C  C108  1  0.64357799  0.03040490  0.74672819  1
  C  C109  1  0.64465632  0.36347600  0.74616579  1
  C  C110  1  0.64212392  0.69599740  0.74319037  1
  C  C111  1  0.34482026  0.02024512  0.74825751  1
  C  C112  1  0.34239244  0.35360597  0.74889252  1
  C  C113  1  0.34023837  0.68779914  0.75230701  1
  C  C114  1  0.34023837  0.31220086  0.25230701  1
  C  C115  1  0.34239244  0.64639403  0.24889252  1
  C  C116  1  0.34482026  0.97975488  0.24825751  1
  C  C117  1  0.64212392  0.30400260  0.24319037  1
  C  C118  1  0.64465632  0.63652400  0.24616579  1
  C  C119  1  0.64357799  0.96959510  0.24672819  1
  C  C120  1  0.44497122  0.17819142  0.57341539  1
  C  C121  1  0.44222094  0.51488485  0.57878077  1
  C  C122  1  0.44746829  0.85006268  0.59240873  1
  C  C123  1  0.56707642  0.18843195  0.90924441  1
  C  C124  1  0.56676761  0.52285151  0.91334481  1
  C  C125  1  0.57251700  0.85309019  0.92743808  1
  C  C126  1  0.57251700  0.14690981  0.42743808  1
  C  C127  1  0.56676761  0.47714849  0.41334481  1
  C  C128  1  0.56707642  0.81156805  0.40924441  1
  C  C129  1  0.44746829  0.14993732  0.09240873  1
  C  C130  1  0.44222094  0.48511515  0.07878077  1
  C  C131  1  0.44497122  0.82180858  0.07341539  1
  C  C132  1  0.94222094  0.01488485  0.57878077  1
  C  C133  1  0.94746829  0.35006268  0.59240873  1
  C  C134  1  0.94497122  0.67819142  0.57341539  1
  C  C135  1  0.06676761  0.02285151  0.91334481  1
  C  C136  1  0.07251700  0.35309019  0.92743808  1
  C  C137  1  0.06707642  0.68843195  0.90924441  1
  C  C138  1  0.06707642  0.31156805  0.40924441  1
  C  C139  1  0.07251700  0.64690981  0.42743808  1
  C  C140  1  0.06676761  0.97714849  0.41334481  1
  C  C141  1  0.94497122  0.32180858  0.07341539  1
  C  C142  1  0.94746829  0.64993732  0.09240873  1
  C  C143  1  0.94222094  0.98511515  0.07878077  1
  C  C144  1  0.24912587  0.27051897  0.73650620  1
  C  C145  1  0.25381452  0.60363494  0.75135825  1
  C  C146  1  0.25282798  0.93592753  0.74432230  1
  C  C147  1  0.74330061  0.28425500  0.75096359  1
  C  C148  1  0.74070731  0.61642141  0.74947537  1
  C  C149  1  0.74471518  0.95532885  0.74827853  1
  C  C150  1  0.74471518  0.04467115  0.24827853  1
  C  C151  1  0.74070731  0.38357859  0.24947537  1
  C  C152  1  0.74330061  0.71574500  0.25096359  1
  C  C153  1  0.25282798  0.06407247  0.24432230  1
  C  C154  1  0.25381452  0.39636506  0.25135825  1
  C  C155  1  0.24912587  0.72948103  0.23650620  1
  C  C156  1  0.75381452  0.10363494  0.75135825  1
  C  C157  1  0.75282798  0.43592753  0.74432230  1
  C  C158  1  0.74912587  0.77051897  0.73650620  1
  C  C159  1  0.24070731  0.11642141  0.74947537  1
  C  C160  1  0.24471518  0.45532885  0.74827853  1
  C  C161  1  0.24330061  0.78425500  0.75096359  1
  C  C162  1  0.24330061  0.21574500  0.25096359  1
  C  C163  1  0.24471518  0.54467115  0.24827853  1
  C  C164  1  0.24070731  0.88357859  0.24947537  1
  C  C165  1  0.74912587  0.22948103  0.23650620  1
  C  C166  1  0.75282798  0.56407247  0.24432230  1
  C  C167  1  0.75381452  0.89636506  0.25135825  1
  C  C168  1  0.33398984  0.28257285  0.56364041  1
  C  C169  1  0.34633453  0.60989480  0.59262864  1
  C  C170  1  0.34862132  0.94105314  0.59295178  1
  C  C171  1  0.63695879  0.28579736  0.91343089  1
  C  C172  1  0.63929563  0.61981273  0.91966237  1
  C  C173  1  0.64194848  0.95272217  0.92110434  1
  C  C174  1  0.64194848  0.04727783  0.42110434  1
  C  C175  1  0.63929563  0.38018727  0.41966237  1
  C  C176  1  0.63695879  0.71420264  0.41343089  1
  C  C177  1  0.34862132  0.05894686  0.09295178  1
  C  C178  1  0.34633453  0.39010520  0.09262864  1
  C  C179  1  0.33398984  0.71742715  0.06364041  1
  C  C180  1  0.84633453  0.10989480  0.59262864  1
  C  C181  1  0.84862132  0.44105314  0.59295178  1
  C  C182  1  0.83398984  0.78257285  0.56364041  1
  C  C183  1  0.13929563  0.11981273  0.91966237  1
  C  C184  1  0.14194848  0.45272217  0.92110434  1
  C  C185  1  0.13695879  0.78579736  0.91343089  1
  C  C186  1  0.13695879  0.21420264  0.41343089  1
  C  C187  1  0.14194848  0.54727783  0.42110434  1
  C  C188  1  0.13929563  0.88018727  0.41966237  1
  C  C189  1  0.83398984  0.21742715  0.06364041  1
  C  C190  1  0.84862132  0.55894686  0.09295178  1
  C  C191  1  0.84633453  0.89010520  0.09262864  1
  C  C192  1  0.45903316  0.27339625  0.92142226  1
  C  C193  1  0.46171243  0.60758061  0.93895611  1
  C  C194  1  0.46225052  0.93968385  0.93692457  1
  C  C195  1  0.54385357  0.28451434  0.56481609  1
  C  C196  1  0.53832160  0.62011928  0.56168411  1
  C  C197  1  0.54114360  0.95300430  0.56350829  1
  C  C198  1  0.54114360  0.04699570  0.06350829  1
  C  C199  1  0.53832160  0.37988072  0.06168411  1
  C  C200  1  0.54385357  0.71548566  0.06481609  1
  C  C201  1  0.46225052  0.06031615  0.43692457  1
  C  C202  1  0.46171243  0.39241939  0.43895611  1
  C  C203  1  0.45903316  0.72660375  0.42142226  1
  C  C204  1  0.96171243  0.10758061  0.93895611  1
  C  C205  1  0.96225052  0.43968385  0.93692457  1
  C  C206  1  0.95903316  0.77339625  0.92142226  1
  C  C207  1  0.03832160  0.12011928  0.56168411  1
  C  C208  1  0.04114360  0.45300430  0.56350829  1
  C  C209  1  0.04385357  0.78451434  0.56481609  1
  C  C210  1  0.04385357  0.21548566  0.06481609  1
  C  C211  1  0.04114360  0.54699570  0.06350829  1
  C  C212  1  0.03832160  0.87988072  0.06168411  1
  C  C213  1  0.95903316  0.22660375  0.42142226  1
  C  C214  1  0.96225052  0.56031615  0.43692457  1
  C  C215  1  0.96171243  0.89241939  0.43895611  1
  C  C216  1  0.08846245  0.28712079  0.74924380  1
  C  C217  1  0.09465218  0.62339139  0.75224903  1
  C  C218  1  0.08868305  0.95532412  0.74769802  1
  C  C219  1  0.93704876  0.28570821  0.76418995  1
  C  C220  1  0.94219000  0.61452358  0.76131784  1
  C  C221  1  0.93773724  0.95307674  0.76571706  1
  C  C222  1  0.93773724  0.04692326  0.26571706  1
  C  C223  1  0.94219000  0.38547642  0.26131784  1
  C  C224  1  0.93704876  0.71429179  0.26418995  1
  C  C225  1  0.08868305  0.04467588  0.24769802  1
  C  C226  1  0.09465218  0.37660861  0.25224903  1
  C  C227  1  0.08846245  0.71287921  0.24924380  1
  C  C228  1  0.59465218  0.12339139  0.75224903  1
  C  C229  1  0.58868305  0.45532412  0.74769802  1
  C  C230  1  0.58846245  0.78712079  0.74924380  1
  C  C231  1  0.44219000  0.11452358  0.76131784  1
  C  C232  1  0.43773724  0.45307674  0.76571706  1
  C  C233  1  0.43704876  0.78570821  0.76418995  1
  C  C234  1  0.43704876  0.21429179  0.26418995  1
  C  C235  1  0.43773724  0.54692326  0.26571706  1
  C  C236  1  0.44219000  0.88547642  0.26131784  1
  C  C237  1  0.58846245  0.21287921  0.24924380  1
  C  C238  1  0.58868305  0.54467588  0.24769802  1
  C  C239  1  0.59465218  0.87660861  0.25224903  1
