# generated using pymatgen
data_Cu4Ni2C9
_symmetry_space_group_name_H-M   'P 1'
_cell_length_a   5.77458000
_cell_length_b   7.94509998
_cell_length_c   8.75632895
_cell_angle_alpha   111.40361713
_cell_angle_beta   109.15302599
_cell_angle_gamma   92.84010604
_symmetry_Int_Tables_number   1
_chemical_formula_structural   Cu4Ni2C9
_chemical_formula_sum   'Cu8 Ni4 C18'
_cell_volume   346.71955393
_cell_formula_units_Z   2
loop_
 _symmetry_equiv_pos_site_id
 _symmetry_equiv_pos_as_xyz
  1  'x, y, z'
loop_
 _atom_site_type_symbol
 _atom_site_label
 _atom_site_symmetry_multiplicity
 _atom_site_fract_x
 _atom_site_fract_y
 _atom_site_fract_z
 _atom_site_occupancy
  C  C0  1  0.30903400  0.18473600  0.08234200  1
  C  C1  1  0.69096600  0.81526400  0.91765800  1
  Ni  Ni2  1  0.32834800  0.77047700  0.18399700  1
  Ni  Ni3  1  0.67165200  0.22952300  0.81600300  1
  Ni  Ni4  1  0.97772500  0.24079600  0.34290100  1
  Ni  Ni5  1  0.02227500  0.75920400  0.65709900  1
  Cu  Cu6  1  0.50000000  0.00000000  0.50000000  1
  Cu  Cu7  1  0.00000000  0.50000000  0.00000000  1
  Cu  Cu8  1  0.64884900  0.62815700  0.27159800  1
  Cu  Cu9  1  0.35115100  0.37184300  0.72840200  1
  Cu  Cu10  1  0.26985500  0.51665300  0.49817000  1
  Cu  Cu11  1  0.73014500  0.48334700  0.50183000  1
  Cu  Cu12  1  0.91495800  0.17858200  0.56824600  1
  Cu  Cu13  1  0.08504200  0.82141800  0.43175400  1
  C  C14  1  0.99912700  0.06384600  0.17124100  1
  C  C15  1  0.23001300  0.40470000  0.38219900  1
  C  C16  1  0.93136900  0.78689800  0.45529000  1
  C  C17  1  0.76998700  0.59530000  0.61780100  1
  C  C18  1  0.29283100  0.67907600  0.68518900  1
  C  C19  1  0.70716900  0.32092400  0.31481100  1
  C  C20  1  0.97323200  0.33542300  0.95933300  1
  C  C21  1  0.02676800  0.66457700  0.04066700  1
  C  C22  1  0.52850200  0.09191500  0.88047200  1
  C  C23  1  0.47149800  0.90808500  0.11952800  1
  C  C24  1  0.52121700  0.42017700  0.82237300  1
  C  C25  1  0.47878300  0.57982300  0.17762700  1
  C  C26  1  0.67089300  0.12581000  0.60570100  1
  C  C27  1  0.32910700  0.87419000  0.39429900  1
  C  C28  1  0.06863100  0.21310200  0.54471000  1
  C  C29  1  0.00087300  0.93615400  0.82875900  1
