# generated using pymatgen
data_Cu2NiC4
_symmetry_space_group_name_H-M   'P 1'
_cell_length_a   6.99459700
_cell_length_b   6.27953400
_cell_length_c   6.45463876
_cell_angle_alpha   64.78391502
_cell_angle_beta   90.00000000
_cell_angle_gamma   90.00000000
_symmetry_Int_Tables_number   1
_chemical_formula_structural   Cu2NiC4
_chemical_formula_sum   'Cu4 Ni2 C8'
_cell_volume   256.48988248
_cell_formula_units_Z   2
loop_
 _symmetry_equiv_pos_site_id
 _symmetry_equiv_pos_as_xyz
  1  'x, y, z'
loop_
 _atom_site_type_symbol
 _atom_site_label
 _atom_site_symmetry_multiplicity
 _atom_site_fract_x
 _atom_site_fract_y
 _atom_site_fract_z
 _atom_site_occupancy
  Ni  Ni0  1  0.00000000  0.34034600  0.35626800  1
  Ni  Ni1  1  0.00000000  0.65965400  0.64373200  1
  Cu  Cu2  1  0.24839700  0.00000000  0.00000000  1
  Cu  Cu3  1  0.75160300  0.00000000  0.00000000  1
  Cu  Cu4  1  0.50000000  0.00000000  0.50000000  1
  Cu  Cu5  1  0.50000000  0.50000000  0.00000000  1
  C  C6  1  0.00000000  0.74752600  0.24538100  1
  C  C7  1  0.00000000  0.25247400  0.75461900  1
  C  C8  1  0.50000000  0.73954500  0.21619100  1
  C  C9  1  0.50000000  0.26045500  0.78380900  1
  C  C10  1  0.26850000  0.21642000  0.23008300  1
  C  C11  1  0.26850000  0.78358000  0.76991700  1
  C  C12  1  0.73150000  0.78358000  0.76991700  1
  C  C13  1  0.73150000  0.21642000  0.23008300  1
