# generated using pymatgen
data_Cu4Ni9C47
_symmetry_space_group_name_H-M   'P 1'
_cell_length_a   9.26444450
_cell_length_b   27.64309473
_cell_length_c   22.53137529
_cell_angle_alpha   89.88316838
_cell_angle_beta   90.10778515
_cell_angle_gamma   120.25123650
_symmetry_Int_Tables_number   1
_chemical_formula_structural   Cu4Ni9C47
_chemical_formula_sum   'Cu24 Ni54 C282'
_cell_volume   4984.46116502
_cell_formula_units_Z   6
loop_
 _symmetry_equiv_pos_site_id
 _symmetry_equiv_pos_as_xyz
  1  'x, y, z'
loop_
 _atom_site_type_symbol
 _atom_site_label
 _atom_site_symmetry_multiplicity
 _atom_site_fract_x
 _atom_site_fract_y
 _atom_site_fract_z
 _atom_site_occupancy
  Ni  Ni0  1  0.03611421  0.00375173  0.49544154  1
  Ni  Ni1  1  0.99923212  0.32700138  0.49493147  1
  Ni  Ni2  1  0.98281208  0.66934935  0.50284445  1
  Ni  Ni3  1  0.99356755  0.00615083  0.00089285  1
  Ni  Ni4  1  0.02954152  0.34103886  0.00759674  1
  Ni  Ni5  1  0.99111615  0.65344948  0.00933404  1
  Ni  Ni6  1  0.64805403  0.10374993  0.82514148  1
  Ni  Ni7  1  0.68486494  0.45137330  0.84129673  1
  Ni  Ni8  1  0.66957031  0.77862082  0.83288472  1
  Ni  Ni9  1  0.65023688  0.09764251  0.32049039  1
  Ni  Ni10  1  0.67985281  0.45666161  0.34567135  1
  Ni  Ni11  1  0.68093217  0.78179967  0.32948146  1
  Ni  Ni12  1  0.33334307  0.22757176  0.17161366  1
  Ni  Ni13  1  0.30003593  0.55141207  0.17000016  1
  Ni  Ni14  1  0.33920846  0.89456238  0.16185909  1
  Ni  Ni15  1  0.30283766  0.21411875  0.65871738  1
  Ni  Ni16  1  0.33889688  0.54965915  0.66654338  1
  Ni  Ni17  1  0.34265627  0.90255391  0.65600990  1
  Ni  Ni18  1  0.65525795  0.32584010  0.27096518  1
  Ni  Ni19  1  0.63380810  0.66232025  0.25178222  1
  Ni  Ni20  1  0.37103457  0.12087038  0.25402810  1
  Ni  Ni21  1  0.34004846  0.44800041  0.25539256  1
  Ni  Ni22  1  0.34910113  0.78460651  0.23738069  1
  Ni  Ni23  1  0.99061833  0.21489979  0.24392843  1
  Ni  Ni24  1  0.63976709  0.21407945  0.74307860  1
  Ni  Ni25  1  0.62026619  0.54296701  0.75091797  1
  Ni  Ni26  1  0.65107864  0.87528822  0.74001410  1
  Ni  Ni27  1  0.99305345  0.12436545  0.74647301  1
  Ni  Ni28  1  0.99307230  0.45400604  0.75688405  1
  Ni  Ni29  1  0.38777484  0.33627511  0.74249576  1
  Ni  Ni30  1  0.37085027  0.66220424  0.75690758  1
  Ni  Ni31  1  0.31647320  0.78132768  0.58269549  1
  Ni  Ni32  1  0.00162719  0.56264760  0.58730822  1
  Ni  Ni33  1  0.00398006  0.88529952  0.56896418  1
  Ni  Ni34  1  0.65694620  0.32560558  0.57009278  1
  Ni  Ni35  1  0.69142281  0.67450038  0.59600504  1
  Ni  Ni36  1  0.33073988  0.67094975  0.09926095  1
  Ni  Ni37  1  0.33291445  0.99462621  0.07813605  1
  Ni  Ni38  1  0.67520815  0.22938867  0.09670046  1
  Ni  Ni39  1  0.64487503  0.88351826  0.07059083  1
  Ni  Ni40  1  0.01866558  0.77574660  0.08245140  1
  Ni  Ni41  1  0.94540835  0.21906160  0.92434007  1
  Ni  Ni42  1  0.96411718  0.89444483  0.91203616  1
  Ni  Ni43  1  0.71318370  0.01248611  0.91562177  1
  Ni  Ni44  1  0.69290188  0.34118031  0.92342898  1
  Ni  Ni45  1  0.68208346  0.68096543  0.92604163  1
  Ni  Ni46  1  0.34007248  0.10117198  0.91019223  1
  Ni  Ni47  1  0.34000796  0.43089764  0.92011074  1
  Ni  Ni48  1  0.99228914  0.10647009  0.41132507  1
  Ni  Ni49  1  0.96105674  0.43366545  0.41346157  1
  Ni  Ni50  1  0.34149994  0.33963264  0.42300448  1
  Ni  Ni51  1  0.36289915  0.68337037  0.42197053  1
  Ni  Ni52  1  0.67695083  0.22902145  0.39578999  1
  Ni  Ni53  1  0.69954182  0.89129900  0.41391388  1
  Cu  Cu54  1  0.00657210  0.00212487  0.34826822  1
  Cu  Cu55  1  0.00974706  0.33943880  0.34520911  1
  Cu  Cu56  1  0.00924320  0.00459780  0.84941443  1
  Cu  Cu57  1  0.00016694  0.33249971  0.85698712  1
  Cu  Cu58  1  0.00906241  0.67222116  0.65289538  1
  Cu  Cu59  1  0.00686332  0.33295074  0.14960358  1
  Cu  Cu60  1  0.99852478  0.66763702  0.15088581  1
  Cu  Cu61  1  0.65291363  0.10811045  0.68004026  1
  Cu  Cu62  1  0.67800737  0.45340270  0.67812881  1
  Cu  Cu63  1  0.67757931  0.77173391  0.68703592  1
  Cu  Cu64  1  0.67890699  0.11355202  0.17611279  1
  Cu  Cu65  1  0.66500651  0.77737191  0.18492754  1
  Cu  Cu66  1  0.65557107  0.10206362  0.98868917  1
  Cu  Cu67  1  0.68002182  0.44727710  0.98659042  1
  Cu  Cu68  1  0.66029250  0.78543505  0.97972497  1
  Cu  Cu69  1  0.65385618  0.44202834  0.49057670  1
  Cu  Cu70  1  0.69177782  0.78212631  0.47979842  1
  Cu  Cu71  1  0.32631533  0.88326258  0.01413335  1
  Cu  Cu72  1  0.32589842  0.22231576  0.51681547  1
  Cu  Cu73  1  0.32874739  0.88591479  0.51346440  1
  Cu  Cu74  1  0.32273635  0.21569329  0.32114829  1
  Cu  Cu75  1  0.32194444  0.55173993  0.31696938  1
  Cu  Cu76  1  0.33296805  0.22280074  0.80970826  1
  Cu  Cu77  1  0.32419829  0.55107379  0.81773213  1
  C  C78  1  0.99624098  0.66065427  0.35017415  1
  C  C79  1  0.99652406  0.66564210  0.85167491  1
  C  C80  1  0.00097677  0.99948636  0.65080407  1
  C  C81  1  0.00498009  0.33110598  0.65014520  1
  C  C82  1  0.98661956  0.99790081  0.15677299  1
  C  C83  1  0.67433526  0.44635471  0.17615907  1
  C  C84  1  0.65821711  0.10889829  0.49029347  1
  C  C85  1  0.32768680  0.22407226  0.01656185  1
  C  C86  1  0.33252374  0.55612733  0.01560324  1
  C  C87  1  0.34625430  0.55597697  0.51106148  1
  C  C88  1  0.33142888  0.89531392  0.31855525  1
  C  C89  1  0.33658019  0.89002737  0.81483714  1
  C  C90  1  0.29276145  0.99683556  0.24884748  1
  C  C91  1  0.32199843  0.33763453  0.25269978  1
  C  C92  1  0.30102261  0.66619879  0.25247984  1
  C  C93  1  0.69113312  0.22814564  0.24834380  1
  C  C94  1  0.70271169  0.56409316  0.24925434  1
  C  C95  1  0.68247237  0.90014826  0.25739616  1
  C  C96  1  0.00545255  0.10193487  0.25384204  1
  C  C97  1  0.98799973  0.43504082  0.25036675  1
  C  C98  1  0.00192428  0.76530591  0.25477987  1
  C  C99  1  0.29485790  0.10284141  0.74944420  1
  C  C100  1  0.29526739  0.42934385  0.75293479  1
  C  C101  1  0.30390797  0.76660221  0.75494493  1
  C  C102  1  0.99263244  0.23318513  0.75365310  1
  C  C103  1  0.99370822  0.56693715  0.75082854  1
  C  C104  1  0.01906010  0.90338440  0.75178458  1
  C  C105  1  0.69855352  0.99661270  0.75624727  1
  C  C106  1  0.71091227  0.33559398  0.74577402  1
  C  C107  1  0.69722064  0.66454153  0.75179029  1
  C  C108  1  0.95277664  0.10486797  0.58993513  1
  C  C109  1  0.98838363  0.44511518  0.58288517  1
  C  C110  1  0.98685832  0.77870248  0.58453166  1
  C  C111  1  0.34972476  0.00995243  0.58854108  1
  C  C112  1  0.35677177  0.33957528  0.58707300  1
  C  C113  1  0.36129487  0.67232727  0.57890637  1
  C  C114  1  0.67828734  0.21380043  0.58835460  1
  C  C115  1  0.66678972  0.55143754  0.58845127  1
  C  C116  1  0.66720369  0.87813148  0.58884846  1
  C  C117  1  0.97642848  0.21596037  0.07952722  1
  C  C118  1  0.98413497  0.54540218  0.07804361  1
  C  C119  1  0.97238679  0.88362403  0.08037908  1
  C  C120  1  0.66873698  0.00464433  0.07824798  1
  C  C121  1  0.65461820  0.34154524  0.07816877  1
  C  C122  1  0.66540702  0.67761161  0.07751878  1
  C  C123  1  0.34237824  0.10970574  0.08397832  1
  C  C124  1  0.38033463  0.45083510  0.07674766  1
  C  C125  1  0.35157716  0.77762530  0.08798158  1
  C  C126  1  0.62241709  0.21992306  0.92107866  1
  C  C127  1  0.63510989  0.55906826  0.91057579  1
  C  C128  1  0.63508464  0.89051175  0.91481915  1
  C  C129  1  0.03768142  0.12611821  0.91371458  1
  C  C130  1  0.03836080  0.45260317  0.91727026  1
  C  C131  1  0.03053906  0.78889837  0.91221254  1
  C  C132  1  0.34083189  0.32223307  0.91305517  1
  C  C133  1  0.31407174  0.65253290  0.91547182  1
  C  C134  1  0.34081786  0.98860574  0.91569643  1
  C  C135  1  0.64142080  0.32720932  0.41824407  1
  C  C136  1  0.64410877  0.65406818  0.40906121  1
  C  C137  1  0.62972639  0.99125552  0.41810911  1
  C  C138  1  0.34481993  0.12052924  0.41591666  1
  C  C139  1  0.32659274  0.45272554  0.41265366  1
  C  C140  1  0.33318778  0.78949853  0.41195008  1
  C  C141  1  0.01103878  0.21772533  0.41390324  1
  C  C142  1  0.04107220  0.55934228  0.41857607  1
  C  C143  1  0.02853015  0.89002061  0.41711416  1
  C  C144  1  0.22792184  0.00707300  0.30569619  1
  C  C145  1  0.27999186  0.35492470  0.31256869  1
  C  C146  1  0.16823569  0.65740799  0.30499579  1
  C  C147  1  0.79440058  0.26545310  0.30133004  1
  C  C148  1  0.81594833  0.59487000  0.30783596  1
  C  C149  1  0.76607617  0.92526286  0.31594008  1
  C  C150  1  0.01611867  0.08185953  0.31580745  1
  C  C151  1  0.94446366  0.41054049  0.31351366  1
  C  C152  1  0.98615615  0.71599488  0.29768118  1
  C  C153  1  0.22329805  0.07954166  0.81054856  1
  C  C154  1  0.22714169  0.40367330  0.81366715  1
  C  C155  1  0.17565274  0.72348725  0.80209051  1
  C  C156  1  0.98920262  0.25871955  0.81317623  1
  C  C157  1  0.99971394  0.60755725  0.80383586  1
  C  C158  1  0.00887984  0.93099854  0.80855957  1
  C  C159  1  0.77384263  0.00123323  0.81739728  1
  C  C160  1  0.80429709  0.33846501  0.80296385  1
  C  C161  1  0.81459159  0.66104535  0.80311738  1
  C  C162  1  0.81892252  0.33457024  0.69061828  1
  C  C163  1  0.78677279  0.67081200  0.69365172  1
  C  C164  1  0.81170842  0.98832844  0.70819533  1
  C  C165  1  0.16679136  0.05782077  0.70128617  1
  C  C166  1  0.17582068  0.38470191  0.70386099  1
  C  C167  1  0.23421925  0.74902039  0.69300156  1
  C  C168  1  0.97052313  0.27040846  0.70252180  1
  C  C169  1  0.98900984  0.59393384  0.69233065  1
  C  C170  1  0.03931833  0.94189671  0.69612612  1
  C  C171  1  0.78202417  0.25533699  0.19014105  1
  C  C172  1  0.77859982  0.60533700  0.19935464  1
  C  C173  1  0.79471611  0.93987302  0.20438354  1
  C  C174  1  0.00012125  0.05443922  0.20986172  1
  C  C175  1  0.00193039  0.39425058  0.20929635  1
  C  C176  1  0.05060641  0.75398890  0.19392650  1
  C  C177  1  0.18605312  0.32336346  0.20698715  1
  C  C178  1  0.21948148  0.67110779  0.19615493  1
  C  C179  1  0.16603237  0.98742750  0.19602034  1
  C  C180  1  0.89383250  0.11502122  0.64846302  1
  C  C181  1  0.94219338  0.46775919  0.63747713  1
  C  C182  1  0.88316545  0.77288469  0.64001068  1
  C  C183  1  0.43124128  0.02939218  0.64802851  1
  C  C184  1  0.47410341  0.37749091  0.63611708  1
  C  C185  1  0.45816289  0.69399730  0.63774042  1
  C  C186  1  0.66807919  0.18807907  0.64825009  1
  C  C187  1  0.63287624  0.52916899  0.65210994  1
  C  C188  1  0.64104465  0.83900992  0.64164610  1
  C  C189  1  0.92486170  0.18988037  0.14125143  1
  C  C190  1  0.86733407  0.50342587  0.12870321  1
  C  C191  1  0.86467012  0.83776331  0.12468620  1
  C  C192  1  0.62935724  0.04180485  0.11700585  1
  C  C193  1  0.64243300  0.38232049  0.12676822  1
  C  C194  1  0.62757156  0.69711622  0.13654265  1
  C  C195  1  0.47181683  0.13014650  0.13380975  1
  C  C196  1  0.51291038  0.45966378  0.12771124  1
  C  C197  1  0.43588400  0.77449124  0.14603368  1
  C  C198  1  0.38953672  0.08724079  0.02937160  1
  C  C199  1  0.43934357  0.44068497  0.01814991  1
  C  C200  1  0.47229647  0.78568908  0.03726103  1
  C  C201  1  0.85942884  0.17810540  0.03045980  1
  C  C202  1  0.90193364  0.52619081  0.01865908  1
  C  C203  1  0.89593517  0.86976247  0.01745394  1
  C  C204  1  0.70591669  0.02718782  0.01472966  1
  C  C205  1  0.66527641  0.36738300  0.01828535  1
  C  C206  1  0.69219413  0.71682884  0.02487293  1
  C  C207  1  0.46645604  0.05246668  0.53815158  1
  C  C208  1  0.40801359  0.36578056  0.52537456  1
  C  C209  1  0.45120744  0.71029527  0.52551707  1
  C  C210  1  0.69064348  0.17339855  0.53956845  1
  C  C211  1  0.70561010  0.51435417  0.54936795  1
  C  C212  1  0.70707582  0.85856406  0.53021261  1
  C  C213  1  0.82046258  0.09593526  0.53891768  1
  C  C214  1  0.85972659  0.42505145  0.53284426  1
  C  C215  1  0.88287138  0.77631917  0.53010057  1
  C  C216  1  0.51434976  0.22090886  0.97625732  1
  C  C217  1  0.52145644  0.56722056  0.95872326  1
  C  C218  1  0.54480305  0.88249570  0.97319211  1
  C  C219  1  0.15729591  0.17091738  0.96270650  1
  C  C220  1  0.16667028  0.49767025  0.96545644  1
  C  C221  1  0.10074731  0.80604061  0.97431091  1
  C  C222  1  0.36278769  0.28503154  0.96417546  1
  C  C223  1  0.29339565  0.61341809  0.97065519  1
  C  C224  1  0.34713375  0.96118198  0.97367384  1
  C  C225  1  0.55096633  0.30026182  0.47650626  1
  C  C226  1  0.53631985  0.61441321  0.46308222  1
  C  C227  1  0.55239581  0.95085018  0.46863835  1
  C  C228  1  0.33132463  0.16100138  0.45749559  1
  C  C229  1  0.33155964  0.49986863  0.45706245  1
  C  C230  1  0.30629857  0.80328967  0.47456747  1
  C  C231  1  0.14722637  0.23249732  0.45959531  1
  C  C232  1  0.17044701  0.56925783  0.47053331  1
  C  C233  1  0.10066571  0.88409763  0.47517907  1
  C  C234  1  0.05373108  0.20068799  0.35403794  1
  C  C235  1  0.11028615  0.55253350  0.36093316  1
  C  C236  1  0.16715686  0.89737667  0.36715517  1
  C  C237  1  0.53748218  0.29014591  0.36528170  1
  C  C238  1  0.55716474  0.62814245  0.35113166  1
  C  C239  1  0.51561426  0.96047850  0.35958677  1
  C  C240  1  0.39195645  0.14618640  0.35326176  1
  C  C241  1  0.31512257  0.47311556  0.35088286  1
  C  C242  1  0.35162525  0.83802820  0.36829974  1
  C  C243  1  0.10576976  0.15177572  0.85300183  1
  C  C244  1  0.10987301  0.47606977  0.85622043  1
  C  C245  1  0.15779843  0.83208588  0.86515536  1
  C  C246  1  0.34444469  0.29685250  0.85348263  1
  C  C247  1  0.32783665  0.62565997  0.85863389  1
  C  C248  1  0.33400422  0.94831028  0.86221211  1
  C  C249  1  0.52966784  0.21735715  0.86387603  1
  C  C250  1  0.55968204  0.55451317  0.84944351  1
  C  C251  1  0.51730569  0.89445519  0.86411722  1
  C  C252  1  0.97183464  0.26542921  0.40955223  1
  C  C253  1  0.03551035  0.61657791  0.41668065  1
  C  C254  1  0.00679097  0.94136735  0.41801366  1
  C  C255  1  0.81626611  0.33212610  0.41869708  1
  C  C256  1  0.82199585  0.65853891  0.40977307  1
  C  C257  1  0.80907971  0.00539910  0.40800115  1
  C  C258  1  0.18680724  0.06307117  0.41916966  1
  C  C259  1  0.16632256  0.39783753  0.42828779  1
  C  C260  1  0.17930842  0.73063072  0.39289366  1
  C  C261  1  0.04468924  0.07239853  0.92651633  1
  C  C262  1  0.04342063  0.39904012  0.93192482  1
  C  C263  1  0.00682076  0.72935006  0.89815548  1
  C  C264  1  0.17491862  0.31969866  0.92748941  1
  C  C265  1  0.15257695  0.65905451  0.91189255  1
  C  C266  1  0.18356882  0.99361073  0.91452029  1
  C  C267  1  0.79349453  0.27391897  0.92763067  1
  C  C268  1  0.81133241  0.61621637  0.91354870  1
  C  C269  1  0.80448121  0.94586630  0.91718155  1
  C  C270  1  0.95307533  0.04690819  0.59685171  1
  C  C271  1  0.01612039  0.39492587  0.59882684  1
  C  C272  1  0.02164593  0.72941474  0.57882504  1
  C  C273  1  0.17577160  0.01027859  0.58846425  1
  C  C274  1  0.17497458  0.33125858  0.59972778  1
  C  C275  1  0.18003068  0.65976838  0.58177008  1
  C  C276  1  0.84456415  0.27434646  0.58572205  1
  C  C277  1  0.80595134  0.61296999  0.58256710  1
  C  C278  1  0.83731960  0.93589724  0.60271318  1
  C  C279  1  0.99019304  0.27341475  0.07487995  1
  C  C280  1  0.03113864  0.60511890  0.09326403  1
  C  C281  1  0.97297044  0.94033481  0.09779328  1
  C  C282  1  0.83099163  0.00313343  0.10103964  1
  C  C283  1  0.79819329  0.33214466  0.09214096  1
  C  C284  1  0.81399241  0.66806881  0.08062606  1
  C  C285  1  0.17011284  0.05884603  0.10639422  1
  C  C286  1  0.20763065  0.40570758  0.09444264  1
  C  C287  1  0.18120103  0.72350171  0.07723166  1
  C  C288  1  0.68274540  0.04740543  0.74386669  1
  C  C289  1  0.69795284  0.38889657  0.74107847  1
  C  C290  1  0.67003478  0.71318916  0.76806865  1
  C  C291  1  0.47152798  0.11266194  0.74519265  1
  C  C292  1  0.47254433  0.43879988  0.74651198  1
  C  C293  1  0.47164443  0.76935187  0.76371609  1
  C  C294  1  0.84223202  0.17329206  0.75081193  1
  C  C295  1  0.83464725  0.51042233  0.76208150  1
  C  C296  1  0.85995258  0.84684272  0.74399620  1
  C  C297  1  0.67238803  0.16900582  0.25569388  1
  C  C298  1  0.70192282  0.50752618  0.23950908  1
  C  C299  1  0.65183155  0.84138779  0.24679822  1
  C  C300  1  0.84981002  0.10637206  0.24523126  1
  C  C301  1  0.82714744  0.43848342  0.22920423  1
  C  C302  1  0.83387701  0.76241016  0.25758195  1
  C  C303  1  0.46296288  0.04603282  0.23333997  1
  C  C304  1  0.49015211  0.39359189  0.22983143  1
  C  C305  1  0.46129805  0.72102001  0.26855854  1
  C  C306  1  0.63506078  0.16659249  0.92580712  1
  C  C307  1  0.65044895  0.50819184  0.92292645  1
  C  C308  1  0.66278276  0.84207988  0.89782949  1
  C  C309  1  0.86060786  0.11676641  0.92020448  1
  C  C310  1  0.86180616  0.44279502  0.92161473  1
  C  C311  1  0.86183647  0.78551952  0.90380054  1
  C  C312  1  0.49995577  0.04516955  0.90472795  1
  C  C313  1  0.49124517  0.38221937  0.91590099  1
  C  C314  1  0.47104290  0.70940268  0.92453912  1
  C  C315  1  0.63248611  0.04832064  0.42720590  1
  C  C316  1  0.66142471  0.38659592  0.41096958  1
  C  C317  1  0.65741160  0.71055712  0.41891901  1
  C  C318  1  0.50444958  0.11632920  0.43742499  1
  C  C319  1  0.48318011  0.44868303  0.42079318  1
  C  C320  1  0.49216860  0.78578244  0.40486830  1
  C  C321  1  0.84320180  0.16192230  0.43677627  1
  C  C322  1  0.87180328  0.50908370  0.43258898  1
  C  C323  1  0.86292318  0.83815382  0.39991367  1
  C  C324  1  0.31519149  0.16007498  0.06773538  1
  C  C325  1  0.38088423  0.50895395  0.07009158  1
  C  C326  1  0.32110137  0.82793335  0.09290816  1
  C  C327  1  0.15828497  0.22431086  0.06697980  1
  C  C328  1  0.15739433  0.54487738  0.07823146  1
  C  C329  1  0.15476151  0.89677640  0.08324430  1
  C  C330  1  0.48868759  0.28114273  0.08102946  1
  C  C331  1  0.49485222  0.61998109  0.06425422  1
  C  C332  1  0.52576977  0.94344465  0.08316484  1
  C  C333  1  0.34303414  0.28215318  0.59162260  1
  C  C334  1  0.35525538  0.61331169  0.56917237  1
  C  C335  1  0.30487792  0.95071377  0.57289718  1
  C  C336  1  0.53493438  0.22340934  0.57461565  1
  C  C337  1  0.50032988  0.55096500  0.56656468  1
  C  C338  1  0.51880081  0.88746344  0.58531440  1
  C  C339  1  0.12567503  0.15009672  0.57235021  1
  C  C340  1  0.16083250  0.49588757  0.56014964  1
  C  C341  1  0.15689358  0.83388384  0.58917459  1
  C  C342  1  0.36085540  0.28995607  0.25684944  1
  C  C343  1  0.33333094  0.61716541  0.24900970  1
  C  C344  1  0.30020424  0.94019077  0.25359035  1
  C  C345  1  0.51614500  0.22302503  0.24765336  1
  C  C346  1  0.52185721  0.54915710  0.25880512  1
  C  C347  1  0.50289794  0.89560332  0.25572153  1
  C  C348  1  0.16667157  0.15664869  0.23811451  1
  C  C349  1  0.14452772  0.49285547  0.24583850  1
  C  C350  1  0.15115846  0.82278311  0.27702830  1
  C  C351  1  0.29029402  0.15651372  0.73474596  1
  C  C352  1  0.28865582  0.48318312  0.74030050  1
  C  C353  1  0.32748428  0.82606968  0.76894499  1
  C  C354  1  0.15868337  0.23590074  0.73914791  1
  C  C355  1  0.15136078  0.56215282  0.75262992  1
  C  C356  1  0.17922144  0.89597653  0.75504151  1
  C  C357  1  0.54004373  0.28161267  0.73932609  1
  C  C358  1  0.52658304  0.60951409  0.74965917  1
  C  C359  1  0.52188188  0.93939469  0.75348016  1
