# generated using pymatgen
data_Cu(NiC6)2
_symmetry_space_group_name_H-M   'P 1'
_cell_length_a   3.98607100
_cell_length_b   3.98622200
_cell_length_c   13.13993500
_cell_angle_alpha   90.00000872
_cell_angle_beta   90.00002309
_cell_angle_gamma   90.00001437
_symmetry_Int_Tables_number   1
_chemical_formula_structural   Cu(NiC6)2
_chemical_formula_sum   'Cu1 Ni2 C12'
_cell_volume   208.78520902
_cell_formula_units_Z   1
loop_
 _symmetry_equiv_pos_site_id
 _symmetry_equiv_pos_as_xyz
  1  'x, y, z'
loop_
 _atom_site_type_symbol
 _atom_site_label
 _atom_site_symmetry_multiplicity
 _atom_site_fract_x
 _atom_site_fract_y
 _atom_site_fract_z
 _atom_site_occupancy
  Ni  Ni0  1  0.50000000  0.50000000  0.14422300  1
  Ni  Ni1  1  0.50000000  0.50000000  0.85570900  1
  Cu  Cu2  1  0.50000000  0.50000000  0.50005000  1
  C  C3  1  0.00000000  0.00000000  0.49999800  1
  C  C4  1  0.00000100  0.00000100  0.31008100  1
  C  C5  1  0.99999900  0.00000000  0.99995200  1
  C  C6  1  0.00000000  0.99999800  0.68989400  1
  C  C7  1  0.00000000  0.50000000  0.40197000  1
  C  C8  1  0.50000000  0.00000000  0.40197600  1
  C  C9  1  0.49999900  0.00000000  0.99997100  1
  C  C10  1  0.00000000  0.00000000  0.17331900  1
  C  C11  1  0.00000000  0.49999900  0.59808900  1
  C  C12  1  0.50000000  0.00000000  0.59808600  1
  C  C13  1  0.99999900  0.00000000  0.82671000  1
  C  C14  1  0.00000000  0.50000000  0.99997100  1
