# generated using pymatgen
data_Cu3NiC
_symmetry_space_group_name_H-M   'P 1'
_cell_length_a   3.77447400
_cell_length_b   9.26254300
_cell_length_c   14.19754900
_cell_angle_alpha   90.00000000
_cell_angle_beta   90.00000000
_cell_angle_gamma   90.00000000
_symmetry_Int_Tables_number   1
_chemical_formula_structural   Cu3NiC
_chemical_formula_sum   'Cu12 Ni4 C4'
_cell_volume   496.36374376
_cell_formula_units_Z   4
loop_
 _symmetry_equiv_pos_site_id
 _symmetry_equiv_pos_as_xyz
  1  'x, y, z'
loop_
 _atom_site_type_symbol
 _atom_site_label
 _atom_site_symmetry_multiplicity
 _atom_site_fract_x
 _atom_site_fract_y
 _atom_site_fract_z
 _atom_site_occupancy
  C  C0  1  0.25000000  0.16256700  0.95174500  1
  C  C1  1  0.75000000  0.83743300  0.04825500  1
  C  C2  1  0.25000000  0.66256700  0.54825500  1
  C  C3  1  0.75000000  0.33743300  0.45174500  1
  Ni  Ni4  1  0.25000000  0.53032900  0.17124500  1
  Ni  Ni5  1  0.75000000  0.46967100  0.82875500  1
  Ni  Ni6  1  0.25000000  0.03032900  0.32875500  1
  Ni  Ni7  1  0.75000000  0.96967100  0.67124500  1
  Cu  Cu8  1  0.25000000  0.01040400  0.10338600  1
  Cu  Cu9  1  0.75000000  0.98959600  0.89661400  1
  Cu  Cu10  1  0.25000000  0.51040400  0.39661400  1
  Cu  Cu11  1  0.75000000  0.48959600  0.60338600  1
  Cu  Cu12  1  0.25000000  0.17433700  0.50944100  1
  Cu  Cu13  1  0.75000000  0.82566300  0.49055900  1
  Cu  Cu14  1  0.25000000  0.67433700  0.99055900  1
  Cu  Cu15  1  0.75000000  0.32566300  0.00944100  1
  Cu  Cu16  1  0.75000000  0.23460300  0.28837300  1
  Cu  Cu17  1  0.25000000  0.76539700  0.71162700  1
  Cu  Cu18  1  0.75000000  0.73460300  0.21162700  1
  Cu  Cu19  1  0.25000000  0.26539700  0.78837300  1
