# generated using pymatgen
data_CuNiC3
_symmetry_space_group_name_H-M   'P 1'
_cell_length_a   3.76766351
_cell_length_b   5.52709434
_cell_length_c   5.40673519
_cell_angle_alpha   82.99776420
_cell_angle_beta   90.00000000
_cell_angle_gamma   90.00000000
_symmetry_Int_Tables_number   1
_chemical_formula_structural   CuNiC3
_chemical_formula_sum   'Cu1 Ni1 C3'
_cell_volume   111.75133359
_cell_formula_units_Z   1
loop_
 _symmetry_equiv_pos_site_id
 _symmetry_equiv_pos_as_xyz
  1  'x, y, z'
loop_
 _atom_site_type_symbol
 _atom_site_label
 _atom_site_symmetry_multiplicity
 _atom_site_fract_x
 _atom_site_fract_y
 _atom_site_fract_z
 _atom_site_occupancy
  C  C0  1  0.50000000  0.43816851  0.45205729  1
  Ni  Ni1  1  0.50000000  0.85257484  0.85758219  1
  Cu  Cu2  1  0.00000000  0.11055934  0.10409735  1
  C  C3  1  0.00000000  0.50685407  0.95624551  1
  C  C4  1  0.00000000  0.95295425  0.50501766  1
