# generated using pymatgen
data_CuNiC9
_symmetry_space_group_name_H-M   'P 1'
_cell_length_a   6.53244636
_cell_length_b   5.80680513
_cell_length_c   6.55545362
_cell_angle_alpha   63.52028139
_cell_angle_beta   53.70600472
_cell_angle_gamma   63.89015304
_symmetry_Int_Tables_number   1
_chemical_formula_structural   CuNiC9
_chemical_formula_sum   'Cu1 Ni1 C9'
_cell_volume   173.96573536
_cell_formula_units_Z   1
loop_
 _symmetry_equiv_pos_site_id
 _symmetry_equiv_pos_as_xyz
  1  'x, y, z'
loop_
 _atom_site_type_symbol
 _atom_site_label
 _atom_site_symmetry_multiplicity
 _atom_site_fract_x
 _atom_site_fract_y
 _atom_site_fract_z
 _atom_site_occupancy
  C  C0  1  0.68892700  0.81130600  0.68855200  1
  C  C1  1  0.31086000  0.18884400  0.31142300  1
  Ni  Ni2  1  0.99999700  0.49996500  0.99999100  1
  Cu  Cu3  1  0.99962700  0.00040300  0.99963600  1
  C  C4  1  0.50010100  0.49994200  0.50000200  1
  C  C5  1  0.23810400  0.74497100  0.76127600  1
  C  C6  1  0.29624900  0.70285800  0.29655700  1
  C  C7  1  0.70408100  0.29687100  0.70366200  1
  C  C8  1  0.23934100  0.25839100  0.76129900  1
  C  C9  1  0.76198900  0.25501400  0.23872500  1
  C  C10  1  0.76072400  0.74143300  0.23887900  1
