# generated using pymatgen
data_Cu2NiC16
_symmetry_space_group_name_H-M   'P 1'
_cell_length_a   6.79145046
_cell_length_b   6.66416969
_cell_length_c   10.38401253
_cell_angle_alpha   70.70864607
_cell_angle_beta   85.42511281
_cell_angle_gamma   63.53220472
_symmetry_Int_Tables_number   1
_chemical_formula_structural   Cu2NiC16
_chemical_formula_sum   'Cu2 Ni1 C16'
_cell_volume   395.82235359
_cell_formula_units_Z   1
loop_
 _symmetry_equiv_pos_site_id
 _symmetry_equiv_pos_as_xyz
  1  'x, y, z'
loop_
 _atom_site_type_symbol
 _atom_site_label
 _atom_site_symmetry_multiplicity
 _atom_site_fract_x
 _atom_site_fract_y
 _atom_site_fract_z
 _atom_site_occupancy
  C  C0  1  0.26868337  0.77198166  0.03834158  1
  C  C1  1  0.20258801  0.46399522  0.45969868  1
  C  C2  1  0.30035211  0.28465917  0.83142161  1
  C  C3  1  0.18803824  0.94317095  0.61810385  1
  C  C4  1  0.75820273  0.90307813  0.39803465  1
  C  C5  1  0.82358945  0.66611564  0.07308582  1
  C  C6  1  0.71135256  0.46050885  0.67883371  1
  C  C7  1  0.73455340  0.25428118  0.03156572  1
  Ni  Ni8  1  0.63865763  0.40634409  0.37044731  1
  Cu  Cu9  1  0.25243850  0.13105351  0.25314472  1
  Cu  Cu10  1  0.75055709  0.90766658  0.72827457  1
  C  C11  1  0.15103310  0.20454352  0.07531341  1
  C  C12  1  0.96708367  0.27636590  0.33758449  1
  C  C13  1  0.43111953  0.30447127  0.25549763  1
  C  C14  1  0.61995993  0.19404873  0.56168089  1
  C  C15  1  0.44607601  0.77109629  0.33224672  1
  C  C16  1  0.55403930  0.78314904  0.82722785  1
  C  C17  1  0.97424041  0.67367246  0.66104130  1
  C  C18  1  0.86743497  0.99979781  0.84970548  1
