# generated using pymatgen
data_Cu(NiC4)2
_symmetry_space_group_name_H-M   'P 1'
_cell_length_a   6.24150398
_cell_length_b   6.65433351
_cell_length_c   6.65433404
_cell_angle_alpha   57.46236257
_cell_angle_beta   62.03186536
_cell_angle_gamma   62.03186898
_symmetry_Int_Tables_number   1
_chemical_formula_structural   Cu(NiC4)2
_chemical_formula_sum   'Cu1 Ni2 C8'
_cell_volume   196.87162956
_cell_formula_units_Z   1
loop_
 _symmetry_equiv_pos_site_id
 _symmetry_equiv_pos_as_xyz
  1  'x, y, z'
loop_
 _atom_site_type_symbol
 _atom_site_label
 _atom_site_symmetry_multiplicity
 _atom_site_fract_x
 _atom_site_fract_y
 _atom_site_fract_z
 _atom_site_occupancy
  Ni  Ni0  1  0.69295700  0.80704300  0.80704300  1
  Ni  Ni1  1  0.30704300  0.19295700  0.19295700  1
  Cu  Cu2  1  0.50000000  0.50000000  0.50000000  1
  C  C3  1  0.00000000  0.50000000  0.50000000  1
  C  C4  1  0.00000000  0.00000000  0.00000000  1
  C  C5  1  0.76455000  0.72559600  0.27440400  1
  C  C6  1  0.23545000  0.72559600  0.27440400  1
  C  C7  1  0.76455000  0.27440400  0.72559600  1
  C  C8  1  0.25567300  0.74432700  0.74432700  1
  C  C9  1  0.23545000  0.27440400  0.72559600  1
  C  C10  1  0.74432700  0.25567300  0.25567300  1
