# generated using pymatgen
data_Cu8Ni4C99
_symmetry_space_group_name_H-M   'P 1'
_cell_length_a   17.85805077
_cell_length_b   8.93235494
_cell_length_c   22.80390496
_cell_angle_alpha   89.85181305
_cell_angle_beta   90.32527100
_cell_angle_gamma   120.09161473
_symmetry_Int_Tables_number   1
_chemical_formula_structural   Cu8Ni4C99
_chemical_formula_sum   'Cu16 Ni8 C198'
_cell_volume   3147.24964054
_cell_formula_units_Z   2
loop_
 _symmetry_equiv_pos_site_id
 _symmetry_equiv_pos_as_xyz
  1  'x, y, z'
loop_
 _atom_site_type_symbol
 _atom_site_label
 _atom_site_symmetry_multiplicity
 _atom_site_fract_x
 _atom_site_fract_y
 _atom_site_fract_z
 _atom_site_occupancy
  C  C0  1  0.31975664  0.01566209  0.23985954  1
  C  C1  1  0.81689052  0.01388580  0.24084841  1
  C  C2  1  0.99682500  0.63641052  0.24158668  1
  C  C3  1  0.32581945  0.62302079  0.74421606  1
  C  C4  1  0.81723499  0.61945094  0.74205380  1
  C  C5  1  0.49387863  0.35906059  0.74023953  1
  C  C6  1  0.99030158  0.98369186  0.48976429  1
  C  C7  1  0.49089303  0.98902308  0.49252580  1
  C  C8  1  0.99098463  0.99378164  0.98686878  1
  C  C9  1  0.49143138  0.99741777  0.98753990  1
  C  C10  1  0.32716510  0.33658107  0.82527159  1
  C  C11  1  0.82433346  0.31889115  0.82748307  1
  C  C12  1  0.32751315  0.33194305  0.32998855  1
  C  C13  1  0.81529816  0.31356232  0.33284240  1
  C  C14  1  0.16831777  0.67040274  0.16016208  1
  C  C15  1  0.65642481  0.66417913  0.16197893  1
  C  C16  1  0.15978327  0.65220890  0.66414894  1
  C  C17  1  0.66314301  0.66548656  0.66380147  1
  Ni  Ni18  1  0.00150672  0.99726644  0.35813795  1
  Ni  Ni19  1  0.50222804  0.99724881  0.35779211  1
  Ni  Ni20  1  0.00040476  0.00576729  0.85730680  1
  Ni  Ni21  1  0.50016622  0.99712346  0.85544475  1
  Ni  Ni22  1  0.33643887  0.34903864  0.68574309  1
  Ni  Ni23  1  0.83320270  0.33818598  0.68413916  1
  Ni  Ni24  1  0.33380782  0.32758761  0.18411687  1
  Ni  Ni25  1  0.82865799  0.32258072  0.18255912  1
  Cu  Cu26  1  0.00097747  0.01283240  0.64256193  1
  Cu  Cu27  1  0.50346998  0.99921989  0.64512518  1
  Cu  Cu28  1  0.00212404  0.99153888  0.14070927  1
  Cu  Cu29  1  0.50136332  0.98919260  0.14191020  1
  Cu  Cu30  1  0.34530246  0.34540795  0.97678990  1
  Cu  Cu31  1  0.84372029  0.34459452  0.97757167  1
  Cu  Cu32  1  0.34483158  0.34321224  0.47963567  1
  Cu  Cu33  1  0.84411856  0.34239754  0.47812651  1
  Cu  Cu34  1  0.16904411  0.66998138  0.01990117  1
  Cu  Cu35  1  0.66948996  0.66857863  0.01953466  1
  Cu  Cu36  1  0.16964782  0.67332111  0.52164469  1
  Cu  Cu37  1  0.66899129  0.67011714  0.52163129  1
  Cu  Cu38  1  0.16589332  0.68053933  0.31511126  1
  Cu  Cu39  1  0.65991865  0.67818999  0.31410728  1
  Cu  Cu40  1  0.16215244  0.64283320  0.81298574  1
  Cu  Cu41  1  0.66145642  0.64871004  0.81132579  1
  C  C42  1  0.14822479  0.01779464  0.25402038  1
  C  C43  1  0.64725867  0.01714723  0.25399644  1
  C  C44  1  0.14561784  0.27484556  0.75419874  1
  C  C45  1  0.64809061  0.27612335  0.75380595  1
  C  C46  1  0.49996501  0.71204788  0.75470195  1
  C  C47  1  0.48078350  0.33261132  0.58839406  1
  C  C48  1  0.97885435  0.34249783  0.58705784  1
  C  C49  1  0.33472194  0.62306792  0.58653209  1
  C  C50  1  0.83439597  0.61995527  0.58724472  1
  C  C51  1  0.47900184  0.61361315  0.08667270  1
  C  C52  1  0.97889673  0.61284395  0.08851900  1
  C  C53  1  0.33341290  0.04751125  0.08752205  1
  C  C54  1  0.83284220  0.04576458  0.08695971  1
  C  C55  1  0.31484099  0.66672419  0.91732814  1
  C  C56  1  0.81460477  0.66825379  0.91554286  1
  C  C57  1  0.02232790  0.36775423  0.91847904  1
  C  C58  1  0.52356295  0.36637568  0.91673649  1
  C  C59  1  0.31629142  0.96753545  0.41804643  1
  C  C60  1  0.81430507  0.96259599  0.41690870  1
  C  C61  1  0.02178261  0.67518076  0.41770414  1
  C  C62  1  0.52118101  0.67741695  0.41925125  1
  C  C63  1  0.35548832  0.70825548  0.25032431  1
  C  C64  1  0.85388243  0.70944611  0.24973417  1
  C  C65  1  0.00281807  0.28864288  0.25142955  1
  C  C66  1  0.50257861  0.28821542  0.25144907  1
  C  C67  1  0.00261028  0.71671214  0.75160186  1
  C  C68  1  0.35248236  0.99660846  0.74998752  1
  C  C69  1  0.85685390  0.00371326  0.75008892  1
  C  C70  1  0.18954638  0.04748972  0.58445224  1
  C  C71  1  0.69038253  0.04724166  0.58335868  1
  C  C72  1  0.18980760  0.33441665  0.08448672  1
  C  C73  1  0.68873901  0.33321568  0.08383075  1
  C  C74  1  0.16753505  0.95532476  0.91612240  1
  C  C75  1  0.66809635  0.95659551  0.91721015  1
  C  C76  1  0.16728731  0.38070448  0.41693328  1
  C  C77  1  0.66717052  0.38126600  0.41646876  1
  C  C78  1  0.09405273  0.01495728  0.30824590  1
  C  C79  1  0.59782520  0.02427497  0.30937978  1
  C  C80  1  0.40495623  0.79250876  0.30271072  1
  C  C81  1  0.90605859  0.79269758  0.30160498  1
  C  C82  1  0.48952291  0.18220047  0.30322874  1
  C  C83  1  0.99020912  0.18341457  0.30313708  1
  C  C84  1  0.09528844  0.17021030  0.80966409  1
  C  C85  1  0.59692426  0.17817170  0.80996963  1
  C  C86  1  0.47659977  0.79685253  0.80701758  1
  C  C87  1  0.98954340  0.79623886  0.80330578  1
  C  C88  1  0.40378546  0.02507765  0.80293101  1
  C  C89  1  0.90680634  0.02015240  0.80245312  1
  C  C90  1  0.39303594  0.96291566  0.69687392  1
  C  C91  1  0.89818033  0.97263289  0.69560162  1
  C  C92  1  0.08384940  0.18621335  0.69312427  1
  C  C93  1  0.58530902  0.19528567  0.69295794  1
  C  C94  1  0.01212564  0.81923140  0.69709707  1
  C  C95  1  0.51142463  0.83244271  0.69359589  1
  C  C96  1  0.39533950  0.82219890  0.19610111  1
  C  C97  1  0.89537335  0.82218568  0.19550928  1
  C  C98  1  0.01090929  0.20520897  0.19697374  1
  C  C99  1  0.51207693  0.20551576  0.19714501  1
  C  C100  1  0.08453226  0.97781497  0.19310837  1
  C  C101  1  0.58614768  0.98532314  0.19300581  1
  C  C102  1  0.44076559  0.35977619  0.64616613  1
  C  C103  1  0.93570687  0.36550040  0.64310436  1
  C  C104  1  0.24031273  0.12275119  0.63704211  1
  C  C105  1  0.73957766  0.12062376  0.63676709  1
  C  C106  1  0.31349237  0.51978918  0.64616327  1
  C  C107  1  0.81455345  0.51943266  0.64751456  1
  C  C108  1  0.43575046  0.50626121  0.14334208  1
  C  C109  1  0.93940084  0.51856216  0.14889075  1
  C  C110  1  0.31325891  0.10696378  0.14792742  1
  C  C111  1  0.81567942  0.11006374  0.14737732  1
  C  C112  1  0.23873384  0.35713555  0.13791514  1
  C  C113  1  0.73892638  0.35897195  0.13701793  1
  C  C114  1  0.22593379  0.30586963  0.03106266  1
  C  C115  1  0.72611182  0.30555432  0.03060378  1
  C  C116  1  0.41896919  0.53246658  0.02579524  1
  C  C117  1  0.91658932  0.52592142  0.02932802  1
  C  C118  1  0.34408695  0.17057870  0.02965323  1
  C  C119  1  0.84411760  0.16908801  0.02931436  1
  C  C120  1  0.22661029  0.14703623  0.53013019  1
  C  C121  1  0.73048246  0.14757813  0.52966168  1
  C  C122  1  0.34347292  0.51816839  0.52825313  1
  C  C123  1  0.84478571  0.51753173  0.52891052  1
  C  C124  1  0.41810596  0.30608334  0.52825099  1
  C  C125  1  0.91911553  0.30501486  0.52555123  1
  C  C126  1  0.25794064  0.67917478  0.97259525  1
  C  C127  1  0.76091319  0.68568354  0.97187360  1
  C  C128  1  0.07972640  0.48611069  0.97407059  1
  C  C129  1  0.58186414  0.48714452  0.97206519  1
  C  C130  1  0.16010118  0.85223130  0.97072960  1
  C  C131  1  0.66150002  0.85417091  0.97150538  1
  C  C132  1  0.26110146  0.83842702  0.47228890  1
  C  C133  1  0.76063061  0.83638062  0.47208235  1
  C  C134  1  0.15967638  0.46795955  0.47016166  1
  C  C135  1  0.66026309  0.46862121  0.47022896  1
  C  C136  1  0.08142193  0.67457759  0.47190408  1
  C  C137  1  0.58124593  0.67616046  0.47310316  1
  C  C138  1  0.06709487  0.64052199  0.35734271  1
  C  C139  1  0.56636632  0.64109728  0.35933516  1
  C  C140  1  0.25166370  0.86322515  0.35830933  1
  C  C141  1  0.75049548  0.85970153  0.35749363  1
  C  C142  1  0.17981024  0.49220951  0.36351387  1
  C  C143  1  0.68027555  0.49157482  0.36343974  1
  C  C144  1  0.06757063  0.49463296  0.85960528  1
  C  C145  1  0.56626684  0.49133885  0.85704725  1
  C  C146  1  0.18062753  0.87156151  0.86400071  1
  C  C147  1  0.68163756  0.87445368  0.86492376  1
  C  C148  1  0.25097975  0.64175292  0.85844993  1
  C  C149  1  0.75325107  0.64602557  0.85713012  1
  C  C150  1  0.01308353  0.84108157  0.41620321  1
  C  C151  1  0.51286522  0.84346221  0.41745592  1
  C  C152  1  0.40924771  0.99301341  0.41011025  1
  C  C153  1  0.90819458  0.99099921  0.40977755  1
  C  C154  1  0.08900448  0.21396059  0.41185483  1
  C  C155  1  0.58917628  0.21414907  0.41239525  1
  C  C156  1  0.01335851  0.18454188  0.91734785  1
  C  C157  1  0.51385836  0.18293684  0.91554728  1
  C  C158  1  0.08933578  0.96550463  0.91303411  1
  C  C159  1  0.59070355  0.96932293  0.91463232  1
  C  C160  1  0.40707103  0.83089179  0.91502004  1
  C  C161  1  0.90968623  0.82602259  0.91130230  1
  C  C162  1  0.49073360  0.15953732  0.58940436  1
  C  C163  1  0.98873185  0.16447044  0.59034849  1
  C  C164  1  0.09925934  0.02098154  0.58899391  1
  C  C165  1  0.60166938  0.02652484  0.58603302  1
  C  C166  1  0.42188412  0.81689742  0.58890878  1
  C  C167  1  0.92280971  0.81442879  0.59169851  1
  C  C168  1  0.48888548  0.81251243  0.09125912  1
  C  C169  1  0.98826539  0.81099361  0.09058057  1
  C  C170  1  0.42205872  0.03013578  0.09334009  1
  C  C171  1  0.92251106  0.02942753  0.09272322  1
  C  C172  1  0.09862022  0.17758576  0.08986157  1
  C  C173  1  0.59856754  0.17778307  0.08909397  1
  C  C174  1  0.33953795  0.14424046  0.74005298  1
  C  C175  1  0.84495176  0.15214823  0.74166531  1
  C  C176  1  0.24368731  0.32137431  0.74673739  1
  C  C177  1  0.74681801  0.32047062  0.74769174  1
  C  C178  1  0.42402461  0.51282832  0.74724682  1
  C  C179  1  0.92851450  0.53874445  0.74602222  1
  C  C180  1  0.34269039  0.53536230  0.24228680  1
  C  C181  1  0.84515290  0.53776364  0.24222868  1
  C  C182  1  0.42864188  0.31836981  0.24600115  1
  C  C183  1  0.92898917  0.32145132  0.24690082  1
  C  C184  1  0.24711274  0.16848195  0.24862587  1
  C  C185  1  0.74671652  0.16880694  0.24765199  1
  C  C186  1  0.30994681  0.47746286  0.92569074  1
  C  C187  1  0.81111011  0.48019918  0.92662652  1
  C  C188  1  0.42808614  0.36079455  0.92217874  1
  C  C189  1  0.92723869  0.36259453  0.92234763  1
  C  C190  1  0.24648326  0.12833643  0.92261545  1
  C  C191  1  0.74771486  0.13038402  0.92340697  1
  C  C192  1  0.30988109  0.14429879  0.42510718  1
  C  C193  1  0.80967945  0.14238351  0.42425215  1
  C  C194  1  0.24628431  0.36631453  0.42111282  1
  C  C195  1  0.74639061  0.36612424  0.42155657  1
  C  C196  1  0.42657342  0.49229385  0.42204623  1
  C  C197  1  0.92675673  0.49146281  0.42076008  1
  C  C198  1  0.17614400  0.48677720  0.07863534  1
  C  C199  1  0.67628651  0.48682850  0.07767478  1
  C  C200  1  0.07681583  0.64868889  0.07627239  1
  C  C201  1  0.57714033  0.65064444  0.07427082  1
  C  C202  1  0.25310841  0.84944288  0.07278356  1
  C  C203  1  0.75311086  0.84826670  0.07311068  1
  C  C204  1  0.17657946  0.86651026  0.57809600  1
  C  C205  1  0.67738640  0.86657876  0.57762630  1
  C  C206  1  0.25237425  0.65471349  0.57093214  1
  C  C207  1  0.75367123  0.65549096  0.57178183  1
  C  C208  1  0.07685596  0.50331341  0.57400406  1
  C  C209  1  0.57689486  0.50190238  0.57379671  1
  C  C210  1  0.15241905  0.82259928  0.25555756  1
  C  C211  1  0.65426644  0.82673578  0.25545794  1
  C  C212  1  0.26684358  0.69803577  0.25292554  1
  C  C213  1  0.76640163  0.69531682  0.25232526  1
  C  C214  1  0.08474930  0.46597109  0.25461001  1
  C  C215  1  0.58592755  0.46334284  0.25572606  1
  C  C216  1  0.15249560  0.47960070  0.75617063  1
  C  C217  1  0.65486589  0.48105411  0.75508262  1
  C  C218  1  0.08592808  0.70917019  0.75589608  1
  C  C219  1  0.59379524  0.70898245  0.75792795  1
  C  C220  1  0.26456904  0.83130145  0.75411438  1
  C  C221  1  0.77021337  0.83745252  0.75160322  1
