# generated using pymatgen
data_CuNiC5
_symmetry_space_group_name_H-M   'P 1'
_cell_length_a   2.94977097
_cell_length_b   5.39653559
_cell_length_c   5.39653559
_cell_angle_alpha   104.31203053
_cell_angle_beta   90.00000000
_cell_angle_gamma   90.00000000
_symmetry_Int_Tables_number   1
_chemical_formula_structural   CuNiC5
_chemical_formula_sum   'Cu1 Ni1 C5'
_cell_volume   83.23882902
_cell_formula_units_Z   1
loop_
 _symmetry_equiv_pos_site_id
 _symmetry_equiv_pos_as_xyz
  1  'x, y, z'
loop_
 _atom_site_type_symbol
 _atom_site_label
 _atom_site_symmetry_multiplicity
 _atom_site_fract_x
 _atom_site_fract_y
 _atom_site_fract_z
 _atom_site_occupancy
  Ni  Ni0  1  0.00000000  0.70155128  0.29844872  1
  C  C1  1  0.50000000  0.41301602  0.58698398  1
  Cu  Cu2  1  0.00000000  0.02442759  0.97557241  1
  C  C3  1  0.00000000  0.32413476  0.31698218  1
  C  C4  1  0.50000000  0.84536401  0.15463599  1
  C  C5  1  0.50000000  0.20293252  0.79706748  1
  C  C6  1  0.00000000  0.68301782  0.67586524  1
