# generated using pymatgen
data_Cu6Ni6C7
_symmetry_space_group_name_H-M   'P 1'
_cell_length_a   5.29885648
_cell_length_b   5.36550650
_cell_length_c   8.78763848
_cell_angle_alpha   87.18258563
_cell_angle_beta   94.70199838
_cell_angle_gamma   92.54085362
_symmetry_Int_Tables_number   1
_chemical_formula_structural   Cu6Ni6C7
_chemical_formula_sum   'Cu6 Ni6 C7'
_cell_volume   248.49603930
_cell_formula_units_Z   1
loop_
 _symmetry_equiv_pos_site_id
 _symmetry_equiv_pos_as_xyz
  1  'x, y, z'
loop_
 _atom_site_type_symbol
 _atom_site_label
 _atom_site_symmetry_multiplicity
 _atom_site_fract_x
 _atom_site_fract_y
 _atom_site_fract_z
 _atom_site_occupancy
  C  C0  1  0.47892800  0.96157900  0.04002000  1
  C  C1  1  0.95159200  0.90775700  0.99295800  1
  C  C2  1  0.04355500  0.07346200  0.33025700  1
  C  C3  1  0.08508800  0.04327800  0.66964900  1
  C  C4  1  0.43895000  0.54874700  0.83286000  1
  C  C5  1  0.58958900  0.42557900  0.19620200  1
  C  C6  1  0.39144300  0.56702100  0.49396600  1
  Ni  Ni7  1  0.18289100  0.85172100  0.50128400  1
  Ni  Ni8  1  0.23116000  0.83621800  0.84858600  1
  Ni  Ni9  1  0.29416400  0.34696100  0.66945000  1
  Ni  Ni10  1  0.29065900  0.34613700  0.33007100  1
  Ni  Ni11  1  0.66467200  0.65287900  0.00688600  1
  Ni  Ni12  1  0.78913100  0.11546300  0.15862300  1
  Cu  Cu13  1  0.22427600  0.86020900  0.18254900  1
  Cu  Cu14  1  0.32156600  0.28219500  0.99139000  1
  Cu  Cu15  1  0.64978900  0.68539400  0.67148700  1
  Cu  Cu16  1  0.67135500  0.67547300  0.36543400  1
  Cu  Cu17  1  0.82746600  0.13695100  0.80907300  1
  Cu  Cu18  1  0.84595000  0.18297900  0.49497000  1
