# generated using pymatgen
data_Cu(NiC7)5
_symmetry_space_group_name_H-M   'P 1'
_cell_length_a   9.61496498
_cell_length_b   9.60823012
_cell_length_c   22.96458317
_cell_angle_alpha   90.26573269
_cell_angle_beta   89.88046594
_cell_angle_gamma   120.01397082
_symmetry_Int_Tables_number   1
_chemical_formula_structural   Cu(NiC7)5
_chemical_formula_sum   'Cu3 Ni15 C105'
_cell_volume   1837.02242374
_cell_formula_units_Z   3
loop_
 _symmetry_equiv_pos_site_id
 _symmetry_equiv_pos_as_xyz
  1  'x, y, z'
loop_
 _atom_site_type_symbol
 _atom_site_label
 _atom_site_symmetry_multiplicity
 _atom_site_fract_x
 _atom_site_fract_y
 _atom_site_fract_z
 _atom_site_occupancy
  C  C0  1  0.64794659  0.99177402  0.25189194  1
  C  C1  1  0.99508683  0.62622110  0.26036726  1
  C  C2  1  0.62648098  0.63862492  0.74683868  1
  C  C3  1  0.02406866  0.38189975  0.75465302  1
  C  C4  1  0.35772645  0.98659894  0.75325853  1
  C  C5  1  0.29478674  0.33500735  0.58937031  1
  C  C6  1  0.03782014  0.70280333  0.58140366  1
  C  C7  1  0.67018950  0.95778593  0.58470408  1
  C  C8  1  0.29121416  0.95506203  0.07703585  1
  C  C9  1  0.67179371  0.70573249  0.09029825  1
  C  C10  1  0.04194227  0.34011499  0.08462979  1
  C  C11  1  0.99684128  0.67126742  0.91660564  1
  C  C12  1  0.32425521  0.29872835  0.92309133  1
  C  C13  1  0.96604102  0.31192444  0.41065904  1
  C  C14  1  0.70241998  0.67795569  0.42112042  1
  C  C15  1  0.00290455  0.98614702  0.50951326  1
  C  C16  1  -0.00245879  0.00777333  0.00800527  1
  C  C17  1  0.66442607  0.29771463  0.83298000  1
  C  C18  1  0.66506926  0.32841790  0.33318482  1
  C  C19  1  0.33237069  0.62821817  0.17022721  1
  C  C20  1  0.33344945  0.66951808  0.66627693  1
  C  C21  1  0.99686704  0.99956440  0.65463362  1
  C  C22  1  0.00328480  0.00844457  0.15396396  1
  C  C23  1  0.33632153  0.67557412  0.01329843  1
  C  C24  1  0.33249843  0.68146573  0.51192278  1
  C  C25  1  0.33377928  0.66871315  0.31819432  1
  C  C26  1  0.33555436  0.67600337  0.82013312  1
  C  C27  1  0.00615486  0.00101141  0.34835812  1
  C  C28  1  0.99519720  0.00459037  0.84734089  1
  C  C29  1  0.66695804  0.33217397  0.67769715  1
  C  C30  1  0.66507798  0.33617616  0.17943985  1
  C  C31  1  0.66634167  0.31747105  0.98497973  1
  C  C32  1  0.66170950  0.31978503  0.48560443  1
  Ni  Ni33  1  0.69161757  0.69398584  0.24832205  1
  Ni  Ni34  1  -0.00205023  0.31463147  0.25040387  1
  Ni  Ni35  1  0.31244466  0.31574583  0.74915246  1
  Ni  Ni36  1  0.00041593  0.68847777  0.74988943  1
  Ni  Ni37  1  0.68319943  0.99605762  0.74355577  1
  Ni  Ni38  1  0.98630304  0.33270364  0.58243884  1
  Ni  Ni39  1  0.34650884  0.01637372  0.58939913  1
  Ni  Ni40  1  0.66566179  0.64847783  0.58104935  1
  Ni  Ni41  1  0.97939423  0.64864376  0.08167444  1
  Ni  Ni42  1  0.66735841  0.01529129  0.09026621  1
  Ni  Ni43  1  0.35156817  0.33272747  0.07663891  1
  Ni  Ni44  1  0.03255442  0.36797458  0.91560675  1
  Ni  Ni45  1  0.32758242  0.97880943  0.91620739  1
  Ni  Ni46  1  0.64636699  0.97554155  0.41376548  1
  Ni  Ni47  1  0.01626209  0.65956291  0.41616210  1
  Cu  Cu48  1  0.31204920  0.99053146  0.24581383  1
  Cu  Cu49  1  0.63964324  0.66006749  0.91690755  1
  Cu  Cu50  1  0.33568632  0.37296778  0.42010428  1
  C  C51  1  0.22232814  -0.00082209  0.29686955  1
  C  C52  1  0.79336236  0.78616634  0.30319319  1
  C  C53  1  0.99907142  0.22087906  0.30578210  1
  C  C54  1  0.22419041  0.21445229  0.80406779  1
  C  C55  1  0.98791685  0.77353651  0.80599127  1
  C  C56  1  0.79681179  0.00875008  0.79394977  1
  C  C57  1  0.76119429  0.99419198  0.68529651  1
  C  C58  1  0.21476611  0.22670439  0.69457043  1
  C  C59  1  -0.00090263  0.78301038  0.69612603  1
  C  C60  1  0.78578467  0.78677024  0.19379305  1
  C  C61  1  -0.00183738  0.22356959  0.19524895  1
  C  C62  1  0.23577920  0.00283606  0.19160161  1
  C  C63  1  0.89822033  0.34497271  0.63767902  1
  C  C64  1  0.43037611  0.09146613  0.64818316  1
  C  C65  1  0.65351074  0.54980799  0.63665006  1
  C  C66  1  0.88927341  0.54543786  0.13608346  1
  C  C67  1  0.65341985  0.09066607  0.14829281  1
  C  C68  1  0.46681987  0.34236952  0.12610227  1
  C  C69  1  0.42806281  0.32175566  0.01849099  1
  C  C70  1  0.87449026  0.55878285  0.02749702  1
  C  C71  1  0.68012957  0.13303536  0.04127233  1
  C  C72  1  0.45387257  0.13523324  0.54098772  1
  C  C73  1  0.67339950  0.55271134  0.52716730  1
  C  C74  1  0.88013469  0.32028607  0.52897572  1
  C  C75  1  0.55391290  0.66353902  0.96992360  1
  C  C76  1  0.12505507  0.46160332  0.97021636  1
  C  C77  1  0.33784223  0.89505944  0.97181876  1
  C  C78  1  0.55674507  0.88654730  0.46907872  1
  C  C79  1  0.33698343  0.45099141  0.47559774  1
  C  C80  1  0.10001239  0.65468696  0.47227049  1
  C  C81  1  0.10889302  0.66046178  0.36090379  1
  C  C82  1  0.55875022  0.88630654  0.35781737  1
  C  C83  1  0.33494274  0.46918736  0.37053459  1
  C  C84  1  0.12177138  0.45561262  0.85962646  1
  C  C85  1  0.32586260  0.88887671  0.86037938  1
  C  C86  1  0.55864208  0.67135247  0.86372617  1
  C  C87  1  0.98750378  0.80709343  0.41807670  1
  C  C88  1  0.81920670  0.99294367  0.41636755  1
  C  C89  1  0.18764640  0.20997105  0.41849252  1
  C  C90  1  0.01499841  0.19684092  0.91825406  1
  C  C91  1  0.16711455  0.98618690  0.92044733  1
  C  C92  1  0.81053364  0.79470294  0.91959267  1
  C  C93  1  0.00144955  0.17913344  0.58281450  1
  C  C94  1  0.17701406  -0.00225012  0.58521074  1
  C  C95  1  0.82260323  0.81457939  0.58163761  1
  C  C96  1  0.99702922  0.81837230  0.08472650  1
  C  C97  1  0.82175127  0.00174174  0.08694227  1
  C  C98  1  0.18332617  0.17907573  0.08216419  1
  C  C99  1  0.65909328  0.14564982  0.74957128  1
  C  C100  1  0.48510992  0.33618867  0.74911150  1
  C  C101  1  0.85151401  0.51290918  0.74987886  1
  C  C102  1  0.67759300  0.52423035  0.25050126  1
  C  C103  1  0.83662315  0.32112401  0.25437587  1
  C  C104  1  0.48186357  0.12551146  0.25079350  1
  C  C105  1  0.64163991  0.50495034  0.91385273  1
  C  C106  1  0.86317226  0.35666072  0.91403061  1
  C  C107  1  0.47050658  0.15692782  0.91260229  1
  C  C108  1  0.67692625  0.15248423  0.41190047  1
  C  C109  1  0.48320127  0.35715322  0.41506795  1
  C  C110  1  0.84365251  0.50385277  0.41229964  1
  C  C111  1  0.33530818  0.48563045  0.08039866  1
  C  C112  1  0.14720416  0.66260624  0.07959922  1
  C  C113  1  0.51647599  0.84695462  0.08301645  1
  C  C114  1  0.33416544  0.84975576  0.58308440  1
  C  C115  1  0.51560155  0.66906557  0.57972001  1
  C  C116  1  0.15437696  0.48617946  0.58020547  1
  C  C117  1  0.31082378  0.83454803  0.24616620  1
  C  C118  1  0.52656138  0.68659849  0.24951701  1
  C  C119  1  0.14047565  0.49004078  0.25023411  1
  C  C120  1  0.33064060  0.48608624  0.75189572  1
  C  C121  1  0.15667743  0.67700742  0.75023772  1
  C  C122  1  0.51707616  0.84062973  0.74907333  1
