# generated using pymatgen
data_Cu2Ni2C9
_symmetry_space_group_name_H-M   'P 1'
_cell_length_a   3.35162700
_cell_length_b   3.35174548
_cell_length_c   38.28904000
_cell_angle_alpha   89.99945112
_cell_angle_beta   90.00017226
_cell_angle_gamma   119.99843535
_symmetry_Int_Tables_number   1
_chemical_formula_structural   Cu2Ni2C9
_chemical_formula_sum   'Cu2 Ni2 C9'
_cell_volume   372.51062938
_cell_formula_units_Z   1
loop_
 _symmetry_equiv_pos_site_id
 _symmetry_equiv_pos_as_xyz
  1  'x, y, z'
loop_
 _atom_site_type_symbol
 _atom_site_label
 _atom_site_symmetry_multiplicity
 _atom_site_fract_x
 _atom_site_fract_y
 _atom_site_fract_z
 _atom_site_occupancy
  C  C0  1  0.38579200  0.69402500  0.87578900  1
  C  C1  1  0.33335500  0.66670800  0.70719200  1
  C  C2  1  0.66664100  0.33328200  0.04452500  1
  C  C3  1  0.66664100  0.33327600  0.14329600  1
  C  C4  1  0.33336700  0.66673200  0.60788000  1
  Ni  Ni5  1  0.33331500  0.66662700  0.09385900  1
  Ni  Ni6  1  0.33332000  0.66663700  0.46964200  1
  Cu  Cu7  1  0.66668300  0.33336300  0.28181900  1
  Cu  Cu8  1  0.66669200  0.33338100  0.65758900  1
  C  C9  1  0.33335500  0.66670800  0.32147600  1
  C  C10  1  0.66664700  0.33329000  0.43014100  1
  C  C11  1  0.66664500  0.33328600  0.50917600  1
  C  C12  1  0.33335800  0.66671600  0.24217000  1
