# generated using pymatgen
data_Cu5Ni4C73
_symmetry_space_group_name_H-M   'P 1'
_cell_length_a   18.75016939
_cell_length_b   9.34541232
_cell_length_c   22.90389165
_cell_angle_alpha   89.90296766
_cell_angle_beta   89.84315111
_cell_angle_gamma   119.85090390
_symmetry_Int_Tables_number   1
_chemical_formula_structural   Cu5Ni4C73
_chemical_formula_sum   'Cu15 Ni12 C219'
_cell_volume   3480.88578242
_cell_formula_units_Z   3
loop_
 _symmetry_equiv_pos_site_id
 _symmetry_equiv_pos_as_xyz
  1  'x, y, z'
loop_
 _atom_site_type_symbol
 _atom_site_label
 _atom_site_symmetry_multiplicity
 _atom_site_fract_x
 _atom_site_fract_y
 _atom_site_fract_z
 _atom_site_occupancy
  C  C0  1  0.80756648  0.99689859  0.24673725  1
  C  C1  1  0.18611600  0.35551313  0.25225238  1
  C  C2  1  0.67961272  0.34651518  0.25121212  1
  C  C3  1  0.00831370  0.65442316  0.24399488  1
  C  C4  1  0.50824096  0.65282579  0.23380918  1
  C  C5  1  0.31962489  0.61663003  0.75086094  1
  C  C6  1  0.00766676  0.36215433  0.73424612  1
  C  C7  1  0.50704039  0.37810327  0.74404185  1
  C  C8  1  0.18516530  0.02029104  0.75012039  1
  C  C9  1  0.67232519  0.99651715  0.75010026  1
  C  C10  1  0.14651759  0.31852924  0.58631689  1
  C  C11  1  0.65211347  0.32101405  0.58289320  1
  C  C12  1  0.32468735  0.97221923  0.59289067  1
  C  C13  1  0.83270579  0.98912401  0.58775290  1
  C  C14  1  0.15648302  0.98996707  0.07246314  1
  C  C15  1  0.64468485  0.97063157  0.07763102  1
  C  C16  1  0.33583105  0.67855618  0.08125163  1
  C  C17  1  0.82204433  0.67550184  0.08416196  1
  C  C18  1  0.48578460  0.68024609  0.91636977  1
  C  C19  1  0.99223200  0.68139378  0.91616022  1
  C  C20  1  0.34051902  0.03398438  0.91087699  1
  C  C21  1  0.83922210  0.02211711  0.91048525  1
  C  C22  1  0.16958313  0.27667203  0.91330409  1
  C  C23  1  0.66553894  0.27254611  0.91564953  1
  C  C24  1  0.49311739  0.30438477  0.42178223  1
  C  C25  1  0.98823558  0.29814810  0.43556657  1
  C  C26  1  0.16786829  0.06303704  0.42336706  1
  C  C27  1  0.66775141  0.05929254  0.42087813  1
  C  C28  1  0.34381815  0.65712272  0.41817141  1
  C  C29  1  0.83834666  0.64825158  0.41813820  1
  C  C30  1  0.01305472  0.02007437  0.50951806  1
  C  C31  1  0.51617843  0.00804271  0.50610209  1
  C  C32  1  0.01649109  0.02877789  0.00113488  1
  C  C33  1  0.51481496  0.00618962  0.00407191  1
  C  C34  1  0.32824377  0.33643561  0.82506209  1
  C  C35  1  0.81282918  0.32142480  0.82691987  1
  C  C36  1  0.31767643  0.30745940  0.32953923  1
  C  C37  1  0.80966026  0.31180963  0.33540642  1
  C  C38  1  0.17215782  0.67157525  0.16407658  1
  C  C39  1  0.65223985  0.64856359  0.16125542  1
  C  C40  1  0.15449168  0.65368084  0.66403557  1
  C  C41  1  0.66073825  0.67163504  0.67091481  1
  C  C42  1  0.01148252  0.01716096  0.34909911  1
  C  C43  1  0.50702106  0.01133486  0.34841198  1
  C  C44  1  0.00636387  0.00195995  0.84783518  1
  C  C45  1  0.50968062  -0.00258940  0.84584656  1
  C  C46  1  0.33090704  0.33139700  0.67931063  1
  C  C47  1  0.82532626  0.33037899  0.17698529  1
  C  C48  1  0.33218234  0.33379883  0.98871943  1
  C  C49  1  0.82670441  0.32012260  0.98695062  1
  C  C50  1  0.32653771  0.33298277  0.48852007  1
  C  C51  1  0.83155972  0.33043501  0.49040828  1
  C  C52  1  0.66415035  0.66227450  0.31585441  1
  C  C53  1  0.16567314  0.66633843  0.81523233  1
  Ni  Ni54  1  0.00736501  0.00792537  0.65086288  1
  Ni  Ni55  1  0.51498327  0.00300454  0.65786847  1
  Ni  Ni56  1  0.01133280  0.01053294  0.15264372  1
  Ni  Ni57  1  0.50844631  0.00814573  0.14962144  1
  Ni  Ni58  1  0.82720035  0.32026665  0.67606262  1
  Ni  Ni59  1  0.32795175  0.33257586  0.17559511  1
  Ni  Ni60  1  0.16360854  0.65909708  0.01586174  1
  Ni  Ni61  1  0.65032474  0.65399341  0.02060520  1
  Ni  Ni62  1  0.15255716  0.64787358  0.52287220  1
  Ni  Ni63  1  0.66355890  0.66655391  0.51681680  1
  Ni  Ni64  1  0.17266441  0.68007038  0.31669160  1
  Ni  Ni65  1  0.66671529  0.66609624  0.81392942  1
  Cu  Cu66  1  0.15667950  0.99980537  0.24922500  1
  Cu  Cu67  1  0.65332696  -0.00008015  0.25157256  1
  Cu  Cu68  1  0.15190297  0.30798643  0.75127954  1
  Cu  Cu69  1  0.65834065  0.31367923  0.74915666  1
  Cu  Cu70  1  0.49854402  0.68815538  0.75516489  1
  Cu  Cu71  1  0.98191420  0.32438850  0.58528474  1
  Cu  Cu72  1  0.17769309  0.01758845  0.58138087  1
  Cu  Cu73  1  0.67772919  0.01806041  0.58063289  1
  Cu  Cu74  1  0.48162121  0.63826732  0.08628050  1
  Cu  Cu75  1  0.17792686  0.33799528  0.08347598  1
  Cu  Cu76  1  0.67701952  0.33918742  0.08282494  1
  Cu  Cu77  1  0.16666051  0.96399343  0.91927192  1
  Cu  Cu78  1  0.66898598  0.95898882  0.91749008  1
  Cu  Cu79  1  0.16812364  0.38147859  0.41491076  1
  Cu  Cu80  1  0.66730966  0.36953068  0.41761245  1
  C  C81  1  0.34901937  0.69964807  0.25020762  1
  C  C82  1  0.85640352  0.71118224  0.24846912  1
  C  C83  1  0.00012104  0.30376998  0.25011859  1
  C  C84  1  0.49427490  0.29675061  0.24911269  1
  C  C85  1  0.99463618  0.69183322  0.74899893  1
  C  C86  1  0.35427678  0.99889024  0.74832754  1
  C  C87  1  0.85088351  0.00177729  0.74976126  1
  C  C88  1  0.48696650  0.32811133  0.58220166  1
  C  C89  1  0.33678582  0.65204801  0.58213928  1
  C  C90  1  0.83280678  0.64009881  0.58273225  1
  C  C91  1  0.98673658  0.64267864  0.08469347  1
  C  C92  1  0.33243757  0.02532481  0.08418644  1
  C  C93  1  0.83889941  0.02434676  0.08546560  1
  C  C94  1  0.31693491  0.67136947  0.91815085  1
  C  C95  1  0.81353131  0.66766043  0.91827722  1
  C  C96  1  0.01527480  0.36579521  0.91736348  1
  C  C97  1  0.51709876  0.36580335  0.91482904  1
  C  C98  1  0.31518956  0.96423804  0.41812647  1
  C  C99  1  0.81726935  0.96538258  0.41550463  1
  C  C100  1  0.01751259  0.66480768  0.41319399  1
  C  C101  1  0.51443881  0.66343954  0.41663189  1
  C  C102  1  0.12094648  0.03889199  0.30773408  1
  C  C103  1  0.61448445  0.02236957  0.31209557  1
  C  C104  1  0.39262369  0.78106632  0.30424708  1
  C  C105  1  0.90290773  0.79538193  0.30140571  1
  C  C106  1  0.48616384  0.21159784  0.30525111  1
  C  C107  1  0.98649103  0.20799627  0.30398848  1
  C  C108  1  0.11138363  0.20897390  0.81188898  1
  C  C109  1  0.62271146  0.20244667  0.80779199  1
  C  C110  1  0.47976811  0.75637748  0.81469384  1
  C  C111  1  0.98600512  0.75973738  0.80522025  1
  C  C112  1  0.40023414  0.01106491  0.80187757  1
  C  C113  1  0.89595603  0.01042673  0.80373507  1
  C  C114  1  0.39760242  0.98588494  0.69515648  1
  C  C115  1  0.89253449  0.98565087  0.69721523  1
  C  C116  1  0.09050505  0.21269464  0.69520643  1
  C  C117  1  0.59637497  0.23587753  0.69127898  1
  C  C118  1  -0.00130047  0.79731262  0.69954161  1
  C  C119  1  0.51193856  0.81186980  0.69985260  1
  C  C120  1  0.39040420  0.79757921  0.19779503  1
  C  C121  1  0.89770365  0.81436821  0.19515375  1
  C  C122  1  0.00892449  0.21371404  0.19946106  1
  C  C123  1  0.49888959  0.20075803  0.19957237  1
  C  C124  1  0.09157921  0.95118039  0.19335989  1
  C  C125  1  0.59313479  0.97636900  0.19548160  1
  C  C126  1  0.44660225  0.34522979  0.63419681  1
  C  C127  1  0.93522619  0.34692830  0.64282802  1
  C  C128  1  0.23691906  0.09911648  0.63780255  1
  C  C129  1  0.73742681  0.09969528  0.63831853  1
  C  C130  1  0.32880359  0.54948153  0.63332292  1
  C  C131  1  0.82037559  0.52532110  0.63127660  1
  C  C132  1  0.43725321  0.52616529  0.14575041  1
  C  C133  1  0.94812162  0.54910506  0.13847723  1
  C  C134  1  0.31893144  0.11185117  0.13359084  1
  C  C135  1  0.83192695  0.10876614  0.13788252  1
  C  C136  1  0.23427379  0.37263575  0.14315679  1
  C  C137  1  0.73244929  0.37668600  0.14200190  1
  C  C138  1  0.21649624  0.30018726  0.02670786  1
  C  C139  1  0.72000173  0.30543303  0.02662491  1
  C  C140  1  0.43141533  0.55771430  0.02751476  1
  C  C141  1  0.93988510  0.55737810  0.03221180  1
  C  C142  1  0.34409244  0.11362698  0.02903524  1
  C  C143  1  0.85256794  0.12360960  0.03244372  1
  C  C144  1  0.21504225  0.12879802  0.52201856  1
  C  C145  1  0.71583696  0.12413882  0.52165895  1
  C  C146  1  0.34930210  0.58138361  0.52802978  1
  C  C147  1  0.84571857  0.57833867  0.52686545  1
  C  C148  1  0.44186452  0.32094114  0.52803967  1
  C  C149  1  0.93610381  0.31072725  0.52445569  1
  C  C150  1  0.27448785  0.68006300  0.97260038  1
  C  C151  1  0.77440053  0.68232225  0.97268234  1
  C  C152  1  0.07034822  0.44294308  0.96870134  1
  C  C153  1  0.57084290  0.44294596  0.96601705  1
  C  C154  1  0.15626843  0.85009621  0.97950028  1
  C  C155  1  0.66366827  0.85609581  0.97776196  1
  C  C156  1  0.27363874  0.86520387  0.47038846  1
  C  C157  1  0.77528276  0.86711127  0.46882299  1
  C  C158  1  0.16073534  0.47991575  0.47165610  1
  C  C159  1  0.65862338  0.46989070  0.47543365  1
  C  C160  1  0.07225531  0.69350798  0.46307791  1
  C  C161  1  0.57002085  0.69451307  0.46698567  1
  C  C162  1  0.05595148  0.64900777  0.35777359  1
  C  C163  1  0.55236156  0.64829896  0.36217833  1
  C  C164  1  0.26239286  0.89319367  0.36510839  1
  C  C165  1  0.76838168  0.88635974  0.36277452  1
  C  C166  1  0.17759966  0.48747387  0.35380667  1
  C  C167  1  0.67586553  0.46822198  0.35721540  1
  C  C168  1  0.05417894  0.45845967  0.86369449  1
  C  C169  1  0.55684278  0.46121531  0.86101901  1
  C  C170  1  0.17331935  0.87419083  0.86085767  1
  C  C171  1  0.68280898  0.86815434  0.86022475  1
  C  C172  1  0.26644583  0.65208741  0.86634918  1
  C  C173  1  0.76025115  0.63871795  0.86707742  1
  C  C174  1  0.00379742  0.80865953  0.41041109  1
  C  C175  1  0.49807676  0.80389650  0.41483102  1
  C  C176  1  0.39482605  0.96727024  0.41145203  1
  C  C177  1  0.89876176  0.97312645  0.41306560  1
  C  C178  1  0.08448097  0.19914819  0.41738652  1
  C  C179  1  0.58223001  0.18705749  0.42172381  1
  C  C180  1  -0.00164922  0.19249277  0.91543221  1
  C  C181  1  0.50266327  0.19452009  0.91162333  1
  C  C182  1  0.08163711  0.97739609  0.92196193  1
  C  C183  1  0.58579972  0.97499292  0.91896382  1
  C  C184  1  0.39677577  0.82805210  0.91641598  1
  C  C185  1  0.89413038  0.82411196  0.91228046  1
  C  C186  1  0.48945607  0.16920180  0.58466885  1
  C  C187  1  0.98294425  0.14742472  0.58960791  1
  C  C188  1  0.08583224  0.00006851  0.58792010  1
  C  C189  1  0.58890480  0.01421467  0.58781289  1
  C  C190  1  0.40600178  0.82554146  0.58803263  1
  C  C191  1  0.90262418  0.80872625  0.59252743  1
  C  C192  1  0.48394565  0.81870501  0.09048965  1
  C  C193  1  0.98825172  0.80680601  0.08579230  1
  C  C194  1  0.40231296  0.99684920  0.09389654  1
  C  C195  1  0.90913070  0.99007570  0.09110580  1
  C  C196  1  0.08667280  0.16732753  0.08926978  1
  C  C197  1  0.58547782  0.17236791  0.08658772  1
  C  C198  1  0.34598574  0.14844957  0.74513055  1
  C  C199  1  0.84763275  0.15965175  0.74769151  1
  C  C200  1  0.24216014  0.32073659  0.74656688  1
  C  C201  1  0.74727317  0.31688082  0.73930024  1
  C  C202  1  0.42290914  0.50089804  0.74563178  1
  C  C203  1  0.92453568  0.52035018  0.74371326  1
  C  C204  1  0.34397633  0.53307804  0.24905884  1
  C  C205  1  0.85382395  0.54976817  0.24513132  1
  C  C206  1  0.42335548  0.32662078  0.24429891  1
  C  C207  1  0.92996465  0.33288139  0.24253200  1
  C  C208  1  0.24615183  0.17041504  0.23913374  1
  C  C209  1  0.74588387  0.16606252  0.24743494  1
  C  C210  1  0.32956524  0.52672086  0.91999527  1
  C  C211  1  0.83000534  0.52655315  0.92071530  1
  C  C212  1  0.43653718  0.35942845  0.92045077  1
  C  C213  1  0.93633505  0.36524825  0.92452146  1
  C  C214  1  0.25046652  0.14554627  0.92111912  1
  C  C215  1  0.75253965  0.14340942  0.91640805  1
  C  C216  1  0.33163146  0.13732290  0.42155177  1
  C  C217  1  0.82953693  0.13498109  0.41828498  1
  C  C218  1  0.25170132  0.36505568  0.41502525  1
  C  C219  1  0.75140289  0.35540293  0.42056012  1
  C  C220  1  0.43488299  0.50725009  0.42368067  1
  C  C221  1  0.93687471  0.51155371  0.41867734  1
  C  C222  1  0.17397648  0.51261395  0.07905117  1
  C  C223  1  0.67504224  0.51456518  0.07658572  1
  C  C224  1  0.07327069  0.67617242  0.08283901  1
  C  C225  1  0.57821512  0.67997237  0.08653484  1
  C  C226  1  0.25496072  0.85769033  0.08261509  1
  C  C227  1  0.76161671  0.86070187  0.08190171  1
  C  C228  1  0.17586329  0.83811313  0.57659689  1
  C  C229  1  0.67379909  0.83524335  0.57781388  1
  C  C230  1  0.25830393  0.65827890  0.57928951  1
  C  C231  1  0.75526055  0.65144371  0.58108490  1
  C  C232  1  0.07881016  0.47482865  0.58697161  1
  C  C233  1  0.57355104  0.46931304  0.58070138  1
  C  C234  1  0.15945359  0.82288178  0.25326480  1
  C  C235  1  0.66241387  0.83349719  0.24792247  1
  C  C236  1  0.26215300  0.66919714  0.24982491  1
  C  C237  1  0.77241611  0.68846354  0.24931750  1
  C  C238  1  0.07842931  0.46772681  0.25151406  1
  C  C239  1  0.57237454  0.46072125  0.24769686  1
  C  C240  1  0.16199655  0.49279768  0.74740803  1
  C  C241  1  0.66561710  0.49690175  0.75416200  1
  C  C242  1  0.07332498  0.68625076  0.74767774  1
  C  C243  1  0.58714234  0.68617128  0.75388956  1
  C  C244  1  0.27123672  0.84836464  0.74880075  1
  C  C245  1  0.76543989  0.86032754  0.75022229  1
