# generated using pymatgen
data_Cu2NiC14
_symmetry_space_group_name_H-M   'P 1'
_cell_length_a   3.94279617
_cell_length_b   4.04530322
_cell_length_c   19.38534565
_cell_angle_alpha   90.00000000
_cell_angle_beta   90.00000000
_cell_angle_gamma   90.00000000
_symmetry_Int_Tables_number   1
_chemical_formula_structural   Cu2NiC14
_chemical_formula_sum   'Cu2 Ni1 C14'
_cell_volume   309.19250318
_cell_formula_units_Z   1
loop_
 _symmetry_equiv_pos_site_id
 _symmetry_equiv_pos_as_xyz
  1  'x, y, z'
loop_
 _atom_site_type_symbol
 _atom_site_label
 _atom_site_symmetry_multiplicity
 _atom_site_fract_x
 _atom_site_fract_y
 _atom_site_fract_z
 _atom_site_occupancy
  C  C0  1  0.25000000  0.25000000  0.78965137  1
  C  C1  1  0.75000000  0.75000000  0.10901913  1
  C  C2  1  0.25000000  0.25000000  0.60476711  1
  C  C3  1  0.75000000  0.75000000  0.46693467  1
  Ni  Ni4  1  0.75000000  0.75000000  0.30293780  1
  C  C5  1  0.75000000  0.75000000  0.69210336  1
  C  C6  1  0.25000000  0.25000000  0.37071401  1
  Cu  Cu7  1  0.25000000  0.75000000  0.95320856  1
  Cu  Cu8  1  0.75000000  0.25000000  0.95204799  1
  C  C9  1  0.75000000  0.75000000  0.86667965  1
  C  C10  1  0.25000000  0.25000000  0.04137460  1
  C  C11  1  0.25000000  0.75000000  0.70250391  1
  C  C12  1  0.75000000  0.25000000  0.70008386  1
  C  C13  1  0.75000000  0.25000000  0.34708202  1
  C  C14  1  0.25000000  0.75000000  0.35391948  1
  C  C15  1  0.75000000  0.75000000  0.58648641  1
  C  C16  1  0.25000000  0.25000000  0.47001006  1
