# generated using pymatgen
data_Cu3Ni2C31
_symmetry_space_group_name_H-M   'P 1'
_cell_length_a   8.60630019
_cell_length_b   8.63429122
_cell_length_c   22.50221014
_cell_angle_alpha   88.21642249
_cell_angle_beta   90.40002420
_cell_angle_gamma   119.69990187
_symmetry_Int_Tables_number   1
_chemical_formula_structural   Cu3Ni2C31
_chemical_formula_sum   'Cu9 Ni6 C93'
_cell_volume   1451.68834885
_cell_formula_units_Z   3
loop_
 _symmetry_equiv_pos_site_id
 _symmetry_equiv_pos_as_xyz
  1  'x, y, z'
loop_
 _atom_site_type_symbol
 _atom_site_label
 _atom_site_symmetry_multiplicity
 _atom_site_fract_x
 _atom_site_fract_y
 _atom_site_fract_z
 _atom_site_occupancy
  C  C0  1  0.98499757  0.98561866  0.50281992  1
  C  C1  1  0.02044286  0.01933633  0.99844350  1
  C  C2  1  0.66687972  0.32592721  0.83509718  1
  C  C3  1  0.66035923  0.31473614  0.33515201  1
  C  C4  1  0.33516018  0.66203080  0.16348959  1
  C  C5  1  0.35219879  0.67533467  0.67033687  1
  C  C6  1  0.97934636  0.98658983  0.64699928  1
  C  C7  1  0.01436587  0.01335370  0.13783330  1
  C  C8  1  0.34561623  0.68171666  0.32127293  1
  Ni  Ni9  1  0.69656083  0.99205348  0.75264123  1
  Ni  Ni10  1  0.66178599  0.60356407  0.58114701  1
  Ni  Ni11  1  0.39579617  0.35515278  0.07414352  1
  Ni  Ni12  1  0.04091605  0.38205859  0.91693000  1
  Ni  Ni13  1  0.32171057  0.94948261  0.91759168  1
  Ni  Ni14  1  0.63404466  0.97906018  0.41833400  1
  Cu  Cu15  1  0.97554510  0.99193567  0.35293946  1
  Cu  Cu16  1  0.00490462  0.02900700  0.85707398  1
  Cu  Cu17  1  0.66550794  0.33450790  0.69093507  1
  Cu  Cu18  1  0.65517434  0.33787139  0.17900107  1
  Cu  Cu19  1  0.65119021  0.31367386  0.97223843  1
  Cu  Cu20  1  0.67056231  0.33349959  0.48367291  1
  Cu  Cu21  1  0.31351843  0.64431427  0.01310521  1
  Cu  Cu22  1  0.36760260  0.67647406  0.52190764  1
  Cu  Cu23  1  0.32893586  0.68485803  0.82114050  1
  C  C24  1  0.30326219  0.01531339  0.24970452  1
  C  C25  1  0.71196690  0.69555000  0.24845382  1
  C  C26  1  0.98531941  0.29262219  0.24834422  1
  C  C27  1  0.29863895  0.30260256  0.75290778  1
  C  C28  1  -0.00008531  0.69811868  0.75325482  1
  C  C29  1  0.96322293  0.35096201  0.58018437  1
  C  C30  1  0.38690734  0.04002529  0.58089966  1
  C  C31  1  0.95107767  0.60439261  0.07924492  1
  C  C32  1  0.65092037  0.04672387  0.08081120  1
  C  C33  1  0.62238768  0.66890454  0.91623115  1
  C  C34  1  0.33263305  0.36159275  0.42074815  1
  C  C35  1  0.03373815  0.66673335  0.42013845  1
  C  C36  1  0.22276515  0.03842108  0.30624043  1
  C  C37  1  0.81683328  0.77627446  0.30630838  1
  C  C38  1  0.95743306  0.18137249  0.30684394  1
  C  C39  1  0.21766669  0.18036708  0.80710843  1
  C  C40  1  0.97003770  0.77856981  0.80498852  1
  C  C41  1  0.83708002  0.03543085  0.80955093  1
  C  C42  1  0.74790311  0.94707065  0.69182321  1
  C  C43  1  0.19986029  0.23201330  0.69886582  1
  C  C44  1  0.03628097  0.79852905  0.69760527  1
  C  C45  1  0.79782221  0.80362249  0.19614301  1
  C  C46  1  0.00713908  0.20878470  0.19734513  1
  C  C47  1  0.20130311  0.00237749  0.19739189  1
  C  C48  1  0.87941249  0.37006693  0.63506162  1
  C  C49  1  0.49246654  0.11123017  0.63572255  1
  C  C50  1  0.62753465  0.47836554  0.64374088  1
  C  C51  1  0.87709800  0.49760806  0.13866643  1
  C  C52  1  0.63114587  0.13192504  0.13693236  1
  C  C53  1  0.50695840  0.38804394  0.13925737  1
  C  C54  1  0.50528774  0.33182625  0.02055692  1
  C  C55  1  0.84762351  0.51445598  0.02772330  1
  C  C56  1  0.68692981  0.16003880  0.02595911  1
  C  C57  1  0.47729481  0.14518341  0.52647881  1
  C  C58  1  0.67390546  0.50413982  0.52333349  1
  C  C59  1  0.85115188  0.31854442  0.52660730  1
  C  C60  1  0.54341127  0.69896890  0.96992328  1
  C  C61  1  0.16362270  0.45263332  0.97561863  1
  C  C62  1  0.29386605  0.82354680  0.97778743  1
  C  C63  1  0.54368233  0.83593529  0.47657194  1
  C  C64  1  0.29675309  0.44658715  0.47249145  1
  C  C65  1  0.14865532  0.69412525  0.47277225  1
  C  C66  1  0.09745234  0.63171693  0.36590982  1
  C  C67  1  0.53148725  0.92949313  0.35806228  1
  C  C68  1  0.36590585  0.46268552  0.36539467  1
  C  C69  1  0.13709869  0.50594597  0.85804897  1
  C  C70  1  0.37085810  0.87354414  0.86060895  1
  C  C71  1  0.50860678  0.63572523  0.86307398  1
  C  C72  1  0.01852209  0.83451130  0.41324512  1
  C  C73  1  0.83390147  0.99041070  0.41091222  1
  C  C74  1  0.17311990  0.17983203  0.41629007  1
  C  C75  1  0.01772941  0.18352665  0.91019976  1
  C  C76  1  0.14048267  0.96552500  0.90532067  1
  C  C77  1  0.80184529  0.82888178  0.90990630  1
  C  C78  1  0.99294708  0.19979205  0.58327775  1
  C  C79  1  0.21311527  0.02799209  0.58259173  1
  C  C80  1  0.82974888  0.79668341  0.57814074  1
  C  C81  1  0.96259035  0.77736714  0.08254247  1
  C  C82  1  0.80561569  0.02246467  0.08439362  1
  C  C83  1  0.20397466  0.18416160  0.07268449  1
  C  C84  1  0.68007701  0.17979110  0.74254888  1
  C  C85  1  0.48240815  0.31898937  0.74950333  1
  C  C86  1  0.83384626  0.51517756  0.74783960  1
  C  C87  1  0.70775896  0.51814127  0.24610199  1
  C  C88  1  0.81383979  0.30052894  0.24327267  1
  C  C89  1  0.48716433  0.18513061  0.24424995  1
  C  C90  1  0.64548585  0.51005450  0.92129676  1
  C  C91  1  0.84368604  0.36596917  0.92547771  1
  C  C92  1  0.49826416  0.14765553  0.92311436  1
  C  C93  1  0.66848104  0.17852561  0.43296615  1
  C  C94  1  0.49419148  0.34206392  0.42957903  1
  C  C95  1  0.84945552  0.51247266  0.42872079  1
  C  C96  1  0.38637187  0.54427115  0.06997410  1
  C  C97  1  0.13330251  0.62187818  0.07819505  1
  C  C98  1  0.48387310  0.87714692  0.07826758  1
  C  C99  1  0.36859373  0.85680647  0.57557029  1
  C  C100  1  0.46822290  0.60765893  0.57779113  1
  C  C101  1  0.13540102  0.52397172  0.57258830  1
  C  C102  1  0.32889023  0.86093633  0.25244332  1
  C  C103  1  0.52944450  0.66272852  0.25397327  1
  C  C104  1  0.13723811  0.47070665  0.25531905  1
  C  C105  1  0.32104730  0.47979786  0.76284129  1
  C  C106  1  0.15777777  0.66920214  0.76044703  1
  C  C107  1  0.49814024  0.81837828  0.76672536  1
