# generated using pymatgen
data_Cu6Ni4C53
_symmetry_space_group_name_H-M   'P 1'
_cell_length_a   9.20247014
_cell_length_b   9.19919225
_cell_length_c   22.13683932
_cell_angle_alpha   89.98268646
_cell_angle_beta   90.00000000
_cell_angle_gamma   120.01178779
_symmetry_Int_Tables_number   1
_chemical_formula_structural   Cu6Ni4C53
_chemical_formula_sum   'Cu12 Ni8 C106'
_cell_volume   1622.73921560
_cell_formula_units_Z   2
loop_
 _symmetry_equiv_pos_site_id
 _symmetry_equiv_pos_as_xyz
  1  'x, y, z'
loop_
 _atom_site_type_symbol
 _atom_site_label
 _atom_site_symmetry_multiplicity
 _atom_site_fract_x
 _atom_site_fract_y
 _atom_site_fract_z
 _atom_site_occupancy
  C  C0  1  0.64793244  0.02169046  0.25317629  1
  C  C1  1  0.35170492  0.33904087  0.24964321  1
  C  C2  1  0.99340521  0.63242630  0.23885424  1
  C  C3  1  0.63902109  0.63242630  0.73885424  1
  C  C4  1  0.98733595  0.33904087  0.74964321  1
  C  C5  1  0.37375802  0.02169046  0.75317629  1
  C  C6  1  0.30242949  0.34599778  0.58627031  1
  C  C7  1  0.03627808  0.71018624  0.57804258  1
  C  C8  1  0.66598272  0.94372145  0.58272094  1
  C  C9  1  0.27773973  0.94372145  0.08272094  1
  C  C10  1  0.67390916  0.71018624  0.07804258  1
  C  C11  1  0.04356928  0.34599778  0.08627031  1
  C  C12  1  0.98547273  0.69739326  0.91505755  1
  C  C13  1  0.71361729  0.02381611  0.90855470  1
  C  C14  1  0.30666853  0.27989662  0.90888718  1
  C  C15  1  0.97322710  0.27989662  0.40888718  1
  C  C16  1  0.31019782  0.02381611  0.40855470  1
  C  C17  1  0.71191953  0.69739326  0.41505755  1
  C  C18  1  0.99170000  0.99286315  0.49339500  1
  C  C19  1  0.00116315  0.99286315  0.99339500  1
  C  C20  1  0.65442577  0.31966736  0.82443553  1
  C  C21  1  0.66524259  0.31966736  0.32443553  1
  C  C22  1  0.31314969  0.66419702  0.16249363  1
  C  C23  1  0.35104633  0.66419702  0.66249363  1
  C  C24  1  0.67469432  0.34389788  0.97597965  1
  C  C25  1  0.66920456  0.34389788  0.47597965  1
  C  C26  1  0.32543925  0.66509746  0.31772013  1
  C  C27  1  0.33965720  0.66509746  0.81772013  1
  Ni  Ni28  1  0.01768169  0.01737714  0.34966379  1
  Ni  Ni29  1  0.99969545  0.01737714  0.84966379  1
  Ni  Ni30  1  0.98044373  0.00024183  0.65852370  1
  Ni  Ni31  1  0.01979810  0.00024183  0.15852370  1
  Ni  Ni32  1  0.64735259  0.32859099  0.68558381  1
  Ni  Ni33  1  0.68123940  0.32859099  0.18558381  1
  Ni  Ni34  1  0.31961442  0.66753283  0.00750575  1
  Ni  Ni35  1  0.34791741  0.66753283  0.50750575  1
  Cu  Cu36  1  0.30214910  0.99955278  0.24967781  1
  Cu  Cu37  1  0.00303197  0.29388102  0.24946822  1
  Cu  Cu38  1  0.29084904  0.29388102  0.74946822  1
  Cu  Cu39  1  0.69740368  0.99955278  0.74967781  1
  Cu  Cu40  1  0.67007367  0.63266144  0.58728076  1
  Cu  Cu41  1  0.96258876  0.63266144  0.08728076  1
  Cu  Cu42  1  0.62723472  0.66975999  0.92246266  1
  Cu  Cu43  1  0.04174880  0.37315021  0.92047050  1
  Cu  Cu44  1  0.33250880  0.96290278  0.92012045  1
  Cu  Cu45  1  0.63039298  0.96290278  0.42012045  1
  Cu  Cu46  1  0.33140042  0.37315021  0.42047050  1
  Cu  Cu47  1  0.04252427  0.66975999  0.42246266  1
  C  C48  1  0.69713404  0.70410110  0.25055961  1
  C  C49  1  0.00696706  0.70410110  0.75055961  1
  C  C50  1  0.95444887  0.33397658  0.58384544  1
  C  C51  1  0.37586896  0.04220262  0.58281544  1
  C  C52  1  0.66633466  0.04220262  0.08281544  1
  C  C53  1  0.37952871  0.33397658  0.08384544  1
  C  C54  1  0.21951925  0.02989466  0.30921468  1
  C  C55  1  0.80013482  0.78240162  0.30487352  1
  C  C56  1  0.96784828  0.17866506  0.30870497  1
  C  C57  1  0.21081678  0.17866506  0.80870497  1
  C  C58  1  0.98226680  0.78240162  0.80487352  1
  C  C59  1  0.81037541  0.02989466  0.80921468  1
  C  C60  1  0.76036599  0.94363769  0.68944915  1
  C  C61  1  0.17538086  0.21655689  0.68826600  1
  C  C62  1  0.03508197  0.80679478  0.69512695  1
  C  C63  1  0.77171281  0.80679478  0.19512695  1
  C  C64  1  0.04117603  0.21655689  0.18826600  1
  C  C65  1  0.18327169  0.94363769  0.18944915  1
  C  C66  1  0.87077284  0.34537728  0.63882638  1
  C  C67  1  0.47490489  0.11747957  0.63838800  1
  C  C68  1  0.64775584  0.51595579  0.64505835  1
  C  C69  1  0.86820095  0.51595579  0.14505835  1
  C  C70  1  0.64257568  0.11747957  0.13838800  1
  C  C71  1  0.47460544  0.34537728  0.13882638  1
  C  C72  1  0.47259361  0.31890088  0.02874874  1
  C  C73  1  0.83415162  0.51865144  0.02689352  1
  C  C74  1  0.67682182  0.15038918  0.02861199  1
  C  C75  1  0.47356836  0.15038918  0.52861199  1
  C  C76  1  0.68450082  0.51865144  0.52689352  1
  C  C77  1  0.84630827  0.31890088  0.52874874  1
  C  C78  1  0.54442813  0.69868570  0.98147263  1
  C  C79  1  0.14954509  0.44795370  0.98085032  1
  C  C80  1  0.30214870  0.85814341  0.98135202  1
  C  C81  1  0.55599371  0.85814341  0.48135202  1
  C  C82  1  0.29840761  0.44795370  0.48085032  1
  C  C83  1  0.15425657  0.69868570  0.48147263  1
  C  C84  1  0.13610214  0.63368971  0.36292811  1
  C  C85  1  0.49849457  0.86341630  0.36196891  1
  C  C86  1  0.36992218  0.50264834  0.36145103  1
  C  C87  1  0.13272516  0.50264834  0.86145103  1
  C  C88  1  0.36492073  0.86341630  0.86196891  1
  C  C89  1  0.49758657  0.63368971  0.86292811  1
  C  C90  1  0.00295757  0.81849698  0.41084815  1
  C  C91  1  0.81513814  0.98855687  0.41032657  1
  C  C92  1  0.17852538  0.18422795  0.41371271  1
  C  C93  1  0.00570258  0.18422795  0.91371271  1
  C  C94  1  0.17341873  0.98855687  0.91032657  1
  C  C95  1  0.81553942  0.81849698  0.91084815  1
  C  C96  1  0.96922364  0.18089466  0.58104733  1
  C  C97  1  0.21323865  0.03724001  0.58232179  1
  C  C98  1  0.84723383  0.81360233  0.58380464  1
  C  C99  1  0.96636850  0.81360233  0.08380464  1
  C  C100  1  0.82400136  0.03724001  0.08232179  1
  C  C101  1  0.21167101  0.18089466  0.08104733  1
  C  C102  1  0.67570726  0.16569332  0.74296497  1
  C  C103  1  0.48497145  0.33186012  0.74824532  1
  C  C104  1  0.86432127  0.53183341  0.74582465  1
  C  C105  1  0.66751314  0.53183341  0.24582465  1
  C  C106  1  0.84688966  0.33186012  0.24824532  1
  C  C107  1  0.48998707  0.16569332  0.24296497  1
  C  C108  1  0.62933563  0.48654819  0.92424098  1
  C  C109  1  0.85218170  0.36327858  0.92319827  1
  C  C110  1  0.51155159  0.14967810  0.92398544  1
  C  C111  1  0.63812752  0.14967810  0.42398544  1
  C  C112  1  0.51109788  0.36327858  0.42319827  1
  C  C113  1  0.85721356  0.48654819  0.42424098  1
  C  C114  1  0.36714771  0.48795004  0.08007443  1
  C  C115  1  0.14664522  0.64687151  0.08248283  1
  C  C116  1  0.51851206  0.87153424  0.07888740  1
  C  C117  1  0.35302119  0.87153424  0.57888740  1
  C  C118  1  0.50022529  0.64687151  0.58248283  1
  C  C119  1  0.12080132  0.48795004  0.58007443  1
  C  C120  1  0.32511067  0.82772710  0.25870495  1
  C  C121  1  0.52628908  0.69267355  0.25592106  1
  C  C122  1  0.18170030  0.48626777  0.25801437  1
  C  C123  1  0.30456647  0.48626777  0.75801437  1
  C  C124  1  0.16638347  0.69267355  0.75592106  1
  C  C125  1  0.50261543  0.82772710  0.75870495  1
