# generated using pymatgen
data_Cu24Ni6C5
_symmetry_space_group_name_H-M   'P 1'
_cell_length_a   18.26112277
_cell_length_b   9.13161862
_cell_length_c   23.89315882
_cell_angle_alpha   90.06576233
_cell_angle_beta   89.99904853
_cell_angle_gamma   120.04357696
_symmetry_Int_Tables_number   1
_chemical_formula_structural   Cu24Ni6C5
_chemical_formula_sum   'Cu144 Ni36 C30'
_cell_volume   3448.96030330
_cell_formula_units_Z   6
loop_
 _symmetry_equiv_pos_site_id
 _symmetry_equiv_pos_as_xyz
  1  'x, y, z'
loop_
 _atom_site_type_symbol
 _atom_site_label
 _atom_site_symmetry_multiplicity
 _atom_site_fract_x
 _atom_site_fract_y
 _atom_site_fract_z
 _atom_site_occupancy
  C  C0  1  0.00077208  0.00076905  0.50128100  1
  C  C1  1  0.50357787  0.00579667  0.99718895  1
  C  C2  1  0.33471291  0.33572540  0.82888378  1
  C  C3  1  0.83179386  0.33076590  0.82999059  1
  C  C4  1  0.33165417  0.33366175  0.33994124  1
  C  C5  1  0.83481322  0.33212730  0.33320978  1
  C  C6  1  0.00139528  0.00152643  0.35495804  1
  C  C7  1  0.50064140  0.00031508  0.85333047  1
  C  C8  1  0.00025992  0.99991213  0.64835980  1
  C  C9  1  0.50267905  0.00315574  0.14809984  1
  C  C10  1  0.33013184  0.33013471  0.68249273  1
  C  C11  1  0.83644351  0.33667407  0.68360428  1
  C  C12  1  0.82978559  0.32986413  0.18284188  1
  C  C13  1  0.33110920  0.33150899  0.98080638  1
  C  C14  1  0.83550809  0.33537751  0.98316277  1
  C  C15  1  0.33543860  0.33658011  0.48501541  1
  C  C16  1  0.83155164  0.33020352  0.48367305  1
  C  C17  1  0.16286350  0.66148721  0.31050870  1
  C  C18  1  0.67085441  0.66990869  0.31050469  1
  C  C19  1  0.17062000  0.67206144  0.80892126  1
  C  C20  1  0.66280370  0.66173066  0.80836459  1
  C  C21  1  0.50097962  0.99852479  0.35610113  1
  C  C22  1  0.99904969  0.99915450  0.85200593  1
  C  C23  1  0.49983047  0.00008903  0.64944538  1
  C  C24  1  0.99625479  0.99794894  0.14841529  1
  C  C25  1  0.33599642  0.33586636  0.18459922  1
  C  C26  1  0.16465931  0.66683651  0.01795252  1
  C  C27  1  0.66843361  0.66655618  0.01802268  1
  C  C28  1  0.16633919  0.66522576  0.52065048  1
  C  C29  1  0.66704194  0.66833496  0.52141127  1
  Ni  Ni30  1  0.14774591  0.00804958  0.24664650  1
  Ni  Ni31  1  0.64483905  0.00390844  0.25281234  1
  Ni  Ni32  1  0.35651430  0.70560950  0.25017699  1
  Ni  Ni33  1  0.85683357  0.70888660  0.24977987  1
  Ni  Ni34  1  0.99775049  0.28637996  0.24932554  1
  Ni  Ni35  1  0.49607037  0.28679227  0.25065008  1
  Ni  Ni36  1  0.14559442  0.28645721  0.75239096  1
  Ni  Ni37  1  0.64588004  0.28701546  0.74936187  1
  Ni  Ni38  1  0.99796929  0.70858243  0.75222912  1
  Ni  Ni39  1  0.49730434  0.70831197  0.74934801  1
  Ni  Ni40  1  0.35688003  0.00512756  0.74955961  1
  Ni  Ni41  1  0.85615591  0.00421691  0.75206883  1
  Ni  Ni42  1  0.48361101  0.33233547  0.58327960  1
  Ni  Ni43  1  0.98352184  0.33468572  0.58077682  1
  Ni  Ni44  1  0.18401940  0.03275517  0.58027781  1
  Ni  Ni45  1  0.68247210  0.03298789  0.58370490  1
  Ni  Ni46  1  0.33390552  0.63558816  0.58349718  1
  Ni  Ni47  1  0.83255234  0.63150274  0.58061679  1
  Ni  Ni48  1  0.48067539  0.62331942  0.08198312  1
  Ni  Ni49  1  0.98375919  0.63470865  0.08353163  1
  Ni  Ni50  1  0.33106747  0.03877139  0.08210645  1
  Ni  Ni51  1  0.83276391  0.03226218  0.08321152  1
  Ni  Ni52  1  0.18617553  0.33394594  0.08489508  1
  Ni  Ni53  1  0.68423413  0.33597495  0.08017058  1
  Ni  Ni54  1  0.31117724  0.66824568  0.91847467  1
  Ni  Ni55  1  0.81267566  0.66947530  0.91495834  1
  Ni  Ni56  1  0.02296323  0.37529388  0.91539592  1
  Ni  Ni57  1  0.52185077  0.37674681  0.91803445  1
  Ni  Ni58  1  0.16431977  0.95441719  0.91535527  1
  Ni  Ni59  1  0.66672490  0.95563336  0.91821056  1
  Ni  Ni60  1  0.31287652  0.95697926  0.41451071  1
  Ni  Ni61  1  0.81107050  0.95539584  0.41835129  1
  Ni  Ni62  1  0.16775645  0.37800965  0.41795120  1
  Ni  Ni63  1  0.66518090  0.37495032  0.41524183  1
  Ni  Ni64  1  0.02166453  0.66623774  0.41805115  1
  Ni  Ni65  1  0.52200048  0.66811076  0.41508931  1
  Cu  Cu66  1  0.11622816  0.04473297  0.29763498  1
  Cu  Cu67  1  0.59521258  0.02100919  0.30287148  1
  Cu  Cu68  1  0.41164839  0.78635523  0.30093558  1
  Cu  Cu69  1  0.90801428  0.78927272  0.29958192  1
  Cu  Cu70  1  0.48063122  0.17466067  0.30087609  1
  Cu  Cu71  1  0.98715129  0.18559844  0.29940684  1
  Cu  Cu72  1  0.09714149  0.17325961  0.80325315  1
  Cu  Cu73  1  0.60687195  0.18646458  0.79987662  1
  Cu  Cu74  1  0.48614747  0.78620932  0.80001110  1
  Cu  Cu75  1  0.98954135  0.80550444  0.80316645  1
  Cu  Cu76  1  0.40687392  0.02678473  0.80018484  1
  Cu  Cu77  1  0.91311690  0.02131203  0.80310574  1
  Cu  Cu78  1  0.40459072  0.99201513  0.69862287  1
  Cu  Cu79  1  0.89547605  0.98640380  0.70154095  1
  Cu  Cu80  1  0.09787823  0.20834084  0.70159100  1
  Cu  Cu81  1  0.59125908  0.19103056  0.69849766  1
  Cu  Cu82  1  0.00668574  0.80421214  0.70157535  1
  Cu  Cu83  1  0.50397216  0.81739788  0.69856576  1
  Cu  Cu84  1  0.39512711  0.80413415  0.19994512  1
  Cu  Cu85  1  0.90476419  0.81784773  0.19833558  1
  Cu  Cu86  1  0.00447324  0.19001424  0.19811331  1
  Cu  Cu87  1  0.50628783  0.21054975  0.19997564  1
  Cu  Cu88  1  0.09313939  0.99027546  0.19730588  1
  Cu  Cu89  1  0.59708221  0.98585724  0.20172042  1
  Cu  Cu90  1  0.44932796  0.37162587  0.63219788  1
  Cu  Cu91  1  0.94966598  0.36723961  0.63172738  1
  Cu  Cu92  1  0.23392926  0.10038103  0.63125366  1
  Cu  Cu93  1  0.73651668  0.10158608  0.63266451  1
  Cu  Cu94  1  0.31433074  0.52809244  0.63253192  1
  Cu  Cu95  1  0.81610806  0.53097105  0.63133682  1
  Cu  Cu96  1  0.43699374  0.51289784  0.13360776  1
  Cu  Cu97  1  0.94957400  0.52764024  0.13268599  1
  Cu  Cu98  1  0.31936276  0.12564314  0.13333638  1
  Cu  Cu99  1  0.81448955  0.10067904  0.13287670  1
  Cu  Cu100  1  0.24444293  0.36431905  0.13436430  1
  Cu  Cu101  1  0.73330688  0.36701102  0.13157401  1
  Cu  Cu102  1  0.21982286  0.29727979  0.03531650  1
  Cu  Cu103  1  0.72503636  0.31032183  0.03139322  1
  Cu  Cu104  1  0.42780205  0.54428200  0.03332436  1
  Cu  Cu105  1  0.93136927  0.56746773  0.03367024  1
  Cu  Cu106  1  0.34438510  0.14253450  0.03300584  1
  Cu  Cu107  1  0.85233808  0.13894528  0.03388223  1
  Cu  Cu108  1  0.22474870  0.13896386  0.53109050  1
  Cu  Cu109  1  0.71654912  0.13641343  0.53360632  1
  Cu  Cu110  1  0.35274451  0.56704110  0.53373631  1
  Cu  Cu111  1  0.84385409  0.55084917  0.53098937  1
  Cu  Cu112  1  0.43138646  0.29573971  0.53314960  1
  Cu  Cu113  1  0.93082439  0.31080932  0.53157238  1
  Cu  Cu114  1  0.26215282  0.68023385  0.96987121  1
  Cu  Cu115  1  0.77090988  0.69246362  0.96701221  1
  Cu  Cu116  1  0.07650019  0.46111672  0.96804490  1
  Cu  Cu117  1  0.57649368  0.47404968  0.96894901  1
  Cu  Cu118  1  0.15354701  0.84584620  0.96729002  1
  Cu  Cu119  1  0.66070258  0.84780062  0.96964619  1
  Cu  Cu120  1  0.27413740  0.85295188  0.46567071  1
  Cu  Cu121  1  0.76227032  0.84588255  0.46884340  1
  Cu  Cu122  1  0.16201895  0.47308464  0.46859391  1
  Cu  Cu123  1  0.65168299  0.45483971  0.46609823  1
  Cu  Cu124  1  0.07652295  0.67939869  0.46813971  1
  Cu  Cu125  1  0.57381009  0.69382130  0.46657096  1
  Cu  Cu126  1  0.06095392  0.65007887  0.36671975  1
  Cu  Cu127  1  0.56124699  0.64486619  0.36567110  1
  Cu  Cu128  1  0.26163606  0.87889446  0.36481675  1
  Cu  Cu129  1  0.76328064  0.87608118  0.36750842  1
  Cu  Cu130  1  0.17588567  0.47380127  0.36704051  1
  Cu  Cu131  1  0.67700375  0.47552396  0.36542949  1
  Cu  Cu132  1  0.06284403  0.48017707  0.86703999  1
  Cu  Cu133  1  0.56131224  0.47211949  0.86751821  1
  Cu  Cu134  1  0.17761998  0.87688237  0.86653947  1
  Cu  Cu135  1  0.67450251  0.87486856  0.86797022  1
  Cu  Cu136  1  0.26317367  0.65134166  0.86822832  1
  Cu  Cu137  1  0.76046957  0.64411699  0.86620904  1
  Cu  Cu138  1  0.01640344  0.82267276  0.41823440  1
  Cu  Cu139  1  0.51494545  0.82733721  0.40726206  1
  Cu  Cu140  1  0.39892196  0.96937413  0.40570458  1
  Cu  Cu141  1  0.89463344  0.96693673  0.41884353  1
  Cu  Cu142  1  0.08978660  0.21056844  0.41818119  1
  Cu  Cu143  1  0.58511222  0.20236675  0.40691027  1
  Cu  Cu144  1  0.01723361  0.20620272  0.90961708  1
  Cu  Cu145  1  0.51648535  0.20988780  0.91927155  1
  Cu  Cu146  1  0.08564132  0.96561026  0.90963469  1
  Cu  Cu147  1  0.58856481  0.96644641  0.91947650  1
  Cu  Cu148  1  0.39455433  0.82394265  0.91993298  1
  Cu  Cu149  1  0.89754583  0.82791976  0.90866625  1
  Cu  Cu150  1  0.49692242  0.18582177  0.59510887  1
  Cu  Cu151  1  0.99715530  0.18966455  0.58585767  1
  Cu  Cu152  1  0.09768494  0.00479819  0.58541870  1
  Cu  Cu153  1  0.59604782  0.00700768  0.59540573  1
  Cu  Cu154  1  0.40778776  0.80850334  0.59551989  1
  Cu  Cu155  1  0.90462189  0.80421887  0.58575840  1
  Cu  Cu156  1  0.49185680  0.79209859  0.09062019  1
  Cu  Cu157  1  0.99739991  0.80874633  0.09575226  1
  Cu  Cu158  1  0.40315007  0.01311631  0.09090337  1
  Cu  Cu159  1  0.90759750  0.00753061  0.09506080  1
  Cu  Cu160  1  0.10139542  0.18781219  0.09874145  1
  Cu  Cu161  1  0.59745474  0.19013255  0.08509848  1
  Cu  Cu162  1  0.34804699  0.15603075  0.74275706  1
  Cu  Cu163  1  0.85139084  0.16116755  0.75205465  1
  Cu  Cu164  1  0.22912961  0.29717371  0.75246586  1
  Cu  Cu165  1  0.73014743  0.30454685  0.74214730  1
  Cu  Cu166  1  0.42185806  0.53942156  0.74232847  1
  Cu  Cu167  1  0.91958061  0.54178997  0.75225262  1
  Cu  Cu168  1  0.34974554  0.53042779  0.24260395  1
  Cu  Cu169  1  0.84817144  0.54086602  0.24247095  1
  Cu  Cu170  1  0.41532410  0.30077452  0.24305945  1
  Cu  Cu171  1  0.92237139  0.30385474  0.24199689  1
  Cu  Cu172  1  0.23521516  0.16443430  0.23469971  1
  Cu  Cu173  1  0.72817006  0.16035167  0.25270376  1
  Cu  Cu174  1  0.31941142  0.51707706  0.92506983  1
  Cu  Cu175  1  0.82572362  0.52452021  0.92326979  1
  Cu  Cu176  1  0.43748629  0.35871614  0.92442979  1
  Cu  Cu177  1  0.93789493  0.35083393  0.92401073  1
  Cu  Cu178  1  0.23715567  0.12419612  0.92399032  1
  Cu  Cu179  1  0.74228180  0.12459558  0.92462696  1
  Cu  Cu180  1  0.32774855  0.13003152  0.42158206  1
  Cu  Cu181  1  0.81952236  0.12368652  0.42422604  1
  Cu  Cu182  1  0.24338875  0.35916945  0.42335555  1
  Cu  Cu183  1  0.73672006  0.34660738  0.42262575  1
  Cu  Cu184  1  0.43575985  0.52432085  0.42203257  1
  Cu  Cu185  1  0.93697851  0.51554111  0.42369304  1
  Cu  Cu186  1  0.17772437  0.48713439  0.07620986  1
  Cu  Cu187  1  0.67650216  0.49242590  0.06916900  1
  Cu  Cu188  1  0.07048099  0.65705751  0.07056276  1
  Cu  Cu189  1  0.56490475  0.63513166  0.07554358  1
  Cu  Cu190  1  0.25187551  0.86954770  0.07454543  1
  Cu  Cu191  1  0.75853335  0.85929791  0.07128443  1
  Cu  Cu192  1  0.17662848  0.86079432  0.56898846  1
  Cu  Cu193  1  0.67036230  0.85792620  0.57122805  1
  Cu  Cu194  1  0.25917633  0.65885140  0.57091496  1
  Cu  Cu195  1  0.75338061  0.64770758  0.56941351  1
  Cu  Cu196  1  0.07049468  0.49189078  0.57013616  1
  Cu  Cu197  1  0.57021452  0.48335967  0.57016670  1
  Cu  Cu198  1  0.15822846  0.86118209  0.25045344  1
  Cu  Cu199  1  0.65191595  0.85447305  0.26127757  1
  Cu  Cu200  1  0.27245540  0.67871875  0.25931109  1
  Cu  Cu201  1  0.77514787  0.70050104  0.25065991  1
  Cu  Cu202  1  0.07550716  0.45013982  0.25029089  1
  Cu  Cu203  1  0.56653067  0.45463934  0.25992522  1
  Cu  Cu204  1  0.15301406  0.45062396  0.76090187  1
  Cu  Cu205  1  0.65004186  0.45031272  0.75084161  1
  Cu  Cu206  1  0.07247891  0.69351404  0.76098502  1
  Cu  Cu207  1  0.57492216  0.70032914  0.75067623  1
  Cu  Cu208  1  0.27511558  0.85006556  0.75065693  1
  Cu  Cu209  1  0.77411602  0.85514219  0.76097609  1
