# generated using pymatgen
data_Cu3Ni3C29
_symmetry_space_group_name_H-M   'P 1'
_cell_length_a   8.85072988
_cell_length_b   8.85926461
_cell_length_c   23.05316272
_cell_angle_alpha   90.09502368
_cell_angle_beta   89.88156068
_cell_angle_gamma   120.03480487
_symmetry_Int_Tables_number   1
_chemical_formula_structural   Cu3Ni3C29
_chemical_formula_sum   'Cu9 Ni9 C87'
_cell_volume   1564.89226962
_cell_formula_units_Z   3
loop_
 _symmetry_equiv_pos_site_id
 _symmetry_equiv_pos_as_xyz
  1  'x, y, z'
loop_
 _atom_site_type_symbol
 _atom_site_label
 _atom_site_symmetry_multiplicity
 _atom_site_fract_x
 _atom_site_fract_y
 _atom_site_fract_z
 _atom_site_occupancy
  C  C0  1  0.67449988  0.33458818  0.83396971  1
  C  C1  1  0.66421274  0.33797741  0.33131081  1
  C  C2  1  0.34101762  0.67191726  0.16934747  1
  C  C3  1  0.00736389  0.99354818  0.35478902  1
  C  C4  1  0.99256287  0.00058349  0.85545541  1
  C  C5  1  0.99452677  0.99193348  0.64768994  1
  C  C6  1  0.99769227  0.99804830  0.14483018  1
  C  C7  1  0.33295227  0.65896196  0.02115185  1
  C  C8  1  0.32607024  0.66118983  0.51796893  1
  C  C9  1  0.67351771  0.33308402  0.68893421  1
  C  C10  1  0.65106587  0.32713299  0.18653192  1
  C  C11  1  0.66684587  0.32399239  0.98375982  1
  C  C12  1  0.66536033  0.33902911  0.47730655  1
  C  C13  1  0.33403123  0.66480677  0.31261937  1
  C  C14  1  0.32406188  0.66646406  0.81006023  1
  Ni  Ni15  1  0.29027226  0.99791399  0.24941647  1
  Ni  Ni16  1  0.70986947  0.70906017  0.25004421  1
  Ni  Ni17  1  0.99862473  0.71039377  0.75086741  1
  Ni  Ni18  1  0.70775721  0.99833573  0.75040582  1
  Ni  Ni19  1  0.66567269  0.04350272  0.08408109  1
  Ni  Ni20  1  0.37748205  0.33128543  0.08308542  1
  Ni  Ni21  1  0.04235906  0.37961937  0.91556422  1
  Ni  Ni22  1  0.33305236  0.37705290  0.41548952  1
  Ni  Ni23  1  0.04314735  0.66337748  0.41571833  1
  Cu  Cu24  1  0.99852814  0.28901051  0.25023017  1
  Cu  Cu25  1  0.28947857  0.28917623  0.75007225  1
  Cu  Cu26  1  0.95560376  0.33203090  0.58310422  1
  Cu  Cu27  1  0.37821585  0.04435372  0.58338996  1
  Cu  Cu28  1  0.66468949  0.62160263  0.58352841  1
  Cu  Cu29  1  0.95563379  0.62184429  0.08367932  1
  Cu  Cu30  1  0.62064169  0.66291972  0.91563834  1
  Cu  Cu31  1  0.33387246  0.95668810  0.91602528  1
  Cu  Cu32  1  0.62319398  0.95716795  0.41638535  1
  C  C33  1  0.20328861  0.02778846  0.30393013  1
  C  C34  1  0.82423122  0.80101512  0.30434788  1
  C  C35  1  0.97277971  0.18122508  0.30251176  1
  C  C36  1  0.20832115  0.17753651  0.80193285  1
  C  C37  1  0.97103821  0.80018020  0.80409706  1
  C  C38  1  0.82870007  0.03133257  0.80354202  1
  C  C39  1  0.80073271  0.97643165  0.69605674  1
  C  C40  1  0.18047525  0.20586434  0.69760860  1
  C  C41  1  0.02548537  0.82539256  0.69612980  1
  C  C42  1  0.79863980  0.82492833  0.19606150  1
  C  C43  1  0.02655620  0.20766754  0.19783989  1
  C  C44  1  0.17531596  0.97385161  0.19595326  1
  C  C45  1  0.87852472  0.36361344  0.63512267  1
  C  C46  1  0.48549602  0.12350329  0.63536985  1
  C  C47  1  0.63621093  0.51472003  0.63530035  1
  C  C48  1  0.88228225  0.51555021  0.13547384  1
  C  C49  1  0.63461204  0.12557135  0.13770015  1
  C  C50  1  0.49126155  0.36938857  0.13700259  1
  C  C51  1  0.46062195  0.30668531  0.02846865  1
  C  C52  1  0.85182841  0.54685922  0.03100017  1
  C  C53  1  0.69605726  0.15347736  0.02929977  1
  C  C54  1  0.45638811  0.15197194  0.53160672  1
  C  C55  1  0.69732296  0.54543745  0.53176149  1
  C  C56  1  0.84811358  0.30262092  0.53161738  1
  C  C57  1  0.54320140  0.69530385  0.96834295  1
  C  C58  1  0.15784189  0.46555700  0.97000200  1
  C  C59  1  0.30616779  0.84920432  0.96834772  1
  C  C60  1  0.54162472  0.84793520  0.46935396  1
  C  C61  1  0.30815043  0.46561793  0.47101593  1
  C  C62  1  0.15800530  0.69405816  0.47100996  1
  C  C63  1  0.12786006  0.63512094  0.36277050  1
  C  C64  1  0.51473638  0.87968739  0.36521643  1
  C  C65  1  0.36635048  0.49321567  0.36299962  1
  C  C66  1  0.13121911  0.49223248  0.86225258  1
  C  C67  1  0.36375090  0.87779914  0.86441341  1
  C  C68  1  0.51482138  0.63845165  0.86423353  1
  C  C69  1  0.02392003  0.82607290  0.40919669  1
  C  C70  1  0.79697883  0.97533029  0.40921318  1
  C  C71  1  0.16894301  0.19766438  0.40788764  1
  C  C72  1  0.02688984  0.19823331  0.90676172  1
  C  C73  1  0.17677887  0.97394008  0.90780396  1
  C  C74  1  0.79630777  0.82195059  0.90891802  1
  C  C75  1  0.97904331  0.17936563  0.59267092  1
  C  C76  1  0.20217514  0.02416229  0.59262263  1
  C  C77  1  0.82154245  0.79820969  0.59194064  1
  C  C78  1  0.97779425  0.79779184  0.09108642  1
  C  C79  1  0.82570202  0.02096775  0.09315857  1
  C  C80  1  0.19498603  0.17359308  0.09332724  1
  C  C81  1  0.69181837  0.16273670  0.74245320  1
  C  C82  1  0.46301083  0.30531143  0.74272737  1
  C  C83  1  0.83435803  0.53023389  0.74239892  1
  C  C84  1  0.69627122  0.53010246  0.24384392  1
  C  C85  1  0.84372568  0.30772816  0.24370236  1
  C  C86  1  0.47146318  0.16222855  0.24483380  1
  C  C87  1  0.64351189  0.51099428  0.92351651  1
  C  C88  1  0.85958936  0.35716277  0.92332416  1
  C  C89  1  0.48804298  0.13295073  0.92266291  1
  C  C90  1  0.64237699  0.13123443  0.42515075  1
  C  C91  1  0.49322861  0.35451374  0.42534963  1
  C  C92  1  0.86149489  0.50287812  0.42547527  1
  C  C93  1  0.35516073  0.49576699  0.07500153  1
  C  C94  1  0.13497891  0.64554732  0.07536151  1
  C  C95  1  0.50206841  0.85900959  0.07383527  1
  C  C96  1  0.35749477  0.86878113  0.57442036  1
  C  C97  1  0.51242840  0.64557291  0.57437601  1
  C  C98  1  0.13189435  0.48851031  0.57492158  1
  C  C99  1  0.30678630  0.83506924  0.25660101  1
  C  C100  1  0.52888398  0.69177908  0.25639313  1
  C  C101  1  0.15647967  0.46236593  0.25559610  1
  C  C102  1  0.30701396  0.45996273  0.75727559  1
  C  C103  1  0.15968624  0.69315104  0.75783516  1
  C  C104  1  0.53194747  0.83706984  0.75954433  1
