# generated using pymatgen
data_CuNiC15
_symmetry_space_group_name_H-M   'P 1'
_cell_length_a   8.94060506
_cell_length_b   8.94418590
_cell_length_c   23.16199299
_cell_angle_alpha   89.87939183
_cell_angle_beta   90.07495666
_cell_angle_gamma   119.89893178
_symmetry_Int_Tables_number   1
_chemical_formula_structural   CuNiC15
_chemical_formula_sum   'Cu6 Ni6 C90'
_cell_volume   1605.66411810
_cell_formula_units_Z   6
loop_
 _symmetry_equiv_pos_site_id
 _symmetry_equiv_pos_as_xyz
  1  'x, y, z'
loop_
 _atom_site_type_symbol
 _atom_site_label
 _atom_site_symmetry_multiplicity
 _atom_site_fract_x
 _atom_site_fract_y
 _atom_site_fract_z
 _atom_site_occupancy
  C  C0  1  0.98649261  0.00867691  0.35560761  1
  C  C1  1  0.00926089  0.02123549  0.64440670  1
  C  C2  1  0.01382679  0.01926506  0.14285327  1
  C  C3  1  0.66961159  0.33565345  0.68891828  1
  C  C4  1  0.67428326  0.32452687  0.47692874  1
  C  C5  1  0.33410515  0.66837956  0.30948313  1
  Ni  Ni6  1  0.99228907  0.29286527  0.24815712  1
  Ni  Ni7  1  0.29174256  0.29780894  0.75225062  1
  Ni  Ni8  1  0.96380974  0.34391961  0.58308072  1
  Ni  Ni9  1  0.38699500  0.34489710  0.08225953  1
  Ni  Ni10  1  0.33342875  0.95061742  0.91684080  1
  Ni  Ni11  1  0.61383203  0.94719495  0.41791844  1
  Cu  Cu12  1  0.01754847  0.00388531  0.85499887  1
  Cu  Cu13  1  0.66482127  0.33653875  0.18625728  1
  Cu  Cu14  1  0.65145038  0.32108549  0.97744235  1
  Cu  Cu15  1  0.33170328  0.66522383  0.02002889  1
  Cu  Cu16  1  0.33502116  0.66535489  0.52077864  1
  Cu  Cu17  1  0.33366133  0.66775577  0.81357222  1
  C  C18  1  0.29017090  0.00343294  0.24977874  1
  C  C19  1  0.71382252  0.70919167  0.24907423  1
  C  C20  1  0.00118255  0.71249020  0.75062745  1
  C  C21  1  0.71191887  0.99658843  0.75188767  1
  C  C22  1  0.37816756  0.04146633  0.58296657  1
  C  C23  1  0.66583086  0.62303609  0.58306481  1
  C  C24  1  0.95404031  0.61892621  0.08173046  1
  C  C25  1  0.66400325  0.04280199  0.08267258  1
  C  C26  1  0.62920573  0.67002630  0.91596402  1
  C  C27  1  0.03773580  0.37356834  0.91745206  1
  C  C28  1  0.33416651  0.37853074  0.41706430  1
  C  C29  1  0.04674744  0.67038004  0.41640368  1
  C  C30  1  0.21006684  0.02797003  0.30140212  1
  C  C31  1  0.82112689  0.78796218  0.30123469  1
  C  C32  1  0.96401004  0.16963853  0.30459451  1
  C  C33  1  0.20541328  0.17395606  0.80816429  1
  C  C34  1  0.96417586  0.78461626  0.80337740  1
  C  C35  1  0.81849603  0.02585227  0.80470657  1
  C  C36  1  0.79132201  0.96718301  0.70026275  1
  C  C37  1  0.16842031  0.20445106  0.69575445  1
  C  C38  1  0.02739910  0.81911339  0.69933325  1
  C  C39  1  0.79169775  0.81470238  0.19733964  1
  C  C40  1  0.02431823  0.19786882  0.19311622  1
  C  C41  1  0.18142492  0.97163004  0.19765136  1
  C  C42  1  0.86814142  0.36760555  0.63925797  1
  C  C43  1  0.48605037  0.12281533  0.63467570  1
  C  C44  1  0.63550510  0.51188493  0.63487258  1
  C  C45  1  0.87951451  0.50916332  0.13408370  1
  C  C46  1  0.63311589  0.12005351  0.13463277  1
  C  C47  1  0.50149666  0.37444407  0.14100232  1
  C  C48  1  0.46826881  0.30425877  0.02613227  1
  C  C49  1  0.84671985  0.53956114  0.02932243  1
  C  C50  1  0.70379780  0.15473499  0.03084345  1
  C  C51  1  0.45375553  0.15150738  0.53138894  1
  C  C52  1  0.68994065  0.54251552  0.53115153  1
  C  C53  1  0.84046348  0.31069325  0.52684809  1
  C  C54  1  0.55267046  0.70050804  0.96830222  1
  C  C55  1  0.14966450  0.44736554  0.96905876  1
  C  C56  1  0.30021127  0.82971498  0.97450745  1
  C  C57  1  0.53209871  0.83051487  0.47598711  1
  C  C58  1  0.29641179  0.45022964  0.46927594  1
  C  C59  1  0.15222954  0.69882168  0.46911642  1
  C  C60  1  0.12426937  0.63518071  0.36536792  1
  C  C61  1  0.49674534  0.85752069  0.36125890  1
  C  C62  1  0.36013047  0.48667529  0.36555569  1
  C  C63  1  0.11341787  0.48130579  0.86529084  1
  C  C64  1  0.36721428  0.86402036  0.85917744  1
  C  C65  1  0.51693038  0.63188045  0.86449044  1
  C  C66  1  0.03066968  0.82363609  0.40699303  1
  C  C67  1  0.80473840  0.96768328  0.40969556  1
  C  C68  1  0.18365741  0.20447863  0.40859521  1
  C  C69  1  0.01249962  0.19807518  0.90965468  1
  C  C70  1  0.15876150  0.96486676  0.91083429  1
  C  C71  1  0.79912454  0.82808489  0.90684849  1
  C  C72  1  0.97640012  0.16904637  0.59121401  1
  C  C73  1  0.20384538  0.01857008  0.59114789  1
  C  C74  1  0.81938625  0.79311163  0.59259105  1
  C  C75  1  0.96956235  0.78880994  0.09066377  1
  C  C76  1  0.81478167  0.01922468  0.09090819  1
  C  C77  1  0.19860056  0.17209420  0.09184386  1
  C  C78  1  0.69312912  0.15052232  0.74353875  1
  C  C79  1  0.47835669  0.31537763  0.73867084  1
  C  C80  1  0.84785456  0.53888234  0.74359834  1
  C  C81  1  0.69379124  0.53482073  0.24380253  1
  C  C82  1  0.82087811  0.30974803  0.23840355  1
  C  C83  1  0.46359152  0.15674059  0.24209944  1
  C  C84  1  0.65427257  0.51919403  0.92380918  1
  C  C85  1  0.86749997  0.36219688  0.92664033  1
  C  C86  1  0.50781242  0.13932346  0.92281342  1
  C  C87  1  0.63389330  0.13735625  0.42548347  1
  C  C88  1  0.48926333  0.36480910  0.42552608  1
  C  C89  1  0.87283203  0.51827185  0.42418775  1
  C  C90  1  0.35972603  0.51141486  0.07274929  1
  C  C91  1  0.12772141  0.63723353  0.07536794  1
  C  C92  1  0.50888639  0.87151171  0.07512030  1
  C  C93  1  0.36173518  0.86998435  0.57615014  1
  C  C94  1  0.50949535  0.64010692  0.57740097  1
  C  C95  1  0.15432632  0.51112240  0.57326271  1
  C  C96  1  0.30908090  0.84860070  0.25632599  1
  C  C97  1  0.54020207  0.68959992  0.25726635  1
  C  C98  1  0.16185752  0.47808056  0.26038950  1
  C  C99  1  0.30945622  0.48764362  0.76139787  1
  C  C100  1  0.15612728  0.69460035  0.75821156  1
  C  C101  1  0.53867207  0.84193240  0.75778573  1
