# generated using pymatgen
data_Cu3Ni3C29
_symmetry_space_group_name_H-M   'P 1'
_cell_length_a   8.92204123
_cell_length_b   8.93168865
_cell_length_c   23.19558221
_cell_angle_alpha   90.06206292
_cell_angle_beta   89.98306651
_cell_angle_gamma   120.10418076
_symmetry_Int_Tables_number   1
_chemical_formula_structural   Cu3Ni3C29
_chemical_formula_sum   'Cu9 Ni9 C87'
_cell_volume   1599.10344993
_cell_formula_units_Z   3
loop_
 _symmetry_equiv_pos_site_id
 _symmetry_equiv_pos_as_xyz
  1  'x, y, z'
loop_
 _atom_site_type_symbol
 _atom_site_label
 _atom_site_symmetry_multiplicity
 _atom_site_fract_x
 _atom_site_fract_y
 _atom_site_fract_z
 _atom_site_occupancy
  C  C0  1  0.65891525  0.33229141  0.82972602  1
  C  C1  1  0.67120961  0.33033512  0.32749569  1
  C  C2  1  0.33096271  0.67144365  0.17028708  1
  C  C3  1  0.99422555  0.99318075  0.35631162  1
  C  C4  1  0.00713509  0.00534857  0.85800118  1
  C  C5  1  0.99935778  0.00100323  0.64506786  1
  C  C6  1  0.99473772  0.99553567  0.14278950  1
  C  C7  1  0.67427006  0.33548412  0.98032248  1
  C  C8  1  0.67516706  0.34208288  0.47952978  1
  C  C9  1  0.33432196  0.67320950  0.01922921  1
  C  C10  1  0.34147859  0.67456743  0.52043909  1
  C  C11  1  0.33421608  0.66022399  0.81111304  1
  C  C12  1  0.65198102  0.34084562  0.68527996  1
  C  C13  1  0.67557630  0.32970911  0.18023447  1
  C  C14  1  0.32958044  0.67707546  0.31842472  1
  Ni  Ni15  1  0.29467933  0.28595742  0.74979238  1
  Ni  Ni16  1  0.66529411  0.61922585  0.58551643  1
  Ni  Ni17  1  0.95632150  0.61797724  0.08648986  1
  Ni  Ni18  1  0.66188304  0.04439247  0.08630434  1
  Ni  Ni19  1  0.62153378  0.66402796  0.91607557  1
  Ni  Ni20  1  0.04480561  0.38100891  0.91611492  1
  Ni  Ni21  1  0.33835065  0.95725589  0.91504825  1
  Ni  Ni22  1  0.61823828  0.95700356  0.41405697  1
  Ni  Ni23  1  0.04875129  0.66463194  0.41441017  1
  Cu  Cu24  1  0.29443437  0.00245542  0.24967783  1
  Cu  Cu25  1  0.70291685  0.70314761  0.24986409  1
  Cu  Cu26  1  0.00271544  0.29456871  0.25057098  1
  Cu  Cu27  1  0.99570791  0.70647464  0.75010350  1
  Cu  Cu28  1  0.71185254  0.00703908  0.74988888  1
  Cu  Cu29  1  0.95455611  0.33574932  0.58565211  1
  Cu  Cu30  1  0.38112560  0.04705512  0.58494155  1
  Cu  Cu31  1  0.38023697  0.33662694  0.08573724  1
  Cu  Cu32  1  0.33511316  0.37984049  0.41457583  1
  C  C33  1  0.20380240  0.01971669  0.30190353  1
  C  C34  1  0.81452881  0.79400945  0.30184605  1
  C  C35  1  0.98334047  0.18428304  0.30237860  1
  C  C36  1  0.19889428  0.17198537  0.80286317  1
  C  C37  1  0.97092662  0.79149111  0.80137505  1
  C  C38  1  0.81950798  0.02704888  0.80125006  1
  C  C39  1  0.79370328  0.97784175  0.69772844  1
  C  C40  1  0.17894802  0.19693146  0.69590983  1
  C  C41  1  0.02038977  0.81524852  0.69799936  1
  C  C42  1  0.79361971  0.81443058  0.19845989  1
  C  C43  1  0.02036898  0.20466640  0.19859460  1
  C  C44  1  0.18463798  0.98289771  0.19810886  1
  C  C45  1  0.87752202  0.36289431  0.63636788  1
  C  C46  1  0.48681650  0.11940665  0.63594584  1
  C  C47  1  0.63208849  0.50909893  0.63803762  1
  C  C48  1  0.87810707  0.51124457  0.14008446  1
  C  C49  1  0.62571027  0.11774546  0.13977040  1
  C  C50  1  0.48485205  0.36618742  0.13713706  1
  C  C51  1  0.45738292  0.30915678  0.03272898  1
  C  C52  1  0.84487980  0.53700444  0.03135405  1
  C  C53  1  0.68914391  0.15479170  0.03130642  1
  C  C54  1  0.45920187  0.15292094  0.53230217  1
  C  C55  1  0.69560498  0.53539713  0.53083290  1
  C  C56  1  0.84576394  0.30386133  0.53264436  1
  C  C57  1  0.53736033  0.69093241  0.96996580  1
  C  C58  1  0.15416496  0.46351575  0.97020017  1
  C  C59  1  0.31029528  0.84724366  0.96958365  1
  C  C60  1  0.53633832  0.84496314  0.46914892  1
  C  C61  1  0.30846554  0.45762481  0.46775320  1
  C  C62  1  0.15662997  0.68876082  0.46958312  1
  C  C63  1  0.11915400  0.62556960  0.36093786  1
  C  C64  1  0.51006424  0.87944047  0.36072944  1
  C  C65  1  0.36805660  0.48498774  0.36361517  1
  C  C66  1  0.12968235  0.49418369  0.86233677  1
  C  C67  1  0.36490107  0.87042022  0.86176487  1
  C  C68  1  0.50641931  0.63586217  0.86243250  1
  C  C69  1  0.02731791  0.82593892  0.40666108  1
  C  C70  1  0.80168033  0.97880833  0.40653395  1
  C  C71  1  0.17994299  0.20446510  0.40820566  1
  C  C72  1  0.02331111  0.20069776  0.90710598  1
  C  C73  1  0.17511037  0.97265531  0.90708796  1
  C  C74  1  0.79976881  0.82383470  0.90516880  1
  C  C75  1  0.97370672  0.17901206  0.59150719  1
  C  C76  1  0.20492336  0.02592813  0.59157343  1
  C  C77  1  0.82625708  0.80242407  0.59399903  1
  C  C78  1  0.97805375  0.80164070  0.09397488  1
  C  C79  1  0.82630225  0.02719707  0.09396569  1
  C  C80  1  0.20469773  0.18021857  0.09238639  1
  C  C81  1  0.69538547  0.16079688  0.74302647  1
  C  C82  1  0.47363246  0.30420214  0.74570018  1
  C  C83  1  0.84453557  0.53259863  0.74420980  1
  C  C84  1  0.69148943  0.53357457  0.24532442  1
  C  C85  1  0.84375694  0.30666781  0.24713922  1
  C  C86  1  0.46505324  0.16124628  0.24572611  1
  C  C87  1  0.63996213  0.50202225  0.92335058  1
  C  C88  1  0.86219129  0.35980330  0.92219222  1
  C  C89  1  0.49686673  0.13983873  0.92309197  1
  C  C90  1  0.64233746  0.13952826  0.42585644  1
  C  C91  1  0.48770341  0.35430114  0.42414145  1
  C  C92  1  0.86179012  0.50658881  0.42435376  1
  C  C93  1  0.35544296  0.48855790  0.07735490  1
  C  C94  1  0.13989097  0.64264289  0.07683447  1
  C  C95  1  0.50617884  0.85836285  0.07685773  1
  C  C96  1  0.35533029  0.87029240  0.57489093  1
  C  C97  1  0.50758997  0.64238078  0.57184110  1
  C  C98  1  0.12931184  0.48609989  0.57396697  1
  C  C99  1  0.30664850  0.84374045  0.25349396  1
  C  C100  1  0.53314304  0.69149783  0.25516938  1
  C  C101  1  0.16157386  0.46505034  0.25510764  1
  C  C102  1  0.30674604  0.46423931  0.75790127  1
  C  C103  1  0.15627836  0.69749626  0.75695828  1
  C  C104  1  0.53982978  0.84844242  0.75662004  1
