# generated using pymatgen
data_CuNi5C33
_symmetry_space_group_name_H-M   'P 1'
_cell_length_a   8.92559153
_cell_length_b   8.92669761
_cell_length_c   22.40504472
_cell_angle_alpha   90.48690738
_cell_angle_beta   89.72812186
_cell_angle_gamma   120.14023866
_symmetry_Int_Tables_number   1
_chemical_formula_structural   CuNi5C33
_chemical_formula_sum   'Cu3 Ni15 C99'
_cell_volume   1543.73615585
_cell_formula_units_Z   3
loop_
 _symmetry_equiv_pos_site_id
 _symmetry_equiv_pos_as_xyz
  1  'x, y, z'
loop_
 _atom_site_type_symbol
 _atom_site_label
 _atom_site_symmetry_multiplicity
 _atom_site_fract_x
 _atom_site_fract_y
 _atom_site_fract_z
 _atom_site_occupancy
  C  C0  1  0.63696569  0.99974106  0.25199155  1
  C  C1  1  0.37080708  0.37578919  0.24684234  1
  C  C2  1  0.99322907  0.62108023  0.25271709  1
  C  C3  1  0.64178662  0.62999945  0.74678829  1
  C  C4  1  0.98773606  0.35901673  0.74822291  1
  C  C5  1  0.37147209  0.01295112  0.74828668  1
  C  C6  1  0.30476911  0.96273924  0.07516029  1
  C  C7  1  0.03950496  0.34590141  0.07673528  1
  C  C8  1  0.70893316  0.67933289  0.41616855  1
  C  C9  1  0.00468846  0.00412936  0.49896837  1
  C  C10  1  0.99859223  0.99848333  0.98875876  1
  C  C11  1  0.66754897  0.32897283  0.83317629  1
  C  C12  1  0.67876019  0.32856957  0.33407219  1
  C  C13  1  0.34509306  0.66268106  0.16107754  1
  C  C14  1  0.33352508  0.66674660  0.66296771  1
  C  C15  1  0.98540766  0.99689648  0.35295197  1
  C  C16  1  0.01141458  0.01059047  0.85200208  1
  C  C17  1  0.66845559  0.33553205  0.67801296  1
  C  C18  1  0.67238951  0.34069858  0.17675266  1
  C  C19  1  0.33140504  0.66654812  0.01418378  1
  C  C20  1  0.32891168  0.66519853  0.32253002  1
  C  C21  1  0.99932181  0.99897216  0.64779119  1
  C  C22  1  0.99033632  0.99719677  0.14766244  1
  C  C23  1  0.66745092  0.33068822  0.98168942  1
  C  C24  1  0.67418299  0.32848985  0.48625611  1
  C  C25  1  0.33114348  0.67292288  0.51930898  1
  C  C26  1  0.32907066  0.66816824  0.82026690  1
  Ni  Ni27  1  0.70242925  0.70138715  0.25243929  1
  Ni  Ni28  1  0.00109677  0.29415812  0.25129812  1
  Ni  Ni29  1  0.29440499  0.29503753  0.75131815  1
  Ni  Ni30  1  0.99932183  0.70909382  0.75175121  1
  Ni  Ni31  1  0.70759839  0.99791817  0.75255013  1
  Ni  Ni32  1  0.96717964  0.33264078  0.58568393  1
  Ni  Ni33  1  0.37075173  0.04084322  0.58525620  1
  Ni  Ni34  1  0.66508360  0.62957636  0.58331875  1
  Ni  Ni35  1  0.96082080  0.62940694  0.08493330  1
  Ni  Ni36  1  0.66365667  0.03693762  0.08570738  1
  Ni  Ni37  1  0.37347308  0.33471526  0.08634997  1
  Ni  Ni38  1  0.03428107  0.36690189  0.91924564  1
  Ni  Ni39  1  0.33176690  0.96563000  0.91946475  1
  Ni  Ni40  1  0.62514432  0.96284359  0.41542390  1
  Ni  Ni41  1  0.03667257  0.66660600  0.41555788  1
  Cu  Cu42  1  0.29203473  0.00039324  0.25059308  1
  Cu  Cu43  1  0.62884515  0.66509181  0.91789574  1
  Cu  Cu44  1  0.33398567  0.36952485  0.41680666  1
  C  C45  1  0.20631166  0.02710802  0.30199631  1
  C  C46  1  0.81830481  0.78092980  0.30735558  1
  C  C47  1  0.97243830  0.17348100  0.30307286  1
  C  C48  1  0.21450896  0.18036417  0.80461266  1
  C  C49  1  0.96642306  0.79173483  0.80541974  1
  C  C50  1  0.82258944  0.02931593  0.80568402  1
  C  C51  1  0.77946888  0.95341367  0.69455125  1
  C  C52  1  0.17486289  0.22144589  0.69460136  1
  C  C53  1  0.04422827  0.82624082  0.69461763  1
  C  C54  1  0.78648038  0.82203123  0.19617400  1
  C  C55  1  0.03917757  0.21878874  0.19160063  1
  C  C56  1  0.18565056  0.96996439  0.19376238  1
  C  C57  1  0.89244773  0.36366797  0.64259527  1
  C  C58  1  0.47377296  0.11585690  0.64246854  1
  C  C59  1  0.63773025  0.52546592  0.63979832  1
  C  C60  1  0.88800375  0.52641116  0.14255431  1
  C  C61  1  0.63474345  0.11319577  0.14354304  1
  C  C62  1  0.47076648  0.35439856  0.14450502  1
  C  C63  1  0.45663171  0.29404241  0.03160270  1
  C  C64  1  0.84207842  0.54516510  0.03011155  1
  C  C65  1  0.70689310  0.16208310  0.03180336  1
  C  C66  1  0.45428582  0.15240153  0.52850803  1
  C  C67  1  0.69211803  0.54705347  0.52488988  1
  C  C68  1  0.85559200  0.30023743  0.52871719  1
  C  C69  1  0.54074692  0.68449149  0.96974902  1
  C  C70  1  0.14122064  0.45415075  0.97499043  1
  C  C71  1  0.31719883  0.86211969  0.97510062  1
  C  C72  1  0.53709749  0.83891887  0.46946943  1
  C  C73  1  0.30961570  0.45535232  0.47037359  1
  C  C74  1  0.14847545  0.68744630  0.47105071  1
  C  C75  1  0.10741471  0.63129990  0.35782522  1
  C  C76  1  0.52272003  0.88856306  0.35730520  1
  C  C77  1  0.36848645  0.47541647  0.36224321  1
  C  C78  1  0.11369166  0.47735909  0.85987369  1
  C  C79  1  0.36969290  0.88936106  0.86008836  1
  C  C80  1  0.52441183  0.63352975  0.86024834  1
  C  C81  1  0.01340278  0.82558440  0.41365736  1
  C  C82  1  0.80493873  0.97903707  0.41466753  1
  C  C83  1  0.18316121  0.19638646  0.41217851  1
  C  C84  1  0.01150559  0.18757419  0.91275982  1
  C  C85  1  0.17011486  0.97894617  0.91287026  1
  C  C86  1  0.80033144  0.81768005  0.91158221  1
  C  C87  1  0.98439380  0.16814165  0.58817273  1
  C  C88  1  0.18725062  0.02031687  0.58728089  1
  C  C89  1  0.83086676  0.81217437  0.58611721  1
  C  C90  1  0.98561526  0.81703204  0.08855281  1
  C  C91  1  0.83755766  0.03115701  0.08765697  1
  C  C92  1  0.18851747  0.16034535  0.08836029  1
  C  C93  1  0.68066047  0.15398035  0.74477026  1
  C  C94  1  0.47764244  0.32216243  0.74320073  1
  C  C95  1  0.84295327  0.52509711  0.74365420  1
  C  C96  1  0.68201820  0.51958451  0.24511290  1
  C  C97  1  0.83578078  0.30816717  0.24574021  1
  C  C98  1  0.46628639  0.15623240  0.24511223  1
  C  C99  1  0.64066696  0.50289325  0.92110478  1
  C  C100  1  0.85413508  0.36080846  0.92119582  1
  C  C101  1  0.50180272  0.14988330  0.92110701  1
  C  C102  1  0.63773193  0.14348003  0.42349266  1
  C  C103  1  0.49968473  0.36304621  0.42366829  1
  C  C104  1  0.84717844  0.50125201  0.42281147  1
  C  C105  1  0.34320084  0.48692926  0.07888078  1
  C  C106  1  0.14268585  0.65164751  0.07829827  1
  C  C107  1  0.50374194  0.85863548  0.07715541  1
  C  C108  1  0.35278563  0.85801621  0.57831825  1
  C  C109  1  0.50046629  0.64660693  0.57562739  1
  C  C110  1  0.14952309  0.49692678  0.57702672  1
  C  C111  1  0.30812774  0.84316513  0.25330470  1
  C  C112  1  0.52285084  0.68825723  0.25572715  1
  C  C113  1  0.16519363  0.47635360  0.25462689  1
  C  C114  1  0.31141552  0.48141777  0.75705866  1
  C  C115  1  0.16914446  0.69249641  0.75572424  1
  C  C116  1  0.52090327  0.82706852  0.75695758  1
