# generated using pymatgen
data_Cu2NiC32
_symmetry_space_group_name_H-M   'P 1'
_cell_length_a   9.14071108
_cell_length_b   9.14751266
_cell_length_c   23.83475420
_cell_angle_alpha   89.69264677
_cell_angle_beta   90.01280419
_cell_angle_gamma   119.85123368
_symmetry_Int_Tables_number   1
_chemical_formula_structural   Cu2NiC32
_chemical_formula_sum   'Cu6 Ni3 C96'
_cell_volume   1728.48422714
_cell_formula_units_Z   3
loop_
 _symmetry_equiv_pos_site_id
 _symmetry_equiv_pos_as_xyz
  1  'x, y, z'
loop_
 _atom_site_type_symbol
 _atom_site_label
 _atom_site_symmetry_multiplicity
 _atom_site_fract_x
 _atom_site_fract_y
 _atom_site_fract_z
 _atom_site_occupancy
  Ni  Ni0  1  0.00124582  0.99989777  0.00090638  1
  Ni  Ni1  1  0.66621837  0.33153963  0.83075105  1
  Ni  Ni2  1  0.66958547  0.33680821  0.33280434  1
  Cu  Cu3  1  0.99420877  0.99527443  0.65037850  1
  Cu  Cu4  1  0.00255862  0.00110695  0.14422298  1
  Cu  Cu5  1  0.66355303  0.34225030  0.68701346  1
  Cu  Cu6  1  0.66652276  0.33351540  0.96992026  1
  Cu  Cu7  1  0.67029234  0.33932514  0.48091199  1
  Cu  Cu8  1  0.32964828  0.66759593  0.30462883  1
  C  C9  1  0.00986582  0.01386880  0.35685739  1
  C  C10  1  0.99921825  0.99985142  0.85552153  1
  C  C11  1  0.66316955  0.32287706  0.18234068  1
  C  C12  1  0.33114894  0.66481050  0.02249445  1
  C  C13  1  0.34043075  0.66893661  0.51058029  1
  C  C14  1  0.33394308  0.66661204  0.81451739  1
  C  C15  1  0.30557773  0.03662506  0.25181078  1
  C  C16  1  0.96579713  0.27036934  0.25129187  1
  C  C17  1  0.28940724  0.29613423  0.75896528  1
  C  C18  1  0.00503141  0.70865682  0.75978048  1
  C  C19  1  0.70290837  0.99717043  0.75958169  1
  C  C20  1  0.64954125  0.63534950  0.58105907  1
  C  C21  1  0.96127572  0.60672595  0.08113848  1
  C  C22  1  0.64316033  0.03187597  0.08052523  1
  C  C23  1  0.39087545  0.35413366  0.08082499  1
  C  C24  1  0.62096091  0.68964501  0.91555199  1
  C  C25  1  0.06864241  0.37825692  0.91572147  1
  C  C26  1  0.31097222  0.93149767  0.91514610  1
  C  C27  1  0.63730709  0.95139031  0.41259809  1
  C  C28  1  0.31914750  0.36894012  0.41400437  1
  C  C29  1  0.05171612  0.68848705  0.41385588  1
  C  C30  1  0.72526303  0.68884160  0.25138441  1
  C  C31  1  0.99241931  0.35640123  0.58064897  1
  C  C32  1  0.36560617  0.00958718  0.58063495  1
  C  C33  1  0.20694904  0.05672718  0.30350268  1
  C  C34  1  0.83212351  0.77762172  0.30073680  1
  C  C35  1  0.94736271  0.15387639  0.30371030  1
  C  C36  1  0.17922342  0.17305498  0.80881672  1
  C  C37  1  0.99186102  0.81905962  0.80901436  1
  C  C38  1  0.82637457  0.00864924  0.80904529  1
  C  C39  1  0.76604281  0.96446599  0.70503240  1
  C  C40  1  0.19465268  0.23238366  0.70445972  1
  C  C41  1  0.03830950  0.80366733  0.70473907  1
  C  C42  1  0.79240920  0.78378389  0.19923224  1
  C  C43  1  0.99316492  0.19718742  0.19869326  1
  C  C44  1  0.20379579  0.00301871  0.19907709  1
  C  C45  1  0.91744632  0.38529465  0.63130299  1
  C  C46  1  0.47004383  0.08244402  0.63116695  1
  C  C47  1  0.61307594  0.52392080  0.63384156  1
  C  C48  1  0.86538267  0.49121008  0.13457660  1
  C  C49  1  0.62558349  0.12836588  0.13490939  1
  C  C50  1  0.50348570  0.36951832  0.13406641  1
  C  C51  1  0.46755609  0.32644622  0.02903710  1
  C  C52  1  0.85713774  0.53182466  0.02936261  1
  C  C53  1  0.67452664  0.14171569  0.02991451  1
  C  C54  1  0.44384731  0.11980055  0.53157438  1
  C  C55  1  0.68281766  0.55291889  0.53110917  1
  C  C56  1  0.88021478  0.31966375  0.53205988  1
  C  C57  1  0.53287567  0.70404198  0.96971778  1
  C  C58  1  0.17055414  0.46553125  0.97008511  1
  C  C59  1  0.29493896  0.82801044  0.96960813  1
  C  C60  1  0.53770560  0.83342161  0.46523417  1
  C  C61  1  0.29896582  0.46547462  0.46581302  1
  C  C62  1  0.16774291  0.70711787  0.46581075  1
  C  C63  1  0.12376105  0.65705928  0.36193969  1
  C  C64  1  0.53350504  0.87629208  0.36141344  1
  C  C65  1  0.34881617  0.47008427  0.36175485  1
  C  C66  1  0.16706553  0.48657814  0.86485588  1
  C  C67  1  0.32149102  0.83441349  0.86437139  1
  C  C68  1  0.51354831  0.67979945  0.86452150  1
  C  C69  1  0.05094721  0.86048718  0.40376976  1
  C  C70  1  0.80947418  0.95130737  0.40401372  1
  C  C71  1  0.14366556  0.19745686  0.40689783  1
  C  C72  1  0.05124803  0.19838772  0.91068219  1
  C  C73  1  0.14813872  0.94885356  0.90989850  1
  C  C74  1  0.80045989  0.85230374  0.91027462  1
  C  C75  1  0.02960312  0.21934082  0.58855318  1
  C  C76  1  0.19332477  0.97795187  0.58845497  1
  C  C77  1  0.78842652  0.81562089  0.59034531  1
  C  C78  1  0.00287241  0.78827569  0.08852702  1
  C  C79  1  0.78253465  0.98944328  0.08839608  1
  C  C80  1  0.20821109  0.21503597  0.08743718  1
  C  C81  1  0.69034202  0.15683851  0.76037709  1
  C  C82  1  0.46194852  0.30749257  0.76027309  1
  C  C83  1  0.84464796  0.53674248  0.76067130  1
  C  C84  1  0.72056086  0.52124008  0.24527524  1
  C  C85  1  0.79480955  0.27525546  0.24107700  1
  C  C86  1  0.47924835  0.20737429  0.24041246  1
  C  C87  1  0.64043099  0.53415078  0.91302484  1
  C  C88  1  0.89419052  0.36021519  0.91344948  1
  C  C89  1  0.46672852  0.10585234  0.91325350  1
  C  C90  1  0.67907854  0.13203319  0.42325826  1
  C  C91  1  0.45345819  0.31947175  0.42323627  1
  C  C92  1  0.86909582  0.55007407  0.42264296  1
  C  C93  1  0.38830254  0.52523778  0.07114675  1
  C  C94  1  0.13548187  0.61032505  0.07102957  1
  C  C95  1  0.47226415  0.86172917  0.07140405  1
  C  C96  1  0.35518745  0.84366445  0.56777171  1
  C  C97  1  0.48605268  0.64431588  0.56314936  1
  C  C98  1  0.15521630  0.51387643  0.56700018  1
  C  C99  1  0.35469806  0.90508576  0.26298172  1
  C  C100  1  0.55146321  0.65249633  0.25835779  1
  C  C101  1  0.10085608  0.44925820  0.26135318  1
  C  C102  1  0.31299298  0.47399041  0.77146583  1
  C  C103  1  0.15987875  0.68576229  0.77230665  1
  C  C104  1  0.52591715  0.84091619  0.77201651  1
