# generated using pymatgen
data_Cu6NiC12
_symmetry_space_group_name_H-M   'P 1'
_cell_length_a   5.13536318
_cell_length_b   14.58188415
_cell_length_c   3.07173100
_cell_angle_alpha   90.00000000
_cell_angle_beta   90.00000000
_cell_angle_gamma   90.14709564
_symmetry_Int_Tables_number   1
_chemical_formula_structural   Cu6NiC12
_chemical_formula_sum   'Cu6 Ni1 C12'
_cell_volume   230.02050689
_cell_formula_units_Z   1
loop_
 _symmetry_equiv_pos_site_id
 _symmetry_equiv_pos_as_xyz
  1  'x, y, z'
loop_
 _atom_site_type_symbol
 _atom_site_label
 _atom_site_symmetry_multiplicity
 _atom_site_fract_x
 _atom_site_fract_y
 _atom_site_fract_z
 _atom_site_occupancy
  Ni  Ni0  1  0.93663600  0.83425700  0.50000000  1
  Cu  Cu1  1  0.06143200  0.02651700  0.00000000  1
  Cu  Cu2  1  0.03746100  0.33528400  0.00000000  1
  Cu  Cu3  1  0.99777300  0.64624000  0.00000000  1
  Cu  Cu4  1  0.61441300  0.17800700  0.50000000  1
  Cu  Cu5  1  0.42716500  0.49887900  0.50000000  1
  Cu  Cu6  1  0.41033600  0.82396600  0.50000000  1
  C  C7  1  0.18823100  0.59185900  0.50000000  1
  C  C8  1  0.17660800  0.94600100  0.50000000  1
  C  C9  1  0.16239500  0.78043600  0.00000000  1
  C  C10  1  0.31394600  0.42208200  0.00000000  1
  C  C11  1  0.74139300  0.24334700  0.00000000  1
  C  C12  1  0.85977600  0.07801300  0.50000000  1
  C  C13  1  0.21579900  0.26260400  0.50000000  1
  C  C14  1  0.37470700  0.11279400  0.00000000  1
  C  C15  1  0.67040300  0.55149000  0.00000000  1
  C  C16  1  0.69744000  0.88356300  0.00000000  1
  C  C17  1  0.85244100  0.39527900  0.50000000  1
  C  C18  1  0.71071600  0.72580800  0.50000000  1
