# generated using pymatgen
data_Cu4NiC14
_symmetry_space_group_name_H-M   'P 1'
_cell_length_a   4.82428780
_cell_length_b   4.83122039
_cell_length_c   9.49875202
_cell_angle_alpha   89.99934091
_cell_angle_beta   89.99375615
_cell_angle_gamma   94.14342035
_symmetry_Int_Tables_number   1
_chemical_formula_structural   Cu4NiC14
_chemical_formula_sum   'Cu4 Ni1 C14'
_cell_volume   220.81064644
_cell_formula_units_Z   1
loop_
 _symmetry_equiv_pos_site_id
 _symmetry_equiv_pos_as_xyz
  1  'x, y, z'
loop_
 _atom_site_type_symbol
 _atom_site_label
 _atom_site_symmetry_multiplicity
 _atom_site_fract_x
 _atom_site_fract_y
 _atom_site_fract_z
 _atom_site_occupancy
  Ni  Ni0  1  0.30586100  0.69048900  0.00023800  1
  Cu  Cu1  1  0.00244900  0.99856700  0.34020300  1
  Cu  Cu2  1  0.54252100  0.45888700  0.19052800  1
  Cu  Cu3  1  0.54191100  0.45811500  0.80978300  1
  Cu  Cu4  1  0.00272800  0.99740500  0.65958800  1
  C  C5  1  0.95768600  0.04175200  0.99984400  1
  C  C6  1  0.49704500  0.50346900  0.50009100  1
  C  C7  1  0.30560200  0.29581100  0.99988300  1
  C  C8  1  0.21073200  0.79021100  0.49992400  1
  C  C9  1  0.79587600  0.20426700  0.49997300  1
  C  C10  1  0.70252500  0.69451000  0.99998600  1
  C  C11  1  0.69947200  0.69046200  0.66282400  1
  C  C12  1  0.30980500  0.30057600  0.66266500  1
  C  C13  1  0.70013500  0.69061200  0.33750500  1
  C  C14  1  0.16073700  0.83928100  0.16263200  1
  C  C15  1  0.80675900  0.19314500  0.17259500  1
  C  C16  1  0.80720300  0.19296900  0.82705400  1
  C  C17  1  0.30939600  0.30171700  0.33726100  1
  C  C18  1  0.16100300  0.83831300  0.83742100  1
