# generated using pymatgen
data_Cu4Ni3C29
_symmetry_space_group_name_H-M   'P 1'
_cell_length_a   8.57618418
_cell_length_b   8.57498079
_cell_length_c   22.32322532
_cell_angle_alpha   90.03601759
_cell_angle_beta   89.79027060
_cell_angle_gamma   119.98325275
_symmetry_Int_Tables_number   1
_chemical_formula_structural   Cu4Ni3C29
_chemical_formula_sum   'Cu12 Ni9 C87'
_cell_volume   1421.95144862
_cell_formula_units_Z   3
loop_
 _symmetry_equiv_pos_site_id
 _symmetry_equiv_pos_as_xyz
  1  'x, y, z'
loop_
 _atom_site_type_symbol
 _atom_site_label
 _atom_site_symmetry_multiplicity
 _atom_site_fract_x
 _atom_site_fract_y
 _atom_site_fract_z
 _atom_site_occupancy
  C  C0  1  0.99701270  0.99629330  0.49967063  1
  C  C1  1  0.00278443  0.00011562  0.99885100  1
  C  C2  1  0.66667517  0.33256317  0.83013434  1
  C  C3  1  0.67354242  0.33652584  0.33237771  1
  C  C4  1  0.33104203  0.66059320  0.16161276  1
  C  C5  1  0.33359080  0.66658493  0.66615376  1
  C  C6  1  0.66406279  0.34025256  0.97857626  1
  C  C7  1  0.33105159  0.66669261  0.31130971  1
  C  C8  1  0.33264545  0.66713579  0.81048171  1
  Ni  Ni9  1  0.98114149  0.98927663  0.35154276  1
  Ni  Ni10  1  0.00047734  0.00026772  0.85174334  1
  Ni  Ni11  1  0.00045618  0.00000281  0.65434039  1
  Ni  Ni12  1  0.99889262  0.00179856  0.14565299  1
  Ni  Ni13  1  0.66672337  0.33376807  0.69008016  1
  Ni  Ni14  1  0.67787889  0.35056982  0.18426922  1
  Ni  Ni15  1  0.67490354  0.33276406  0.48036227  1
  Ni  Ni16  1  0.32536156  0.65801699  0.01797287  1
  Ni  Ni17  1  0.33480855  0.67607614  0.51660444  1
  Cu  Cu18  1  0.71931533  0.71129596  0.24836027  1
  Cu  Cu19  1  0.98956588  0.27725977  0.24894043  1
  Cu  Cu20  1  0.28766460  0.28073864  0.74917231  1
  Cu  Cu21  1  0.99275863  0.71233836  0.74925505  1
  Cu  Cu22  1  0.71971724  0.00730344  0.74922596  1
  Cu  Cu23  1  0.96440234  0.63037171  0.08521018  1
  Cu  Cu24  1  0.37193263  0.33385443  0.08656669  1
  Cu  Cu25  1  0.62507098  0.67826468  0.91782322  1
  Cu  Cu26  1  0.04688396  0.37149755  0.91748009  1
  Cu  Cu27  1  0.32524704  0.95071040  0.91836833  1
  Cu  Cu28  1  0.62631059  0.96041115  0.41900272  1
  Cu  Cu29  1  0.03924106  0.66945630  0.41883131  1
  C  C30  1  0.28915972  0.00765998  0.24956300  1
  C  C31  1  0.95869198  0.33321242  0.58338228  1
  C  C32  1  0.37670027  0.04498722  0.58313524  1
  C  C33  1  0.66608773  0.62301561  0.58275416  1
  C  C34  1  0.66491779  0.04142021  0.08491844  1
  C  C35  1  0.33242495  0.37287661  0.41836229  1
  C  C36  1  0.21142102  0.03316801  0.30507105  1
  C  C37  1  0.82605323  0.78760947  0.30608892  1
  C  C38  1  0.96892038  0.17391340  0.30717540  1
  C  C39  1  0.20854076  0.17252405  0.80608613  1
  C  C40  1  0.96377462  0.79135661  0.80616647  1
  C  C41  1  0.82728706  0.03584008  0.80603730  1
  C  C42  1  0.78834906  0.96254825  0.69168882  1
  C  C43  1  0.17451520  0.21202231  0.69182659  1
  C  C44  1  0.03791667  0.82572835  0.69173556  1
  C  C45  1  0.79364266  0.82992052  0.19297553  1
  C  C46  1  0.03731493  0.20642022  0.19322070  1
  C  C47  1  0.17806264  0.96574480  0.19592939  1
  C  C48  1  0.87806274  0.36667968  0.63700077  1
  C  C49  1  0.48935837  0.12424408  0.63691621  1
  C  C50  1  0.63368596  0.51076949  0.63685954  1
  C  C51  1  0.88060230  0.50855311  0.13977886  1
  C  C52  1  0.63385049  0.12232996  0.13885994  1
  C  C53  1  0.49218574  0.36341919  0.14084864  1
  C  C54  1  0.46309497  0.30247494  0.02913921  1
  C  C55  1  0.84019511  0.53605366  0.02893627  1
  C  C56  1  0.69633959  0.15464007  0.03013406  1
  C  C57  1  0.45715002  0.15577210  0.52827894  1
  C  C58  1  0.69677339  0.54210697  0.52801536  1
  C  C59  1  0.84752723  0.30091978  0.52877002  1
  C  C60  1  0.53960094  0.70143942  0.97426311  1
  C  C61  1  0.15803887  0.45545386  0.97330359  1
  C  C62  1  0.30064148  0.83936431  0.97420643  1
  C  C63  1  0.54209078  0.83849916  0.47392476  1
  C  C64  1  0.29979002  0.45441603  0.47198072  1
  C  C65  1  0.15815099  0.69967487  0.47372951  1
  C  C66  1  0.12972191  0.63553761  0.36222103  1
  C  C67  1  0.50537782  0.86821843  0.36246850  1
  C  C68  1  0.36507337  0.48749275  0.36356244  1
  C  C69  1  0.12840756  0.49417056  0.86127444  1
  C  C70  1  0.36525253  0.87026888  0.86146148  1
  C  C71  1  0.50494222  0.63487760  0.86136999  1
  C  C72  1  0.02834596  0.84044127  0.40882352  1
  C  C73  1  0.81210239  0.97860627  0.41089590  1
  C  C74  1  0.17200126  0.19543514  0.40992983  1
  C  C75  1  0.02263948  0.18529925  0.90918456  1
  C  C76  1  0.16440857  0.97660501  0.90973703  1
  C  C77  1  0.81325936  0.83653940  0.90969191  1
  C  C78  1  0.97635750  0.17007936  0.58909009  1
  C  C79  1  0.19501030  0.02527986  0.58883575  1
  C  C80  1  0.82875431  0.80424540  0.58853870  1
  C  C81  1  0.97320439  0.81284342  0.09023902  1
  C  C82  1  0.83003401  0.02797547  0.08885460  1
  C  C83  1  0.18746868  0.16140531  0.09026910  1
  C  C84  1  0.68999160  0.16879139  0.74194969  1
  C  C85  1  0.47871035  0.30997337  0.74193776  1
  C  C86  1  0.83133117  0.52126021  0.74201284  1
  C  C87  1  0.68643582  0.51877977  0.24369601  1
  C  C88  1  0.82760909  0.30609736  0.24280512  1
  C  C89  1  0.47269290  0.16185693  0.24341092  1
  C  C90  1  0.63966994  0.50213488  0.92312173  1
  C  C91  1  0.85863847  0.35744118  0.92424122  1
  C  C92  1  0.50064508  0.13915789  0.92434092  1
  C  C93  1  0.63713885  0.14455124  0.42407810  1
  C  C94  1  0.49773147  0.36050329  0.42375179  1
  C  C95  1  0.85360469  0.49774306  0.42401415  1
  C  C96  1  0.36015755  0.50428987  0.07695258  1
  C  C97  1  0.14866570  0.64617611  0.07631264  1
  C  C98  1  0.50400500  0.86291386  0.07764438  1
  C  C99  1  0.35927858  0.86257015  0.57726487  1
  C  C100  1  0.50081955  0.63926713  0.57621998  1
  C  C101  1  0.14048501  0.49734762  0.57607970  1
  C  C102  1  0.30765575  0.84008163  0.25617567  1
  C  C103  1  0.52633981  0.69174818  0.25839015  1
  C  C104  1  0.16358988  0.47214114  0.25861745  1
  C  C105  1  0.30879618  0.47299269  0.75654531  1
  C  C106  1  0.16416816  0.69146691  0.75641032  1
  C  C107  1  0.52739689  0.83581410  0.75654275  1
