# generated using pymatgen
data_Cu4NiC11
_symmetry_space_group_name_H-M   'P 1'
_cell_length_a   4.06714000
_cell_length_b   6.31371484
_cell_length_c   8.83260475
_cell_angle_alpha   78.43434128
_cell_angle_beta   90.00000000
_cell_angle_gamma   71.21077174
_symmetry_Int_Tables_number   1
_chemical_formula_structural   Cu4NiC11
_chemical_formula_sum   'Cu4 Ni1 C11'
_cell_volume   209.85326677
_cell_formula_units_Z   1
loop_
 _symmetry_equiv_pos_site_id
 _symmetry_equiv_pos_as_xyz
  1  'x, y, z'
loop_
 _atom_site_type_symbol
 _atom_site_label
 _atom_site_symmetry_multiplicity
 _atom_site_fract_x
 _atom_site_fract_y
 _atom_site_fract_z
 _atom_site_occupancy
  C  C0  1  0.50000000  0.00000000  0.50000000  1
  Ni  Ni1  1  0.00000000  0.00000000  0.50000000  1
  Cu  Cu2  1  0.09594300  0.80811600  0.14820500  1
  Cu  Cu3  1  0.21088800  0.57822400  0.84721300  1
  Cu  Cu4  1  0.78911200  0.42177600  0.15278700  1
  Cu  Cu5  1  0.90405700  0.19188400  0.85179500  1
  C  C6  1  0.06585700  0.86828500  0.91773200  1
  C  C7  1  0.08707100  0.82586000  0.34332200  1
  C  C8  1  0.14100100  0.71799700  0.65539300  1
  C  C9  1  0.62949500  0.74100900  0.14854500  1
  C  C10  1  0.74461500  0.51077000  0.88754500  1
  C  C11  1  0.25538500  0.48923000  0.11245500  1
  C  C12  1  0.37050500  0.25899100  0.85145500  1
  C  C13  1  0.85899900  0.28200300  0.34460700  1
  C  C14  1  0.91292900  0.17414000  0.65667800  1
  C  C15  1  0.93414300  0.13171500  0.08226800  1
