# generated using pymatgen
data_Cu3NiC3
_symmetry_space_group_name_H-M   'P 1'
_cell_length_a   9.60308786
_cell_length_b   9.60308786
_cell_length_c   4.62229100
_cell_angle_alpha   90.00000000
_cell_angle_beta   90.00000000
_cell_angle_gamma   119.99999903
_symmetry_Int_Tables_number   1
_chemical_formula_structural   Cu3NiC3
_chemical_formula_sum   'Cu6 Ni2 C6'
_cell_volume   369.15582345
_cell_formula_units_Z   2
loop_
 _symmetry_equiv_pos_site_id
 _symmetry_equiv_pos_as_xyz
  1  'x, y, z'
loop_
 _atom_site_type_symbol
 _atom_site_label
 _atom_site_symmetry_multiplicity
 _atom_site_fract_x
 _atom_site_fract_y
 _atom_site_fract_z
 _atom_site_occupancy
  Ni  Ni0  1  0.66666700  0.33333300  0.75000000  1
  Ni  Ni1  1  0.33333300  0.66666700  0.25000000  1
  Cu  Cu2  1  0.62944400  0.69133000  0.75000000  1
  Cu  Cu3  1  0.30867000  0.93811400  0.75000000  1
  Cu  Cu4  1  0.06188600  0.37055600  0.75000000  1
  Cu  Cu5  1  0.37055600  0.30867000  0.25000000  1
  Cu  Cu6  1  0.69133000  0.06188600  0.25000000  1
  Cu  Cu7  1  0.93811400  0.62944400  0.25000000  1
  C  C8  1  0.96967100  0.82521100  0.75000000  1
  C  C9  1  0.17478900  0.14446100  0.75000000  1
  C  C10  1  0.85553900  0.03032900  0.75000000  1
  C  C11  1  0.03032900  0.17478900  0.25000000  1
  C  C12  1  0.82521100  0.85553900  0.25000000  1
  C  C13  1  0.14446100  0.96967100  0.25000000  1
