# generated using pymatgen
data_Cu2NiC11
_symmetry_space_group_name_H-M   'P 1'
_cell_length_a   6.14448000
_cell_length_b   6.14448020
_cell_length_c   8.58831800
_cell_angle_alpha   90.00000000
_cell_angle_beta   90.00000000
_cell_angle_gamma   119.99999894
_symmetry_Int_Tables_number   1
_chemical_formula_structural   Cu2NiC11
_chemical_formula_sum   'Cu2 Ni1 C11'
_cell_volume   280.80771582
_cell_formula_units_Z   1
loop_
 _symmetry_equiv_pos_site_id
 _symmetry_equiv_pos_as_xyz
  1  'x, y, z'
loop_
 _atom_site_type_symbol
 _atom_site_label
 _atom_site_symmetry_multiplicity
 _atom_site_fract_x
 _atom_site_fract_y
 _atom_site_fract_z
 _atom_site_occupancy
  Ni  Ni0  1  0.00000000  0.00000000  0.00000000  1
  C  C1  1  0.66666700  0.33333300  0.92180500  1
  C  C2  1  0.33333300  0.66666700  0.07819500  1
  C  C3  1  0.66666700  0.33333300  0.36285500  1
  C  C4  1  0.33333300  0.66666700  0.63714500  1
  Cu  Cu5  1  0.00000000  0.00000000  0.71247300  1
  Cu  Cu6  1  0.00000000  0.00000000  0.28752700  1
  C  C7  1  0.85263800  0.14736200  0.17902700  1
  C  C8  1  0.85263800  0.70527700  0.17902700  1
  C  C9  1  0.29472300  0.14736200  0.17902700  1
  C  C10  1  0.70527700  0.85263800  0.82097300  1
  C  C11  1  0.14736200  0.29472300  0.82097300  1
  C  C12  1  0.14736200  0.85263800  0.82097300  1
  C  C13  1  0.00000000  0.00000000  0.50000000  1
