# generated using pymatgen
data_Cu(NiC)2
_symmetry_space_group_name_H-M   'P 1'
_cell_length_a   3.27015700
_cell_length_b   3.27013310
_cell_length_c   30.23785600
_cell_angle_alpha   90.00003758
_cell_angle_beta   90.00003647
_cell_angle_gamma   120.00034487
_symmetry_Int_Tables_number   1
_chemical_formula_structural   Cu(NiC)2
_chemical_formula_sum   'Cu2 Ni4 C4'
_cell_volume   280.03618377
_cell_formula_units_Z   2
loop_
 _symmetry_equiv_pos_site_id
 _symmetry_equiv_pos_as_xyz
  1  'x, y, z'
loop_
 _atom_site_type_symbol
 _atom_site_label
 _atom_site_symmetry_multiplicity
 _atom_site_fract_x
 _atom_site_fract_y
 _atom_site_fract_z
 _atom_site_occupancy
  C  C0  1  0.63755800  0.39989300  0.85103500  1
  C  C1  1  0.33331300  0.66662600  0.11559900  1
  C  C2  1  0.33331100  0.66662100  0.57837000  1
  C  C3  1  0.66668500  0.33336900  0.34697000  1
  Ni  Ni4  1  0.66664700  0.33329400  0.05964800  1
  Ni  Ni5  1  0.66664600  0.33329500  0.52205800  1
  Ni  Ni6  1  0.66664800  0.33329700  0.17159600  1
  Ni  Ni7  1  0.66664400  0.33328500  0.63467000  1
  Cu  Cu8  1  0.33335300  0.66670500  0.39803800  1
  Cu  Cu9  1  0.33335100  0.66670400  0.29589500  1
