# generated using pymatgen
data_Cu2NiC4
_symmetry_space_group_name_H-M   'P 1'
_cell_length_a   5.84789403
_cell_length_b   5.84789403
_cell_length_c   9.97408631
_cell_angle_alpha   72.95310124
_cell_angle_beta   72.95310124
_cell_angle_gamma   59.99999964
_symmetry_Int_Tables_number   1
_chemical_formula_structural   Cu2NiC4
_chemical_formula_sum   'Cu2 Ni1 C4'
_cell_volume   277.95592547
_cell_formula_units_Z   1
loop_
 _symmetry_equiv_pos_site_id
 _symmetry_equiv_pos_as_xyz
  1  'x, y, z'
loop_
 _atom_site_type_symbol
 _atom_site_label
 _atom_site_symmetry_multiplicity
 _atom_site_fract_x
 _atom_site_fract_y
 _atom_site_fract_z
 _atom_site_occupancy
  C  C0  1  0.20840300  0.20840300  0.37479100  1
  C  C1  1  0.79159700  0.79159700  0.62520900  1
  C  C2  1  0.39180300  0.39180300  0.82459100  1
  C  C3  1  0.60819700  0.60819700  0.17540900  1
  Ni  Ni4  1  0.00000000  0.00000000  0.00000000  1
  Cu  Cu5  1  0.91049800  0.91049800  0.26850600  1
  Cu  Cu6  1  0.08950200  0.08950200  0.73149400  1
