# generated using pymatgen
data_Cu3NiC2
_symmetry_space_group_name_H-M   'P 1'
_cell_length_a   16.41275900
_cell_length_b   6.15803100
_cell_length_c   7.19764554
_cell_angle_alpha   66.19163015
_cell_angle_beta   90.00000000
_cell_angle_gamma   90.00000000
_symmetry_Int_Tables_number   1
_chemical_formula_structural   Cu3NiC2
_chemical_formula_sum   'Cu12 Ni4 C8'
_cell_volume   665.56102556
_cell_formula_units_Z   4
loop_
 _symmetry_equiv_pos_site_id
 _symmetry_equiv_pos_as_xyz
  1  'x, y, z'
loop_
 _atom_site_type_symbol
 _atom_site_label
 _atom_site_symmetry_multiplicity
 _atom_site_fract_x
 _atom_site_fract_y
 _atom_site_fract_z
 _atom_site_occupancy
  C  C0  1  0.33292400  0.47023900  0.57067000  1
  C  C1  1  0.83292400  0.02976100  0.42933000  1
  C  C2  1  0.66707600  0.52976100  0.42933000  1
  C  C3  1  0.16707600  0.97023900  0.57067000  1
  C  C4  1  0.97617400  0.33261000  0.78457300  1
  C  C5  1  0.52382600  0.83261000  0.78457300  1
  C  C6  1  0.47617400  0.16739000  0.21542700  1
  C  C7  1  0.02382600  0.66739000  0.21542700  1
  Ni  Ni8  1  0.67017900  0.16003300  0.02838400  1
  Ni  Ni9  1  0.17017900  0.33996700  0.97161600  1
  Ni  Ni10  1  0.32982100  0.83996700  0.97161600  1
  Ni  Ni11  1  0.82982100  0.66003300  0.02838400  1
  Cu  Cu12  1  0.14705000  0.44438800  0.62367600  1
  Cu  Cu13  1  0.64705000  0.05561200  0.37632400  1
  Cu  Cu14  1  0.85295000  0.55561200  0.37632400  1
  Cu  Cu15  1  0.35295000  0.94438800  0.62367600  1
  Cu  Cu16  1  0.80664700  0.32179600  0.94176800  1
  Cu  Cu17  1  0.30664700  0.17820400  0.05823200  1
  Cu  Cu18  1  0.19335300  0.67820400  0.05823200  1
  Cu  Cu19  1  0.69335300  0.82179600  0.94176800  1
  Cu  Cu20  1  0.06194200  0.16283800  0.19611100  1
  Cu  Cu21  1  0.56194200  0.33716200  0.80388900  1
  Cu  Cu22  1  0.93805800  0.83716200  0.80388900  1
  Cu  Cu23  1  0.43805800  0.66283800  0.19611100  1
