# generated using pymatgen
data_Cu14Ni2C9
_symmetry_space_group_name_H-M   'P 1'
_cell_length_a   9.16868064
_cell_length_b   10.78654956
_cell_length_c   4.02514201
_cell_angle_alpha   79.24441229
_cell_angle_beta   89.99810820
_cell_angle_gamma   78.67979541
_symmetry_Int_Tables_number   1
_chemical_formula_structural   Cu14Ni2C9
_chemical_formula_sum   'Cu14 Ni2 C9'
_cell_volume   383.20156351
_cell_formula_units_Z   1
loop_
 _symmetry_equiv_pos_site_id
 _symmetry_equiv_pos_as_xyz
  1  'x, y, z'
loop_
 _atom_site_type_symbol
 _atom_site_label
 _atom_site_symmetry_multiplicity
 _atom_site_fract_x
 _atom_site_fract_y
 _atom_site_fract_z
 _atom_site_occupancy
  C  C0  1  0.16965500  0.92488400  0.03534500  1
  C  C1  1  0.82329300  0.23377000  0.88094200  1
  C  C2  1  0.51891600  0.99598000  0.49988600  1
  C  C3  1  0.13702900  0.26351200  0.36607400  1
  C  C4  1  0.23762500  0.46208100  0.76682900  1
  C  C5  1  0.49586500  0.28323800  0.35613600  1
  C  C6  1  0.51487000  0.69577900  0.64992500  1
  C  C7  1  0.77318900  0.52741000  0.23409300  1
  C  C8  1  0.87408300  0.73761600  0.62880100  1
  Ni  Ni9  1  0.73168800  0.57872500  0.70842400  1
  Ni  Ni10  1  0.94425800  0.39466600  0.30050900  1
  Cu  Cu11  1  0.00665700  0.84831900  0.57362200  1
  Cu  Cu12  1  0.14778800  0.27489500  0.86037800  1
  Cu  Cu13  1  0.06451100  0.57743900  0.70918900  1
  Cu  Cu14  1  0.28200500  0.42158500  0.28706300  1
  Cu  Cu15  1  0.35293000  0.15138400  0.42210200  1
  Cu  Cu16  1  0.37033900  0.59060800  0.70258600  1
  Cu  Cu17  1  0.46419000  0.31019200  0.84272200  1
  Cu  Cu18  1  0.38393000  0.86921600  0.56316500  1
  Cu  Cu19  1  0.64791500  0.13132500  0.43212400  1
  Cu  Cu20  1  0.53867200  0.68993200  0.15281400  1
  Cu  Cu21  1  0.64280200  0.39438500  0.30061500  1
  Cu  Cu22  1  0.68057600  0.84408100  0.57573700  1
  Cu  Cu23  1  0.87454200  0.70021800  0.14764500  1
  Cu  Cu24  1  0.04022200  0.11928100  0.43830500  1
