# generated using pymatgen
data_Cu3NiC9
_symmetry_space_group_name_H-M   'P 1'
_cell_length_a   3.28965300
_cell_length_b   3.28969050
_cell_length_c   45.26134705
_cell_angle_alpha   89.99908391
_cell_angle_beta   89.99476960
_cell_angle_gamma   120.00021045
_symmetry_Int_Tables_number   1
_chemical_formula_structural   Cu3NiC9
_chemical_formula_sum   'Cu3 Ni1 C9'
_cell_volume   424.19184452
_cell_formula_units_Z   1
loop_
 _symmetry_equiv_pos_site_id
 _symmetry_equiv_pos_as_xyz
  1  'x, y, z'
loop_
 _atom_site_type_symbol
 _atom_site_label
 _atom_site_symmetry_multiplicity
 _atom_site_fract_x
 _atom_site_fract_y
 _atom_site_fract_z
 _atom_site_occupancy
  C  C0  1  0.00001300  0.00013500  0.37652400  1
  Ni  Ni1  1  0.66677800  0.33358000  0.27518700  1
  Cu  Cu2  1  0.33302700  0.66596100  0.09392800  1
  Cu  Cu3  1  0.33345500  0.66691700  0.47735500  1
  Cu  Cu4  1  0.66674400  0.33352600  0.65756100  1
  C  C5  1  0.33337100  0.66683500  0.31282700  1
  C  C6  1  0.33331500  0.66679100  0.69498400  1
  C  C7  1  0.66637200  0.33252100  0.05646200  1
  C  C8  1  0.66634600  0.33269400  0.13138500  1
  C  C9  1  0.33351200  0.66695300  0.23803400  1
  C  C10  1  0.33351700  0.66697500  0.62017000  1
  C  C11  1  0.66684200  0.33361900  0.44334400  1
  C  C12  1  0.66670900  0.33349100  0.51119600  1
