# generated using pymatgen
data_Cu2Ni2C9
_symmetry_space_group_name_H-M   'P 1'
_cell_length_a   3.39662419
_cell_length_b   3.39657832
_cell_length_c   44.36237990
_cell_angle_alpha   90.22000287
_cell_angle_beta   89.77941224
_cell_angle_gamma   119.99097701
_symmetry_Int_Tables_number   1
_chemical_formula_structural   Cu2Ni2C9
_chemical_formula_sum   'Cu2 Ni2 C9'
_cell_volume   443.27148941
_cell_formula_units_Z   1
loop_
 _symmetry_equiv_pos_site_id
 _symmetry_equiv_pos_as_xyz
  1  'x, y, z'
loop_
 _atom_site_type_symbol
 _atom_site_label
 _atom_site_symmetry_multiplicity
 _atom_site_fract_x
 _atom_site_fract_y
 _atom_site_fract_z
 _atom_site_occupancy
  C  C0  1  0.66579900  0.33420600  0.37263300  1
  C  C1  1  0.33196100  0.66816600  0.70012900  1
  C  C2  1  0.66804900  0.33191700  0.05166200  1
  C  C3  1  0.66540700  0.33454100  0.13621600  1
  C  C4  1  0.33462800  0.66558500  0.61515000  1
  C  C5  1  0.33331100  0.66662600  0.09394200  1
  C  C6  1  0.33317200  0.66658800  0.47410500  1
  C  C7  1  0.66516400  0.33496900  0.27401000  1
  C  C8  1  0.66662700  0.33353400  0.65764600  1
  Ni  Ni9  1  0.66768600  0.33200800  0.43676000  1
  Ni  Ni10  1  0.66533800  0.33445800  0.51115300  1
  Cu  Cu11  1  0.33078600  0.66935400  0.30789400  1
  Cu  Cu12  1  0.33278400  0.66733200  0.24029600  1
