# generated using pymatgen
data_Cu2NiC
_symmetry_space_group_name_H-M   'P 1'
_cell_length_a   6.89393600
_cell_length_b   10.09622000
_cell_length_c   17.16284100
_cell_angle_alpha   90.00000000
_cell_angle_beta   90.00000000
_cell_angle_gamma   90.00000000
_symmetry_Int_Tables_number   1
_chemical_formula_structural   Cu2NiC
_chemical_formula_sum   'Cu16 Ni8 C8'
_cell_volume   1194.57997925
_cell_formula_units_Z   8
loop_
 _symmetry_equiv_pos_site_id
 _symmetry_equiv_pos_as_xyz
  1  'x, y, z'
loop_
 _atom_site_type_symbol
 _atom_site_label
 _atom_site_symmetry_multiplicity
 _atom_site_fract_x
 _atom_site_fract_y
 _atom_site_fract_z
 _atom_site_occupancy
  C  C0  1  0.86033300  0.19831400  0.07928800  1
  C  C1  1  0.36033300  0.30168600  0.92071200  1
  C  C2  1  0.13966700  0.69831400  0.42071200  1
  C  C3  1  0.63966700  0.80168600  0.57928800  1
  C  C4  1  0.13966700  0.80168600  0.92071200  1
  C  C5  1  0.63966700  0.69831400  0.07928800  1
  C  C6  1  0.86033300  0.30168600  0.57928800  1
  C  C7  1  0.36033300  0.19831400  0.42071200  1
  Ni  Ni8  1  0.23304800  0.97069900  0.71149200  1
  Ni  Ni9  1  0.76695200  0.02930100  0.28850800  1
  Ni  Ni10  1  0.26695200  0.47069900  0.71149200  1
  Ni  Ni11  1  0.23304800  0.52930100  0.21149200  1
  Ni  Ni12  1  0.73304800  0.97069900  0.78850800  1
  Ni  Ni13  1  0.73304800  0.52930100  0.28850800  1
  Ni  Ni14  1  0.76695200  0.47069900  0.78850800  1
  Ni  Ni15  1  0.26695200  0.02930100  0.21149200  1
  Cu  Cu16  1  0.48676900  0.87461900  0.28195700  1
  Cu  Cu17  1  0.98676900  0.62538100  0.71804300  1
  Cu  Cu18  1  0.51323100  0.37461900  0.21804300  1
  Cu  Cu19  1  0.98676900  0.87461900  0.21804300  1
  Cu  Cu20  1  0.01323100  0.12538100  0.78195700  1
  Cu  Cu21  1  0.51323100  0.12538100  0.71804300  1
  Cu  Cu22  1  0.01323100  0.37461900  0.28195700  1
  Cu  Cu23  1  0.48676900  0.62538100  0.78195700  1
  Cu  Cu24  1  0.36098900  0.02340400  0.08008500  1
  Cu  Cu25  1  0.86098900  0.47659600  0.91991500  1
  Cu  Cu26  1  0.63901100  0.52340400  0.41991500  1
  Cu  Cu27  1  0.13901100  0.97659600  0.58008500  1
  Cu  Cu28  1  0.63901100  0.97659600  0.91991500  1
  Cu  Cu29  1  0.13901100  0.52340400  0.08008500  1
  Cu  Cu30  1  0.36098900  0.47659600  0.58008500  1
  Cu  Cu31  1  0.86098900  0.02340400  0.41991500  1
