# generated using pymatgen
data_CuNiC18
_symmetry_space_group_name_H-M   'P 1'
_cell_length_a   15.58211343
_cell_length_b   8.89551833
_cell_length_c   8.92971538
_cell_angle_alpha   90.00000000
_cell_angle_beta   124.47207326
_cell_angle_gamma   90.00000000
_symmetry_Int_Tables_number   1
_chemical_formula_structural   CuNiC18
_chemical_formula_sum   'Cu4 Ni4 C72'
_cell_volume   1020.40918780
_cell_formula_units_Z   4
loop_
 _symmetry_equiv_pos_site_id
 _symmetry_equiv_pos_as_xyz
  1  'x, y, z'
loop_
 _atom_site_type_symbol
 _atom_site_label
 _atom_site_symmetry_multiplicity
 _atom_site_fract_x
 _atom_site_fract_y
 _atom_site_fract_z
 _atom_site_occupancy
  C  C0  1  0.24874613  0.72751188  0.99059001  1
  C  C1  1  0.74874613  0.77248812  0.49059001  1
  C  C2  1  0.74874613  0.22751188  0.99059001  1
  C  C3  1  0.24874613  0.27248812  0.49059001  1
  C  C4  1  0.50388723  0.09858696  0.75882264  1
  C  C5  1  0.50388723  0.90141304  0.25882264  1
  C  C6  1  0.00388723  0.59858696  0.75882264  1
  C  C7  1  0.00388723  0.40141304  0.25882264  1
  C  C8  1  0.18415113  0.92608790  0.28717255  1
  C  C9  1  0.18415113  0.07391210  0.78717255  1
  C  C10  1  0.68415113  0.42608790  0.28717255  1
  C  C11  1  0.68415113  0.57391210  0.78717255  1
  C  C12  1  0.89503898  0.75664119  0.93652836  1
  C  C13  1  0.89503898  0.24335881  0.43652836  1
  C  C14  1  0.39503898  0.25664119  0.93652836  1
  C  C15  1  0.39503898  0.74335881  0.43652836  1
  Ni  Ni16  1  0.10453761  0.74093231  0.55936465  1
  Ni  Ni17  1  0.10453761  0.25906769  0.05936465  1
  Ni  Ni18  1  0.60453761  0.24093231  0.55936465  1
  Ni  Ni19  1  0.60453761  0.75906769  0.05936465  1
  Cu  Cu20  1  0.64383317  0.90102956  0.74350993  1
  Cu  Cu21  1  0.64383317  0.09897044  0.24350993  1
  Cu  Cu22  1  0.14383317  0.40102956  0.74350993  1
  Cu  Cu23  1  0.14383317  0.59897044  0.24350993  1
  C  C24  1  0.00503836  0.95703481  0.75845624  1
  C  C25  1  0.00503836  0.04296519  0.25845624  1
  C  C26  1  0.50503836  0.45703481  0.75845624  1
  C  C27  1  0.50503836  0.54296519  0.25845624  1
  C  C28  1  0.35114237  0.88879674  0.75800880  1
  C  C29  1  0.35114237  0.11120326  0.25800880  1
  C  C30  1  0.85114237  0.38879674  0.75800880  1
  C  C31  1  0.85114237  0.61120326  0.25800880  1
  C  C32  1  0.14579348  0.58432198  0.73753479  1
  C  C33  1  0.84701878  0.56562684  0.76019847  1
  C  C34  1  0.84701878  0.43437316  0.26019847  1
  C  C35  1  0.14579348  0.41567802  0.23753479  1
  C  C36  1  0.64579348  0.08432198  0.73753479  1
  C  C37  1  0.34701878  0.06562684  0.76019847  1
  C  C38  1  0.34701878  0.93437316  0.26019847  1
  C  C39  1  0.64579348  0.91567802  0.23753479  1
  C  C40  1  0.44122908  0.55911156  0.58994127  1
  C  C41  1  0.57011823  0.55259578  0.93214907  1
  C  C42  1  0.57011823  0.44740422  0.43214907  1
  C  C43  1  0.44122908  0.44088844  0.08994127  1
  C  C44  1  0.94122908  0.05911156  0.58994127  1
  C  C45  1  0.07011823  0.05259578  0.93214907  1
  C  C46  1  0.07011823  0.94740422  0.43214907  1
  C  C47  1  0.94122908  0.94088844  0.08994127  1
  C  C48  1  0.25410229  0.83141598  0.74510047  1
  C  C49  1  0.74195268  0.81788177  0.75587709  1
  C  C50  1  0.74195268  0.18211823  0.25587709  1
  C  C51  1  0.25410229  0.16858402  0.24510047  1
  C  C52  1  0.75410229  0.33141598  0.74510047  1
  C  C53  1  0.24195268  0.31788177  0.75587709  1
  C  C54  1  0.24195268  0.68211823  0.25587709  1
  C  C55  1  0.75410229  0.66858402  0.24510047  1
  C  C56  1  0.34906871  0.85521711  0.58432680  1
  C  C57  1  0.63840896  0.85538833  0.91419510  1
  C  C58  1  0.63840896  0.14461167  0.41419510  1
  C  C59  1  0.34906871  0.14478289  0.08432680  1
  C  C60  1  0.84906871  0.35521711  0.58432680  1
  C  C61  1  0.13840896  0.35538833  0.91419510  1
  C  C62  1  0.13840896  0.64461167  0.41419510  1
  C  C63  1  0.84906871  0.64478289  0.08432680  1
  C  C64  1  0.45124947  0.82891166  0.92930258  1
  C  C65  1  0.53767661  0.83537804  0.55874372  1
  C  C66  1  0.53767661  0.16462196  0.05874372  1
  C  C67  1  0.45124947  0.17108834  0.42930258  1
  C  C68  1  0.95124947  0.32891166  0.92930258  1
  C  C69  1  0.03767661  0.33537804  0.55874372  1
  C  C70  1  0.03767661  0.66462196  0.05874372  1
  C  C71  1  0.95124947  0.67108834  0.42930258  1
  C  C72  1  0.08246944  0.85968155  0.74436503  1
  C  C73  1  0.92453730  0.85198460  0.75581244  1
  C  C74  1  0.92453730  0.14801540  0.25581244  1
  C  C75  1  0.08246944  0.14031845  0.24436503  1
  C  C76  1  0.58246944  0.35968155  0.74436503  1
  C  C77  1  0.42453730  0.35198460  0.75581244  1
  C  C78  1  0.42453730  0.64801540  0.25581244  1
  C  C79  1  0.58246944  0.64031845  0.24436503  1
