# generated using pymatgen
data_Cu3NiC34
_symmetry_space_group_name_H-M   'P 1'
_cell_length_a   8.86096709
_cell_length_b   8.86661299
_cell_length_c   22.30539917
_cell_angle_alpha   89.58982674
_cell_angle_beta   90.46174296
_cell_angle_gamma   120.07020572
_symmetry_Int_Tables_number   1
_chemical_formula_structural   Cu3NiC34
_chemical_formula_sum   'Cu9 Ni3 C102'
_cell_volume   1516.54362740
_cell_formula_units_Z   3
loop_
 _symmetry_equiv_pos_site_id
 _symmetry_equiv_pos_as_xyz
  1  'x, y, z'
loop_
 _atom_site_type_symbol
 _atom_site_label
 _atom_site_symmetry_multiplicity
 _atom_site_fract_x
 _atom_site_fract_y
 _atom_site_fract_z
 _atom_site_occupancy
  C  C0  1  0.63589061  0.01094210  0.24043476  1
  C  C1  1  0.37328439  0.35332134  0.24999368  1
  C  C2  1  0.99024405  0.63600553  0.24769062  1
  C  C3  1  0.99150825  0.36207977  0.75411419  1
  C  C4  1  0.38031779  0.01013101  0.75375366  1
  C  C5  1  0.70855998  0.67644855  0.40663685  1
  C  C6  1  0.00929313  0.01723793  0.49351524  1
  C  C7  1  0.00339720  0.00734555  0.00078280  1
  C  C8  1  0.65945266  0.33664919  0.83430287  1
  C  C9  1  0.65166445  0.31992855  0.32552669  1
  C  C10  1  0.34336497  0.67814852  0.15984652  1
  C  C11  1  0.35137454  0.66477777  0.66904816  1
  C  C12  1  0.01585224  0.02966956  0.85790208  1
  C  C13  1  0.99143141  0.01017396  0.65111777  1
  C  C14  1  0.98650999  0.98236806  0.14800953  1
  C  C15  1  0.66770087  0.30657499  0.97747445  1
  C  C16  1  0.65172810  0.31950625  0.47558290  1
  C  C17  1  0.33014105  0.67612976  0.01819578  1
  C  C18  1  0.34271828  0.66049581  0.51590159  1
  C  C19  1  0.35867388  0.68489035  0.31195197  1
  C  C20  1  0.34226693  0.66893091  0.81669865  1
  Ni  Ni21  1  0.00791100  0.00646649  0.35398493  1
  Ni  Ni22  1  0.65675514  0.32823176  0.68767807  1
  Ni  Ni23  1  0.64424258  0.31445553  0.17958649  1
  Cu  Cu24  1  0.28697107  0.99825450  0.25264789  1
  Cu  Cu25  1  0.71094702  0.70447070  0.25350581  1
  Cu  Cu26  1  0.29471399  0.29826460  0.75086738  1
  Cu  Cu27  1  0.70748764  0.99389645  0.75258801  1
  Cu  Cu28  1  0.66955668  0.03223108  0.08589198  1
  Cu  Cu29  1  0.04726615  0.38723807  0.91751046  1
  Cu  Cu30  1  0.32648844  0.95394618  0.91461796  1
  Cu  Cu31  1  0.62738679  0.96025546  0.41748069  1
  Cu  Cu32  1  0.32606373  0.37182383  0.41559393  1
  C  C33  1  0.00396167  0.29340192  0.25017725  1
  C  C34  1  0.99890617  0.71651494  0.74966418  1
  C  C35  1  0.95917667  0.33618990  0.58390467  1
  C  C36  1  0.36907006  0.03499927  0.58281615  1
  C  C37  1  0.66990337  0.62731045  0.58270790  1
  C  C38  1  0.95798799  0.62372860  0.08262986  1
  C  C39  1  0.37200911  0.33512247  0.08159800  1
  C  C40  1  0.62376428  0.66659713  0.91831359  1
  C  C41  1  0.04361809  0.65687310  0.42010519  1
  C  C42  1  0.21101183  0.04797599  0.30876218  1
  C  C43  1  0.81855525  0.78055436  0.31439909  1
  C  C44  1  0.96536949  0.18713213  0.30455284  1
  C  C45  1  0.19775868  0.16976987  0.80873323  1
  C  C46  1  0.97825201  0.79639309  0.80387584  1
  C  C47  1  0.83822239  0.01823850  0.80770130  1
  C  C48  1  0.80174536  0.96626223  0.69123597  1
  C  C49  1  0.15815738  0.19080225  0.69285061  1
  C  C50  1  0.02420324  0.82755666  0.69474267  1
  C  C51  1  0.80274401  0.83981431  0.19505930  1
  C  C52  1  0.03320540  0.21055829  0.19688196  1
  C  C53  1  0.15770311  0.96722524  0.19294058  1
  C  C54  1  0.88705883  0.35860405  0.64008286  1
  C  C55  1  0.47062809  0.10634073  0.63837396  1
  C  C56  1  0.64332603  0.52237326  0.63657649  1
  C  C57  1  0.88819337  0.53055154  0.13962226  1
  C  C58  1  0.63367943  0.10453444  0.14625342  1
  C  C59  1  0.46725744  0.36661464  0.13952432  1
  C  C60  1  0.46911081  0.31718539  0.03095483  1
  C  C61  1  0.84774367  0.53457123  0.03053942  1
  C  C62  1  0.69139586  0.16250137  0.02707095  1
  C  C63  1  0.46486523  0.15299764  0.53045595  1
  C  C64  1  0.68706743  0.54284281  0.52789255  1
  C  C65  1  0.84643599  0.31559063  0.53159353  1
  C  C66  1  0.54106514  0.69395749  0.97067311  1
  C  C67  1  0.17211725  0.47975991  0.97454309  1
  C  C68  1  0.30975423  0.83302955  0.97248686  1
  C  C69  1  0.51142128  0.83233240  0.47333335  1
  C  C70  1  0.31731373  0.48047649  0.47476051  1
  C  C71  1  0.15100662  0.67018516  0.47321267  1
  C  C72  1  0.11657356  0.63208097  0.36428695  1
  C  C73  1  0.50869841  0.87786828  0.35587366  1
  C  C74  1  0.37007574  0.50393510  0.35787000  1
  C  C75  1  0.13944223  0.50018265  0.85583666  1
  C  C76  1  0.36403045  0.86723064  0.85501114  1
  C  C77  1  0.51212382  0.64035584  0.86256178  1
  C  C78  1  0.02279759  0.81020335  0.42009269  1
  C  C79  1  0.80773114  0.96421660  0.41786910  1
  C  C80  1  0.16358213  0.18370516  0.41728636  1
  C  C81  1  0.02253616  0.19067401  0.91138836  1
  C  C82  1  0.14880353  0.96371515  0.90908734  1
  C  C83  1  0.79638575  0.82228093  0.91041798  1
  C  C84  1  0.97493105  0.17356432  0.58658183  1
  C  C85  1  0.19581370  0.02261951  0.58523436  1
  C  C86  1  0.82815895  0.80410856  0.58632133  1
  C  C87  1  0.97765517  0.80273369  0.08494385  1
  C  C88  1  0.85026654  0.02184272  0.08882038  1
  C  C89  1  0.19811276  0.17438450  0.08518919  1
  C  C90  1  0.69822166  0.17133244  0.74658535  1
  C  C91  1  0.47861866  0.30660597  0.74609429  1
  C  C92  1  0.85057457  0.53941082  0.74309228  1
  C  C93  1  0.68540176  0.51391858  0.24182605  1
  C  C94  1  0.85756115  0.32713015  0.24176342  1
  C  C95  1  0.48595527  0.15625741  0.24616408  1
  C  C96  1  0.63621867  0.50799075  0.92327962  1
  C  C97  1  0.85370826  0.36924147  0.92428613  1
  C  C98  1  0.49879857  0.14960612  0.92379127  1
  C  C99  1  0.64010123  0.15118980  0.42773839  1
  C  C100  1  0.51568678  0.37228330  0.42784336  1
  C  C101  1  0.86400957  0.49759982  0.42704545  1
  C  C102  1  0.34986791  0.48992084  0.07356944  1
  C  C103  1  0.13779286  0.64668863  0.07666217  1
  C  C104  1  0.49998780  0.83790457  0.07264238  1
  C  C105  1  0.34722327  0.85935603  0.57414074  1
  C  C106  1  0.51116015  0.64966409  0.57747306  1
  C  C107  1  0.13737903  0.48980177  0.57671100  1
  C  C108  1  0.29003964  0.80977225  0.25735533  1
  C  C109  1  0.51555742  0.69341684  0.25470169  1
  C  C110  1  0.16823703  0.46758423  0.25552945  1
  C  C111  1  0.29278923  0.48043637  0.75444681  1
  C  C112  1  0.16376950  0.70632673  0.75157408  1
  C  C113  1  0.51162334  0.82406645  0.75564134  1
