# generated using pymatgen
data_CuNiC15
_symmetry_space_group_name_H-M   'P 1'
_cell_length_a   5.49400080
_cell_length_b   7.28141064
_cell_length_c   5.28232949
_cell_angle_alpha   110.42040248
_cell_angle_beta   98.07202143
_cell_angle_gamma   106.16457579
_symmetry_Int_Tables_number   1
_chemical_formula_structural   CuNiC15
_chemical_formula_sum   'Cu1 Ni1 C15'
_cell_volume   183.46251680
_cell_formula_units_Z   1
loop_
 _symmetry_equiv_pos_site_id
 _symmetry_equiv_pos_as_xyz
  1  'x, y, z'
loop_
 _atom_site_type_symbol
 _atom_site_label
 _atom_site_symmetry_multiplicity
 _atom_site_fract_x
 _atom_site_fract_y
 _atom_site_fract_z
 _atom_site_occupancy
  Ni  Ni0  1  0.41425900  0.74690800  0.75214000  1
  Cu  Cu1  1  0.03488100  0.01235100  0.00623800  1
  C  C2  1  0.01171600  0.48823900  0.00052000  1
  C  C3  1  0.39072200  0.24219700  0.66449700  1
  C  C4  1  0.65439900  0.75210900  0.33323600  1
  C  C5  1  0.83812900  0.26355900  0.26150700  1
  C  C6  1  0.94725600  0.65562900  0.65576900  1
  C  C7  1  0.07023600  0.72702500  0.84753800  1
  C  C8  1  0.27270500  0.42222200  0.74522000  1
  C  C9  1  0.35827700  0.64288100  0.31915500  1
  C  C10  1  0.25699200  0.07858300  0.35884300  1
  C  C11  1  0.35229500  0.12093100  0.85130800  1
  C  C12  1  0.66900500  0.85827900  0.12834600  1
  C  C13  1  0.74916900  0.90501700  0.65129000  1
  C  C14  1  0.68813800  0.34585400  0.68745600  1
  C  C15  1  0.81381300  0.60502800  0.28925900  1
  C  C16  1  0.95300900  0.26281700  0.13517900  1
