# generated using pymatgen
data_Cu4NiC10
_symmetry_space_group_name_H-M   'P 1'
_cell_length_a   5.71212596
_cell_length_b   5.71212596
_cell_length_c   5.87458584
_cell_angle_alpha   60.91066209
_cell_angle_beta   90.00000000
_cell_angle_gamma   120.00000000
_symmetry_Int_Tables_number   1
_chemical_formula_structural   Cu4NiC10
_chemical_formula_sum   'Cu4 Ni1 C10'
_cell_volume   137.37273577
_cell_formula_units_Z   1
loop_
 _symmetry_equiv_pos_site_id
 _symmetry_equiv_pos_as_xyz
  1  'x, y, z'
loop_
 _atom_site_type_symbol
 _atom_site_label
 _atom_site_symmetry_multiplicity
 _atom_site_fract_x
 _atom_site_fract_y
 _atom_site_fract_z
 _atom_site_occupancy
  Ni  Ni0  1  0.12500000  0.25000000  0.62500000  1
  C  C1  1  0.97371000  0.94741900  0.07887100  1
  C  C2  1  0.27629000  0.55258100  0.17112900  1
  Cu  Cu3  1  0.62500000  0.25000000  0.12500000  1
  Cu  Cu4  1  0.62500000  0.25000000  0.62500000  1
  Cu  Cu5  1  0.62500000  0.75000000  0.62500000  1
  Cu  Cu6  1  0.12500000  0.75000000  0.62500000  1
  C  C7  1  0.89779800  0.27073200  0.35633500  1
  C  C8  1  0.87706600  0.22926800  0.89366500  1
  C  C9  1  0.86714100  0.73428500  0.39857400  1
  C  C10  1  0.37293400  0.27073200  0.35633500  1
  C  C11  1  0.37293400  0.74586700  0.35633500  1
  C  C12  1  0.35220200  0.22926800  0.89366500  1
  C  C13  1  0.87706600  0.75413300  0.89366500  1
  C  C14  1  0.38285900  0.76571500  0.85142600  1
