# generated using pymatgen
data_CuNiC3
_symmetry_space_group_name_H-M   'P 1'
_cell_length_a   9.07200400
_cell_length_b   4.54314400
_cell_length_c   12.75231253
_cell_angle_alpha   80.61060965
_cell_angle_beta   90.00000000
_cell_angle_gamma   90.00000000
_symmetry_Int_Tables_number   1
_chemical_formula_structural   CuNiC3
_chemical_formula_sum   'Cu8 Ni8 C24'
_cell_volume   518.55024735
_cell_formula_units_Z   8
loop_
 _symmetry_equiv_pos_site_id
 _symmetry_equiv_pos_as_xyz
  1  'x, y, z'
loop_
 _atom_site_type_symbol
 _atom_site_label
 _atom_site_symmetry_multiplicity
 _atom_site_fract_x
 _atom_site_fract_y
 _atom_site_fract_z
 _atom_site_occupancy
  C  C0  1  0.77580800  0.12066400  0.42365500  1
  C  C1  1  0.27580800  0.87933600  0.57634500  1
  C  C2  1  0.50034200  0.93358200  0.92788100  1
  C  C3  1  0.00034200  0.06641800  0.07211900  1
  Ni  Ni4  1  0.57216900  0.09523800  0.21694900  1
  Ni  Ni5  1  0.07216900  0.90476200  0.78305100  1
  Ni  Ni6  1  0.47216600  0.15763100  0.30763800  1
  Ni  Ni7  1  0.97216600  0.84236900  0.69236200  1
  Ni  Ni8  1  0.88764700  0.14175600  0.83086200  1
  Ni  Ni9  1  0.38764700  0.85824400  0.16913800  1
  Ni  Ni10  1  0.51265900  0.61066000  0.18131200  1
  Ni  Ni11  1  0.01265900  0.38934000  0.81868800  1
  Cu  Cu12  1  0.76153200  0.47276300  0.01536500  1
  Cu  Cu13  1  0.26153200  0.52723700  0.98463500  1
  Cu  Cu14  1  0.01389600  0.47119100  0.49720100  1
  Cu  Cu15  1  0.51389600  0.52880900  0.50279900  1
  Cu  Cu16  1  0.68898500  0.00774600  0.69123600  1
  Cu  Cu17  1  0.18898500  0.99225400  0.30876400  1
  Cu  Cu18  1  0.37772700  0.42622400  0.73146300  1
  Cu  Cu19  1  0.87772700  0.57377600  0.26853700  1
  C  C20  1  0.13947000  0.38010400  0.53421700  1
  C  C21  1  0.63947000  0.61989600  0.46578300  1
  C  C22  1  0.45636500  0.49083400  0.80605300  1
  C  C23  1  0.95636500  0.50916600  0.19394700  1
  C  C24  1  0.34821700  0.14911300  0.73840700  1
  C  C25  1  0.84821700  0.85088700  0.26159300  1
  C  C26  1  0.49273300  0.25331500  0.50422900  1
  C  C27  1  0.99273300  0.74668500  0.49577100  1
  C  C28  1  0.21631500  0.98872000  0.21103800  1
  C  C29  1  0.71631500  0.01128000  0.78896200  1
  C  C30  1  0.30269200  0.97459400  0.36799600  1
  C  C31  1  0.80269200  0.02540600  0.63200400  1
  C  C32  1  0.98498300  0.19316300  0.85963700  1
  C  C33  1  0.48498300  0.80683700  0.14036300  1
  C  C34  1  0.63381300  0.39564400  0.98925500  1
  C  C35  1  0.13381300  0.60435600  0.01074500  1
  C  C36  1  0.77733300  0.75241900  0.00993200  1
  C  C37  1  0.27733300  0.24758100  0.99006800  1
  C  C38  1  0.06466800  0.76941200  0.72970900  1
  C  C39  1  0.56466800  0.23058800  0.27029100  1
