# generated using pymatgen
data_Cu2Ni2C3
_symmetry_space_group_name_H-M   'P 1'
_cell_length_a   11.98400290
_cell_length_b   11.98400290
_cell_length_c   11.98400290
_cell_angle_alpha   131.86131842
_cell_angle_beta   130.55138268
_cell_angle_gamma   71.49063718
_symmetry_Int_Tables_number   1
_chemical_formula_structural   Cu2Ni2C3
_chemical_formula_sum   'Cu8 Ni8 C12'
_cell_volume   953.12482575
_cell_formula_units_Z   4
loop_
 _symmetry_equiv_pos_site_id
 _symmetry_equiv_pos_as_xyz
  1  'x, y, z'
loop_
 _atom_site_type_symbol
 _atom_site_label
 _atom_site_symmetry_multiplicity
 _atom_site_fract_x
 _atom_site_fract_y
 _atom_site_fract_z
 _atom_site_occupancy
  C  C0  1  0.64901100  0.14901100  0.00000000  1
  C  C1  1  0.85098900  0.85098900  0.50000000  1
  C  C2  1  0.35098900  0.85098900  0.00000000  1
  C  C3  1  0.14901100  0.14901100  0.50000000  1
  C  C4  1  0.47911900  0.75199900  0.73111800  1
  C  C5  1  0.02088100  0.75199900  0.27288000  1
  C  C6  1  0.97911900  0.24800100  0.72712000  1
  C  C7  1  0.52088100  0.24800100  0.26888200  1
  C  C8  1  0.11606200  0.15942200  0.04336000  1
  C  C9  1  0.38393800  0.42729700  0.04336000  1
  C  C10  1  0.88393800  0.84057800  0.95664000  1
  C  C11  1  0.61606200  0.57270300  0.95664000  1
  Ni  Ni12  1  0.63310200  0.87576700  0.75840700  1
  Ni  Ni13  1  0.86689800  0.62530600  0.24266500  1
  Ni  Ni14  1  0.88264000  0.12423300  0.75733500  1
  Ni  Ni15  1  0.61736000  0.37469400  0.24159300  1
  Ni  Ni16  1  0.36689800  0.12423300  0.24159300  1
  Ni  Ni17  1  0.13310200  0.37469400  0.75733500  1
  Ni  Ni18  1  0.11736000  0.87576700  0.24266500  1
  Ni  Ni19  1  0.38264000  0.62530600  0.75840700  1
  Cu  Cu20  1  0.99933500  0.25615700  0.25682200  1
  Cu  Cu21  1  0.50066500  0.75748800  0.25682200  1
  Cu  Cu22  1  0.00066500  0.74384300  0.74317800  1
  Cu  Cu23  1  0.49933500  0.24251200  0.74317800  1
  Cu  Cu24  1  0.75000000  0.02128500  0.27128500  1
  Cu  Cu25  1  0.25000000  0.97871500  0.72871500  1
  Cu  Cu26  1  0.75000000  0.49389500  0.74389500  1
  Cu  Cu27  1  0.25000000  0.50610500  0.25610500  1
