# generated using pymatgen
data_CuNiC3
_symmetry_space_group_name_H-M   'P 1'
_cell_length_a   3.34965700
_cell_length_b   3.34983736
_cell_length_c   37.27042308
_cell_angle_alpha   89.91311951
_cell_angle_beta   90.00000158
_cell_angle_gamma   119.99833937
_symmetry_Int_Tables_number   1
_chemical_formula_structural   CuNiC3
_chemical_formula_sum   'Cu2 Ni2 C6'
_cell_volume   362.18096044
_cell_formula_units_Z   2
loop_
 _symmetry_equiv_pos_site_id
 _symmetry_equiv_pos_as_xyz
  1  'x, y, z'
loop_
 _atom_site_type_symbol
 _atom_site_label
 _atom_site_symmetry_multiplicity
 _atom_site_fract_x
 _atom_site_fract_y
 _atom_site_fract_z
 _atom_site_occupancy
  C  C0  1  0.00055400  0.00110700  0.21751900  1
  Ni  Ni1  1  0.66736000  0.33472000  0.52839700  1
  Ni  Ni2  1  0.66602600  0.33205200  0.62996600  1
  C  C3  1  0.33318100  0.66636400  0.11014300  1
  C  C4  1  0.33337300  0.66674500  0.57918800  1
  C  C5  1  0.66661200  0.33322500  0.35444000  1
  Cu  Cu6  1  0.33268000  0.66536100  0.39906400  1
  Cu  Cu7  1  0.33385000  0.66770100  0.30957700  1
  C  C8  1  0.66675400  0.33350600  0.06993900  1
  C  C9  1  0.66621100  0.33242000  0.15169200  1
