# generated using pymatgen
data_Cu8Ni4C99
_symmetry_space_group_name_H-M   'P 1'
_cell_length_a   8.80198137
_cell_length_b   8.80705169
_cell_length_c   22.63319998
_cell_angle_alpha   89.90379252
_cell_angle_beta   90.14425950
_cell_angle_gamma   120.03018727
_symmetry_Int_Tables_number   1
_chemical_formula_structural   Cu8Ni4C99
_chemical_formula_sum   'Cu8 Ni4 C99'
_cell_volume   1518.98668860
_cell_formula_units_Z   1
loop_
 _symmetry_equiv_pos_site_id
 _symmetry_equiv_pos_as_xyz
  1  'x, y, z'
loop_
 _atom_site_type_symbol
 _atom_site_label
 _atom_site_symmetry_multiplicity
 _atom_site_fract_x
 _atom_site_fract_y
 _atom_site_fract_z
 _atom_site_occupancy
  C  C0  1  0.98539156  0.62739289  0.24343545  1
  C  C1  1  0.37318581  0.01638949  0.74362216  1
  C  C2  1  0.32016936  0.03098687  0.41067603  1
  C  C3  1  0.99314313  0.00436019  0.49360204  1
  C  C4  1  0.00012081  0.99867421  0.99234134  1
  C  C5  1  0.67901321  0.34543091  0.82470783  1
  C  C6  1  0.66446601  0.33079603  0.32385884  1
  C  C7  1  0.34065230  0.66751537  0.16497835  1
  C  C8  1  0.33313374  0.66073120  0.66469469  1
  Ni  Ni9  1  0.99623885  0.00256996  0.35411792  1
  Ni  Ni10  1  0.99879147  0.99841590  0.85458853  1
  Ni  Ni11  1  0.67126762  0.33550902  0.68568913  1
  Ni  Ni12  1  0.66356834  0.32872752  0.18509022  1
  Cu  Cu13  1  0.00188595  0.00141915  0.64638884  1
  Cu  Cu14  1  0.00031855  0.00058359  0.14578875  1
  Cu  Cu15  1  0.66882484  0.33751468  0.97910556  1
  Cu  Cu16  1  0.66435239  0.33514890  0.48037256  1
  Cu  Cu17  1  0.33135060  0.66746216  0.02100832  1
  Cu  Cu18  1  0.33245591  0.66402307  0.52162090  1
  Cu  Cu19  1  0.33828341  0.66251531  0.31065995  1
  Cu  Cu20  1  0.33333626  0.66372239  0.81102943  1
  C  C21  1  0.37781013  0.04456042  0.58730257  1
  C  C22  1  0.95375188  0.62194314  0.08750236  1
  C  C23  1  0.32948787  0.37149301  0.41705803  1
  C  C24  1  0.29423635  0.00642215  0.25325305  1
  C  C25  1  0.71420575  0.71246786  0.25177107  1
  C  C26  1  0.99442532  0.28506175  0.25228629  1
  C  C27  1  0.28910223  0.28719911  0.75259859  1
  C  C28  1  0.99243791  0.70741633  0.75291637  1
  C  C29  1  0.71624603  0.00506076  0.75310485  1
  C  C30  1  0.95275486  0.33256595  0.58515940  1
  C  C31  1  0.66774888  0.62151522  0.58567997  1
  C  C32  1  0.66749473  0.04771406  0.08423681  1
  C  C33  1  0.38062585  0.33371218  0.08428617  1
  C  C34  1  0.62323870  0.66779284  0.91704932  1
  C  C35  1  0.04447669  0.37558868  0.91672964  1
  C  C36  1  0.33279460  0.95642078  0.91590043  1
  C  C37  1  0.62360240  0.95353511  0.41714460  1
  C  C38  1  0.04310239  0.66182073  0.41556951  1
  C  C39  1  0.21094839  0.01988454  0.30998808  1
  C  C40  1  0.82635828  0.79677339  0.30531167  1
  C  C41  1  0.97925227  0.18195588  0.30661773  1
  C  C42  1  0.20382217  0.17405554  0.80579544  1
  C  C43  1  0.97865726  0.79634372  0.80743915  1
  C  C44  1  0.82078250  0.02147008  0.80736225  1
  C  C45  1  0.79906388  0.97260236  0.69581898  1
  C  C46  1  0.16977985  0.20021054  0.69537397  1
  C  C47  1  0.03140324  0.83202518  0.69624423  1
  C  C48  1  0.80244918  0.83098833  0.19474471  1
  C  C49  1  0.02583597  0.20140218  0.19514160  1
  C  C50  1  0.16692484  0.97304615  0.19775058  1
  C  C51  1  0.88221828  0.37018642  0.63925583  1
  C  C52  1  0.48313010  0.11450521  0.64678434  1
  C  C53  1  0.63281110  0.51232661  0.63946877  1
  C  C54  1  0.88830503  0.51763824  0.14729421  1
  C  C55  1  0.62684987  0.11534503  0.13860833  1
  C  C56  1  0.48846486  0.36915920  0.13872384  1
  C  C57  1  0.46496308  0.30254999  0.02769633  1
  C  C58  1  0.82978116  0.52432270  0.02806840  1
  C  C59  1  0.69196526  0.16142538  0.02772509  1
  C  C60  1  0.47147859  0.16557478  0.52642745  1
  C  C61  1  0.69751510  0.53570213  0.52866813  1
  C  C62  1  0.84113426  0.30820940  0.52815655  1
  C  C63  1  0.52397084  0.67983703  0.97139771  1
  C  C64  1  0.15833558  0.47711726  0.97117856  1
  C  C65  1  0.32088573  0.84019000  0.96983333  1
  C  C66  1  0.52380240  0.84245597  0.47186257  1
  C  C67  1  0.31674588  0.47940053  0.47309153  1
  C  C68  1  0.16326524  0.68669377  0.46962426  1
  C  C69  1  0.13180335  0.63755643  0.35904109  1
  C  C70  1  0.49925991  0.86945389  0.36208069  1
  C  C71  1  0.36283976  0.50212885  0.35936898  1
  C  C72  1  0.13488547  0.49626112  0.86175681  1
  C  C73  1  0.36049846  0.86754282  0.85986815  1
  C  C74  1  0.50266092  0.63902455  0.86175865  1
  C  C75  1  0.02675789  0.82386953  0.41234183  1
  C  C76  1  0.79925256  0.96782086  0.41321949  1
  C  C77  1  0.17016532  0.17660992  0.41552425  1
  C  C78  1  0.02743558  0.19830366  0.91380843  1
  C  C79  1  0.17150380  0.97245709  0.91378692  1
  C  C80  1  0.80231815  0.82565978  0.91354218  1
  C  C81  1  0.97083757  0.16508534  0.58992389  1
  C  C82  1  0.17947964  0.02348697  0.59064328  1
  C  C83  1  0.83114324  0.80913363  0.59015786  1
  C  C84  1  0.97813104  0.82114289  0.09045032  1
  C  C85  1  0.83550230  0.03073068  0.08935246  1
  C  C86  1  0.19209075  0.17080525  0.08982844  1
  C  C87  1  0.67707591  0.15355190  0.74647788  1
  C  C88  1  0.47185542  0.31519399  0.74382974  1
  C  C89  1  0.84338057  0.52529036  0.74348452  1
  C  C90  1  0.68543611  0.52920288  0.24354731  1
  C  C91  1  0.84431249  0.32237070  0.24599915  1
  C  C92  1  0.47506849  0.15906023  0.24365822  1
  C  C93  1  0.62827070  0.49194499  0.92312996  1
  C  C94  1  0.86270835  0.36704978  0.92380729  1
  C  C95  1  0.50539601  0.13609796  0.92384806  1
  C  C96  1  0.63148914  0.13505729  0.42407860  1
  C  C97  1  0.51467650  0.36389334  0.42300793  1
  C  C98  1  0.86545386  0.49090437  0.42373268  1
  C  C99  1  0.35426060  0.49409305  0.07147034  1
  C  C100  1  0.15191669  0.65355951  0.07204098  1
  C  C101  1  0.51199489  0.85773554  0.07130271  1
  C  C102  1  0.34580040  0.84715538  0.57277422  1
  C  C103  1  0.50779361  0.64869399  0.57349570  1
  C  C104  1  0.14214609  0.49071728  0.57345563  1
  C  C105  1  0.29663037  0.82532382  0.25512626  1
  C  C106  1  0.52996262  0.70519366  0.25548905  1
  C  C107  1  0.17025592  0.47751793  0.25601448  1
  C  C108  1  0.29912577  0.47239711  0.75719200  1
  C  C109  1  0.17478254  0.70330691  0.75698754  1
  C  C110  1  0.52388140  0.82870538  0.75788352  1
