# generated using pymatgen
data_Cu2NiC10
_symmetry_space_group_name_H-M   'P 1'
_cell_length_a   4.85777043
_cell_length_b   5.09936229
_cell_length_c   5.89546900
_cell_angle_alpha   90.00000000
_cell_angle_beta   90.00000000
_cell_angle_gamma   88.48171087
_symmetry_Int_Tables_number   1
_chemical_formula_structural   Cu2NiC10
_chemical_formula_sum   'Cu2 Ni1 C10'
_cell_volume   145.98852324
_cell_formula_units_Z   1
loop_
 _symmetry_equiv_pos_site_id
 _symmetry_equiv_pos_as_xyz
  1  'x, y, z'
loop_
 _atom_site_type_symbol
 _atom_site_label
 _atom_site_symmetry_multiplicity
 _atom_site_fract_x
 _atom_site_fract_y
 _atom_site_fract_z
 _atom_site_occupancy
  Ni  Ni0  1  0.00000000  0.25000000  0.61491000  1
  Cu  Cu1  1  0.50000000  0.25000000  0.64914700  1
  Cu  Cu2  1  0.50000000  0.75000000  0.35459200  1
  C  C3  1  0.00000000  0.25000000  0.15070300  1
  C  C4  1  0.00000000  0.75000000  0.84730700  1
  C  C5  1  0.74991500  0.92168000  0.63722600  1
  C  C6  1  0.25008500  0.57832000  0.63722600  1
  C  C7  1  0.25636400  0.09717800  0.38001900  1
  C  C8  1  0.74363600  0.40282200  0.38001900  1
  C  C9  1  0.78672600  0.93335000  0.11381300  1
  C  C10  1  0.21327400  0.56665000  0.11381300  1
  C  C11  1  0.22035000  0.07939100  0.87311300  1
  C  C12  1  0.77965000  0.42060900  0.87311300  1
