# generated using pymatgen
data_Cu2Ni5C32
_symmetry_space_group_name_H-M   'P 1'
_cell_length_a   17.75476052
_cell_length_b   9.00581043
_cell_length_c   22.29615785
_cell_angle_alpha   89.98804120
_cell_angle_beta   87.24866245
_cell_angle_gamma   120.33189059
_symmetry_Int_Tables_number   1
_chemical_formula_structural   Cu2Ni5C32
_chemical_formula_sum   'Cu12 Ni30 C192'
_cell_volume   3072.27775617
_cell_formula_units_Z   6
loop_
 _symmetry_equiv_pos_site_id
 _symmetry_equiv_pos_as_xyz
  1  'x, y, z'
loop_
 _atom_site_type_symbol
 _atom_site_label
 _atom_site_symmetry_multiplicity
 _atom_site_fract_x
 _atom_site_fract_y
 _atom_site_fract_z
 _atom_site_occupancy
  Ni  Ni0  1  0.18199486  0.36356142  0.24277622  1
  Ni  Ni1  1  0.68217153  0.36471582  0.24294077  1
  Ni  Ni2  1  0.99509866  0.63121515  0.25314370  1
  Ni  Ni3  1  0.49555544  0.63142687  0.25271285  1
  Ni  Ni4  1  0.49479056  0.35564146  0.75722706  1
  Ni  Ni5  1  0.18168368  0.00116825  0.74576667  1
  Ni  Ni6  1  0.68210889  0.00123387  0.74555815  1
  Ni  Ni7  1  0.65423757  0.34203870  0.58204561  1
  Ni  Ni8  1  0.01643415  0.69768949  0.58054809  1
  Ni  Ni9  1  0.82947165  0.96356467  0.58995645  1
  Ni  Ni10  1  0.48643457  0.67385084  0.91615474  1
  Ni  Ni11  1  0.98967773  0.67631682  0.91519524  1
  Ni  Ni12  1  0.84828341  0.02676448  0.91007558  1
  Ni  Ni13  1  0.16111362  0.29666839  0.92186251  1
  Ni  Ni14  1  0.48734409  0.30251369  0.41511286  1
  Ni  Ni15  1  0.98534278  0.29892574  0.41505464  1
  Ni  Ni16  1  0.34749800  0.66869959  0.40936231  1
  Ni  Ni17  1  0.84888005  0.67089256  0.41140833  1
  Ni  Ni18  1  0.01921676  0.00971062  0.49995746  1
  Ni  Ni19  1  0.51082570  0.99183446  0.49897301  1
  Ni  Ni20  1  0.00708384  0.00718186  0.00293529  1
  Ni  Ni21  1  0.51134847  0.02905987  0.99850273  1
  Ni  Ni22  1  0.33782141  0.33150355  0.83378132  1
  Ni  Ni23  1  0.83918479  0.33779913  0.82934578  1
  Ni  Ni24  1  0.33078800  0.31958797  0.33143276  1
  Ni  Ni25  1  0.83120793  0.31870684  0.33286248  1
  Ni  Ni26  1  0.17417647  0.66355140  0.16271537  1
  Ni  Ni27  1  0.67417756  0.66387122  0.16264255  1
  Ni  Ni28  1  0.17350327  0.67060731  0.66900081  1
  Ni  Ni29  1  0.67169872  0.67815173  0.66733913  1
  Cu  Cu30  1  0.00137000  0.99937924  0.35338568  1
  Cu  Cu31  1  0.50162719  0.00051012  0.35284728  1
  Cu  Cu32  1  0.99882597  0.99826608  0.85135892  1
  Cu  Cu33  1  0.49667955  0.00412949  0.85548499  1
  Cu  Cu34  1  0.33200461  0.32543665  0.68821648  1
  Cu  Cu35  1  0.83557107  0.33463706  0.68804587  1
  Cu  Cu36  1  0.33408045  0.34242380  0.18568290  1
  Cu  Cu37  1  0.83333185  0.34174543  0.18553999  1
  Cu  Cu38  1  0.16015697  0.65088603  0.02012914  1
  Cu  Cu39  1  0.65858869  0.64852213  0.02102551  1
  Cu  Cu40  1  0.16474615  0.67135396  0.51937236  1
  Cu  Cu41  1  0.66045697  0.66906540  0.52102173  1
  C  C42  1  0.35408433  0.72369905  0.25059570  1
  C  C43  1  0.85425538  0.72379217  0.25068119  1
  C  C44  1  0.99781675  0.29240073  0.25318092  1
  C  C45  1  0.49800490  0.29275574  0.25311443  1
  C  C46  1  0.99858544  0.69908744  0.75284772  1
  C  C47  1  0.49789970  0.70219651  0.75434810  1
  C  C48  1  0.35370128  0.98426365  0.75000425  1
  C  C49  1  0.85289616  0.98832567  0.75221869  1
  C  C50  1  0.18656947  0.04802847  0.58702015  1
  C  C51  1  0.68516283  0.04751565  0.58676978  1
  C  C52  1  0.83384443  0.62907929  0.58439862  1
  C  C53  1  0.18490116  0.32380145  0.08616540  1
  C  C54  1  0.68378487  0.32370574  0.08713526  1
  C  C55  1  0.02003586  0.38070816  0.91816411  1
  C  C56  1  0.51953053  0.37749143  0.91853303  1
  C  C57  1  0.16869598  0.95927369  0.91787258  1
  C  C58  1  0.66638423  0.96192029  0.91986399  1
  C  C59  1  0.16688610  0.37156008  0.41870030  1
  C  C60  1  0.66616178  0.36975479  0.41961662  1
  C  C61  1  0.02019980  0.66052360  0.41908958  1
  C  C62  1  0.52002383  0.66213099  0.41817891  1
  C  C63  1  0.99471568  0.96145716  0.64941550  1
  C  C64  1  0.49843545  0.96581173  0.65262402  1
  C  C65  1  0.99844024  0.02989839  0.14927919  1
  C  C66  1  0.49867778  0.02827004  0.14928339  1
  C  C67  1  0.32453456  0.29351344  0.97946238  1
  C  C68  1  0.82127279  0.30844412  0.97776231  1
  C  C69  1  0.32342690  0.34108837  0.47885480  1
  C  C70  1  0.82445980  0.36039251  0.48050194  1
  C  C71  1  0.16066672  0.62634220  0.31341164  1
  C  C72  1  0.66028596  0.62820088  0.31379161  1
  C  C73  1  0.15912376  0.69179986  0.81299701  1
  C  C74  1  0.66055019  0.69647475  0.81444865  1
  C  C75  1  0.14530199  0.99102257  0.24787235  1
  C  C76  1  0.64551287  0.99059608  0.24798381  1
  C  C77  1  0.14305349  0.30032379  0.74830245  1
  C  C78  1  0.64363034  0.29508651  0.74768226  1
  C  C79  1  0.47613805  0.32120460  0.58112826  1
  C  C80  1  0.97969779  0.32470320  0.58064451  1
  C  C81  1  0.33751226  0.62895793  0.58237987  1
  C  C82  1  0.47873435  0.63830713  0.08208976  1
  C  C83  1  0.97873491  0.63705667  0.08153379  1
  C  C84  1  0.33648065  0.04381598  0.08351109  1
  C  C85  1  0.83664838  0.04478933  0.08239951  1
  C  C86  1  0.30873018  0.66003990  0.91592646  1
  C  C87  1  0.80846078  0.65309299  0.91672175  1
  C  C88  1  0.30914295  0.96418831  0.41519698  1
  C  C89  1  0.80808704  0.96095395  0.41571927  1
  C  C90  1  0.10716728  0.02333455  0.30324737  1
  C  C91  1  0.60736372  0.02307113  0.30337582  1
  C  C92  1  0.41161638  0.79410304  0.30865844  1
  C  C93  1  0.91225651  0.79435089  0.30863177  1
  C  C94  1  0.48844145  0.18819540  0.31374156  1
  C  C95  1  0.98887853  0.18787624  0.31366675  1
  C  C96  1  0.10671212  0.19765839  0.80561034  1
  C  C97  1  0.60178219  0.18503106  0.80173093  1
  C  C98  1  0.48869310  0.79176729  0.81356099  1
  C  C99  1  0.99203892  0.79362266  0.81237079  1
  C  C100  1  0.41869125  0.03763874  0.80318544  1
  C  C101  1  0.90669893  0.01650950  0.81106560  1
  C  C102  1  0.40431646  0.96046882  0.68663230  1
  C  C103  1  0.90400949  0.96784878  0.68900669  1
  C  C104  1  0.09034227  0.21022049  0.69714158  1
  C  C105  1  0.59178502  0.21440903  0.69321762  1
  C  C106  1  0.02107136  0.82584217  0.69107346  1
  C  C107  1  0.52443492  0.83223197  0.69315987  1
  C  C108  1  0.40704203  0.85146207  0.18985788  1
  C  C109  1  0.90750901  0.85195091  0.18978819  1
  C  C110  1  0.02399916  0.21182476  0.19387043  1
  C  C111  1  0.52316513  0.21014848  0.19404338  1
  C  C112  1  0.09101058  0.96709329  0.19599145  1
  C  C113  1  0.59101976  0.96612021  0.19623489  1
  C  C114  1  0.43387328  0.33930791  0.63658995  1
  C  C115  1  0.93600438  0.34780956  0.63431146  1
  C  C116  1  0.23992406  0.13174530  0.64518146  1
  C  C117  1  0.73971750  0.12462210  0.64503125  1
  C  C118  1  0.32624154  0.52069466  0.63418476  1
  C  C119  1  0.81815599  0.49772413  0.63760673  1
  C  C120  1  0.43671327  0.53370369  0.13826153  1
  C  C121  1  0.93609971  0.53281436  0.13737800  1
  C  C122  1  0.32607194  0.12966199  0.13639306  1
  C  C123  1  0.82708207  0.13280016  0.13496304  1
  C  C124  1  0.23650003  0.33768045  0.14524359  1
  C  C125  1  0.73513183  0.33788476  0.14655831  1
  C  C126  1  0.23665655  0.29615878  0.02383792  1
  C  C127  1  0.73661025  0.29521235  0.02662800  1
  C  C128  1  0.42955055  0.54970059  0.02919728  1
  C  C129  1  0.92984054  0.54992081  0.02797132  1
  C  C130  1  0.35347506  0.15174226  0.02644634  1
  C  C131  1  0.85188962  0.14777318  0.02467026  1
  C  C132  1  0.23806545  0.17740569  0.52514125  1
  C  C133  1  0.73505801  0.18867305  0.52691512  1
  C  C134  1  0.35148008  0.55574522  0.52374416  1
  C  C135  1  0.85632896  0.55643923  0.52002392  1
  C  C136  1  0.42787752  0.31140061  0.52707139  1
  C  C137  1  0.92985493  0.30581182  0.52628639  1
  C  C138  1  0.26939741  0.67896319  0.97240175  1
  C  C139  1  0.76939669  0.67829881  0.97248702  1
  C  C140  1  0.08212513  0.45598728  0.97312075  1
  C  C141  1  0.57686969  0.46526479  0.97442538  1
  C  C142  1  0.15243853  0.83254242  0.97290246  1
  C  C143  1  0.65846592  0.83933347  0.97426654  1
  C  C144  1  0.26980287  0.86318739  0.47116690  1
  C  C145  1  0.77033472  0.86059438  0.47235416  1
  C  C146  1  0.15745534  0.47651770  0.47331426  1
  C  C147  1  0.65540922  0.46227768  0.47811887  1
  C  C148  1  0.07307103  0.68684927  0.47828561  1
  C  C149  1  0.57737359  0.69003519  0.47373110  1
  C  C150  1  0.06976080  0.62535547  0.35770994  1
  C  C151  1  0.56537762  0.62214707  0.35564352  1
  C  C152  1  0.25844080  0.88340241  0.36271675  1
  C  C153  1  0.75609427  0.87537523  0.36358522  1
  C  C154  1  0.18973599  0.49154219  0.35480696  1
  C  C155  1  0.68720010  0.49343958  0.35710758  1
  C  C156  1  0.06732063  0.51737008  0.85850070  1
  C  C157  1  0.56592365  0.51171190  0.85596557  1
  C  C158  1  0.18515830  0.88544625  0.85287947  1
  C  C159  1  0.68969582  0.88789514  0.85566315  1
  C  C160  1  0.25561481  0.63578453  0.86370204  1
  C  C161  1  0.75929271  0.63278874  0.86394056  1
  C  C162  1  0.00000591  0.81480507  0.41125562  1
  C  C163  1  0.49714943  0.81299038  0.41109483  1
  C  C164  1  0.39710810  0.98008805  0.41147743  1
  C  C165  1  0.89620093  0.97636145  0.41124419  1
  C  C166  1  0.08123902  0.18570727  0.41413926  1
  C  C167  1  0.58066649  0.18328610  0.41391361  1
  C  C168  1  0.00176695  0.18641125  0.91051493  1
  C  C169  1  0.50157213  0.18682759  0.91086742  1
  C  C170  1  0.08576142  0.99018644  0.91388939  1
  C  C171  1  0.58089439  0.97696197  0.91428342  1
  C  C172  1  0.39720111  0.81085562  0.91188749  1
  C  C173  1  0.89810584  0.81128204  0.91293817  1
  C  C174  1  0.48629893  0.16836813  0.58322881  1
  C  C175  1  0.98645977  0.16889293  0.58532452  1
  C  C176  1  0.08753007  0.03276095  0.59230486  1
  C  C177  1  0.58608082  0.03866443  0.59262329  1
  C  C178  1  0.41990195  0.80184783  0.58503622  1
  C  C179  1  0.92464288  0.82051252  0.58912334  1
  C  C180  1  0.48402714  0.80746102  0.08593304  1
  C  C181  1  0.98460444  0.80650578  0.08516068  1
  C  C182  1  0.41845043  0.03387415  0.08627336  1
  C  C183  1  0.91930485  0.03494900  0.08591360  1
  C  C184  1  0.08551534  0.13797538  0.09117614  1
  C  C185  1  0.58478605  0.13814376  0.09156917  1
  C  C186  1  0.33719829  0.14740759  0.74217113  1
  C  C187  1  0.83240674  0.14327608  0.74422048  1
  C  C188  1  0.23166881  0.31846741  0.74292736  1
  C  C189  1  0.73058880  0.31157901  0.74378569  1
  C  C190  1  0.41951866  0.50861448  0.74536896  1
  C  C191  1  0.91599780  0.51161683  0.74612516  1
  C  C192  1  0.33729020  0.52801165  0.24255145  1
  C  C193  1  0.83792937  0.52861879  0.24239039  1
  C  C194  1  0.41875593  0.32914023  0.24535167  1
  C  C195  1  0.91870320  0.32883958  0.24518046  1
  C  C196  1  0.23381068  0.14484706  0.24231553  1
  C  C197  1  0.73404037  0.14395554  0.24236223  1
  C  C198  1  0.31747833  0.50154613  0.91906258  1
  C  C199  1  0.82277622  0.50197459  0.92173441  1
  C  C200  1  0.42242609  0.37632968  0.92800649  1
  C  C201  1  0.92279188  0.37352616  0.92874467  1
  C  C202  1  0.25706264  0.15631653  0.92181484  1
  C  C203  1  0.76016087  0.15281679  0.92192170  1
  C  C204  1  0.32301634  0.14233046  0.41974224  1
  C  C205  1  0.82126942  0.13665445  0.41962834  1
  C  C206  1  0.25983747  0.36700464  0.42198033  1
  C  C207  1  0.75960552  0.36688614  0.42033351  1
  C  C208  1  0.42179385  0.47170602  0.42702536  1
  C  C209  1  0.92296727  0.47005750  0.42459662  1
  C  C210  1  0.17365024  0.48948736  0.07986463  1
  C  C211  1  0.67300318  0.49015967  0.08084875  1
  C  C212  1  0.06663832  0.65644906  0.08025724  1
  C  C213  1  0.56713981  0.65962873  0.08113399  1
  C  C214  1  0.26016949  0.87325032  0.07904032  1
  C  C215  1  0.76103913  0.87222108  0.07965043  1
  C  C216  1  0.16931737  0.85324138  0.57945352  1
  C  C217  1  0.67553227  0.86199595  0.57756231  1
  C  C218  1  0.26120597  0.65128467  0.57877521  1
  C  C219  1  0.75103931  0.65658399  0.57959914  1
  C  C220  1  0.06724224  0.48340179  0.57859340  1
  C  C221  1  0.56497023  0.47667954  0.58038323  1
  C  C222  1  0.15007951  0.83253381  0.25356282  1
  C  C223  1  0.65033286  0.83210600  0.25382628  1
  C  C224  1  0.25523702  0.70585665  0.25789233  1
  C  C225  1  0.75522365  0.70486700  0.25831616  1
  C  C226  1  0.09074202  0.48773148  0.25475167  1
  C  C227  1  0.59111339  0.48755774  0.25467467  1
  C  C228  1  0.15210605  0.47127225  0.75284636  1
  C  C229  1  0.64932552  0.46359384  0.75201867  1
  C  C230  1  0.09330734  0.69945684  0.75340792  1
  C  C231  1  0.59104172  0.69370630  0.75480655  1
  C  C232  1  0.25648881  0.80521108  0.75802440  1
  C  C233  1  0.75449176  0.80253715  0.75830908  1
