# generated using pymatgen
data_Cu12NiC24
_symmetry_space_group_name_H-M   'P 1'
_cell_length_a   9.71712857
_cell_length_b   14.52792766
_cell_length_c   3.10961500
_cell_angle_alpha   90.00000000
_cell_angle_beta   90.00000000
_cell_angle_gamma   86.72920160
_symmetry_Int_Tables_number   1
_chemical_formula_structural   Cu12NiC24
_chemical_formula_sum   'Cu12 Ni1 C24'
_cell_volume   438.26845065
_cell_formula_units_Z   1
loop_
 _symmetry_equiv_pos_site_id
 _symmetry_equiv_pos_as_xyz
  1  'x, y, z'
loop_
 _atom_site_type_symbol
 _atom_site_label
 _atom_site_symmetry_multiplicity
 _atom_site_fract_x
 _atom_site_fract_y
 _atom_site_fract_z
 _atom_site_occupancy
  Ni  Ni0  1  0.28212900  0.31476800  0.50000000  1
  Cu  Cu1  1  0.97811900  0.99012600  0.00000000  1
  Cu  Cu2  1  0.00554600  0.32283100  0.00000000  1
  Cu  Cu3  1  0.01440400  0.67754800  0.00000000  1
  Cu  Cu4  1  0.19332600  0.13128300  0.50000000  1
  Cu  Cu5  1  0.26381200  0.49340700  0.50000000  1
  Cu  Cu6  1  0.24963000  0.85864200  0.50000000  1
  Cu  Cu7  1  0.55076500  0.35953300  0.00000000  1
  Cu  Cu8  1  0.50067100  0.99250500  0.00000000  1
  Cu  Cu9  1  0.51970000  0.67133300  0.00000000  1
  Cu  Cu10  1  0.72446200  0.13895000  0.50000000  1
  Cu  Cu11  1  0.74935100  0.51316500  0.50000000  1
  Cu  Cu12  1  0.71953600  0.83037700  0.50000000  1
  C  C13  1  0.10099400  0.25809000  0.50000000  1
  C  C14  1  0.07477900  0.92548500  0.50000000  1
  C  C15  1  0.12658400  0.08350200  0.00000000  1
  C  C16  1  0.18424500  0.41273100  0.00000000  1
  C  C17  1  0.34284400  0.90865600  0.00000000  1
  C  C18  1  0.42213300  0.40598800  0.50000000  1
  C  C19  1  0.59090600  0.93705200  0.50000000  1
  C  C20  1  0.59411300  0.60467400  0.50000000  1
  C  C21  1  0.62414800  0.10227000  0.00000000  1
  C  C22  1  0.70213600  0.44548200  0.00000000  1
  C  C23  1  0.64847200  0.76766600  0.00000000  1
  C  C24  1  0.88199600  0.05722200  0.50000000  1
  C  C25  1  0.11195800  0.59633000  0.50000000  1
  C  C26  1  0.17178400  0.77016900  0.00000000  1
  C  C27  1  0.33110000  0.23245500  0.00000000  1
  C  C28  1  0.33945200  0.56911900  0.00000000  1
  C  C29  1  0.38230300  0.07185000  0.50000000  1
  C  C30  1  0.40072600  0.73279000  0.50000000  1
  C  C31  1  0.62386600  0.26818100  0.50000000  1
  C  C32  1  0.85517400  0.24027700  0.00000000  1
  C  C33  1  0.82989900  0.89007700  0.00000000  1
  C  C34  1  0.86367300  0.57694400  0.00000000  1
  C  C35  1  0.93383900  0.40286300  0.50000000  1
  C  C36  1  0.90428500  0.74195100  0.50000000  1
