# generated using pymatgen
data_Cu5(NiC)7
_symmetry_space_group_name_H-M   'P 1'
_cell_length_a   5.12435959
_cell_length_b   7.91551550
_cell_length_c   5.72773686
_cell_angle_alpha   96.16956027
_cell_angle_beta   95.97513427
_cell_angle_gamma   85.79054041
_symmetry_Int_Tables_number   1
_chemical_formula_structural   Cu5(NiC)7
_chemical_formula_sum   'Cu5 Ni7 C7'
_cell_volume   229.27249113
_cell_formula_units_Z   1
loop_
 _symmetry_equiv_pos_site_id
 _symmetry_equiv_pos_as_xyz
  1  'x, y, z'
loop_
 _atom_site_type_symbol
 _atom_site_label
 _atom_site_symmetry_multiplicity
 _atom_site_fract_x
 _atom_site_fract_y
 _atom_site_fract_z
 _atom_site_occupancy
  C  C0  1  0.97522100  0.84676300  0.32949900  1
  C  C1  1  0.50643000  0.62237600  0.20837500  1
  C  C2  1  0.46330900  0.99121500  0.53782000  1
  C  C3  1  0.49922100  0.33544600  0.82248700  1
  C  C4  1  0.01593400  0.65570400  0.70334600  1
  C  C5  1  0.97309500  0.29625500  0.33106900  1
  C  C6  1  0.00401100  0.02921600  0.93233100  1
  Ni  Ni7  1  0.86098600  0.07435400  0.24000500  1
  Ni  Ni8  1  0.70044600  0.11270200  0.76018500  1
  Ni  Ni9  1  0.68846400  0.77107500  0.48665400  1
  Ni  Ni10  1  0.71798100  0.40589400  0.11620200  1
  Ni  Ni11  1  0.30633800  0.55567900  0.87411400  1
  Ni  Ni12  1  0.29104900  0.22958400  0.52892200  1
  Ni  Ni13  1  0.16995700  0.89121500  0.67288200  1
  Cu  Cu14  1  0.81156000  0.43740800  0.61900800  1
  Cu  Cu15  1  0.85796900  0.77620900  0.98348800  1
  Cu  Cu16  1  0.30973100  0.89371100  0.19751700  1
  Cu  Cu17  1  0.21706800  0.22787200  0.02145100  1
  Cu  Cu18  1  0.14512000  0.59732000  0.37274100  1
