# generated using pymatgen
data_Cu(NiC8)2
_symmetry_space_group_name_H-M   'P 1'
_cell_length_a   9.21692535
_cell_length_b   9.20320147
_cell_length_c   22.61824473
_cell_angle_alpha   92.40474527
_cell_angle_beta   90.00000000
_cell_angle_gamma   120.04934104
_symmetry_Int_Tables_number   1
_chemical_formula_structural   Cu(NiC8)2
_chemical_formula_sum   'Cu6 Ni12 C96'
_cell_volume   1658.77529990
_cell_formula_units_Z   6
loop_
 _symmetry_equiv_pos_site_id
 _symmetry_equiv_pos_as_xyz
  1  'x, y, z'
loop_
 _atom_site_type_symbol
 _atom_site_label
 _atom_site_symmetry_multiplicity
 _atom_site_fract_x
 _atom_site_fract_y
 _atom_site_fract_z
 _atom_site_occupancy
  Ni  Ni0  1  0.00726873  0.63349934  0.24325475  1
  Ni  Ni1  1  0.62623060  0.63349934  0.74325475  1
  Ni  Ni2  1  0.65261982  0.96295254  0.57786384  1
  Ni  Ni3  1  0.31033372  0.96295254  0.07786384  1
  Ni  Ni4  1  0.69060578  0.02075024  0.90995424  1
  Ni  Ni5  1  0.33014346  0.02075024  0.40995424  1
  Ni  Ni6  1  0.98950108  0.00112968  0.50194116  1
  Ni  Ni7  1  0.01162861  0.00112968  0.00194116  1
  Ni  Ni8  1  0.66161118  0.30779993  0.83311766  1
  Ni  Ni9  1  0.64618975  0.30779993  0.33311766  1
  Ni  Ni10  1  0.32322647  0.63805975  0.16474971  1
  Ni  Ni11  1  0.31483228  0.63805975  0.66474971  1
  Cu  Cu12  1  0.99926493  0.01561752  0.35699399  1
  Cu  Cu13  1  0.01635259  0.01561752  0.85699399  1
  Cu  Cu14  1  0.66153590  0.32244739  0.68686915  1
  Cu  Cu15  1  0.66091249  0.32244739  0.18686915  1
  Cu  Cu16  1  0.32967274  0.66017390  0.01931673  1
  Cu  Cu17  1  0.33050017  0.66017390  0.51931673  1
  C  C18  1  0.29146506  0.99427145  0.25645869  1
  C  C19  1  0.70280639  0.99427145  0.75645869  1
  C  C20  1  0.68110392  0.63086641  0.58882065  1
  C  C21  1  0.94976350  0.63086641  0.08882065  1
  C  C22  1  0.35157309  0.98919591  0.92834219  1
  C  C23  1  0.63762182  0.98919591  0.42834219  1
  C  C24  1  0.97361184  0.96171481  0.65660563  1
  C  C25  1  0.98810297  0.96171481  0.15660563  1
  C  C26  1  0.67356541  0.35642499  0.97961708  1
  C  C27  1  0.68286058  0.35642499  0.47961708  1
  C  C28  1  0.37074289  0.73099281  0.31345175  1
  C  C29  1  0.36024892  0.73099281  0.81345175  1
  C  C30  1  0.69533371  0.71597770  0.24968106  1
  C  C31  1  0.02034446  0.29766983  0.24618774  1
  C  C32  1  0.27732537  0.29766983  0.74618774  1
  C  C33  1  0.02064399  0.71597770  0.74968106  1
  C  C34  1  0.94732069  0.31797090  0.57984613  1
  C  C35  1  0.35138635  0.04401236  0.57818714  1
  C  C36  1  0.69262701  0.04401236  0.07818714  1
  C  C37  1  0.37065121  0.31797090  0.07984613  1
  C  C38  1  0.63064918  0.65005046  0.91486098  1
  C  C39  1  0.01383089  0.37704777  0.91808738  1
  C  C40  1  0.36321588  0.37704777  0.41808738  1
  C  C41  1  0.01940028  0.65005046  0.41486098  1
  C  C42  1  0.20341506  0.98758850  0.31724540  1
  C  C43  1  0.79372303  0.80670687  0.30232624  1
  C  C44  1  0.01044160  0.21091575  0.29938680  1
  C  C45  1  0.20047415  0.21091575  0.79938680  1
  C  C46  1  0.01298384  0.80670687  0.80232624  1
  C  C47  1  0.78417345  0.98758850  0.81724540  1
  C  C48  1  0.79693767  0.95083103  0.69628105  1
  C  C49  1  0.17060888  0.19558899  0.68985086  1
  C  C50  1  0.04088369  0.81484035  0.69361194  1
  C  C51  1  0.77395666  0.81484035  0.19361194  1
  C  C52  1  0.02498012  0.19558899  0.18985086  1
  C  C53  1  0.15389336  0.95083103  0.19628105  1
  C  C54  1  0.87111622  0.33702692  0.63394215  1
  C  C55  1  0.46303120  0.12924668  0.62971349  1
  C  C56  1  0.66482447  0.54794408  0.65083511  1
  C  C57  1  0.88312061  0.54794408  0.15083511  1
  C  C58  1  0.66621647  0.12924668  0.12971349  1
  C  C59  1  0.46591170  0.33702692  0.13394215  1
  C  C60  1  0.46065671  0.29950547  0.02500248  1
  C  C61  1  0.81691470  0.52096294  0.03020747  1
  C  C62  1  0.70373451  0.13392900  0.02281056  1
  C  C63  1  0.43019549  0.13392900  0.52281056  1
  C  C64  1  0.70404923  0.52096294  0.53020747  1
  C  C65  1  0.83884976  0.29950547  0.52500248  1
  C  C66  1  0.53640452  0.66413291  0.96422764  1
  C  C67  1  0.10769736  0.46196808  0.97226079  1
  C  C68  1  0.34153365  0.88501293  0.98407509  1
  C  C69  1  0.54347828  0.88501293  0.48407509  1
  C  C70  1  0.35426971  0.46196808  0.47226079  1
  C  C71  1  0.12772739  0.66413291  0.46422764  1
  C  C72  1  0.08477503  0.62728438  0.35645607  1
  C  C73  1  0.50133774  0.90039759  0.36532345  1
  C  C74  1  0.37348764  0.46177717  0.36337874  1
  C  C75  1  0.08828853  0.46177717  0.86337874  1
  C  C76  1  0.39905885  0.90039759  0.86532345  1
  C  C77  1  0.54250834  0.62728438  0.85645607  1
  C  C78  1  0.99765378  0.79893055  0.41653806  1
  C  C79  1  0.81985977  0.01351770  0.42151632  1
  C  C80  1  0.22152956  0.20059443  0.41712923  1
  C  C81  1  0.97906487  0.20059443  0.91712923  1
  C  C82  1  0.19365793  0.01351770  0.92151632  1
  C  C83  1  0.80127677  0.79893055  0.91653806  1
  C  C84  1  0.94660052  0.15458021  0.57933455  1
  C  C85  1  0.18624194  0.04016031  0.58433211  1
  C  C86  1  0.86400242  0.82743628  0.59170423  1
  C  C87  1  0.96343386  0.82743628  0.09170423  1
  C  C88  1  0.85391837  0.04016031  0.08433211  1
  C  C89  1  0.20797968  0.15458021  0.07933455  1
  C  C90  1  0.67256459  0.14911411  0.75018079  1
  C  C91  1  0.45048688  0.32503976  0.74348901  1
  C  C92  1  0.87149574  0.54941545  0.74442968  1
  C  C93  1  0.67792071  0.54941545  0.24442968  1
  C  C94  1  0.87455388  0.32503976  0.24348901  1
  C  C95  1  0.47655052  0.14911411  0.25018079  1
  C  C96  1  0.64244254  0.48987541  0.91935826  1
  C  C97  1  0.84042168  0.36560639  0.92117038  1
  C  C98  1  0.53787524  0.17390394  0.92931932  1
  C  C99  1  0.63602969  0.17390394  0.42931932  1
  C  C100  1  0.52518572  0.36560639  0.42117038  1
  C  C101  1  0.84743387  0.48987541  0.41935826  1
  C  C102  1  0.34264896  0.46110122  0.07604414  1
  C  C103  1  0.14159695  0.67201679  0.08167963  1
  C  C104  1  0.54736560  0.86985421  0.07504586  1
  C  C105  1  0.32248761  0.86985421  0.57504586  1
  C  C106  1  0.53041884  0.67201679  0.58167963  1
  C  C107  1  0.11845127  0.46110122  0.57604414  1
  C  C108  1  0.30483892  0.81051678  0.25252282  1
  C  C109  1  0.52413878  0.70287535  0.25055447  1
  C  C110  1  0.17587693  0.46587578  0.24450816  1
  C  C111  1  0.28999786  0.46587578  0.74450816  1
  C  C112  1  0.17873557  0.70287535  0.75055447  1
  C  C113  1  0.50567685  0.81051678  0.75252282  1
