# generated using pymatgen
data_Cu5(Ni6C23)2
_symmetry_space_group_name_H-M   'P 1'
_cell_length_a   9.41975083
_cell_length_b   9.41975048
_cell_length_c   23.00261599
_cell_angle_alpha   90.00000000
_cell_angle_beta   90.00000000
_cell_angle_gamma   120.00000121
_symmetry_Int_Tables_number   1
_chemical_formula_structural   Cu5(Ni6C23)2
_chemical_formula_sum   'Cu10 Ni24 C92'
_cell_volume   1767.61089381
_cell_formula_units_Z   2
loop_
 _symmetry_equiv_pos_site_id
 _symmetry_equiv_pos_as_xyz
  1  'x, y, z'
loop_
 _atom_site_type_symbol
 _atom_site_label
 _atom_site_symmetry_multiplicity
 _atom_site_fract_x
 _atom_site_fract_y
 _atom_site_fract_z
 _atom_site_occupancy
  Ni  Ni0  1  0.63501160  0.00022901  0.25035141  1
  Ni  Ni1  1  0.36521741  0.36498840  0.25035141  1
  Ni  Ni2  1  0.99977099  0.63478259  0.25035141  1
  Ni  Ni3  1  0.63501160  0.63478259  0.75035141  1
  Ni  Ni4  1  0.99977099  0.36498840  0.75035141  1
  Ni  Ni5  1  0.36521741  0.00022901  0.75035141  1
  Ni  Ni6  1  0.29497780  0.33642859  0.58697415  1
  Ni  Ni7  1  0.04145179  0.70502220  0.58697415  1
  Ni  Ni8  1  0.66357141  0.95854821  0.58697415  1
  Ni  Ni9  1  0.29497780  0.95854821  0.08697415  1
  Ni  Ni10  1  0.66357141  0.70502220  0.08697415  1
  Ni  Ni11  1  0.04145179  0.33642859  0.08697415  1
  Ni  Ni12  1  0.98424689  0.68063249  0.90669476  1
  Ni  Ni13  1  0.69638460  0.01575311  0.90669476  1
  Ni  Ni14  1  0.31936751  0.30361540  0.90669476  1
  Ni  Ni15  1  0.98424689  0.30361540  0.40669476  1
  Ni  Ni16  1  0.31936751  0.01575311  0.40669476  1
  Ni  Ni17  1  0.69638460  0.68063249  0.40669476  1
  Ni  Ni18  1  0.00000000  -0.00000000  0.49940897  1
  Ni  Ni19  1  0.00000000  -0.00000000  0.99940897  1
  Ni  Ni20  1  0.66666700  0.33333300  0.82039595  1
  Ni  Ni21  1  0.66666700  0.33333300  0.32039595  1
  Ni  Ni22  1  0.33333300  0.66666700  0.17602957  1
  Ni  Ni23  1  0.33333300  0.66666700  0.67602957  1
  Cu  Cu24  1  0.00000000  -0.00000000  0.34601212  1
  Cu  Cu25  1  0.00000000  -0.00000000  0.84601212  1
  Cu  Cu26  1  0.00000000  -0.00000000  0.65035613  1
  Cu  Cu27  1  0.00000000  -0.00000000  0.15035613  1
  Cu  Cu28  1  0.66666700  0.33333300  0.68233004  1
  Cu  Cu29  1  0.66666700  0.33333300  0.18233004  1
  Cu  Cu30  1  0.33333300  0.66666700  0.01336297  1
  Cu  Cu31  1  0.33333300  0.66666700  0.51336297  1
  Cu  Cu32  1  0.33333300  0.66666700  0.32285960  1
  Cu  Cu33  1  0.33333300  0.66666700  0.82285960  1
  C  C34  1  0.66666700  0.33333300  0.98451817  1
  C  C35  1  0.66666700  0.33333300  0.48451817  1
  C  C36  1  0.30584341  0.99677939  0.25000237  1
  C  C37  1  0.69093598  0.69415659  0.25000237  1
  C  C38  1  0.00322061  0.30906402  0.25000237  1
  C  C39  1  0.30584341  0.30906402  0.75000237  1
  C  C40  1  0.00322061  0.69415659  0.75000237  1
  C  C41  1  0.69093598  0.99677939  0.75000237  1
  C  C42  1  0.95943344  0.33296943  0.58154204  1
  C  C43  1  0.37353699  0.04056656  0.58154204  1
  C  C44  1  0.66703057  0.62646301  0.58154204  1
  C  C45  1  0.95943344  0.62646301  0.08154204  1
  C  C46  1  0.66703057  0.04056656  0.08154204  1
  C  C47  1  0.37353699  0.33296943  0.08154204  1
  C  C48  1  0.64095500  0.65699317  0.92106469  1
  C  C49  1  0.01603717  0.35904500  0.92106469  1
  C  C50  1  0.34300683  0.98396283  0.92106469  1
  C  C51  1  0.64095500  0.98396283  0.42106469  1
  C  C52  1  0.34300683  0.35904500  0.42106469  1
  C  C53  1  0.01603717  0.65699317  0.42106469  1
  C  C54  1  0.22059486  0.01117857  0.30554362  1
  C  C55  1  0.79058371  0.77940514  0.30554362  1
  C  C56  1  0.98882143  0.20941629  0.30554362  1
  C  C57  1  0.22059486  0.20941629  0.80554362  1
  C  C58  1  0.98882143  0.77940514  0.80554362  1
  C  C59  1  0.79058371  0.01117857  0.80554362  1
  C  C60  1  0.77660966  0.98170530  0.69469187  1
  C  C61  1  0.20509564  0.22339034  0.69469187  1
  C  C62  1  0.01829470  0.79490436  0.69469187  1
  C  C63  1  0.77660966  0.79490436  0.19469187  1
  C  C64  1  0.01829470  0.22339034  0.19469187  1
  C  C65  1  0.20509564  0.98170530  0.19469187  1
  C  C66  1  0.88486155  0.35054526  0.63751228  1
  C  C67  1  0.46568471  0.11513845  0.63751228  1
  C  C68  1  0.64945474  0.53431529  0.63751228  1
  C  C69  1  0.88486155  0.53431529  0.13751228  1
  C  C70  1  0.64945474  0.11513845  0.13751228  1
  C  C71  1  0.46568471  0.35054526  0.13751228  1
  C  C72  1  0.48773724  0.33045689  0.02914212  1
  C  C73  1  0.84272065  0.51226276  0.02914212  1
  C  C74  1  0.66954311  0.15727935  0.02914212  1
  C  C75  1  0.48773724  0.15727935  0.52914212  1
  C  C76  1  0.66954311  0.51226276  0.52914212  1
  C  C77  1  0.84272065  0.33045689  0.52914212  1
  C  C78  1  0.56128478  0.68412119  0.97410175  1
  C  C79  1  0.12283541  0.43871522  0.97410175  1
  C  C80  1  0.31587881  0.87716459  0.97410175  1
  C  C81  1  0.56128478  0.87716459  0.47410175  1
  C  C82  1  0.31587881  0.43871522  0.47410175  1
  C  C83  1  0.12283541  0.68412119  0.47410175  1
  C  C84  1  0.08307548  0.61542724  0.36659682  1
  C  C85  1  0.53235076  0.91692452  0.36659682  1
  C  C86  1  0.38457276  0.46764924  0.36659682  1
  C  C87  1  0.08307548  0.46764924  0.86659682  1
  C  C88  1  0.38457276  0.91692452  0.86659682  1
  C  C89  1  0.53235076  0.61542724  0.86659682  1
  C  C90  1  0.98609803  0.80334886  0.41475293  1
  C  C91  1  0.81725083  0.01390197  0.41475293  1
  C  C92  1  0.19665114  0.18274917  0.41475293  1
  C  C93  1  0.98609803  0.18274917  0.91475293  1
  C  C94  1  0.19665114  0.01390197  0.91475293  1
  C  C95  1  0.81725083  0.80334886  0.91475293  1
  C  C96  1  0.96024071  0.16970754  0.57594943  1
  C  C97  1  0.20946683  0.03975929  0.57594943  1
  C  C98  1  0.83029246  0.79053317  0.57594943  1
  C  C99  1  0.96024071  0.79053317  0.07594943  1
  C  C100  1  0.83029246  0.03975929  0.07594943  1
  C  C101  1  0.20946683  0.16970754  0.07594943  1
  C  C102  1  0.67300899  0.15246826  0.74890168  1
  C  C103  1  0.47946027  0.32699101  0.74890168  1
  C  C104  1  0.84753174  0.52053973  0.74890168  1
  C  C105  1  0.67300899  0.52053973  0.24890168  1
  C  C106  1  0.84753174  0.32699101  0.24890168  1
  C  C107  1  0.47946027  0.15246826  0.24890168  1
  C  C108  1  0.66027738  0.49753981  0.93031888  1
  C  C109  1  0.83726343  0.33972262  0.93031888  1
  C  C110  1  0.50246019  0.16273657  0.93031888  1
  C  C111  1  0.66027738  0.16273657  0.43031888  1
  C  C112  1  0.50246019  0.33972262  0.43031888  1
  C  C113  1  0.83726343  0.49753981  0.43031888  1
  C  C114  1  0.35245805  0.48361076  0.07470709  1
  C  C115  1  0.13115172  0.64754195  0.07470709  1
  C  C116  1  0.51638924  0.86884828  0.07470709  1
  C  C117  1  0.35245805  0.86884828  0.57470709  1
  C  C118  1  0.51638924  0.64754195  0.57470709  1
  C  C119  1  0.13115172  0.48361076  0.57470709  1
  C  C120  1  0.32320826  0.84078720  0.25272759  1
  C  C121  1  0.51757794  0.67679174  0.25272759  1
  C  C122  1  0.15921280  0.48242206  0.25272759  1
  C  C123  1  0.32320826  0.48242206  0.75272759  1
  C  C124  1  0.15921280  0.67679174  0.75272759  1
  C  C125  1  0.51757794  0.84078720  0.75272759  1
