# generated using pymatgen
data_CuNi8C5
_symmetry_space_group_name_H-M   'P 1'
_cell_length_a   9.03719443
_cell_length_b   9.03719443
_cell_length_c   10.98758547
_cell_angle_alpha   82.89020849
_cell_angle_beta   82.89020849
_cell_angle_gamma   52.41993773
_symmetry_Int_Tables_number   1
_chemical_formula_structural   CuNi8C5
_chemical_formula_sum   'Cu2 Ni16 C10'
_cell_volume   704.36428066
_cell_formula_units_Z   2
loop_
 _symmetry_equiv_pos_site_id
 _symmetry_equiv_pos_as_xyz
  1  'x, y, z'
loop_
 _atom_site_type_symbol
 _atom_site_label
 _atom_site_symmetry_multiplicity
 _atom_site_fract_x
 _atom_site_fract_y
 _atom_site_fract_z
 _atom_site_occupancy
  C  C0  1  0.59411900  0.40588100  0.25000000  1
  C  C1  1  0.40588100  0.59411900  0.75000000  1
  C  C2  1  0.92316400  0.68095700  0.18038900  1
  C  C3  1  0.31904300  0.07683600  0.31961100  1
  C  C4  1  0.07683600  0.31904300  0.81961100  1
  C  C5  1  0.68095700  0.92316400  0.68038900  1
  C  C6  1  0.69668200  0.62294000  0.46984900  1
  C  C7  1  0.30331800  0.37706000  0.53015100  1
  C  C8  1  0.62294000  0.69668200  0.96984900  1
  C  C9  1  0.37706000  0.30331800  0.03015100  1
  Ni  Ni10  1  0.58255300  0.27917400  0.54354800  1
  Ni  Ni11  1  0.72082600  0.41744700  0.95645200  1
  Ni  Ni12  1  0.41744700  0.72082600  0.45645200  1
  Ni  Ni13  1  0.27917400  0.58255300  0.04354800  1
  Ni  Ni14  1  0.44983500  0.24971200  0.84063200  1
  Ni  Ni15  1  0.24971200  0.44983500  0.34063200  1
  Ni  Ni16  1  0.75028800  0.55016500  0.65936800  1
  Ni  Ni17  1  0.55016500  0.75028800  0.15936800  1
  Ni  Ni18  1  0.59721700  0.11278100  0.14788400  1
  Ni  Ni19  1  0.88721900  0.40278300  0.35211600  1
  Ni  Ni20  1  0.40278300  0.88721900  0.85211600  1
  Ni  Ni21  1  0.11278100  0.59721700  0.64788400  1
  Ni  Ni22  1  0.15060700  0.28839200  0.08590900  1
  Ni  Ni23  1  0.71160800  0.84939300  0.41409100  1
  Ni  Ni24  1  0.84939300  0.71160800  0.91409100  1
  Ni  Ni25  1  0.28839200  0.15060700  0.58590900  1
  Cu  Cu26  1  0.98680800  0.01319200  0.75000000  1
  Cu  Cu27  1  0.01319200  0.98680800  0.25000000  1
