# generated using pymatgen
data_CuNi2C37
_symmetry_space_group_name_H-M   'P 1'
_cell_length_a   9.05440146
_cell_length_b   9.03301178
_cell_length_c   22.39715303
_cell_angle_alpha   89.43324824
_cell_angle_beta   89.99908409
_cell_angle_gamma   119.78106946
_symmetry_Int_Tables_number   1
_chemical_formula_structural   CuNi2C37
_chemical_formula_sum   'Cu3 Ni6 C111'
_cell_volume   1589.79597362
_cell_formula_units_Z   3
loop_
 _symmetry_equiv_pos_site_id
 _symmetry_equiv_pos_as_xyz
  1  'x, y, z'
loop_
 _atom_site_type_symbol
 _atom_site_label
 _atom_site_symmetry_multiplicity
 _atom_site_fract_x
 _atom_site_fract_y
 _atom_site_fract_z
 _atom_site_occupancy
  C  C0  1  0.63147272  0.99669651  0.25734059  1
  C  C1  1  0.36970327  0.36821445  0.24392172  1
  C  C2  1  0.64242739  0.64390318  0.73862646  1
  C  C3  1  0.30647475  0.33894325  0.59057490  1
  C  C4  1  0.02768837  0.70233470  0.58364936  1
  C  C5  1  0.66715457  0.94765023  0.58538702  1
  C  C6  1  0.29594106  0.97095880  0.07609207  1
  C  C7  1  0.04911538  0.33604861  0.07724807  1
  C  C8  1  0.98490542  0.67819935  0.91286595  1
  C  C9  1  0.70245595  0.03352841  0.90336147  1
  C  C10  1  0.31025381  0.28208127  0.91833064  1
  C  C11  1  0.69979181  0.68418960  0.41913189  1
  C  C12  1  0.98763852  0.99928133  0.49586652  1
  C  C13  1  0.01120297  0.01047917  0.99731490  1
  C  C14  1  0.66738827  0.30476453  0.82542574  1
  C  C15  1  0.67888939  0.32522990  0.33205148  1
  C  C16  1  0.33861919  0.65689153  0.16296175  1
  C  C17  1  0.34610380  0.67576720  0.66724552  1
  C  C18  1  0.99116919  0.00502074  0.35053883  1
  C  C19  1  0.00090087  0.02205178  0.84812829  1
  C  C20  1  0.96554952  0.97414427  0.65531896  1
  C  C21  1  0.01364335  0.00987360  0.15035937  1
  C  C22  1  0.66251081  0.32106966  0.68596818  1
  C  C23  1  0.66017282  0.34580614  0.17914194  1
  C  C24  1  0.32482632  0.65413478  0.01433469  1
  C  C25  1  0.36165002  0.67066777  0.51223255  1
  C  C26  1  0.33866426  0.69264307  0.32738773  1
  Ni  Ni27  1  0.69621667  0.00058119  0.75040934  1
  Ni  Ni28  1  0.66624465  0.62108069  0.58527882  1
  Ni  Ni29  1  0.36776440  0.33936779  0.08683944  1
  Ni  Ni30  1  0.03645564  0.37199876  0.92032253  1
  Ni  Ni31  1  0.33095724  0.96029489  0.92149945  1
  Ni  Ni32  1  0.63961071  0.97238490  0.41628610  1
  Cu  Cu33  1  0.65952861  0.32617119  0.98314499  1
  Cu  Cu34  1  0.66855073  0.32913779  0.48132906  1
  Cu  Cu35  1  0.32805033  0.67730416  0.81652529  1
  C  C36  1  0.29068749  0.99447911  0.25071283  1
  C  C37  1  0.71005027  0.70556094  0.25024547  1
  C  C38  1  0.00016310  0.30056342  0.24853380  1
  C  C39  1  0.29654334  0.29989384  0.75055547  1
  C  C40  1  0.00356681  0.70610311  0.75043576  1
  C  C41  1  0.96610089  0.33647451  0.58310902  1
  C  C42  1  0.36817450  0.03739612  0.58393816  1
  C  C43  1  0.95665719  0.62817050  0.08479869  1
  C  C44  1  0.67018265  0.03812474  0.08746145  1
  C  C45  1  0.62598907  0.66344316  0.91749720  1
  C  C46  1  0.33194934  0.36780954  0.41565367  1
  C  C47  1  0.03806111  0.66492620  0.41822941  1
  C  C48  1  0.20016668  0.01621248  0.30171887  1
  C  C49  1  0.80066737  0.78147588  0.30673925  1
  C  C50  1  0.97150056  0.18670239  0.30073783  1
  C  C51  1  0.21777029  0.20191817  0.80568914  1
  C  C52  1  0.99394929  0.79336921  0.80422791  1
  C  C53  1  0.80068949  0.01026733  0.81033123  1
  C  C54  1  0.76516604  0.95467855  0.68923992  1
  C  C55  1  0.20005632  0.21832775  0.69575577  1
  C  C56  1  0.02940519  0.80664088  0.69425643  1
  C  C57  1  0.79889801  0.81634863  0.19799886  1
  C  C58  1  0.02686876  0.22482343  0.19307997  1
  C  C59  1  0.20251669  0.98105610  0.19328729  1
  C  C60  1  0.88452710  0.36174043  0.63507787  1
  C  C61  1  0.48092561  0.11295477  0.63471768  1
  C  C62  1  0.63973810  0.49966407  0.64254090  1
  C  C63  1  0.87191887  0.51241719  0.13568837  1
  C  C64  1  0.65024363  0.12505992  0.14005660  1
  C  C65  1  0.46875816  0.35323308  0.14809733  1
  C  C66  1  0.45952335  0.30217404  0.02736390  1
  C  C67  1  0.86123448  0.55033466  0.02708243  1
  C  C68  1  0.70541943  0.15018979  0.03118464  1
  C  C69  1  0.44652399  0.14436021  0.52771691  1
  C  C70  1  0.69762273  0.53560068  0.52247647  1
  C  C71  1  0.85307569  0.29604316  0.52839144  1
  C  C72  1  0.54741896  0.69152787  0.96957353  1
  C  C73  1  0.14726667  0.44476150  0.97963494  1
  C  C74  1  0.30669800  0.85173822  0.98217422  1
  C  C75  1  0.55521576  0.85924957  0.47662401  1
  C  C76  1  0.30742232  0.44121553  0.47116586  1
  C  C77  1  0.12795635  0.67262170  0.47400204  1
  C  C78  1  0.11563367  0.63692993  0.36496822  1
  C  C79  1  0.53232954  0.89579708  0.35486277  1
  C  C80  1  0.35560539  0.47629605  0.36205153  1
  C  C81  1  0.12477712  0.50224260  0.86186369  1
  C  C82  1  0.38469534  0.88094633  0.86469005  1
  C  C83  1  0.52028840  0.62859241  0.86210180  1
  C  C84  1  0.01866485  0.81801639  0.41320680  1
  C  C85  1  0.82689754  0.98474766  0.41213192  1
  C  C86  1  0.19120919  0.19280272  0.41048772  1
  C  C87  1  0.00407774  0.17959649  0.91304761  1
  C  C88  1  0.16263493  0.97907956  0.91144043  1
  C  C89  1  0.79929830  0.80912716  0.91082668  1
  C  C90  1  0.99382875  0.18758026  0.58766852  1
  C  C91  1  0.20188228  0.03209960  0.58927870  1
  C  C92  1  0.83963703  0.81129314  0.58470109  1
  C  C93  1  0.96868086  0.79687766  0.08827489  1
  C  C94  1  0.82369456  0.02088343  0.09058343  1
  C  C95  1  0.17843757  0.15976721  0.08600302  1
  C  C96  1  0.67171309  0.16556031  0.74365896  1
  C  C97  1  0.47366820  0.33172102  0.74879519  1
  C  C98  1  0.84549215  0.53877125  0.74777423  1
  C  C99  1  0.68957186  0.53086251  0.24724525  1
  C  C100  1  0.84170549  0.31309432  0.24386912  1
  C  C101  1  0.46701771  0.15007195  0.24976143  1
  C  C102  1  0.64026338  0.50386638  0.92244355  1
  C  C103  1  0.84695758  0.36632592  0.92338869  1
  C  C104  1  0.50449847  0.15558990  0.92197770  1
  C  C105  1  0.65538710  0.16601131  0.42077709  1
  C  C106  1  0.50137516  0.36776868  0.41925575  1
  C  C107  1  0.85622929  0.51121856  0.41913852  1
  C  C108  1  0.34525454  0.50639095  0.08046032  1
  C  C109  1  0.12937553  0.64876299  0.08226041  1
  C  C110  1  0.51228861  0.87490311  0.08127708  1
  C  C111  1  0.33918426  0.86124058  0.57725583  1
  C  C112  1  0.49215698  0.63640619  0.58061907  1
  C  C113  1  0.13217422  0.49524522  0.57392874  1
  C  C114  1  0.31079941  0.84008155  0.25504192  1
  C  C115  1  0.53417553  0.68602413  0.25136047  1
  C  C116  1  0.15679965  0.46908177  0.25535819  1
  C  C117  1  0.30909765  0.47490249  0.75313119  1
  C  C118  1  0.15664557  0.68102264  0.75139900  1
  C  C119  1  0.50560008  0.81188601  0.75472224  1
