# generated using pymatgen
data_Cu(NiC3)3
_symmetry_space_group_name_H-M   'P 1'
_cell_length_a   3.33825700
_cell_length_b   3.33789237
_cell_length_c   38.03801900
_cell_angle_alpha   90.00003548
_cell_angle_beta   89.99997229
_cell_angle_gamma   120.00286941
_symmetry_Int_Tables_number   1
_chemical_formula_structural   Cu(NiC3)3
_chemical_formula_sum   'Cu1 Ni3 C9'
_cell_volume   367.05239451
_cell_formula_units_Z   1
loop_
 _symmetry_equiv_pos_site_id
 _symmetry_equiv_pos_as_xyz
  1  'x, y, z'
loop_
 _atom_site_type_symbol
 _atom_site_label
 _atom_site_symmetry_multiplicity
 _atom_site_fract_x
 _atom_site_fract_y
 _atom_site_fract_z
 _atom_site_occupancy
  C  C0  1  0.67741900  0.39940200  0.88083800  1
  C  C1  1  0.33335200  0.66670400  0.70739800  1
  C  C2  1  0.33335600  0.66671100  0.60766200  1
  Ni  Ni3  1  0.33331100  0.66662400  0.09386000  1
  Ni  Ni4  1  0.33331800  0.66663400  0.46965300  1
  Ni  Ni5  1  0.66669000  0.33338000  0.65759100  1
  Cu  Cu6  1  0.66668500  0.33337000  0.28181200  1
  C  C7  1  0.33335200  0.66670300  0.32586800  1
  C  C8  1  0.66664900  0.33330000  0.05007700  1
  C  C9  1  0.66665000  0.33329900  0.13773700  1
  C  C10  1  0.33334900  0.66669900  0.23777500  1
  C  C11  1  0.66664100  0.33328400  0.42980300  1
  C  C12  1  0.66664200  0.33328600  0.50951300  1
