# generated using pymatgen
data_Cu4NiC8
_symmetry_space_group_name_H-M   'P 1'
_cell_length_a   4.20005524
_cell_length_b   6.67388834
_cell_length_c   6.85600836
_cell_angle_alpha   72.92084208
_cell_angle_beta   89.98644606
_cell_angle_gamma   71.62150856
_symmetry_Int_Tables_number   1
_chemical_formula_structural   Cu4NiC8
_chemical_formula_sum   'Cu4 Ni1 C8'
_cell_volume   173.42772122
_cell_formula_units_Z   1
loop_
 _symmetry_equiv_pos_site_id
 _symmetry_equiv_pos_as_xyz
  1  'x, y, z'
loop_
 _atom_site_type_symbol
 _atom_site_label
 _atom_site_symmetry_multiplicity
 _atom_site_fract_x
 _atom_site_fract_y
 _atom_site_fract_z
 _atom_site_occupancy
  Ni  Ni0  1  0.44889500  0.10440700  0.63464700  1
  Cu  Cu1  1  0.12207400  0.75897900  0.72303200  1
  Cu  Cu2  1  0.19710100  0.60842800  0.31937700  1
  Cu  Cu3  1  0.78646600  0.42876800  0.65625600  1
  Cu  Cu4  1  0.88887900  0.22386900  0.26630900  1
  C  C5  1  0.05722900  0.88832300  0.35806700  1
  C  C6  1  0.28217900  0.43717000  0.65533200  1
  C  C7  1  0.73561800  0.53145100  0.33469900  1
  C  C8  1  0.94877300  0.10460400  0.65227400  1
  C  C9  1  0.61873200  0.76538500  0.70094200  1
  C  C10  1  0.16105500  0.68044000  0.00706000  1
  C  C11  1  0.84798200  0.30610600  0.98643500  1
  C  C12  1  0.38404700  0.23443800  0.31779300  1
