# generated using pymatgen
data_Cu3Ni2C
_symmetry_space_group_name_H-M   'P 1'
_cell_length_a   6.01548460
_cell_length_b   6.01548460
_cell_length_c   7.77996227
_cell_angle_alpha   95.13921809
_cell_angle_beta   95.13921809
_cell_angle_gamma   96.45650675
_symmetry_Int_Tables_number   1
_chemical_formula_structural   Cu3Ni2C
_chemical_formula_sum   'Cu6 Ni4 C2'
_cell_volume   277.20004391
_cell_formula_units_Z   2
loop_
 _symmetry_equiv_pos_site_id
 _symmetry_equiv_pos_as_xyz
  1  'x, y, z'
loop_
 _atom_site_type_symbol
 _atom_site_label
 _atom_site_symmetry_multiplicity
 _atom_site_fract_x
 _atom_site_fract_y
 _atom_site_fract_z
 _atom_site_occupancy
  Ni  Ni0  1  0.59029000  0.86246100  0.67090500  1
  Ni  Ni1  1  0.13753900  0.40971000  0.82909500  1
  Ni  Ni2  1  0.86246100  0.59029000  0.17090500  1
  Ni  Ni3  1  0.40971000  0.13753900  0.32909500  1
  Cu  Cu4  1  0.82719100  0.94152900  0.02686500  1
  Cu  Cu5  1  0.05847100  0.17280900  0.47313500  1
  Cu  Cu6  1  0.17280900  0.05847100  0.97313500  1
  Cu  Cu7  1  0.19252600  0.80747400  0.75000000  1
  Cu  Cu8  1  0.80747400  0.19252600  0.25000000  1
  Cu  Cu9  1  0.94152900  0.82719100  0.52686500  1
  C  C10  1  0.62737100  0.37262900  0.75000000  1
  C  C11  1  0.37262900  0.62737100  0.25000000  1
