# generated using pymatgen
data_Cu2NiC14
_symmetry_space_group_name_H-M   'P 1'
_cell_length_a   4.04798015
_cell_length_b   5.78208182
_cell_length_c   10.53632400
_cell_angle_alpha   89.99833584
_cell_angle_beta   89.99926751
_cell_angle_gamma   69.47836960
_symmetry_Int_Tables_number   1
_chemical_formula_structural   Cu2NiC14
_chemical_formula_sum   'Cu2 Ni1 C14'
_cell_volume   230.96066083
_cell_formula_units_Z   1
loop_
 _symmetry_equiv_pos_site_id
 _symmetry_equiv_pos_as_xyz
  1  'x, y, z'
loop_
 _atom_site_type_symbol
 _atom_site_label
 _atom_site_symmetry_multiplicity
 _atom_site_fract_x
 _atom_site_fract_y
 _atom_site_fract_z
 _atom_site_occupancy
  C  C0  1  0.13675400  0.72609300  0.92805300  1
  C  C1  1  0.13675300  0.72610000  0.57194400  1
  C  C2  1  0.85563000  0.28996100  0.05789300  1
  C  C3  1  0.85562400  0.28997700  0.44210100  1
  Ni  Ni4  1  0.53324100  0.94697500  0.25000600  1
  Cu  Cu5  1  0.21208800  0.57737800  0.24999900  1
  Cu  Cu6  1  0.81797700  0.36430500  0.74999600  1
  C  C7  1  0.04185100  0.90879300  0.37468900  1
  C  C8  1  0.04186700  0.90878200  0.12530400  1
  C  C9  1  0.69987300  0.60023700  0.91039400  1
  C  C10  1  0.69984900  0.60024700  0.58961600  1
  C  C11  1  0.26123400  0.47776600  0.75000500  1
  C  C12  1  0.71649000  0.56785600  0.24999800  1
  C  C13  1  0.29155800  0.41813400  0.07326800  1
  C  C14  1  0.29153800  0.41817100  0.42673600  1
  C  C15  1  0.94550900  0.11045100  0.62325100  1
  C  C16  1  0.94549500  0.11044100  0.87674300  1
