# generated using pymatgen
data_Cu2Ni7C32
_symmetry_space_group_name_H-M   'P 1'
_cell_length_a   18.51682798
_cell_length_b   9.25060900
_cell_length_c   22.57017831
_cell_angle_alpha   89.98569363
_cell_angle_beta   89.66250547
_cell_angle_gamma   119.94240681
_symmetry_Int_Tables_number   1
_chemical_formula_structural   Cu2Ni7C32
_chemical_formula_sum   'Cu12 Ni42 C192'
_cell_volume   3349.99231620
_cell_formula_units_Z   6
loop_
 _symmetry_equiv_pos_site_id
 _symmetry_equiv_pos_as_xyz
  1  'x, y, z'
loop_
 _atom_site_type_symbol
 _atom_site_label
 _atom_site_symmetry_multiplicity
 _atom_site_fract_x
 _atom_site_fract_y
 _atom_site_fract_z
 _atom_site_occupancy
  Ni  Ni0  1  0.80727286  0.98808087  0.25605419  1
  Ni  Ni1  1  0.18284271  0.35271986  0.25390791  1
  Ni  Ni2  1  0.69032958  0.36386529  0.25242589  1
  Ni  Ni3  1  0.99437431  0.63804622  0.24720084  1
  Ni  Ni4  1  0.49691568  0.63641560  0.24920077  1
  Ni  Ni5  1  0.31005463  0.62748490  0.74348967  1
  Ni  Ni6  1  0.99575056  0.35533079  0.74467396  1
  Ni  Ni7  1  0.49678874  0.35462022  0.74237058  1
  Ni  Ni8  1  0.18951765  0.01622166  0.74810012  1
  Ni  Ni9  1  0.68482684  0.01411335  0.75073471  1
  Ni  Ni10  1  0.14679130  0.32801493  0.58713564  1
  Ni  Ni11  1  0.65922822  0.33629086  0.57870169  1
  Ni  Ni12  1  0.33921207  0.98890609  0.58167760  1
  Ni  Ni13  1  0.83880035  0.98624151  0.57959313  1
  Ni  Ni14  1  0.15819714  0.98766708  0.08311972  1
  Ni  Ni15  1  0.64722625  0.96546930  0.08970758  1
  Ni  Ni16  1  0.33909212  0.69183427  0.08520122  1
  Ni  Ni17  1  0.83688353  0.69144223  0.08399426  1
  Ni  Ni18  1  0.48294518  0.67274036  0.92394153  1
  Ni  Ni19  1  0.97200732  0.66524674  0.92192197  1
  Ni  Ni20  1  0.35397009  0.04139537  0.91587927  1
  Ni  Ni21  1  0.85047766  0.03446575  0.90980426  1
  Ni  Ni22  1  0.16622688  0.29049386  0.91509052  1
  Ni  Ni23  1  0.67092014  0.28518711  0.90917170  1
  Ni  Ni24  1  0.47573753  0.28512199  0.42359128  1
  Ni  Ni25  1  0.97277162  0.27279480  0.42506342  1
  Ni  Ni26  1  0.16950165  0.05825916  0.40949310  1
  Ni  Ni27  1  0.67468052  0.03722678  0.41320106  1
  Ni  Ni28  1  0.35294846  0.66822322  0.41075488  1
  Ni  Ni29  1  0.85088672  0.67598476  0.41877798  1
  Ni  Ni30  1  0.99267036  0.99322606  0.49965887  1
  Ni  Ni31  1  0.50167781  0.99726069  0.50225883  1
  Ni  Ni32  1  0.99838987  0.00240490  0.00437038  1
  Ni  Ni33  1  0.50014375  0.00368440  0.00564835  1
  Ni  Ni34  1  0.32612335  0.31803790  0.82029713  1
  Ni  Ni35  1  0.82346441  0.33339112  0.82793037  1
  Ni  Ni36  1  0.32527875  0.31608792  0.33176771  1
  Ni  Ni37  1  0.82416627  0.31543467  0.32958923  1
  Ni  Ni38  1  0.16435492  0.66858191  0.17273875  1
  Ni  Ni39  1  0.66271650  0.66183658  0.17077917  1
  Ni  Ni40  1  0.16237948  0.66246020  0.66810448  1
  Ni  Ni41  1  0.66235248  0.65688991  0.66547770  1
  Cu  Cu42  1  0.00108254  0.00015360  0.35235814  1
  Cu  Cu43  1  0.49526224  0.99267167  0.34787071  1
  Cu  Cu44  1  0.99461316  0.99710581  0.84689676  1
  Cu  Cu45  1  0.50642956  0.00995408  0.84799372  1
  Cu  Cu46  1  0.33895870  0.33556202  0.67634937  1
  Cu  Cu47  1  0.83817253  0.33896834  0.17800572  1
  Cu  Cu48  1  0.33443191  0.33149329  0.99544819  1
  Cu  Cu49  1  0.83168396  0.33632265  0.98371052  1
  Cu  Cu50  1  0.33240832  0.32752116  0.48398370  1
  Cu  Cu51  1  0.83282917  0.33194042  0.49214019  1
  Cu  Cu52  1  0.66869712  0.67466346  0.31121102  1
  Cu  Cu53  1  0.16715564  0.66344627  0.80881797  1
  C  C54  1  0.98975135  0.00918940  0.65252463  1
  C  C55  1  0.51049974  0.04105042  0.65208900  1
  C  C56  1  0.00966372  0.98244720  0.15332151  1
  C  C57  1  0.48976271  0.97192606  0.15350432  1
  C  C58  1  0.82686390  0.32644081  0.67543247  1
  C  C59  1  0.32632328  0.32796249  0.17646541  1
  C  C60  1  0.17031275  0.66941065  0.03255699  1
  C  C61  1  0.66296450  0.67304541  0.01628901  1
  C  C62  1  0.16249859  0.65344177  0.51571286  1
  C  C63  1  0.67902116  0.68732737  0.52966241  1
  C  C64  1  0.18383985  0.68647338  0.31235902  1
  C  C65  1  0.68444863  0.68207280  0.81079511  1
  C  C66  1  0.15643971  0.00156686  0.25175270  1
  C  C67  1  0.64647488  0.00159714  0.24898161  1
  C  C68  1  0.34863726  0.68517184  0.25107188  1
  C  C69  1  0.85281736  0.70230356  0.24938121  1
  C  C70  1  0.14707980  0.29020041  0.75002954  1
  C  C71  1  0.65761066  0.31388028  0.75136348  1
  C  C72  1  0.35348609  0.00147082  0.75060457  1
  C  C73  1  0.84955993  0.01352022  0.75152701  1
  C  C74  1  0.49163651  0.34082635  0.58122345  1
  C  C75  1  0.98564459  0.34082677  0.58533379  1
  C  C76  1  0.67679490  0.02898400  0.58427250  1
  C  C77  1  0.84145671  0.64245009  0.58175628  1
  C  C78  1  0.48514033  0.63250443  0.08400350  1
  C  C79  1  0.98766112  0.64371956  0.08208134  1
  C  C80  1  0.34080026  0.03983804  0.08088853  1
  C  C81  1  0.17727244  0.32532681  0.08287008  1
  C  C82  1  0.80931736  0.66672420  0.91984503  1
  C  C83  1  0.66584107  0.94900803  0.91350317  1
  C  C84  1  0.30933916  0.95264470  0.42019927  1
  C  C85  1  0.81313859  0.96432773  0.41806187  1
  C  C86  1  0.16735053  0.38489809  0.41368871  1
  C  C87  1  0.00342532  0.29693092  0.24973010  1
  C  C88  1  0.49284349  0.28774493  0.24591981  1
  C  C89  1  0.99391569  0.69818238  0.74717953  1
  C  C90  1  0.50255245  0.70608245  0.75155638  1
  C  C91  1  0.17510970  0.01780997  0.58300107  1
  C  C92  1  0.33161718  0.64639476  0.58170485  1
  C  C93  1  0.83149153  0.01795637  0.08072267  1
  C  C94  1  0.67517909  0.33282879  0.08223921  1
  C  C95  1  0.31136788  0.66385728  0.91990701  1
  C  C96  1  0.02541716  0.38185307  0.92134230  1
  C  C97  1  0.52562829  0.38776229  0.91601658  1
  C  C98  1  0.16780174  0.95756869  0.91928890  1
  C  C99  1  0.66622409  0.37496368  0.41864732  1
  C  C100  1  0.02811779  0.66503486  0.41526181  1
  C  C101  1  0.52304677  0.66726821  0.42022235  1
  C  C102  1  0.12617488  0.05629577  0.31005988  1
  C  C103  1  0.61253134  0.03635836  0.31045239  1
  C  C104  1  0.40119554  0.74943722  0.31069797  1
  C  C105  1  0.90421136  0.78121107  0.30940342  1
  C  C106  1  0.48183365  0.20427255  0.30427415  1
  C  C107  1  0.99361743  0.20922614  0.30637048  1
  C  C108  1  0.11472612  0.19314158  0.81311119  1
  C  C109  1  0.62723163  0.20085838  0.81064040  1
  C  C110  1  0.49129338  0.77213429  0.80862164  1
  C  C111  1  0.98402678  0.75996780  0.80594179  1
  C  C112  1  0.39959354  0.01888614  0.81332687  1
  C  C113  1  0.90104890  0.05168740  0.81184680  1
  C  C114  1  0.41406636  0.99130940  0.69521650  1
  C  C115  1  0.90053143  0.98822336  0.69528505  1
  C  C116  1  0.08214627  0.16341353  0.69643980  1
  C  C117  1  0.58882999  0.21376621  0.69658876  1
  C  C118  1  0.00256488  0.81370541  0.69910832  1
  C  C119  1  0.51397823  0.82079781  0.70209997  1
  C  C120  1  0.39914504  0.81204435  0.19428467  1
  C  C121  1  0.91398414  0.83447526  0.19280314  1
  C  C122  1  0.01500878  0.20567742  0.19967586  1
  C  C123  1  0.50049371  0.18824989  0.19742552  1
  C  C124  1  0.08906873  0.96724086  0.19572654  1
  C  C125  1  0.58105018  0.00023129  0.19477451  1
  C  C126  1  0.45961635  0.37811264  0.64228262  1
  C  C127  1  0.93207974  0.35813885  0.64088624  1
  C  C128  1  0.22971004  0.09492932  0.63534385  1
  C  C129  1  0.74767662  0.13340589  0.63691249  1
  C  C130  1  0.31661297  0.54251702  0.63517532  1
  C  C131  1  0.82138996  0.49290395  0.63141314  1
  C  C132  1  0.42984665  0.50344973  0.13789540  1
  C  C133  1  0.95896917  0.54000291  0.14214162  1
  C  C134  1  0.31824972  0.14463728  0.12995759  1
  C  C135  1  0.81617410  0.09144880  0.13361984  1
  C  C136  1  0.24826350  0.36519034  0.13518959  1
  C  C137  1  0.73009061  0.36423845  0.13415994  1
  C  C138  1  0.20617670  0.27855841  0.02197383  1
  C  C139  1  0.71265755  0.29905202  0.02900281  1
  C  C140  1  0.43353546  0.58428394  0.02294092  1
  C  C141  1  0.92882027  0.57653089  0.02458502  1
  C  C142  1  0.35462408  0.12094065  0.01626140  1
  C  C143  1  0.84142389  0.11636547  0.02721266  1
  C  C144  1  0.21339836  0.12771685  0.53022752  1
  C  C145  1  0.70323307  0.13811421  0.52469136  1
  C  C146  1  0.34091377  0.56524472  0.52869107  1
  C  C147  1  0.85654403  0.58789309  0.51802881  1
  C  C148  1  0.42805093  0.27930267  0.52566360  1
  C  C149  1  0.93313015  0.28491797  0.52540490  1
  C  C150  1  0.26523338  0.67428553  0.97292817  1
  C  C151  1  0.75057704  0.66771747  0.97613302  1
  C  C152  1  0.08040750  0.48129810  0.97093098  1
  C  C153  1  0.57433793  0.47826041  0.96965728  1
  C  C154  1  0.16578747  0.85810563  0.97170568  1
  C  C155  1  0.65987714  0.83281841  0.97391561  1
  C  C156  1  0.25107168  0.83445338  0.47665176  1
  C  C157  1  0.75441644  0.83930187  0.47684317  1
  C  C158  1  0.16125397  0.48834680  0.47422636  1
  C  C159  1  0.66224072  0.46800816  0.47095809  1
  C  C160  1  0.07668752  0.67057519  0.46932657  1
  C  C161  1  0.57640768  0.67643961  0.46999307  1
  C  C162  1  0.06997536  0.65413493  0.36078910  1
  C  C163  1  0.55460259  0.64372126  0.36290427  1
  C  C164  1  0.25443600  0.84804571  0.35972113  1
  C  C165  1  0.76129342  0.88235058  0.35842457  1
  C  C166  1  0.17022660  0.50151113  0.35639024  1
  C  C167  1  0.66968382  0.46100800  0.36259871  1
  C  C168  1  0.05894105  0.46926180  0.86453156  1
  C  C169  1  0.56743651  0.47964948  0.86135432  1
  C  C170  1  0.17329703  0.87874765  0.86391865  1
  C  C171  1  0.66844090  0.83759648  0.85664796  1
  C  C172  1  0.26490558  0.64973954  0.86543504  1
  C  C173  1  0.75430906  0.66146749  0.85961170  1
  C  C174  1  0.02471195  0.82214127  0.41707209  1
  C  C175  1  0.51739454  0.82346809  0.42057718  1
  C  C176  1  0.39913688  0.96300277  0.42322455  1
  C  C177  1  0.90128081  0.96573888  0.42560233  1
  C  C178  1  0.08471423  0.20477909  0.42019155  1
  C  C179  1  0.58897282  0.20614072  0.42044830  1
  C  C180  1  0.01958261  0.21459135  0.92228664  1
  C  C181  1  0.51851610  0.21973373  0.91812745  1
  C  C182  1  0.08984049  0.96870151  0.92109395  1
  C  C183  1  0.58176904  0.96163436  0.92040525  1
  C  C184  1  0.39512439  0.81773631  0.92012395  1
  C  C185  1  0.89940668  0.83601492  0.92329125  1
  C  C186  1  0.50187687  0.16743707  0.59156893  1
  C  C187  1  0.99968403  0.17562900  0.59961677  1
  C  C188  1  0.09198791  0.00243632  0.59114425  1
  C  C189  1  0.58570561  0.00230334  0.60497901  1
  C  C190  1  0.40480999  0.81643182  0.58739824  1
  C  C191  1  0.91676673  0.83072518  0.59947754  1
  C  C192  1  0.49910085  0.82502393  0.09806883  1
  C  C193  1  0.00216143  0.83787221  0.09092091  1
  C  C194  1  0.41477584  0.99849434  0.09695749  1
  C  C195  1  0.90457162  0.99296063  0.08657254  1
  C  C196  1  0.08671659  0.16855831  0.10168574  1
  C  C197  1  0.59181648  0.18208812  0.09028404  1
  C  C198  1  0.34344766  0.16645325  0.74512368  1
  C  C199  1  0.83627260  0.17322564  0.73848029  1
  C  C200  1  0.24280989  0.32867975  0.74159197  1
  C  C201  1  0.74652600  0.32636564  0.73346275  1
  C  C202  1  0.42690024  0.53932758  0.74464580  1
  C  C203  1  0.92216346  0.52666249  0.74008208  1
  C  C204  1  0.33608947  0.49906442  0.23668075  1
  C  C205  1  0.84265888  0.51738061  0.24409316  1
  C  C206  1  0.42089704  0.31600258  0.23824788  1
  C  C207  1  0.92794903  0.31249325  0.24306138  1
  C  C208  1  0.24561379  0.16614766  0.23194969  1
  C  C209  1  0.74156477  0.15408655  0.24022295  1
  C  C210  1  0.32116145  0.51321627  0.92216745  1
  C  C211  1  0.81437999  0.49725815  0.91510976  1
  C  C212  1  0.44101839  0.37048354  0.91817646  1
  C  C213  1  0.93996395  0.35760228  0.92698629  1
  C  C214  1  0.24278263  0.12923821  0.92021213  1
  C  C215  1  0.75145679  0.12688076  0.91401224  1
  C  C216  1  0.31339904  0.13100906  0.41513169  1
  C  C217  1  0.82467489  0.15149766  0.42024713  1
  C  C218  1  0.25367460  0.38089270  0.41374936  1
  C  C219  1  0.74233490  0.35834035  0.41979201  1
  C  C220  1  0.43681365  0.52114273  0.42590732  1
  C  C221  1  0.94362894  0.51685633  0.41779842  1
  C  C222  1  0.17686712  0.50679663  0.07726227  1
  C  C223  1  0.66945831  0.48666901  0.07477834  1
  C  C224  1  0.08500433  0.67668681  0.06898930  1
  C  C225  1  0.58110993  0.65908031  0.07709857  1
  C  C226  1  0.25156304  0.84572855  0.07671340  1
  C  C227  1  0.75338444  0.84494570  0.07585009  1
  C  C228  1  0.16957464  0.85289968  0.57537722  1
  C  C229  1  0.67698650  0.84899037  0.58050450  1
  C  C230  1  0.25372669  0.66296919  0.57699835  1
  C  C231  1  0.75325362  0.65698574  0.58038441  1
  C  C232  1  0.08209160  0.50445134  0.57847683  1
  C  C233  1  0.58742542  0.49551596  0.56820001  1
  C  C234  1  0.15441074  0.82048886  0.25694875  1
  C  C235  1  0.64045909  0.82054842  0.24045519  1
  C  C236  1  0.25478034  0.67019463  0.25377265  1
  C  C237  1  0.76272003  0.69133369  0.24051446  1
  C  C238  1  0.07926641  0.46807966  0.25078215  1
  C  C239  1  0.57157349  0.45298516  0.24587659  1
  C  C240  1  0.14346015  0.46289640  0.74277731  1
  C  C241  1  0.65485473  0.49035094  0.75748191  1
  C  C242  1  0.07295975  0.68957634  0.74710410  1
  C  C243  1  0.57827470  0.68646105  0.75289311  1
  C  C244  1  0.26278879  0.83183090  0.74234692  1
  C  C245  1  0.75557247  0.83977940  0.75431641  1
