# generated using pymatgen
data_Cu6NiC12
_symmetry_space_group_name_H-M   'P 1'
_cell_length_a   5.02128278
_cell_length_b   4.96197359
_cell_length_c   8.62212094
_cell_angle_alpha   88.35774474
_cell_angle_beta   89.35978748
_cell_angle_gamma   98.06927833
_symmetry_Int_Tables_number   1
_chemical_formula_structural   Cu6NiC12
_chemical_formula_sum   'Cu6 Ni1 C12'
_cell_volume   212.58482732
_cell_formula_units_Z   1
loop_
 _symmetry_equiv_pos_site_id
 _symmetry_equiv_pos_as_xyz
  1  'x, y, z'
loop_
 _atom_site_type_symbol
 _atom_site_label
 _atom_site_symmetry_multiplicity
 _atom_site_fract_x
 _atom_site_fract_y
 _atom_site_fract_z
 _atom_site_occupancy
  Ni  Ni0  1  0.51957413  0.03376721  0.81378645  1
  Cu  Cu1  1  0.96913975  0.94914750  0.00218109  1
  Cu  Cu2  1  0.99568067  0.97542392  0.33197682  1
  Cu  Cu3  1  0.03727575  0.02519003  0.65397732  1
  Cu  Cu4  1  0.64065797  0.44922904  0.16951867  1
  Cu  Cu5  1  0.33322439  0.51954295  0.85272723  1
  Cu  Cu6  1  0.41997852  0.56348027  0.49041101  1
  C  C7  1  0.14321290  0.82181675  0.82458560  1
  C  C8  1  0.15904929  0.82304769  0.49955344  1
  C  C9  1  0.34401876  0.28918236  0.67165494  1
  C  C10  1  0.63640647  0.70088055  0.98828756  1
  C  C11  1  0.70298211  0.68999754  0.33356157  1
  C  C12  1  0.84836888  0.16429688  0.16258059  1
  C  C13  1  0.15030874  0.75049711  0.15946253  1
  C  C14  1  0.33326862  0.27737605  0.31370807  1
  C  C15  1  0.36123508  0.20753678  -0.00205709  1
  C  C16  1  0.66339366  0.79750916  0.66546502  1
  C  C17  1  0.87689799  0.23215219  0.82765276  1
  C  C18  1  0.89310434  0.22992702  0.49811440  1
