# generated using pymatgen
data_Cu6NiC12
_symmetry_space_group_name_H-M   'P 1'
_cell_length_a   7.06991738
_cell_length_b   5.68934400
_cell_length_c   5.92865436
_cell_angle_alpha   81.93435263
_cell_angle_beta   71.05763635
_cell_angle_gamma   74.25097225
_symmetry_Int_Tables_number   1
_chemical_formula_structural   Cu6NiC12
_chemical_formula_sum   'Cu6 Ni1 C12'
_cell_volume   216.73068427
_cell_formula_units_Z   1
loop_
 _symmetry_equiv_pos_site_id
 _symmetry_equiv_pos_as_xyz
  1  'x, y, z'
loop_
 _atom_site_type_symbol
 _atom_site_label
 _atom_site_symmetry_multiplicity
 _atom_site_fract_x
 _atom_site_fract_y
 _atom_site_fract_z
 _atom_site_occupancy
  Ni  Ni0  1  0.15740805  0.34075447  0.83566048  1
  Cu  Cu1  1  0.83513366  0.67377827  0.63468659  1
  Cu  Cu2  1  0.67365590  0.27137644  0.39783214  1
  Cu  Cu3  1  0.33943603  0.75086310  0.58174564  1
  Cu  Cu4  1  0.16501977  0.32891994  0.34204615  1
  Cu  Cu5  1  0.51887475  0.98968484  0.99714417  1
  Cu  Cu6  1  0.00686506  0.91975579  0.05412239  1
  C  C7  1  0.68755351  0.01362414  0.65546949  1
  C  C8  1  0.28588655  0.95923759  0.85553402  1
  C  C9  1  0.97846524  0.23868102  0.18848345  1
  C  C10  1  0.62967649  0.58684972  0.53224051  1
  C  C11  1  0.05109440  0.71953237  0.78718751  1
  C  C12  1  0.36564175  0.40813683  0.48500448  1
  C  C13  1  0.71232979  0.06109590  0.13729236  1
  C  C14  1  0.32676977  0.98720471  0.32236582  1
  C  C15  1  0.96863503  0.33332908  0.65501341  1
  C  C16  1  0.03324198  0.67843481  0.30773073  1
  C  C17  1  0.36111894  0.35724607  0.99074421  1
  C  C18  1  0.65319333  0.64339991  0.98969545  1
