# generated using pymatgen
data_Cu2Ni10C7
_symmetry_space_group_name_H-M   'P 1'
_cell_length_a   5.12425441
_cell_length_b   7.50080563
_cell_length_c   5.57843960
_cell_angle_alpha   94.50717488
_cell_angle_beta   98.37492762
_cell_angle_gamma   85.06274070
_symmetry_Int_Tables_number   1
_chemical_formula_structural   Cu2Ni10C7
_chemical_formula_sum   'Cu2 Ni10 C7'
_cell_volume   210.86453846
_cell_formula_units_Z   1
loop_
 _symmetry_equiv_pos_site_id
 _symmetry_equiv_pos_as_xyz
  1  'x, y, z'
loop_
 _atom_site_type_symbol
 _atom_site_label
 _atom_site_symmetry_multiplicity
 _atom_site_fract_x
 _atom_site_fract_y
 _atom_site_fract_z
 _atom_site_occupancy
  C  C0  1  0.02360379  0.48774691  0.04623492  1
  C  C1  1  0.46720205  0.99733551  0.51456192  1
  C  C2  1  0.52398461  0.68576287  0.15663174  1
  C  C3  1  0.50704185  0.33827952  0.83335315  1
  C  C4  1  0.00038900  0.68967220  0.65706849  1
  C  C5  1  0.89880924  0.27361492  0.45580453  1
  C  C6  1  0.01119839  0.99890363  0.98606685  1
  Ni  Ni7  1  0.84035058  0.46584433  0.68796535  1
  Ni  Ni8  1  0.85865838  0.77244611  0.94735836  1
  Ni  Ni9  1  0.82564640  0.08164797  0.24004650  1
  Ni  Ni10  1  0.73224038  0.12376074  0.74665469  1
  Ni  Ni11  1  0.68965170  0.77692530  0.46605237  1
  Ni  Ni12  1  0.69419906  0.43663625  0.15948084  1
  Ni  Ni13  1  0.30649549  0.57185357  0.87851098  1
  Ni  Ni14  1  0.28984084  0.23716685  0.54006617  1
  Ni  Ni15  1  0.31794035  0.91220055  0.18739193  1
  Ni  Ni16  1  0.17308306  0.90411543  0.70099166  1
  Cu  Cu17  1  0.16860798  0.58976775  0.37115776  1
  Cu  Cu18  1  0.18494586  0.23668057  0.01983978  1
