# generated using pymatgen
data_Cu7(NiC8)2
_symmetry_space_group_name_H-M   'P 1'
_cell_length_a   11.46441600
_cell_length_b   11.46441600
_cell_length_c   4.71242100
_cell_angle_alpha   90.00000000
_cell_angle_beta   90.00000000
_cell_angle_gamma   90.00000000
_symmetry_Int_Tables_number   1
_chemical_formula_structural   Cu7(NiC8)2
_chemical_formula_sum   'Cu14 Ni4 C32'
_cell_volume   619.36684807
_cell_formula_units_Z   2
loop_
 _symmetry_equiv_pos_site_id
 _symmetry_equiv_pos_as_xyz
  1  'x, y, z'
loop_
 _atom_site_type_symbol
 _atom_site_label
 _atom_site_symmetry_multiplicity
 _atom_site_fract_x
 _atom_site_fract_y
 _atom_site_fract_z
 _atom_site_occupancy
  Ni  Ni0  1  0.83678800  0.66321200  0.00000000  1
  Ni  Ni1  1  0.33678800  0.83678800  0.00000000  1
  Ni  Ni2  1  0.66321200  0.16321200  0.00000000  1
  Ni  Ni3  1  0.16321200  0.33678800  0.00000000  1
  Cu  Cu4  1  0.56941200  0.68499800  0.50990900  1
  Cu  Cu5  1  0.43058800  0.31500200  0.50990900  1
  Cu  Cu6  1  0.31500200  0.56941200  0.49009100  1
  Cu  Cu7  1  0.68499800  0.43058800  0.49009100  1
  Cu  Cu8  1  0.93058800  0.18499800  0.50990900  1
  Cu  Cu9  1  0.81500200  0.93058800  0.49009100  1
  Cu  Cu10  1  0.18499800  0.06941200  0.49009100  1
  Cu  Cu11  1  0.06941200  0.81500200  0.50990900  1
  Cu  Cu12  1  0.63571600  0.86428400  0.00000000  1
  Cu  Cu13  1  0.13571600  0.63571600  0.00000000  1
  Cu  Cu14  1  0.86428400  0.36428400  0.00000000  1
  Cu  Cu15  1  0.36428400  0.13571600  0.00000000  1
  Cu  Cu16  1  0.50000000  0.00000000  0.50000000  1
  Cu  Cu17  1  0.00000000  0.50000000  0.50000000  1
  C  C18  1  0.63878100  0.56449000  0.33409600  1
  C  C19  1  0.36121900  0.43551000  0.33409600  1
  C  C20  1  0.43551000  0.63878100  0.66590400  1
  C  C21  1  0.56449000  0.36121900  0.66590400  1
  C  C22  1  0.86121900  0.06449000  0.33409600  1
  C  C23  1  0.93551000  0.86121900  0.66590400  1
  C  C24  1  0.06449000  0.13878100  0.66590400  1
  C  C25  1  0.13878100  0.93551000  0.33409600  1
  C  C26  1  0.67349300  0.73131000  0.77140600  1
  C  C27  1  0.32650700  0.26869000  0.77140600  1
  C  C28  1  0.26869000  0.67349300  0.22859400  1
  C  C29  1  0.73131000  0.32650700  0.22859400  1
  C  C30  1  0.82650700  0.23131000  0.77140600  1
  C  C31  1  0.76869000  0.82650700  0.22859400  1
  C  C32  1  0.23131000  0.17349300  0.22859400  1
  C  C33  1  0.17349300  0.76869000  0.77140600  1
  C  C34  1  0.53076700  0.78036200  0.22807800  1
  C  C35  1  0.46923300  0.21963800  0.22807800  1
  C  C36  1  0.00065200  0.61851100  0.74800600  1
  C  C37  1  0.38148900  0.00065200  0.25199400  1
  C  C38  1  0.61851100  0.99934800  0.25199400  1
  C  C39  1  0.99934800  0.38148900  0.74800600  1
  C  C40  1  0.88148900  0.49934800  0.25199400  1
  C  C41  1  0.11851100  0.50065200  0.25199400  1
  C  C42  1  0.49934800  0.11851100  0.74800600  1
  C  C43  1  0.50065200  0.88148900  0.74800600  1
  C  C44  1  0.03076700  0.71963800  0.22807800  1
  C  C45  1  0.28036200  0.03076700  0.77192200  1
  C  C46  1  0.71963800  0.96923300  0.77192200  1
  C  C47  1  0.96923300  0.28036200  0.22807800  1
  C  C48  1  0.78036200  0.46923300  0.77192200  1
  C  C49  1  0.21963800  0.53076700  0.77192200  1
