# generated using pymatgen
data_CuNi4C
_symmetry_space_group_name_H-M   'P 1'
_cell_length_a   4.44823431
_cell_length_b   4.44823431
_cell_length_c   7.20322200
_cell_angle_alpha   90.00000000
_cell_angle_beta   90.00000000
_cell_angle_gamma   120.00000456
_symmetry_Int_Tables_number   1
_chemical_formula_structural   CuNi4C
_chemical_formula_sum   'Cu2 Ni8 C2'
_cell_volume   123.43340854
_cell_formula_units_Z   2
loop_
 _symmetry_equiv_pos_site_id
 _symmetry_equiv_pos_as_xyz
  1  'x, y, z'
loop_
 _atom_site_type_symbol
 _atom_site_label
 _atom_site_symmetry_multiplicity
 _atom_site_fract_x
 _atom_site_fract_y
 _atom_site_fract_z
 _atom_site_occupancy
  Ni  Ni0  1  0.07583100  0.53791500  0.42310400  1
  Ni  Ni1  1  0.46208500  0.92416900  0.42310400  1
  Ni  Ni2  1  0.66666700  0.33333300  0.72863800  1
  Ni  Ni3  1  0.33333300  0.66666700  0.22863800  1
  Ni  Ni4  1  0.53791500  0.07583100  0.92310400  1
  Ni  Ni5  1  0.46208500  0.53791500  0.42310400  1
  Ni  Ni6  1  0.92416900  0.46208500  0.92310400  1
  Ni  Ni7  1  0.53791500  0.46208500  0.92310400  1
  Cu  Cu8  1  0.66666700  0.33333300  0.87465800  1
  Cu  Cu9  1  0.33333300  0.66666700  0.37465800  1
  C  C10  1  0.66666700  0.33333300  0.49759100  1
  C  C11  1  0.33333300  0.66666700  0.99759100  1
