# generated using pymatgen
data_Cu3NiC26
_symmetry_space_group_name_H-M   'P 1'
_cell_length_a   15.75055981
_cell_length_b   27.07961723
_cell_length_c   9.02875850
_cell_angle_alpha   89.98645754
_cell_angle_beta   124.99709015
_cell_angle_gamma   90.02478472
_symmetry_Int_Tables_number   1
_chemical_formula_structural   Cu3NiC26
_chemical_formula_sum   'Cu24 Ni8 C208'
_cell_volume   3154.61579812
_cell_formula_units_Z   8
loop_
 _symmetry_equiv_pos_site_id
 _symmetry_equiv_pos_as_xyz
  1  'x, y, z'
loop_
 _atom_site_type_symbol
 _atom_site_label
 _atom_site_symmetry_multiplicity
 _atom_site_fract_x
 _atom_site_fract_y
 _atom_site_fract_z
 _atom_site_occupancy
  C  C0  1  0.25807022  0.24493117  0.03020239  1
  C  C1  1  0.25107783  0.59036860  0.02101333  1
  C  C2  1  0.26100520  0.91242592  0.02811098  1
  C  C3  1  0.75083802  0.25185064  0.50451816  1
  C  C4  1  0.74568873  0.58112112  0.50149317  1
  C  C5  1  0.75935515  0.91683810  0.52424322  1
  C  C6  1  0.75107783  0.09036860  0.02101333  1
  C  C7  1  0.76100520  0.41242592  0.02811098  1
  C  C8  1  0.75807022  0.74493117  0.03020239  1
  C  C9  1  0.24568873  0.08112112  0.50149317  1
  C  C10  1  0.25935515  0.41683810  0.52424322  1
  C  C11  1  0.25083802  0.75185064  0.50451816  1
  C  C12  1  0.48497639  0.02680803  0.71537190  1
  C  C13  1  0.49036033  0.37044342  0.74942063  1
  C  C14  1  0.48487412  0.69650611  0.72260162  1
  C  C15  1  0.48912052  0.29421655  0.25443745  1
  C  C16  1  0.49863659  0.62563556  0.26677911  1
  C  C17  1  0.49990006  0.95645571  0.27800033  1
  C  C18  1  0.98487412  0.19650611  0.72260162  1
  C  C19  1  0.98497639  0.52680803  0.71537190  1
  C  C20  1  0.99036033  0.87044342  0.74942063  1
  C  C21  1  0.99863659  0.12563556  0.26677911  1
  C  C22  1  0.99990006  0.45645571  0.27800033  1
  C  C23  1  0.98912052  0.79421655  0.25443745  1
  C  C24  1  0.81684068  0.98199339  0.21196785  1
  C  C25  1  0.20868485  0.30869439  0.29504979  1
  C  C26  1  0.20029756  0.97403482  0.27555650  1
  C  C27  1  0.20131955  0.35897680  0.78789499  1
  C  C28  1  0.82011765  0.01852311  0.71764307  1
  C  C29  1  0.81455687  0.69499004  0.68128482  1
  C  C30  1  0.31684068  0.48199339  0.21196785  1
  C  C31  1  0.70029756  0.47403482  0.27555650  1
  C  C32  1  0.70868485  0.80869439  0.29504979  1
  C  C33  1  0.70131955  0.85897680  0.78789499  1
  C  C34  1  0.31455687  0.19499004  0.68128482  1
  C  C35  1  0.32011765  0.51852311  0.71764307  1
  C  C36  1  0.10471730  0.24990251  0.57734088  1
  C  C37  1  0.10644336  0.58424103  0.56824906  1
  C  C38  1  0.10607380  0.91580783  0.56685440  1
  C  C39  1  0.89122806  0.24978113  0.93331493  1
  C  C40  1  0.89634066  0.58266851  0.94167707  1
  C  C41  1  0.10562053  0.08417125  0.05960061  1
  C  C42  1  0.10488681  0.41717118  0.06178304  1
  C  C43  1  0.10575065  0.75040251  0.06204670  1
  C  C44  1  0.60644336  0.08424103  0.56824906  1
  C  C45  1  0.60607380  0.41580783  0.56685440  1
  C  C46  1  0.60471730  0.74990251  0.57734088  1
  C  C47  1  0.39634066  0.08266851  0.94167707  1
  C  C48  1  0.39122806  0.74978113  0.93331493  1
  C  C49  1  0.60575065  0.25040251  0.06204670  1
  C  C50  1  0.60562053  0.58417125  0.05960061  1
  C  C51  1  0.60488681  0.91717118  0.06178304  1
  Ni  Ni52  1  0.89700608  0.91577574  0.94608161  1
  Ni  Ni53  1  0.89542405  0.08769117  0.43925837  1
  Ni  Ni54  1  0.90174076  0.41706424  0.46345273  1
  Ni  Ni55  1  0.90006957  0.74977430  0.44439374  1
  Ni  Ni56  1  0.39700608  0.41577574  0.94608161  1
  Ni  Ni57  1  0.40006957  0.24977430  0.44439374  1
  Ni  Ni58  1  0.39542405  0.58769117  0.43925837  1
  Ni  Ni59  1  0.40174076  0.91706424  0.46345273  1
  Cu  Cu60  1  0.99479526  0.32073262  0.74334463  1
  Cu  Cu61  1  0.49479526  0.82073262  0.74334463  1
  Cu  Cu62  1  0.35285293  0.29834733  0.75415333  1
  Cu  Cu63  1  0.35265096  0.63075449  0.75236063  1
  Cu  Cu64  1  0.35076181  0.96421061  0.74737556  1
  Cu  Cu65  1  0.64054593  0.29779516  0.73211773  1
  Cu  Cu66  1  0.64585225  0.63120924  0.73663786  1
  Cu  Cu67  1  0.64618954  0.96753849  0.74062224  1
  Cu  Cu68  1  0.64716184  0.03408892  0.24828537  1
  Cu  Cu69  1  0.64252518  0.70019927  0.24687262  1
  Cu  Cu70  1  0.35321555  0.03643508  0.25629596  1
  Cu  Cu71  1  0.34975115  0.37025285  0.24847210  1
  Cu  Cu72  1  0.35267545  0.70409983  0.25729123  1
  Cu  Cu73  1  0.85265096  0.13075449  0.75236063  1
  Cu  Cu74  1  0.85076181  0.46421061  0.74737556  1
  Cu  Cu75  1  0.85285293  0.79834733  0.75415333  1
  Cu  Cu76  1  0.14585225  0.13120924  0.73663786  1
  Cu  Cu77  1  0.14618954  0.46753849  0.74062224  1
  Cu  Cu78  1  0.14054593  0.79779516  0.73211773  1
  Cu  Cu79  1  0.14252518  0.20019927  0.24687262  1
  Cu  Cu80  1  0.14716184  0.53408892  0.24828537  1
  Cu  Cu81  1  0.85267545  0.20409983  0.25729123  1
  Cu  Cu82  1  0.85321555  0.53643508  0.25629596  1
  Cu  Cu83  1  0.84975115  0.87025285  0.24847210  1
  C  C84  1  0.00186615  0.65346954  0.74825287  1
  C  C85  1  0.00250489  0.98699623  0.74079132  1
  C  C86  1  0.00284700  0.01236012  0.24101936  1
  C  C87  1  0.00243770  0.34567804  0.24942909  1
  C  C88  1  0.00286842  0.68038599  0.24765922  1
  C  C89  1  0.50186615  0.15346954  0.74825287  1
  C  C90  1  0.50250489  0.48699623  0.74079132  1
  C  C91  1  0.50286842  0.18038599  0.24765922  1
  C  C92  1  0.50284700  0.51236012  0.24101936  1
  C  C93  1  0.50243770  0.84567804  0.24942909  1
  C  C94  1  0.63953847  0.36612072  0.23876691  1
  C  C95  1  0.13953847  0.86612072  0.23876691  1
  C  C96  1  0.14944812  0.19288565  0.74767645  1
  C  C97  1  0.14620835  0.52977364  0.74580722  1
  C  C98  1  0.14366062  0.85967448  0.73626113  1
  C  C99  1  0.84516883  0.19063152  0.77673142  1
  C  C100  1  0.84728469  0.52497061  0.78186994  1
  C  C101  1  0.84118778  0.85747993  0.75480185  1
  C  C102  1  0.84890327  0.14524937  0.24686850  1
  C  C103  1  0.84226726  0.47747803  0.24105185  1
  C  C104  1  0.84106664  0.81106725  0.25422404  1
  C  C105  1  0.14241402  0.13847415  0.23853189  1
  C  C106  1  0.13800694  0.47280007  0.24189905  1
  C  C107  1  0.14600662  0.80746302  0.24741633  1
  C  C108  1  0.64620835  0.02977364  0.74580722  1
  C  C109  1  0.64366062  0.35967448  0.73626113  1
  C  C110  1  0.64944812  0.69288565  0.74767645  1
  C  C111  1  0.34728469  0.02497061  0.78186994  1
  C  C112  1  0.34118778  0.35747993  0.75480185  1
  C  C113  1  0.34516883  0.69063152  0.77673142  1
  C  C114  1  0.34106664  0.31106725  0.25422404  1
  C  C115  1  0.34890327  0.64524937  0.24686850  1
  C  C116  1  0.34226726  0.97747803  0.24105185  1
  C  C117  1  0.64600662  0.30746302  0.24741633  1
  C  C118  1  0.64241402  0.63847415  0.23853189  1
  C  C119  1  0.63800694  0.97280007  0.24189905  1
  C  C120  1  0.42733169  0.18291065  0.57884631  1
  C  C121  1  0.43561718  0.51845333  0.57421537  1
  C  C122  1  0.42504222  0.85224306  0.56690326  1
  C  C123  1  0.56414616  0.18780941  0.91872979  1
  C  C124  1  0.56714180  0.52033788  0.91769054  1
  C  C125  1  0.57026375  0.85647340  0.92711374  1
  C  C126  1  0.56212381  0.14534716  0.41680482  1
  C  C127  1  0.56569361  0.47671890  0.41022907  1
  C  C128  1  0.56630665  0.81231730  0.42313132  1
  C  C129  1  0.44836247  0.14667733  0.07754355  1
  C  C130  1  0.44164432  0.48288032  0.06784797  1
  C  C131  1  0.45092750  0.81122685  0.08287365  1
  C  C132  1  0.93561718  0.01845333  0.57421537  1
  C  C133  1  0.92504222  0.35224306  0.56690326  1
  C  C134  1  0.92733169  0.68291065  0.57884631  1
  C  C135  1  0.06714180  0.02033788  0.91769054  1
  C  C136  1  0.07026375  0.35647340  0.92711374  1
  C  C137  1  0.06414616  0.68780941  0.91872979  1
  C  C138  1  0.06630665  0.31231730  0.42313132  1
  C  C139  1  0.06212381  0.64534716  0.41680482  1
  C  C140  1  0.06569361  0.97671890  0.41022907  1
  C  C141  1  0.95092750  0.31122685  0.08287365  1
  C  C142  1  0.94836247  0.64667733  0.07754355  1
  C  C143  1  0.94164432  0.98288032  0.06784797  1
  C  C144  1  0.25380905  0.27220124  0.74703258  1
  C  C145  1  0.25402887  0.60451607  0.73988878  1
  C  C146  1  0.25222919  0.93777121  0.73044515  1
  C  C147  1  0.75073149  0.27889270  0.77198240  1
  C  C148  1  0.75708230  0.61565067  0.76896881  1
  C  C149  1  0.74657867  0.94933657  0.75188304  1
  C  C150  1  0.74427178  0.05131375  0.24929469  1
  C  C151  1  0.73203116  0.39035008  0.25736594  1
  C  C152  1  0.73525415  0.72557279  0.25240406  1
  C  C153  1  0.25195964  0.06076559  0.23977304  1
  C  C154  1  0.25439081  0.39748358  0.25194338  1
  C  C155  1  0.25128403  0.73017016  0.23669145  1
  C  C156  1  0.75402887  0.10451607  0.73988878  1
  C  C157  1  0.75222919  0.43777121  0.73044515  1
  C  C158  1  0.75380905  0.77220124  0.74703258  1
  C  C159  1  0.25708230  0.11565067  0.76896881  1
  C  C160  1  0.24657867  0.44933657  0.75188304  1
  C  C161  1  0.25073149  0.77889270  0.77198240  1
  C  C162  1  0.23525415  0.22557279  0.25240406  1
  C  C163  1  0.24427178  0.55131375  0.24929469  1
  C  C164  1  0.23203116  0.89035008  0.25736594  1
  C  C165  1  0.75128403  0.23017016  0.23669145  1
  C  C166  1  0.75195964  0.56076559  0.23977304  1
  C  C167  1  0.75439081  0.89748358  0.25194338  1
  C  C168  1  0.34811742  0.27998092  0.58099663  1
  C  C169  1  0.35840964  0.62382299  0.58432174  1
  C  C170  1  0.34912957  0.96413572  0.56824287  1
  C  C171  1  0.63001794  0.28384320  0.90407199  1
  C  C172  1  0.63674730  0.61608303  0.90866918  1
  C  C173  1  0.64383577  0.95289063  0.92318672  1
  C  C174  1  0.64472197  0.04953343  0.42702513  1
  C  C175  1  0.63367234  0.38041485  0.40471840  1
  C  C176  1  0.64026368  0.71379754  0.42717324  1
  C  C177  1  0.35773455  0.05871765  0.08995198  1
  C  C178  1  0.33704056  0.38890944  0.06900063  1
  C  C179  1  0.35711708  0.72586403  0.09167157  1
  C  C180  1  0.85840964  0.12382299  0.58432174  1
  C  C181  1  0.84912957  0.46413572  0.56824287  1
  C  C182  1  0.84811742  0.77998092  0.58099663  1
  C  C183  1  0.13674730  0.11608303  0.90866918  1
  C  C184  1  0.14383577  0.45289063  0.92318672  1
  C  C185  1  0.13001794  0.78384320  0.90407199  1
  C  C186  1  0.14026368  0.21379754  0.42717324  1
  C  C187  1  0.14472197  0.54953343  0.42702513  1
  C  C188  1  0.13367234  0.88041485  0.40471840  1
  C  C189  1  0.85711708  0.22586403  0.09167157  1
  C  C190  1  0.85773455  0.55871765  0.08995198  1
  C  C191  1  0.83704056  0.88890944  0.06900063  1
  C  C192  1  0.46118674  0.27397670  0.93913925  1
  C  C193  1  0.46015236  0.60571466  0.93512666  1
  C  C194  1  0.46093156  0.94158645  0.92463411  1
  C  C195  1  0.54392397  0.27702345  0.54643774  1
  C  C196  1  0.54818281  0.61096300  0.55235507  1
  C  C197  1  0.54026630  0.94824497  0.56416219  1
  C  C198  1  0.53472265  0.05478802  0.07432007  1
  C  C199  1  0.53890504  0.38058860  0.06278259  1
  C  C200  1  0.52871024  0.71748164  0.07170428  1
  C  C201  1  0.46260983  0.05794677  0.43956461  1
  C  C202  1  0.46145550  0.39291471  0.43026603  1
  C  C203  1  0.46149347  0.72534055  0.44508306  1
  C  C204  1  0.96015236  0.10571466  0.93512666  1
  C  C205  1  0.96093156  0.44158645  0.92463411  1
  C  C206  1  0.96118674  0.77397670  0.93913925  1
  C  C207  1  0.04818281  0.11096300  0.55235507  1
  C  C208  1  0.04026630  0.44824497  0.56416219  1
  C  C209  1  0.04392397  0.77702345  0.54643774  1
  C  C210  1  0.02871024  0.21748164  0.07170428  1
  C  C211  1  0.03472265  0.55478802  0.07432007  1
  C  C212  1  0.03890504  0.88058860  0.06278259  1
  C  C213  1  0.96149347  0.22534055  0.44508306  1
  C  C214  1  0.96260983  0.55794677  0.43956461  1
  C  C215  1  0.96145550  0.89291471  0.43026603  1
  C  C216  1  0.08472580  0.28777276  0.74258753  1
  C  C217  1  0.08242755  0.62233198  0.74297261  1
  C  C218  1  0.08553642  0.95516479  0.73748361  1
  C  C219  1  0.92763016  0.27946276  0.77020334  1
  C  C220  1  0.93299734  0.61651103  0.77135624  1
  C  C221  1  0.93328656  0.95067574  0.75736448  1
  C  C222  1  0.93027886  0.04687817  0.25273708  1
  C  C223  1  0.92499972  0.37957605  0.24379484  1
  C  C224  1  0.92394162  0.71322301  0.24307148  1
  C  C225  1  0.09069481  0.04307958  0.24778725  1
  C  C226  1  0.08685946  0.37665347  0.24811757  1
  C  C227  1  0.08533555  0.71213457  0.24578533  1
  C  C228  1  0.58242755  0.12233198  0.74297261  1
  C  C229  1  0.58553642  0.45516479  0.73748361  1
  C  C230  1  0.58472580  0.78777276  0.74258753  1
  C  C231  1  0.43299734  0.11651103  0.77135624  1
  C  C232  1  0.43328656  0.45067574  0.75736448  1
  C  C233  1  0.42763016  0.77946276  0.77020334  1
  C  C234  1  0.42394162  0.21322301  0.24307148  1
  C  C235  1  0.43027886  0.54687817  0.25273708  1
  C  C236  1  0.42499972  0.87957605  0.24379484  1
  C  C237  1  0.58533555  0.21213457  0.24578533  1
  C  C238  1  0.59069481  0.54307958  0.24778725  1
  C  C239  1  0.58685946  0.87665347  0.24811757  1
