# generated using pymatgen
data_CuNiC18
_symmetry_space_group_name_H-M   'P 1'
_cell_length_a   8.77628349
_cell_length_b   8.77628320
_cell_length_c   21.95765820
_cell_angle_alpha   88.78051503
_cell_angle_beta   91.21948502
_cell_angle_gamma   119.51166423
_symmetry_Int_Tables_number   1
_chemical_formula_structural   CuNiC18
_chemical_formula_sum   'Cu6 Ni6 C108'
_cell_volume   1471.37104345
_cell_formula_units_Z   6
loop_
 _symmetry_equiv_pos_site_id
 _symmetry_equiv_pos_as_xyz
  1  'x, y, z'
loop_
 _atom_site_type_symbol
 _atom_site_label
 _atom_site_symmetry_multiplicity
 _atom_site_fract_x
 _atom_site_fract_y
 _atom_site_fract_z
 _atom_site_occupancy
  C  C0  1  0.63412156  0.00362653  0.24397640  1
  C  C1  1  0.99701358  0.63574471  0.24785915  1
  C  C2  1  0.99637347  0.36587844  0.74397640  1
  C  C3  1  0.36425529  0.00298642  0.74785915  1
  C  C4  1  0.30078856  0.33695953  0.57730940  1
  C  C5  1  0.66368058  0.96907771  0.58119215  1
  C  C6  1  0.66304047  0.69921144  0.07730940  1
  C  C7  1  0.03092229  0.33631942  0.08119215  1
  C  C8  1  0.96745456  0.67029353  0.91064340  1
  C  C9  1  0.33034658  0.30241171  0.91452615  1
  C  C10  1  0.32970647  0.03254544  0.41064340  1
  C  C11  1  0.69758829  0.66965342  0.41452615  1
  C  C12  1  0.00303998  0.01635045  0.49718487  1
  C  C13  1  0.98364955  0.99696002  0.99718487  1
  C  C14  1  0.66970698  0.34968345  0.83051787  1
  C  C15  1  0.65031655  0.33029302  0.33051787  1
  C  C16  1  0.33637298  0.68301745  0.16385187  1
  C  C17  1  0.31698255  0.66362702  0.66385187  1
  Ni  Ni18  1  0.00334368  0.00505559  0.35286279  1
  Ni  Ni19  1  0.99494441  0.99665632  0.85286279  1
  Ni  Ni20  1  0.67001068  0.33838859  0.68619579  1
  Ni  Ni21  1  0.66161141  0.32998932  0.18619579  1
  Ni  Ni22  1  0.33667668  0.67172259  0.01952979  1
  Ni  Ni23  1  0.32827741  0.66332332  0.51952979  1
  C  C24  1  0.28728671  0.00235719  0.25271406  1
  C  C25  1  0.70769021  0.70266186  0.25186696  1
  C  C26  1  0.29733814  0.29230979  0.75186696  1
  C  C27  1  0.99764281  0.71271329  0.75271406  1
  C  C28  1  0.95395371  0.33569019  0.58604706  1
  C  C29  1  0.37435721  0.03599486  0.58519996  1
  C  C30  1  0.96400514  0.62564279  0.08519996  1
  C  C31  1  0.66430981  0.04604629  0.08604706  1
  C  C32  1  0.62061971  0.66902419  0.91938106  1
  C  C33  1  0.04102321  0.36932886  0.91853396  1
  C  C34  1  0.63067114  0.95897679  0.41853396  1
  C  C35  1  0.33097581  0.37938029  0.41938106  1
  Cu  Cu36  1  0.03353824  0.02050926  0.64671839  1
  Cu  Cu37  1  0.97949074  0.96646176  0.14671839  1
  Cu  Cu38  1  0.70020524  0.35384226  0.98005139  1
  Cu  Cu39  1  0.64615774  0.29979476  0.48005139  1
  Cu  Cu40  1  0.36687124  0.68717626  0.31338539  1
  Cu  Cu41  1  0.31282374  0.63312876  0.81338539  1
  C  C42  1  0.00894192  0.29418358  0.24945136  1
  C  C43  1  0.70581642  0.99105808  0.74945136  1
  C  C44  1  0.67560892  0.62751658  0.58278436  1
  C  C45  1  0.37248342  0.32439108  0.08278436  1
  C  C46  1  0.34227492  0.96085058  0.91611836  1
  C  C47  1  0.03914942  0.65772508  0.41611836  1
  C  C48  1  0.20399029  0.02485845  0.31413046  1
  C  C49  1  0.83034612  0.79382665  0.31094752  1
  C  C50  1  0.97882908  0.18189617  0.30393463  1
  C  C51  1  0.20617335  0.16965388  0.81094752  1
  C  C52  1  0.97514155  0.79600971  0.81413046  1
  C  C53  1  0.81810383  0.02117092  0.80393463  1
  C  C54  1  0.78300872  0.96880314  0.69310599  1
  C  C55  1  0.16920217  0.21651194  0.68971942  1
  C  C56  1  0.04079173  0.84981552  0.69295733  1
  C  C57  1  0.78348806  0.83079783  0.18971942  1
  C  C58  1  0.03119686  0.21699128  0.19310599  1
  C  C59  1  0.15018448  0.95920827  0.19295733  1
  C  C60  1  0.87065729  0.35819145  0.64746346  1
  C  C61  1  0.49701312  0.12715965  0.64428052  1
  C  C62  1  0.64549608  0.51522917  0.63726763  1
  C  C63  1  0.87284035  0.50298688  0.14428052  1
  C  C64  1  0.64180855  0.12934271  0.14746346  1
  C  C65  1  0.48477083  0.35450392  0.13726763  1
  C  C66  1  0.44967572  0.30213614  0.02643899  1
  C  C67  1  0.83586917  0.54984494  0.02305242  1
  C  C68  1  0.70745873  0.18314852  0.02629033  1
  C  C69  1  0.45015506  0.16413083  0.52305242  1
  C  C70  1  0.69786386  0.55032428  0.52643899  1
  C  C71  1  0.81685148  0.29254127  0.52629033  1
  C  C72  1  0.53732329  0.69152545  0.98079746  1
  C  C73  1  0.16367912  0.46049365  0.97761452  1
  C  C74  1  0.31216208  0.84856317  0.97060163  1
  C  C75  1  0.53950635  0.83632088  0.47761452  1
  C  C76  1  0.30847455  0.46267671  0.48079746  1
  C  C77  1  0.15143683  0.68783792  0.47060163  1
  C  C78  1  0.11634172  0.63547014  0.35977299  1
  C  C79  1  0.50253517  0.88317894  0.35638642  1
  C  C80  1  0.37412473  0.51648252  0.35962433  1
  C  C81  1  0.11682106  0.49746483  0.85638642  1
  C  C82  1  0.36452986  0.88365828  0.85977299  1
  C  C83  1  0.48351748  0.62587527  0.85962433  1
  C  C84  1  0.02106891  0.81884419  0.41423279  1
  C  C85  1  0.82017194  0.97303309  0.41019455  1
  C  C86  1  0.17107302  0.18040062  0.41190793  1
  C  C87  1  0.02696691  0.17982806  0.91019455  1
  C  C88  1  0.18115581  0.97893109  0.91423279  1
  C  C89  1  0.81959938  0.82892698  0.91190793  1
  C  C90  1  0.96242335  0.14366977  0.59043494  1
  C  C91  1  0.18227888  0.03041077  0.58748987  1
  C  C92  1  0.82969835  0.80529897  0.58831057  1
  C  C93  1  0.96958923  0.81772112  0.08748987  1
  C  C94  1  0.85633023  0.03757665  0.09043494  1
  C  C95  1  0.19470103  0.17030165  0.08831057  1
  C  C96  1  0.68773591  0.15217719  0.74756579  1
  C  C97  1  0.48683894  0.30636609  0.74352755  1
  C  C98  1  0.83774002  0.51373362  0.74524093  1
  C  C99  1  0.69363391  0.51316106  0.24352755  1
  C  C100  1  0.84782281  0.31226409  0.24756579  1
  C  C101  1  0.48626638  0.16225998  0.24524093  1
  C  C102  1  0.62909035  0.47700277  0.92376794  1
  C  C103  1  0.84894588  0.36374377  0.92082287  1
  C  C104  1  0.49636535  0.13863197  0.92164357  1
  C  C105  1  0.63625623  0.15105412  0.42082287  1
  C  C106  1  0.52299723  0.37090965  0.42376794  1
  C  C107  1  0.86136803  0.50363465  0.42164357  1
  C  C108  1  0.35440191  0.48551119  0.08089979  1
  C  C109  1  0.15350494  0.63970009  0.07686155  1
  C  C110  1  0.50440602  0.84706762  0.07857493  1
  C  C111  1  0.36029991  0.84649506  0.57686155  1
  C  C112  1  0.51448881  0.64559809  0.58089979  1
  C  C113  1  0.15293238  0.49559398  0.57857493  1
  C  C114  1  0.29575635  0.81033677  0.25710194  1
  C  C115  1  0.51561188  0.69707777  0.25415687  1
  C  C116  1  0.16303135  0.47196597  0.25497757  1
  C  C117  1  0.30292223  0.48438812  0.75415687  1
  C  C118  1  0.18966323  0.70424365  0.75710194  1
  C  C119  1  0.52803403  0.83696865  0.75497757  1
