# generated using pymatgen
data_Cu3NiC10
_symmetry_space_group_name_H-M   'P 1'
_cell_length_a   8.30532900
_cell_length_b   8.30532900
_cell_length_c   8.30532900
_cell_angle_alpha   90.00000000
_cell_angle_beta   90.00000000
_cell_angle_gamma   90.00000000
_symmetry_Int_Tables_number   1
_chemical_formula_structural   Cu3NiC10
_chemical_formula_sum   'Cu12 Ni4 C40'
_cell_volume   572.88905170
_cell_formula_units_Z   4
loop_
 _symmetry_equiv_pos_site_id
 _symmetry_equiv_pos_as_xyz
  1  'x, y, z'
loop_
 _atom_site_type_symbol
 _atom_site_label
 _atom_site_symmetry_multiplicity
 _atom_site_fract_x
 _atom_site_fract_y
 _atom_site_fract_z
 _atom_site_occupancy
  C  C0  1  0.50321100  0.50321100  0.50321100  1
  C  C1  1  0.25321100  0.24678900  0.75321100  1
  C  C2  1  0.75321100  0.25321100  0.24678900  1
  C  C3  1  0.24678900  0.75321100  0.25321100  1
  C  C4  1  0.99678900  0.49678900  0.00321100  1
  C  C5  1  0.00321100  0.99678900  0.49678900  1
  C  C6  1  0.49678900  0.00321100  0.99678900  1
  C  C7  1  0.74678900  0.74678900  0.74678900  1
  Ni  Ni8  1  0.12500000  0.12500000  0.12500000  1
  Ni  Ni9  1  0.37500000  0.87500000  0.62500000  1
  Ni  Ni10  1  0.62500000  0.37500000  0.87500000  1
  Ni  Ni11  1  0.87500000  0.62500000  0.37500000  1
  Cu  Cu12  1  0.87744500  0.37255500  0.62500000  1
  Cu  Cu13  1  0.37255500  0.62500000  0.87744500  1
  Cu  Cu14  1  0.62744500  0.12500000  0.62255500  1
  Cu  Cu15  1  0.87255500  0.87500000  0.12255500  1
  Cu  Cu16  1  0.12255500  0.87255500  0.87500000  1
  Cu  Cu17  1  0.62255500  0.62744500  0.12500000  1
  Cu  Cu18  1  0.87500000  0.12255500  0.87255500  1
  Cu  Cu19  1  0.37500000  0.37744500  0.12744500  1
  Cu  Cu20  1  0.62500000  0.87744500  0.37255500  1
  Cu  Cu21  1  0.12744500  0.37500000  0.37744500  1
  Cu  Cu22  1  0.12500000  0.62255500  0.62744500  1
  Cu  Cu23  1  0.37744500  0.12744500  0.37500000  1
  C  C24  1  0.61587000  0.11587000  0.38413000  1
  C  C25  1  0.64954400  0.35670500  0.62383000  1
  C  C26  1  0.14954400  0.14329500  0.37617000  1
  C  C27  1  0.35670500  0.62383000  0.64954400  1
  C  C28  1  0.64329500  0.12383000  0.85045600  1
  C  C29  1  0.62383000  0.64954400  0.35670500  1
  C  C30  1  0.87617000  0.35045600  0.85670500  1
  C  C31  1  0.89954400  0.37383000  0.39329500  1
  C  C32  1  0.39954400  0.12617000  0.60670500  1
  C  C33  1  0.10045600  0.87383000  0.10670500  1
  C  C34  1  0.12617000  0.60670500  0.39954400  1
  C  C35  1  0.10670500  0.10045600  0.87383000  1
  C  C36  1  0.60670500  0.39954400  0.12617000  1
  C  C37  1  0.37383000  0.39329500  0.89954400  1
  C  C38  1  0.39329500  0.89954400  0.37383000  1
  C  C39  1  0.87383000  0.10670500  0.10045600  1
  C  C40  1  0.88413000  0.88413000  0.88413000  1
  C  C41  1  0.63413000  0.86587000  0.13413000  1
  C  C42  1  0.13413000  0.63413000  0.86587000  1
  C  C43  1  0.86587000  0.13413000  0.63413000  1
  C  C44  1  0.62617000  0.89329500  0.60045600  1
  C  C45  1  0.38413000  0.61587000  0.11587000  1
  C  C46  1  0.11587000  0.38413000  0.61587000  1
  C  C47  1  0.36587000  0.36587000  0.36587000  1
  C  C48  1  0.89329500  0.60045600  0.62617000  1
  C  C49  1  0.35045600  0.85670500  0.87617000  1
  C  C50  1  0.85045600  0.64329500  0.12383000  1
  C  C51  1  0.14329500  0.37617000  0.14954400  1
  C  C52  1  0.85670500  0.87617000  0.35045600  1
  C  C53  1  0.12383000  0.85045600  0.64329500  1
  C  C54  1  0.37617000  0.14954400  0.14329500  1
  C  C55  1  0.60045600  0.62617000  0.89329500  1
