# generated using pymatgen
data_Cu2Ni4C7
_symmetry_space_group_name_H-M   'P 1'
_cell_length_a   3.33862601
_cell_length_b   3.33775882
_cell_length_c   45.57874309
_cell_angle_alpha   89.99339181
_cell_angle_beta   90.00170220
_cell_angle_gamma   119.99824755
_symmetry_Int_Tables_number   1
_chemical_formula_structural   Cu2Ni4C7
_chemical_formula_sum   'Cu2 Ni4 C7'
_cell_volume   439.86901090
_cell_formula_units_Z   1
loop_
 _symmetry_equiv_pos_site_id
 _symmetry_equiv_pos_as_xyz
  1  'x, y, z'
loop_
 _atom_site_type_symbol
 _atom_site_label
 _atom_site_symmetry_multiplicity
 _atom_site_fract_x
 _atom_site_fract_y
 _atom_site_fract_z
 _atom_site_occupancy
  C  C0  1  0.99997100  0.00000400  0.55989400  1
  C  C1  1  0.66637900  0.33326600  0.05224700  1
  C  C2  1  0.66643400  0.33314500  0.13565400  1
  C  C3  1  0.33324100  0.66665400  0.09394100  1
  C  C4  1  0.33351100  0.66673200  0.46268700  1
  C  C5  1  0.66666300  0.33334300  0.28189900  1
  C  C6  1  0.66660500  0.33327200  0.66571300  1
  Ni  Ni7  1  0.33343100  0.66668000  0.70246000  1
  Ni  Ni8  1  0.66667300  0.33333900  0.42618700  1
  Ni  Ni9  1  0.66673400  0.33322300  0.49987300  1
  Ni  Ni10  1  0.33345800  0.66680200  0.62863500  1
  Cu  Cu11  1  0.33344400  0.66671100  0.31521400  1
  Cu  Cu12  1  0.33345500  0.66682800  0.24857800  1
