# generated using pymatgen
data_Cu6NiC12
_symmetry_space_group_name_H-M   'P 1'
_cell_length_a   8.05533094
_cell_length_b   5.81552331
_cell_length_c   5.79501306
_cell_angle_alpha   67.37153593
_cell_angle_beta   67.86262757
_cell_angle_gamma   68.05177271
_symmetry_Int_Tables_number   1
_chemical_formula_structural   Cu6NiC12
_chemical_formula_sum   'Cu6 Ni1 C12'
_cell_volume   223.63908979
_cell_formula_units_Z   1
loop_
 _symmetry_equiv_pos_site_id
 _symmetry_equiv_pos_as_xyz
  1  'x, y, z'
loop_
 _atom_site_type_symbol
 _atom_site_label
 _atom_site_symmetry_multiplicity
 _atom_site_fract_x
 _atom_site_fract_y
 _atom_site_fract_z
 _atom_site_occupancy
  Ni  Ni0  1  0.49936389  0.97566267  0.50588581  1
  Cu  Cu1  1  0.85478066  0.68604042  0.70245331  1
  Cu  Cu2  1  0.68308642  0.36081640  0.33467184  1
  Cu  Cu3  1  0.24790092  0.63347782  0.56884742  1
  Cu  Cu4  1  0.13512865  0.32865144  0.29429699  1
  Cu  Cu5  1  0.50635489  0.99858111  0.98792170  1
  Cu  Cu6  1  0.00678764  0.97618123  0.03812933  1
  C  C7  1  0.66979873  0.04797233  0.63799652  1
  C  C8  1  0.95042096  0.22835290  0.21606831  1
  C  C9  1  0.03447531  0.75500393  0.82481047  1
  C  C10  1  0.41854302  0.39278550  0.40013862  1
  C  C11  1  0.33661860  0.95047586  0.33730475  1
  C  C12  1  0.67147524  0.65229741  0.02680703  1
  C  C13  1  0.04484622  0.69275371  0.36312880  1
  C  C14  1  0.34139142  0.36373115  0.91187681  1
  C  C15  1  0.31646708  0.92473034  0.85310831  1
  C  C16  1  0.66871951  0.61267570  0.54958308  1
  C  C17  1  0.69151760  0.06775661  0.14386438  1
  C  C18  1  0.99375025  0.28062145  0.71977550  1
