# generated using pymatgen
data_Cu3NiC6
_symmetry_space_group_name_H-M   'P 1'
_cell_length_a   5.53603548
_cell_length_b   5.20271854
_cell_length_c   6.29403861
_cell_angle_alpha   90.00000064
_cell_angle_beta   94.42152703
_cell_angle_gamma   118.02753665
_symmetry_Int_Tables_number   1
_chemical_formula_structural   Cu3NiC6
_chemical_formula_sum   'Cu3 Ni1 C6'
_cell_volume   159.41156081
_cell_formula_units_Z   1
loop_
 _symmetry_equiv_pos_site_id
 _symmetry_equiv_pos_as_xyz
  1  'x, y, z'
loop_
 _atom_site_type_symbol
 _atom_site_label
 _atom_site_symmetry_multiplicity
 _atom_site_fract_x
 _atom_site_fract_y
 _atom_site_fract_z
 _atom_site_occupancy
  Ni  Ni0  1  0.00000000  0.31623100  0.16666700  1
  Cu  Cu1  1  0.57582900  0.56484600  0.00866300  1
  Cu  Cu2  1  0.00000000  0.47174100  0.66666700  1
  Cu  Cu3  1  0.42417100  0.98901800  0.32467000  1
  C  C4  1  0.34200400  0.27368700  0.19641900  1
  C  C5  1  0.11678400  0.64372000  0.39243900  1
  C  C6  1  0.88321600  0.52693600  0.94089500  1
  C  C7  1  0.31738100  0.46642600  0.78489000  1
  C  C8  1  0.68261900  0.14904500  0.54844300  1
  C  C9  1  0.65799600  0.93168200  0.13691400  1
