# generated using pymatgen
data_CuNiC14
_symmetry_space_group_name_H-M   'P 1'
_cell_length_a   5.41490099
_cell_length_b   5.58842925
_cell_length_c   9.06832800
_cell_angle_alpha   78.41025334
_cell_angle_beta   108.17052876
_cell_angle_gamma   119.17822139
_symmetry_Int_Tables_number   1
_chemical_formula_structural   CuNiC14
_chemical_formula_sum   'Cu1 Ni1 C14'
_cell_volume   227.25033761
_cell_formula_units_Z   1
loop_
 _symmetry_equiv_pos_site_id
 _symmetry_equiv_pos_as_xyz
  1  'x, y, z'
loop_
 _atom_site_type_symbol
 _atom_site_label
 _atom_site_symmetry_multiplicity
 _atom_site_fract_x
 _atom_site_fract_y
 _atom_site_fract_z
 _atom_site_occupancy
  C  C0  1  0.38128620  0.57762697  0.12706746  1
  C  C1  1  0.74591428  0.43303909  0.90145625  1
  C  C2  1  0.97932406  0.20583076  0.58354955  1
  C  C3  1  0.62196417  0.55734026  0.51980813  1
  Ni  Ni4  1  0.14212405  0.88381409  0.31961502  1
  Cu  Cu5  1  0.01248015  1.00009918  0.92668082  1
  C  C6  1  0.37718604  0.83450135  0.71501008  1
  C  C7  1  0.68743241  0.18844652  0.23426078  1
  C  C8  1  0.56735501  0.20719115  0.38982320  1
  C  C9  1  0.25299460  0.11240205  0.11309035  1
  C  C10  1  0.21781945  0.62222556  0.85790341  1
  C  C11  1  0.72408683  0.84744949  0.74619409  1
  C  C12  1  0.98555836  0.51995565  0.21455093  1
  C  C13  1  0.80631493  0.92983323  0.33011531  1
  C  C14  1  0.41455928  0.16049567  0.70311162  1
  C  C15  1  0.18360017  0.68016596  0.53998500  1
