# generated using pymatgen
data_Cu11NiC62
_symmetry_space_group_name_H-M   'P 1'
_cell_length_a   17.30342378
_cell_length_b   8.65784420
_cell_length_c   22.26960349
_cell_angle_alpha   89.83787775
_cell_angle_beta   90.19869156
_cell_angle_gamma   119.84740314
_symmetry_Int_Tables_number   1
_chemical_formula_structural   Cu11NiC62
_chemical_formula_sum   'Cu33 Ni3 C186'
_cell_volume   2893.66140936
_cell_formula_units_Z   3
loop_
 _symmetry_equiv_pos_site_id
 _symmetry_equiv_pos_as_xyz
  1  'x, y, z'
loop_
 _atom_site_type_symbol
 _atom_site_label
 _atom_site_symmetry_multiplicity
 _atom_site_fract_x
 _atom_site_fract_y
 _atom_site_fract_z
 _atom_site_occupancy
  C  C0  1  0.68481802  0.36427756  0.24436978  1
  C  C1  1  0.99391746  0.63537751  0.25392314  1
  C  C2  1  0.33434218  0.96476180  0.59151727  1
  C  C3  1  0.83518327  0.96565671  0.59153866  1
  C  C4  1  0.33313979  0.69399243  0.08117365  1
  C  C5  1  0.34601740  0.66462777  0.41353117  1
  C  C6  1  0.00694395  0.99816217  0.49726458  1
  C  C7  1  0.51118020  0.01575030  0.50024083  1
  C  C8  1  0.99965462  0.99874764  0.99909175  1
  C  C9  1  0.50886053  0.01428688  0.00047021  1
  C  C10  1  0.33372146  0.32648589  0.83571305  1
  C  C11  1  0.83325088  0.32685563  0.83576962  1
  C  C12  1  0.32939322  0.32078923  0.32989708  1
  C  C13  1  0.83701646  0.33853647  0.33361804  1
  C  C14  1  0.16781795  0.67006435  0.16556619  1
  C  C15  1  0.66807675  0.67505274  0.16093202  1
  C  C16  1  0.16764284  0.66811622  0.67475144  1
  C  C17  1  0.66864918  0.66887713  0.67523286  1
  C  C18  1  0.99988065  0.99427467  0.35235388  1
  C  C19  1  0.49958720  0.00261482  0.34992147  1
  C  C20  1  0.99976960  0.99908261  0.65081066  1
  C  C21  1  0.50020312  0.99911023  0.65098778  1
  C  C22  1  0.50288878  0.00472516  0.14840087  1
  C  C23  1  0.33450875  0.33461705  0.18315105  1
  C  C24  1  0.83299223  0.33311763  0.18274426  1
  C  C25  1  0.33249967  0.32886242  0.98115968  1
  C  C26  1  0.83328051  0.33359680  0.98214392  1
  C  C27  1  0.33153061  0.32597590  0.48096086  1
  C  C28  1  0.83446103  0.33669803  0.47859702  1
  C  C29  1  0.16246054  0.66959134  0.01458781  1
  C  C30  1  0.66736470  0.66669330  0.01565812  1
  C  C31  1  0.16209793  0.65930307  0.51801333  1
  C  C32  1  0.66490127  0.66149349  0.52021060  1
  C  C33  1  0.16812280  0.66669319  0.31526321  1
  C  C34  1  0.16988812  0.67356752  0.81435226  1
  C  C35  1  0.67036516  0.67390704  0.81441830  1
  Ni  Ni36  1  0.85346667  0.70898282  0.25257765  1
  Ni  Ni37  1  0.35240133  0.99581235  0.74562116  1
  Ni  Ni38  1  0.85205233  0.99697886  0.74547567  1
  C  C39  1  0.99389220  0.00429728  0.84978718  1
  C  C40  1  0.49566943  0.00682776  0.84989626  1
  C  C41  1  0.98998192  0.99007057  0.15065197  1
  C  C42  1  0.33466907  0.32795866  0.69041652  1
  C  C43  1  0.83568643  0.33027530  0.68966961  1
  C  C44  1  0.67243563  0.67462509  0.31488222  1
  Cu  Cu45  1  0.14583195  0.00468079  0.24881496  1
  Cu  Cu46  1  0.64543030  0.99224499  0.25252350  1
  Cu  Cu47  1  0.35191674  0.70411379  0.25014032  1
  Cu  Cu48  1  0.00110353  0.28845390  0.24882496  1
  Cu  Cu49  1  0.49948974  0.29726686  0.25282393  1
  Cu  Cu50  1  0.14622618  0.28923726  0.74926667  1
  Cu  Cu51  1  0.64651589  0.28952459  0.74914867  1
  Cu  Cu52  1  0.99774693  0.70736268  0.74949725  1
  Cu  Cu53  1  0.49769275  0.70706735  0.74937313  1
  Cu  Cu54  1  0.47978971  0.33865908  0.58396454  1
  Cu  Cu55  1  0.97948554  0.33788973  0.58376266  1
  Cu  Cu56  1  0.18721173  0.04528270  0.58421150  1
  Cu  Cu57  1  0.68812996  0.04754442  0.58316046  1
  Cu  Cu58  1  0.33434453  0.61877341  0.58323334  1
  Cu  Cu59  1  0.83398863  0.61720614  0.58457796  1
  Cu  Cu60  1  0.48132273  0.62596278  0.08325842  1
  Cu  Cu61  1  0.98221332  0.63553886  0.08594859  1
  Cu  Cu62  1  0.33251729  0.03883697  0.08339913  1
  Cu  Cu63  1  0.83583372  0.04098508  0.08461409  1
  Cu  Cu64  1  0.18125585  0.32460180  0.08523663  1
  Cu  Cu65  1  0.68540451  0.33338258  0.08346455  1
  Cu  Cu66  1  0.31695016  0.67050606  0.91630307  1
  Cu  Cu67  1  0.81660976  0.67040666  0.91505042  1
  Cu  Cu68  1  0.02032772  0.36944796  0.91472502  1
  Cu  Cu69  1  0.52068454  0.36996212  0.91432439  1
  Cu  Cu70  1  0.16204470  0.96272803  0.91345609  1
  Cu  Cu71  1  0.66256584  0.96180745  0.91402756  1
  Cu  Cu72  1  0.31408662  0.96225384  0.41786895  1
  Cu  Cu73  1  0.81146866  0.95774055  0.41788499  1
  Cu  Cu74  1  0.16553905  0.37010354  0.41722993  1
  Cu  Cu75  1  0.66569625  0.37595545  0.41560199  1
  Cu  Cu76  1  0.01979001  0.66715379  0.41603354  1
  Cu  Cu77  1  0.52386677  0.66780779  0.41516211  1
  C  C78  1  0.10773126  0.03411419  0.30266923  1
  C  C79  1  0.60590250  0.02633104  0.30549352  1
  C  C80  1  0.40441285  0.78639509  0.30583077  1
  C  C81  1  0.91819528  0.79248242  0.30769724  1
  C  C82  1  0.48853959  0.19278449  0.30694152  1
  C  C83  1  0.99077579  0.18338390  0.30242597  1
  C  C84  1  0.10974965  0.17256229  0.80431779  1
  C  C85  1  0.60987855  0.17266936  0.80440092  1
  C  C86  1  0.48206071  0.78726273  0.80464890  1
  C  C87  1  0.98227542  0.78788458  0.80481059  1
  C  C88  1  0.42083610  0.04136988  0.80578647  1
  C  C89  1  0.92044131  0.04280677  0.80574495  1
  C  C90  1  0.39396065  0.97692114  0.68421193  1
  C  C91  1  0.89383394  0.97705572  0.68440152  1
  C  C92  1  0.09574323  0.20670430  0.69505787  1
  C  C93  1  0.59556116  0.20662349  0.69510416  1
  C  C94  1  0.01304293  0.81405054  0.69567383  1
  C  C95  1  0.51281188  0.81321483  0.69546752  1
  C  C96  1  0.39553239  0.81345249  0.19630367  1
  C  C97  1  0.89411351  0.83273049  0.19034625  1
  C  C98  1  0.01844309  0.20970110  0.19271394  1
  C  C99  1  0.51957223  0.22237980  0.19966796  1
  C  C100  1  0.08533763  0.96773185  0.19375980  1
  C  C101  1  0.59224699  0.96327175  0.19799735  1
  C  C102  1  0.43788757  0.36540754  0.63977765  1
  C  C103  1  0.93765962  0.36614284  0.63980520  1
  C  C104  1  0.24745180  0.12864698  0.63922473  1
  C  C105  1  0.74725890  0.12964989  0.63836285  1
  C  C106  1  0.32035961  0.50521563  0.63850161  1
  C  C107  1  0.81928566  0.50660682  0.64122884  1
  C  C108  1  0.44058749  0.52053563  0.13801940  1
  C  C109  1  0.94376230  0.53553046  0.14173847  1
  C  C110  1  0.32040646  0.11968831  0.13775071  1
  C  C111  1  0.82550708  0.12147569  0.13916769  1
  C  C112  1  0.23779943  0.35726915  0.13865684  1
  C  C113  1  0.73503908  0.35309602  0.14034313  1
  C  C114  1  0.22021514  0.29524120  0.03103841  1
  C  C115  1  0.73038760  0.31009524  0.03147692  1
  C  C116  1  0.42303786  0.54237460  0.03047762  1
  C  C117  1  0.92660817  0.55409542  0.03279492  1
  C  C118  1  0.34365552  0.14398672  0.02921894  1
  C  C119  1  0.84984008  0.14829461  0.03050465  1
  C  C120  1  0.22849769  0.15169044  0.53047263  1
  C  C121  1  0.72931981  0.15353272  0.52921131  1
  C  C122  1  0.34345032  0.53612862  0.52812068  1
  C  C123  1  0.84200854  0.52937784  0.53123480  1
  C  C124  1  0.42245676  0.30817500  0.53134134  1
  C  C125  1  0.92115592  0.30505089  0.53148305  1
  C  C126  1  0.28001811  0.70033733  0.97240360  1
  C  C127  1  0.77873837  0.70347281  0.96911815  1
  C  C128  1  0.07351721  0.44686769  0.96940381  1
  C  C129  1  0.57343023  0.44694070  0.96903241  1
  C  C130  1  0.14647026  0.85739470  0.96873402  1
  C  C131  1  0.64704637  0.85572031  0.96905293  1
  C  C132  1  0.27478447  0.85484686  0.47342448  1
  C  C133  1  0.76975177  0.85026727  0.47196833  1
  C  C134  1  0.15610316  0.45408222  0.47199812  1
  C  C135  1  0.65376871  0.46331562  0.46787428  1
  C  C136  1  0.07437440  0.68391912  0.46907546  1
  C  C137  1  0.57708684  0.69214444  0.46885967  1
  C  C138  1  0.05976345  0.64605685  0.35973624  1
  C  C139  1  0.56571773  0.63873617  0.35951650  1
  C  C140  1  0.25977238  0.87529792  0.36459501  1
  C  C141  1  0.75246525  0.87154666  0.36221468  1
  C  C142  1  0.18124466  0.48431721  0.36392235  1
  C  C143  1  0.67898499  0.48549880  0.35781723  1
  C  C144  1  0.06178101  0.47385448  0.86087038  1
  C  C145  1  0.56227397  0.47357351  0.86043644  1
  C  C146  1  0.17407220  0.87850996  0.86076046  1
  C  C147  1  0.67398612  0.87810067  0.86079667  1
  C  C148  1  0.26208246  0.64824309  0.86381249  1
  C  C149  1  0.76402124  0.64673014  0.86107895  1
  C  C150  1  0.01251425  0.82996207  0.41429046  1
  C  C151  1  0.51244782  0.82596248  0.40861714  1
  C  C152  1  0.40353326  0.97457416  0.41271760  1
  C  C153  1  0.89926288  0.97557777  0.41054714  1
  C  C154  1  0.08675957  0.19257685  0.41129844  1
  C  C155  1  0.58606146  0.19976826  0.40900719  1
  C  C156  1  0.01457422  0.18529232  0.91013634  1
  C  C157  1  0.51499569  0.18509639  0.90998977  1
  C  C158  1  0.07708105  0.97797141  0.90657750  1
  C  C159  1  0.57706763  0.97696013  0.90703633  1
  C  C160  1  0.40934267  0.83816121  0.91009263  1
  C  C161  1  0.90991715  0.83926095  0.90926795  1
  C  C162  1  0.48950193  0.17823982  0.58851469  1
  C  C163  1  0.98934300  0.17797228  0.58905014  1
  C  C164  1  0.09915792  0.02579016  0.59170900  1
  C  C165  1  0.59953920  0.02721434  0.59050174  1
  C  C166  1  0.41521265  0.79676164  0.58749118  1
  C  C167  1  0.91452716  0.79506953  0.58848827  1
  C  C168  1  0.48813342  0.80497062  0.08900210  1
  C  C169  1  0.99127032  0.82182350  0.09087035  1
  C  C170  1  0.41228766  0.01504279  0.08908791  1
  C  C171  1  0.92283485  0.03027609  0.08894293  1
  C  C172  1  0.09015296  0.16085850  0.09276555  1
  C  C173  1  0.59542633  0.17266748  0.08814960  1
  C  C174  1  0.34605715  0.18715308  0.74313702  1
  C  C175  1  0.84580232  0.18824469  0.74267473  1
  C  C176  1  0.24015158  0.31487608  0.74404839  1
  C  C177  1  0.73985181  0.31431729  0.74401809  1
  C  C178  1  0.41053529  0.52871809  0.74369958  1
  C  C179  1  0.91094233  0.52933316  0.74396712  1
  C  C180  1  0.34278765  0.52518705  0.24525766  1
  C  C181  1  0.83719505  0.50848764  0.24324778  1
  C  C182  1  0.42126417  0.31900497  0.24546577  1
  C  C183  1  0.92106745  0.30619237  0.24157793  1
  C  C184  1  0.23493351  0.15829527  0.23979805  1
  C  C185  1  0.73604757  0.14534474  0.24609917  1
  C  C186  1  0.32942766  0.51471183  0.92232649  1
  C  C187  1  0.83047710  0.51664783  0.92211818  1
  C  C188  1  0.42928420  0.33984258  0.92021810  1
  C  C189  1  0.92926207  0.34066466  0.92129257  1
  C  C190  1  0.23946480  0.14367030  0.92027855  1
  C  C191  1  0.73976817  0.14275301  0.92086995  1
  C  C192  1  0.32533843  0.14178970  0.42238074  1
  C  C193  1  0.81727529  0.13305837  0.42044084  1
  C  C194  1  0.24866405  0.35590774  0.42173535  1
  C  C195  1  0.74647151  0.36095458  0.41906126  1
  C  C196  1  0.43337972  0.50896237  0.41849579  1
  C  C197  1  0.93000470  0.50603516  0.42074417  1
  C  C198  1  0.17231714  0.48670279  0.07822669  1
  C  C199  1  0.67670762  0.49455304  0.07745174  1
  C  C200  1  0.07212361  0.65917093  0.07898920  1
  C  C201  1  0.57087985  0.64781069  0.07636546  1
  C  C202  1  0.25348889  0.85448532  0.07785001  1
  C  C203  1  0.75941643  0.85939122  0.07830638  1
  C  C204  1  0.18178632  0.86832802  0.58011237  1
  C  C205  1  0.68221401  0.86982996  0.57922552  1
  C  C206  1  0.25498167  0.64276545  0.58041401  1
  C  C207  1  0.75456382  0.64179042  0.58137598  1
  C  C208  1  0.06722369  0.49875124  0.57960564  1
  C  C209  1  0.56768215  0.49941760  0.57940277  1
  C  C210  1  0.15081671  0.83762864  0.25293822  1
  C  C211  1  0.65035683  0.82263811  0.25999835  1
  C  C212  1  0.26274253  0.68833446  0.25474797  1
  C  C213  1  0.75042426  0.68467128  0.25901785  1
  C  C214  1  0.07948909  0.47140604  0.25226100  1
  C  C215  1  0.58351149  0.48142277  0.25903695  1
  C  C216  1  0.15363330  0.46269971  0.75779376  1
  C  C217  1  0.65342475  0.46266711  0.75764611  1
  C  C218  1  0.07107475  0.67249390  0.75796107  1
  C  C219  1  0.57087562  0.67185024  0.75782215  1
  C  C220  1  0.25526595  0.83091324  0.75550672  1
  C  C221  1  0.75490905  0.83201317  0.75534819  1
