# generated using pymatgen
data_CuNiC19
_symmetry_space_group_name_H-M   'P 1'
_cell_length_a   8.98751219
_cell_length_b   8.98751188
_cell_length_c   21.54694375
_cell_angle_alpha   90.00000000
_cell_angle_beta   90.00000000
_cell_angle_gamma   120.00000110
_symmetry_Int_Tables_number   1
_chemical_formula_structural   CuNiC19
_chemical_formula_sum   'Cu6 Ni6 C114'
_cell_volume   1507.28464439
_cell_formula_units_Z   6
loop_
 _symmetry_equiv_pos_site_id
 _symmetry_equiv_pos_as_xyz
  1  'x, y, z'
loop_
 _atom_site_type_symbol
 _atom_site_label
 _atom_site_symmetry_multiplicity
 _atom_site_fract_x
 _atom_site_fract_y
 _atom_site_fract_z
 _atom_site_occupancy
  C  C0  1  0.63825803  0.00892318  0.24727535  1
  C  C1  1  0.37066515  0.36174197  0.24727535  1
  C  C2  1  0.99107682  0.62933485  0.24727535  1
  C  C3  1  0.63825803  0.62933485  0.74727535  1
  C  C4  1  0.99107682  0.36174197  0.74727535  1
  C  C5  1  0.37066515  0.00892318  0.74727535  1
  C  C6  1  0.30492503  0.34225618  0.58060835  1
  C  C7  1  0.03733215  0.69507497  0.58060835  1
  C  C8  1  0.65774382  0.96266785  0.58060835  1
  C  C9  1  0.30492503  0.96266785  0.08060835  1
  C  C10  1  0.65774382  0.69507497  0.08060835  1
  C  C11  1  0.03733215  0.34225618  0.08060835  1
  C  C12  1  0.97159103  0.67559018  0.91394235  1
  C  C13  1  0.70399815  0.02840897  0.91394235  1
  C  C14  1  0.32440982  0.29600185  0.91394235  1
  C  C15  1  0.97159103  0.29600185  0.41394235  1
  C  C16  1  0.32440982  0.02840897  0.41394235  1
  C  C17  1  0.70399815  0.67559018  0.41394235  1
  C  C18  1  0.00000000  0.00000000  0.49688803  1
  C  C19  1  0.00000000  0.00000000  0.99688803  1
  C  C20  1  0.66666700  0.33333300  0.83022103  1
  C  C21  1  0.66666700  0.33333300  0.33022103  1
  C  C22  1  0.33333300  0.66666700  0.16355503  1
  C  C23  1  0.33333300  0.66666700  0.66355503  1
  Ni  Ni24  1  0.00000000  0.00000000  0.34662227  1
  Ni  Ni25  1  0.00000000  0.00000000  0.84662227  1
  Ni  Ni26  1  0.66666700  0.33333300  0.67995527  1
  Ni  Ni27  1  0.66666700  0.33333300  0.17995527  1
  Ni  Ni28  1  0.33333300  0.66666700  0.01328927  1
  Ni  Ni29  1  0.33333300  0.66666700  0.51328927  1
  Cu  Cu30  1  0.00000000  0.00000000  0.65036830  1
  Cu  Cu31  1  0.00000000  0.00000000  0.15036830  1
  Cu  Cu32  1  0.66666700  0.33333300  0.98370130  1
  Cu  Cu33  1  0.66666700  0.33333300  0.48370130  1
  Cu  Cu34  1  0.33333300  0.66666700  0.31703530  1
  Cu  Cu35  1  0.33333300  0.66666700  0.81703530  1
  C  C36  1  0.29317009  0.99264787  0.25129506  1
  C  C37  1  0.69947778  0.70682991  0.25129506  1
  C  C38  1  0.00735213  0.30052222  0.25129506  1
  C  C39  1  0.29317009  0.30052222  0.75129506  1
  C  C40  1  0.00735213  0.70682991  0.75129506  1
  C  C41  1  0.69947778  0.99264787  0.75129506  1
  C  C42  1  0.95983709  0.32598087  0.58462806  1
  C  C43  1  0.36614478  0.04016291  0.58462806  1
  C  C44  1  0.67401913  0.63385522  0.58462806  1
  C  C45  1  0.95983709  0.63385522  0.08462806  1
  C  C46  1  0.67401913  0.04016291  0.08462806  1
  C  C47  1  0.36614478  0.32598087  0.08462806  1
  C  C48  1  0.62650309  0.65931487  0.91796206  1
  C  C49  1  0.03281078  0.37349691  0.91796206  1
  C  C50  1  0.34068513  0.96718922  0.91796206  1
  C  C51  1  0.62650309  0.96718922  0.41796206  1
  C  C52  1  0.34068513  0.37349691  0.41796206  1
  C  C53  1  0.03281078  0.65931487  0.41796206  1
  C  C54  1  0.21360288  0.01709999  0.31057099  1
  C  C55  1  0.80349711  0.78639712  0.31057099  1
  C  C56  1  0.98290001  0.19650289  0.31057099  1
  C  C57  1  0.21360288  0.19650289  0.81057099  1
  C  C58  1  0.98290001  0.78639712  0.81057099  1
  C  C59  1  0.80349711  0.01709999  0.81057099  1
  C  C60  1  0.78923642  0.96723463  0.69292238  1
  C  C61  1  0.17799821  0.21076358  0.69292238  1
  C  C62  1  0.03276537  0.82200179  0.69292238  1
  C  C63  1  0.78923642  0.82200179  0.19292238  1
  C  C64  1  0.03276537  0.21076358  0.19292238  1
  C  C65  1  0.17799821  0.96723463  0.19292238  1
  C  C66  1  0.88026988  0.35043299  0.64390399  1
  C  C67  1  0.47016411  0.11973012  0.64390399  1
  C  C68  1  0.64956701  0.52983589  0.64390399  1
  C  C69  1  0.88026988  0.52983589  0.14390399  1
  C  C70  1  0.64956701  0.11973012  0.14390399  1
  C  C71  1  0.47016411  0.35043299  0.14390399  1
  C  C72  1  0.45590342  0.30056763  0.02625538  1
  C  C73  1  0.84466521  0.54409658  0.02625538  1
  C  C74  1  0.69943237  0.15533479  0.02625538  1
  C  C75  1  0.45590342  0.15533479  0.52625538  1
  C  C76  1  0.69943237  0.54409658  0.52625538  1
  C  C77  1  0.84466521  0.30056763  0.52625538  1
  C  C78  1  0.54693588  0.68376699  0.97723799  1
  C  C79  1  0.13683011  0.45306412  0.97723799  1
  C  C80  1  0.31623301  0.86316989  0.97723799  1
  C  C81  1  0.54693588  0.86316989  0.47723799  1
  C  C82  1  0.31623301  0.45306412  0.47723799  1
  C  C83  1  0.13683011  0.68376699  0.47723799  1
  C  C84  1  0.12256942  0.63390163  0.35958938  1
  C  C85  1  0.51133121  0.87743058  0.35958938  1
  C  C86  1  0.36609837  0.48866879  0.35958938  1
  C  C87  1  0.12256942  0.48866879  0.85958938  1
  C  C88  1  0.36609837  0.87743058  0.85958938  1
  C  C89  1  0.51133121  0.63390163  0.85958938  1
  C  C90  1  0.00807632  0.81688448  0.41326310  1
  C  C91  1  0.80880817  0.99192368  0.41326310  1
  C  C92  1  0.18311552  0.19119183  0.41326310  1
  C  C93  1  0.00807632  0.19119183  0.91326310  1
  C  C94  1  0.18311552  0.99192368  0.91326310  1
  C  C95  1  0.80880817  0.81688448  0.91326310  1
  C  C96  1  0.97150441  0.15689461  0.58671360  1
  C  C97  1  0.18539021  0.02849559  0.58671360  1
  C  C98  1  0.84310539  0.81460979  0.58671360  1
  C  C99  1  0.97150441  0.81460979  0.08671360  1
  C  C100  1  0.84310539  0.02849559  0.08671360  1
  C  C101  1  0.18539021  0.15689461  0.08671360  1
  C  C102  1  0.67474332  0.15021748  0.74659610  1
  C  C103  1  0.47547517  0.32525668  0.74659610  1
  C  C104  1  0.84978252  0.52452483  0.74659610  1
  C  C105  1  0.67474332  0.52452483  0.24659610  1
  C  C106  1  0.84978252  0.32525668  0.24659610  1
  C  C107  1  0.47547517  0.15021748  0.24659610  1
  C  C108  1  0.63817141  0.49022761  0.92004660  1
  C  C109  1  0.85205721  0.36182859  0.92004660  1
  C  C110  1  0.50977239  0.14794279  0.92004660  1
  C  C111  1  0.63817141  0.14794279  0.42004660  1
  C  C112  1  0.50977239  0.36182859  0.42004660  1
  C  C113  1  0.85205721  0.49022761  0.42004660  1
  C  C114  1  0.34140932  0.48355148  0.07993010  1
  C  C115  1  0.14214117  0.65859068  0.07993010  1
  C  C116  1  0.51644852  0.85785883  0.07993010  1
  C  C117  1  0.34140932  0.85785883  0.57993010  1
  C  C118  1  0.51644852  0.65859068  0.57993010  1
  C  C119  1  0.14214117  0.48355148  0.57993010  1
  C  C120  1  0.30483741  0.82356161  0.25338060  1
  C  C121  1  0.51872321  0.69516259  0.25338060  1
  C  C122  1  0.17643839  0.48127679  0.25338060  1
  C  C123  1  0.30483741  0.48127679  0.75338060  1
  C  C124  1  0.17643839  0.69516259  0.75338060  1
  C  C125  1  0.51872321  0.82356161  0.75338060  1
