# generated using pymatgen
data_CuNi3C8
_symmetry_space_group_name_H-M   'P 1'
_cell_length_a   4.68143800
_cell_length_b   7.55763000
_cell_length_c   13.88605300
_cell_angle_alpha   90.00000000
_cell_angle_beta   90.00000000
_cell_angle_gamma   90.00000000
_symmetry_Int_Tables_number   1
_chemical_formula_structural   CuNi3C8
_chemical_formula_sum   'Cu4 Ni12 C32'
_cell_volume   491.29655728
_cell_formula_units_Z   4
loop_
 _symmetry_equiv_pos_site_id
 _symmetry_equiv_pos_as_xyz
  1  'x, y, z'
loop_
 _atom_site_type_symbol
 _atom_site_label
 _atom_site_symmetry_multiplicity
 _atom_site_fract_x
 _atom_site_fract_y
 _atom_site_fract_z
 _atom_site_occupancy
  C  C0  1  0.05022300  0.46085400  0.49415200  1
  C  C1  1  0.55022300  0.03914600  0.50584800  1
  C  C2  1  0.94977700  0.96085400  0.00584800  1
  C  C3  1  0.44977700  0.53914600  0.99415200  1
  C  C4  1  0.21625300  0.59665500  0.57733000  1
  C  C5  1  0.71625300  0.90334500  0.42267000  1
  C  C6  1  0.78374700  0.09665500  0.92267000  1
  C  C7  1  0.28374700  0.40334500  0.07733000  1
  C  C8  1  0.85744700  0.56849400  0.58395300  1
  C  C9  1  0.35744700  0.93150600  0.41604700  1
  C  C10  1  0.14255300  0.06849400  0.91604700  1
  C  C11  1  0.64255300  0.43150600  0.08395300  1
  C  C12  1  0.32041900  0.32877500  0.62966500  1
  C  C13  1  0.62699200  0.03758700  0.16561800  1
  C  C14  1  0.67958100  0.82877500  0.87033500  1
  C  C15  1  0.17958100  0.67122500  0.12966500  1
  C  C16  1  0.20776000  0.05604400  0.69169500  1
  C  C17  1  0.70776000  0.44395600  0.30830500  1
  C  C18  1  0.79224000  0.55604400  0.80830500  1
  C  C19  1  0.29224000  0.94395600  0.19169500  1
  C  C20  1  0.87300800  0.96241300  0.66561800  1
  C  C21  1  0.37300800  0.53758700  0.33438200  1
  C  C22  1  0.12699200  0.46241300  0.83438200  1
  C  C23  1  0.82041900  0.17122500  0.37033500  1
  C  C24  1  0.58463000  0.78025500  0.12455200  1
  C  C25  1  0.41537000  0.28025500  0.37544800  1
  C  C26  1  0.08463000  0.71974500  0.87544800  1
  C  C27  1  0.91537000  0.21974500  0.62455200  1
  Ni  Ni28  1  0.44960400  0.49667800  0.06564700  1
  Ni  Ni29  1  0.55039600  0.99667800  0.43435300  1
  Ni  Ni30  1  0.94960400  0.00332200  0.93435300  1
  Ni  Ni31  1  0.05039600  0.50332200  0.56564700  1
  Ni  Ni32  1  0.10578500  0.36062900  0.62981000  1
  Ni  Ni33  1  0.60578500  0.13937100  0.37019000  1
  Ni  Ni34  1  0.89421500  0.86062900  0.87019000  1
  Ni  Ni35  1  0.39421500  0.63937100  0.12981000  1
  Ni  Ni36  1  0.48997700  0.93221300  0.16229600  1
  Ni  Ni37  1  0.51002300  0.43221300  0.33770400  1
  Ni  Ni38  1  0.01002300  0.06778700  0.66229600  1
  Ni  Ni39  1  0.98997700  0.56778700  0.83770400  1
  Cu  Cu40  1  0.54688200  0.74007400  0.63415400  1
  Cu  Cu41  1  0.04688200  0.75992600  0.36584600  1
  Cu  Cu42  1  0.45311800  0.24007400  0.86584600  1
  Cu  Cu43  1  0.95311800  0.25992600  0.13415400  1
  C  C44  1  0.67095800  0.23871100  0.58801000  1
  C  C45  1  0.17095800  0.26128900  0.41199000  1
  C  C46  1  0.32904200  0.73871100  0.91199000  1
  C  C47  1  0.82904200  0.76128900  0.08801000  1
