# generated using pymatgen
data_Cu(NiC9)2
_symmetry_space_group_name_H-M   'P 1'
_cell_length_a   9.22097608
_cell_length_b   9.22518691
_cell_length_c   22.99383006
_cell_angle_alpha   89.96410467
_cell_angle_beta   90.06576056
_cell_angle_gamma   120.05860418
_symmetry_Int_Tables_number   1
_chemical_formula_structural   Cu(NiC9)2
_chemical_formula_sum   'Cu6 Ni12 C108'
_cell_volume   1692.92205611
_cell_formula_units_Z   6
loop_
 _symmetry_equiv_pos_site_id
 _symmetry_equiv_pos_as_xyz
  1  'x, y, z'
loop_
 _atom_site_type_symbol
 _atom_site_label
 _atom_site_symmetry_multiplicity
 _atom_site_fract_x
 _atom_site_fract_y
 _atom_site_fract_z
 _atom_site_occupancy
  C  C0  1  0.63717001  0.00775937  0.24630334  1
  C  C1  1  0.37102903  0.36244673  0.24687124  1
  C  C2  1  0.99186314  0.62979053  0.24691932  1
  C  C3  1  0.63690534  0.62967287  0.74823562  1
  C  C4  1  0.99014919  0.36504471  0.74984526  1
  C  C5  1  0.37353015  0.00545627  0.74764071  1
  C  C6  1  0.30680656  0.33303749  0.58441189  1
  C  C7  1  0.03058642  0.69944628  0.58407711  1
  C  C8  1  0.66423774  0.96896792  0.58612082  1
  C  C9  1  0.30600855  0.96982848  0.08327898  1
  C  C10  1  0.66384059  0.69400602  0.08327717  1
  C  C11  1  0.03015283  0.33611193  0.08321208  1
  C  C12  1  0.96697442  0.66517461  0.91707386  1
  C  C13  1  0.69862859  0.03364300  0.91711530  1
  C  C14  1  0.33443068  0.30158633  0.91768307  1
  C  C15  1  0.97060513  0.29802863  0.41511712  1
  C  C16  1  0.32387024  0.03188660  0.41601588  1
  C  C17  1  0.70570450  0.67105226  0.41504477  1
  C  C18  1  0.00367129  0.99900007  0.49765572  1
  C  C19  1  0.00026807  0.00035506  0.99946714  1
  C  C20  1  0.66941198  0.33362791  0.83113926  1
  C  C21  1  0.66717317  0.33537235  0.33107594  1
  C  C22  1  0.33367260  0.66698512  0.16338525  1
  C  C23  1  0.33647552  0.67100127  0.66798084  1
  C  C24  1  0.00435708  0.00012347  0.35088961  1
  C  C25  1  0.66528343  0.33206502  0.68485731  1
  C  C26  1  0.66655377  0.33332400  0.17945381  1
  C  C27  1  0.99495058  0.99655281  0.85132157  1
  C  C28  1  0.99756057  0.99207094  0.64961731  1
  C  C29  1  0.99994839  0.99964287  0.14610890  1
  C  C30  1  0.66694475  0.33341241  0.98360065  1
  C  C31  1  0.66323776  0.33859735  0.48334961  1
  C  C32  1  0.33324615  0.66646293  0.01839409  1
  C  C33  1  0.33199418  0.66666302  0.51799775  1
  C  C34  1  0.32942793  0.66146247  0.31612952  1
  C  C35  1  0.33422725  0.67077124  0.81610259  1
  Ni  Ni36  1  0.99609291  0.70001412  0.75000870  1
  Ni  Ni37  1  0.70501202  0.00391191  0.74934012  1
  Ni  Ni38  1  0.37679088  0.04338222  0.58555579  1
  Ni  Ni39  1  0.66552621  0.62366677  0.58606243  1
  Ni  Ni40  1  0.95698957  0.62179767  0.08591084  1
  Ni  Ni41  1  0.66490177  0.04311439  0.08590655  1
  Ni  Ni42  1  0.37825296  0.33508708  0.08583813  1
  Ni  Ni43  1  0.62571056  0.66531262  0.91660273  1
  Ni  Ni44  1  0.03985714  0.37335442  0.91649010  1
  Ni  Ni45  1  0.33379970  0.96136312  0.91700541  1
  Ni  Ni46  1  0.32884418  0.36828135  0.41643562  1
  Ni  Ni47  1  0.03777648  0.66930412  0.41632677  1
  Cu  Cu48  1  0.29377032  0.00355775  0.25160277  1
  Cu  Cu49  1  0.71038200  0.70749290  0.25177765  1
  Cu  Cu50  1  0.99588128  0.28865009  0.25173301  1
  Cu  Cu51  1  0.29431508  0.29241375  0.74966943  1
  Cu  Cu52  1  0.95624835  0.33343241  0.58454031  1
  Cu  Cu53  1  0.62809767  0.95926228  0.41609881  1
  C  C54  1  0.20953416  0.02882972  0.30488710  1
  C  C55  1  0.81950565  0.79214784  0.30526982  1
  C  C56  1  0.97095856  0.17978068  0.30524681  1
  C  C57  1  0.20881074  0.18007045  0.80381608  1
  C  C58  1  0.97043704  0.79558499  0.80616698  1
  C  C59  1  0.82629994  0.03188143  0.80606786  1
  C  C60  1  0.79492160  0.96765144  0.69300410  1
  C  C61  1  0.17809891  0.21066698  0.69553283  1
  C  C62  1  0.03619780  0.82767449  0.69354833  1
  C  C63  1  0.78943347  0.82100628  0.19659439  1
  C  C64  1  0.03206915  0.21119796  0.19669787  1
  C  C65  1  0.17938019  0.96782415  0.19657431  1
  C  C66  1  0.88032647  0.36730730  0.63752166  1
  C  C67  1  0.49495035  0.12388339  0.64093993  1
  C  C68  1  0.62974618  0.50539893  0.64108113  1
  C  C69  1  0.87786660  0.50821661  0.14257341  1
  C  C70  1  0.63053692  0.12223601  0.14254714  1
  C  C71  1  0.49186281  0.36961796  0.14254177  1
  C  C72  1  0.45513030  0.29669806  0.02664721  1
  C  C73  1  0.84159426  0.54497030  0.02668480  1
  C  C74  1  0.70328138  0.15844130  0.02670405  1
  C  C75  1  0.46020260  0.15789400  0.52581595  1
  C  C76  1  0.70203002  0.54337658  0.52651861  1
  C  C77  1  0.84734516  0.30173802  0.52849768  1
  C  C78  1  0.54228669  0.70214150  0.97323776  1
  C  C79  1  0.15980961  0.45813798  0.97328783  1
  C  C80  1  0.29767617  0.84020528  0.97331972  1
  C  C81  1  0.54325080  0.84646718  0.47028851  1
  C  C82  1  0.30297294  0.46236906  0.47292426  1
  C  C83  1  0.15961894  0.69837686  0.47277002  1
  C  C84  1  0.12951333  0.63387450  0.36021241  1
  C  C85  1  0.51065861  0.87617545  0.36243006  1
  C  C86  1  0.36922575  0.49647974  0.36029685  1
  C  C87  1  0.12633582  0.49279849  0.85941505  1
  C  C88  1  0.36760069  0.87471354  0.86004087  1
  C  C89  1  0.50653446  0.63194508  0.85950142  1
  C  C90  1  0.01909932  0.83345577  0.40999091  1
  C  C91  1  0.80096929  0.97599231  0.40956813  1
  C  C92  1  0.16266813  0.18707649  0.40993052  1
  C  C93  1  0.02435613  0.18886048  0.91018680  1
  C  C94  1  0.16678230  0.97938933  0.90983015  1
  C  C95  1  0.81146306  0.83430817  0.91050655  1
  C  C96  1  0.97873566  0.17657507  0.58925397  1
  C  C97  1  0.18828012  0.02541189  0.58866057  1
  C  C98  1  0.83420065  0.81404862  0.58854509  1
  C  C99  1  0.97814857  0.81228110  0.09123462  1
  C  C100  1  0.83422909  0.02195105  0.09128711  1
  C  C101  1  0.18760023  0.16581021  0.09126143  1
  C  C102  1  0.68849287  0.16914693  0.74421996  1
  C  C103  1  0.46705131  0.30917657  0.74409589  1
  C  C104  1  0.82994445  0.51954631  0.74367469  1
  C  C105  1  0.68778657  0.53072530  0.24512295  1
  C  C106  1  0.84268355  0.31258484  0.24504755  1
  C  C107  1  0.47050063  0.15808921  0.24498468  1
  C  C108  1  0.64417959  0.49869876  0.92238602  1
  C  C109  1  0.85496611  0.35601615  0.92239246  1
  C  C110  1  0.50193027  0.14567649  0.92231301  1
  C  C111  1  0.64244408  0.13403835  0.42290960  1
  C  C112  1  0.50212320  0.35668692  0.42229323  1
  C  C113  1  0.85614063  0.49366867  0.42251974  1
  C  C114  1  0.35291776  0.49864668  0.07711367  1
  C  C115  1  0.14593910  0.64722982  0.07715343  1
  C  C116  1  0.50130712  0.85413085  0.07713412  1
  C  C117  1  0.35248927  0.85339182  0.57580783  1
  C  C118  1  0.50031150  0.64701197  0.57546698  1
  C  C119  1  0.13561287  0.49139434  0.57602406  1
  C  C120  1  0.31062927  0.84014786  0.25699769  1
  C  C121  1  0.53075399  0.69265788  0.25663866  1
  C  C122  1  0.16116253  0.46940201  0.25666341  1
  C  C123  1  0.30702328  0.46706504  0.75554888  1
  C  C124  1  0.16934227  0.68947658  0.75511432  1
  C  C125  1  0.52258451  0.82862133  0.75524123  1
