# generated using pymatgen
data_CuNi4C33
_symmetry_space_group_name_H-M   'P 1'
_cell_length_a   9.08062067
_cell_length_b   9.08651495
_cell_length_c   23.23781833
_cell_angle_alpha   90.05804566
_cell_angle_beta   89.96442652
_cell_angle_gamma   119.84871425
_symmetry_Int_Tables_number   1
_chemical_formula_structural   CuNi4C33
_chemical_formula_sum   'Cu3 Ni12 C99'
_cell_volume   1663.02463438
_cell_formula_units_Z   3
loop_
 _symmetry_equiv_pos_site_id
 _symmetry_equiv_pos_as_xyz
  1  'x, y, z'
loop_
 _atom_site_type_symbol
 _atom_site_label
 _atom_site_symmetry_multiplicity
 _atom_site_fract_x
 _atom_site_fract_y
 _atom_site_fract_z
 _atom_site_occupancy
  Ni  Ni0  1  0.64382670  0.01127222  0.24623086  1
  Ni  Ni1  1  0.36796132  0.35639474  0.24617087  1
  Ni  Ni2  1  0.98844954  0.63146465  0.24585149  1
  Ni  Ni3  1  0.98944869  0.36290075  0.74495936  1
  Ni  Ni4  1  0.37312067  0.00758319  0.74497344  1
  Ni  Ni5  1  0.70742112  0.67510165  0.41595600  1
  Ni  Ni6  1  0.01119518  0.01142676  0.49672451  1
  Ni  Ni7  1  0.00012356  0.00021425  0.00188718  1
  Ni  Ni8  1  0.66607489  0.34400471  0.83268050  1
  Ni  Ni9  1  0.66601402  0.32353664  0.33332973  1
  Ni  Ni10  1  0.33334089  0.66663519  0.16175357  1
  Ni  Ni11  1  0.34436195  0.66566804  0.66193927  1
  Cu  Cu12  1  0.00742930  0.00816270  0.35506319  1
  Cu  Cu13  1  0.66562793  0.34140838  0.68232807  1
  Cu  Cu14  1  0.66682029  0.33374566  0.17629518  1
  C  C15  1  0.99830254  0.99784283  0.85578139  1
  C  C16  1  0.99613103  0.99610909  0.64394559  1
  C  C17  1  0.00059520  0.00038355  0.14542271  1
  C  C18  1  0.66692545  0.33254887  0.98323652  1
  C  C19  1  0.66620403  0.32713215  0.48445405  1
  C  C20  1  0.33299433  0.66654850  0.01781136  1
  C  C21  1  0.33015162  0.66652262  0.52000208  1
  C  C22  1  0.33052262  0.66666631  0.31777242  1
  C  C23  1  0.33865049  0.66601093  0.81645830  1
  C  C24  1  0.29386515  0.99751314  0.25004843  1
  C  C25  1  0.70373248  0.70663343  0.25201350  1
  C  C26  1  0.00202530  0.29585799  0.25024116  1
  C  C27  1  0.28375544  0.28745450  0.75140746  1
  C  C28  1  0.00396945  0.71301875  0.75178583  1
  C  C29  1  0.70957476  0.99503000  0.75112860  1
  C  C30  1  0.96488789  0.33315194  0.58528217  1
  C  C31  1  0.36886699  0.03540580  0.58529851  1
  C  C32  1  0.66601084  0.63086806  0.58164448  1
  C  C33  1  0.96617842  0.63261037  0.08348746  1
  C  C34  1  0.66582484  0.03297258  0.08355565  1
  C  C35  1  0.36714533  0.33380719  0.08351075  1
  C  C36  1  0.62538220  0.66402280  0.91769052  1
  C  C37  1  0.03986804  0.37562478  0.91616744  1
  C  C38  1  0.33627364  0.96050399  0.91635488  1
  C  C39  1  0.62039733  0.95973426  0.41809604  1
  C  C40  1  0.33957663  0.37837806  0.41886730  1
  C  C41  1  0.03581055  0.65956963  0.41847769  1
  C  C42  1  0.21633286  0.02684598  0.30285375  1
  C  C43  1  0.80414437  0.77978774  0.30693132  1
  C  C44  1  0.97125525  0.18833990  0.30294057  1
  C  C45  1  0.18974533  0.17708229  0.80466150  1
  C  C46  1  0.98828997  0.80649631  0.80508893  1
  C  C47  1  0.82071695  0.01414658  0.80425563  1
  C  C48  1  0.79502548  0.97308816  0.69696789  1
  C  C49  1  0.17159855  0.20377822  0.69765639  1
  C  C50  1  0.03061258  0.82436690  0.69797937  1
  C  C51  1  0.79570604  0.82566241  0.19915654  1
  C  C52  1  0.03187246  0.20871284  0.19638075  1
  C  C53  1  0.17756092  0.96883669  0.19618225  1
  C  C54  1  0.90063501  0.36378991  0.64157671  1
  C  C55  1  0.46430540  0.09891520  0.64150375  1
  C  C56  1  0.63303483  0.52783907  0.63534104  1
  C  C57  1  0.90667469  0.54105624  0.14021729  1
  C  C58  1  0.63389530  0.09318459  0.14019357  1
  C  C59  1  0.45890818  0.36604192  0.14023919  1
  C  C60  1  0.46544219  0.31032932  0.03233909  1
  C  C61  1  0.84483874  0.53437732  0.03234324  1
  C  C62  1  0.68977424  0.15453702  0.03232755  1
  C  C63  1  0.46469047  0.15508705  0.53329738  1
  C  C64  1  0.69203644  0.54365440  0.52719143  1
  C  C65  1  0.84493234  0.30965858  0.53336341  1
  C  C66  1  0.53874754  0.69060702  0.96961370  1
  C  C67  1  0.15482873  0.46444178  0.96765232  1
  C  C68  1  0.31045951  0.84582774  0.96784883  1
  C  C69  1  0.52149318  0.84506786  0.46849852  1
  C  C70  1  0.32744614  0.47925051  0.46933985  1
  C  C71  1  0.14930097  0.67543046  0.46899712  1
  C  C72  1  0.12111355  0.64034934  0.36175322  1
  C  C73  1  0.51490599  0.87631000  0.36131591  1
  C  C74  1  0.36369561  0.48707954  0.36234477  1
  C  C75  1  0.12417420  0.48310148  0.86078549  1
  C  C76  1  0.35976016  0.87599155  0.86102584  1
  C  C77  1  0.51427568  0.64059479  0.86341327  1
  C  C78  1  0.00900000  0.81170844  0.41685702  1
  C  C79  1  0.79073302  0.96666507  0.41601391  1
  C  C80  1  0.18537791  0.20409322  0.41755006  1
  C  C81  1  0.02149529  0.19721635  0.90973642  1
  C  C82  1  0.17590152  0.97858200  0.90995206  1
  C  C83  1  0.80256105  0.82385031  0.91031540  1
  C  C84  1  0.98004397  0.16962667  0.58798677  1
  C  C85  1  0.19025728  0.02044318  0.58845971  1
  C  C86  1  0.82965927  0.80914271  0.58724403  1
  C  C87  1  0.98044627  0.81128513  0.08692957  1
  C  C88  1  0.83001492  0.01803489  0.08701505  1
  C  C89  1  0.18857565  0.16966823  0.08691976  1
  C  C90  1  0.69091297  0.15372523  0.74916455  1
  C  C91  1  0.45652485  0.29969957  0.74945459  1
  C  C92  1  0.85531213  0.53263141  0.75006302  1
  C  C93  1  0.67555542  0.52684918  0.24439620  1
  C  C94  1  0.85185225  0.32677423  0.24350694  1
  C  C95  1  0.47458695  0.14768499  0.24352009  1
  C  C96  1  0.64349093  0.50458303  0.92379352  1
  C  C97  1  0.86237816  0.35776297  0.92341754  1
  C  C98  1  0.49527913  0.13778158  0.92351897  1
  C  C99  1  0.63596188  0.13707155  0.42352744  1
  C  C100  1  0.50988543  0.37481247  0.42326423  1
  C  C101  1  0.85797219  0.49555008  0.42320140  1
  C  C102  1  0.34286195  0.48819385  0.07129864  1
  C  C103  1  0.14476750  0.65658319  0.07127033  1
  C  C104  1  0.51124475  0.85510398  0.07126137  1
  C  C105  1  0.34378838  0.85689965  0.57353540  1
  C  C106  1  0.51321780  0.65936073  0.57217762  1
  C  C107  1  0.14315692  0.48678448  0.57371143  1
  C  C108  1  0.30405419  0.82853025  0.25480301  1
  C  C109  1  0.52401954  0.69542062  0.25537865  1
  C  C110  1  0.17066230  0.47466620  0.25538129  1
  C  C111  1  0.29422778  0.46462341  0.75772476  1
  C  C112  1  0.17313301  0.70346842  0.75744335  1
  C  C113  1  0.52795191  0.83598138  0.75721003  1
