# generated using pymatgen
data_CuNiC3
_symmetry_space_group_name_H-M   'P 1'
_cell_length_a   3.98318300
_cell_length_b   7.38631200
_cell_length_c   15.29016300
_cell_angle_alpha   90.00000000
_cell_angle_beta   90.00000000
_cell_angle_gamma   90.00000000
_symmetry_Int_Tables_number   1
_chemical_formula_structural   CuNiC3
_chemical_formula_sum   'Cu4 Ni4 C12'
_cell_volume   449.85238089
_cell_formula_units_Z   4
loop_
 _symmetry_equiv_pos_site_id
 _symmetry_equiv_pos_as_xyz
  1  'x, y, z'
loop_
 _atom_site_type_symbol
 _atom_site_label
 _atom_site_symmetry_multiplicity
 _atom_site_fract_x
 _atom_site_fract_y
 _atom_site_fract_z
 _atom_site_occupancy
  Ni  Ni0  1  0.75000000  0.35959700  0.29699000  1
  Ni  Ni1  1  0.25000000  0.64040300  0.70301000  1
  Ni  Ni2  1  0.75000000  0.85959700  0.20301000  1
  Ni  Ni3  1  0.25000000  0.14040300  0.79699000  1
  Cu  Cu4  1  0.75000000  0.73344200  0.95632000  1
  Cu  Cu5  1  0.25000000  0.26655800  0.04368000  1
  Cu  Cu6  1  0.75000000  0.23344200  0.54368000  1
  Cu  Cu7  1  0.25000000  0.76655800  0.45632000  1
  C  C8  1  0.25000000  0.37433600  0.43614600  1
  C  C9  1  0.75000000  0.62566400  0.56385400  1
  C  C10  1  0.25000000  0.87433600  0.06385400  1
  C  C11  1  0.75000000  0.12566400  0.93614600  1
  C  C12  1  0.25000000  0.14873500  0.21760200  1
  C  C13  1  0.75000000  0.85126500  0.78239800  1
  C  C14  1  0.25000000  0.64873500  0.28239800  1
  C  C15  1  0.75000000  0.35126500  0.71760200  1
  C  C16  1  0.75000000  0.48892100  0.10553800  1
  C  C17  1  0.25000000  0.51107900  0.89446200  1
  C  C18  1  0.75000000  0.98892100  0.39446200  1
  C  C19  1  0.25000000  0.01107900  0.60553800  1
