# generated using pymatgen
data_Cu10Ni14C13
_symmetry_space_group_name_H-M   'P 1'
_cell_length_a   4.80619422
_cell_length_b   5.80176230
_cell_length_c   15.21711037
_cell_angle_alpha   90.39460453
_cell_angle_beta   87.65494793
_cell_angle_gamma   90.94922959
_symmetry_Int_Tables_number   1
_chemical_formula_structural   Cu10Ni14C13
_chemical_formula_sum   'Cu10 Ni14 C13'
_cell_volume   423.89821328
_cell_formula_units_Z   1
loop_
 _symmetry_equiv_pos_site_id
 _symmetry_equiv_pos_as_xyz
  1  'x, y, z'
loop_
 _atom_site_type_symbol
 _atom_site_label
 _atom_site_symmetry_multiplicity
 _atom_site_fract_x
 _atom_site_fract_y
 _atom_site_fract_z
 _atom_site_occupancy
  C  C0  1  0.50370600  0.08350500  0.74422700  1
  C  C1  1  0.97326300  0.15827400  0.40556700  1
  C  C2  1  0.00890900  0.84460800  0.24014300  1
  C  C3  1  0.03207400  0.17541900  0.08428600  1
  C  C4  1  0.02865600  0.33860400  0.73858200  1
  C  C5  1  0.01867900  0.84079700  0.58000000  1
  C  C6  1  0.05349900  0.85114600  0.91519400  1
  C  C7  1  0.46244100  0.35422300  0.57838400  1
  C  C8  1  0.52359000  0.33029400  0.93128400  1
  C  C9  1  0.48916800  0.35133500  0.25495400  1
  C  C10  1  0.51364400  0.64094200  0.09584000  1
  C  C11  1  0.48535700  0.65870400  0.42248300  1
  C  C12  1  0.50518200  0.61233500  0.75282200  1
  Ni  Ni13  1  0.20385700  0.11756900  0.30104900  1
  Ni  Ni14  1  0.23638600  0.10853600  0.64053600  1
  Ni  Ni15  1  0.23212300  0.12585200  0.97573300  1
  Ni  Ni16  1  0.23824300  0.88555200  0.13700200  1
  Ni  Ni17  1  0.20169400  0.88726800  0.46854900  1
  Ni  Ni18  1  0.31545600  0.84083500  0.81215600  1
  Ni  Ni19  1  0.28521900  0.40411600  0.14877200  1
  Ni  Ni20  1  0.20833700  0.57001100  0.65965700  1
  Ni  Ni21  1  0.33146000  0.34642500  0.81675700  1
  Ni  Ni22  1  0.73912500  0.39104100  0.03293000  1
  Ni  Ni23  1  0.72030400  0.62197600  0.19696400  1
  Ni  Ni24  1  0.68987500  0.38297500  0.36284500  1
  Ni  Ni25  1  0.66721600  0.62183100  0.53045800  1
  Ni  Ni26  1  0.69156200  0.36558000  0.68563200  1
  Cu  Cu27  1  0.24981100  0.62565500  0.31827700  1
  Cu  Cu28  1  0.21027900  0.38964900  0.47828200  1
  Cu  Cu29  1  0.30117200  0.62019300  0.98581100  1
  Cu  Cu30  1  0.79807400  0.57999400  0.85794900  1
  Cu  Cu31  1  0.77249400  0.12732900  0.18646600  1
  Cu  Cu32  1  0.74762300  0.12060700  0.51899800  1
  Cu  Cu33  1  0.75091300  0.87951600  0.34693300  1
  Cu  Cu34  1  0.76588200  0.87409400  0.02315900  1
  Cu  Cu35  1  0.81890400  0.12431500  0.83214800  1
  Cu  Cu36  1  0.75359800  0.85603900  0.68916700  1
