# generated using pymatgen
data_Cu14NiC6
_symmetry_space_group_name_H-M   'P 1'
_cell_length_a   10.88443931
_cell_length_b   10.88443931
_cell_length_c   13.31753800
_cell_angle_alpha   90.00000000
_cell_angle_beta   90.00000000
_cell_angle_gamma   96.03421505
_symmetry_Int_Tables_number   1
_chemical_formula_structural   Cu14NiC6
_chemical_formula_sum   'Cu28 Ni2 C12'
_cell_volume   1569.00049712
_cell_formula_units_Z   2
loop_
 _symmetry_equiv_pos_site_id
 _symmetry_equiv_pos_as_xyz
  1  'x, y, z'
loop_
 _atom_site_type_symbol
 _atom_site_label
 _atom_site_symmetry_multiplicity
 _atom_site_fract_x
 _atom_site_fract_y
 _atom_site_fract_z
 _atom_site_occupancy
  C  C0  1  0.64703800  0.64703800  0.39426700  1
  C  C1  1  0.85296200  0.85296200  0.89426700  1
  C  C2  1  0.14703800  0.14703800  0.10573300  1
  C  C3  1  0.35296200  0.35296200  0.60573300  1
  C  C4  1  0.45475100  0.68621900  0.61687800  1
  C  C5  1  0.04524900  0.81378100  0.11687800  1
  C  C6  1  0.18621900  0.95475100  0.88312200  1
  C  C7  1  0.31378100  0.54524900  0.38312200  1
  C  C8  1  0.54524900  0.31378100  0.38312200  1
  C  C9  1  0.95475100  0.18621900  0.88312200  1
  C  C10  1  0.81378100  0.04524900  0.11687800  1
  C  C11  1  0.68621900  0.45475100  0.61687800  1
  Ni  Ni12  1  0.50000000  0.50000000  0.50000000  1
  Ni  Ni13  1  0.00000000  0.00000000  0.00000000  1
  Cu  Cu14  1  0.40085300  0.90085300  0.75000000  1
  Cu  Cu15  1  0.09914700  0.59914700  0.25000000  1
  Cu  Cu16  1  0.59914700  0.09914700  0.25000000  1
  Cu  Cu17  1  0.90085300  0.40085300  0.75000000  1
  Cu  Cu18  1  0.37975000  0.12963400  0.49007700  1
  Cu  Cu19  1  0.12025000  0.37036600  0.99007700  1
  Cu  Cu20  1  0.62963400  0.87975000  0.00992300  1
  Cu  Cu21  1  0.87036600  0.62025000  0.50992300  1
  Cu  Cu22  1  0.62025000  0.87036600  0.50992300  1
  Cu  Cu23  1  0.87975000  0.62963400  0.00992300  1
  Cu  Cu24  1  0.53684900  0.28564400  0.74908700  1
  Cu  Cu25  1  0.96315100  0.21435600  0.24908700  1
  Cu  Cu26  1  0.78564400  0.03684900  0.75091300  1
  Cu  Cu27  1  0.71435600  0.46315100  0.25091300  1
  Cu  Cu28  1  0.46315100  0.71435600  0.25091300  1
  Cu  Cu29  1  0.03684900  0.78564400  0.75091300  1
  Cu  Cu30  1  0.21435600  0.96315100  0.24908700  1
  Cu  Cu31  1  0.28564400  0.53684900  0.74908700  1
  Cu  Cu32  1  0.15769500  0.15769500  0.73483000  1
  Cu  Cu33  1  0.34230500  0.34230500  0.23483000  1
  Cu  Cu34  1  0.65769500  0.65769500  0.76517000  1
  Cu  Cu35  1  0.84230500  0.84230500  0.26517000  1
  Cu  Cu36  1  0.75328500  0.24671500  0.50000000  1
  Cu  Cu37  1  0.74671500  0.25328500  0.00000000  1
  Cu  Cu38  1  0.24671500  0.75328500  0.50000000  1
  Cu  Cu39  1  0.25328500  0.74671500  0.00000000  1
  Cu  Cu40  1  0.12963400  0.37975000  0.49007700  1
  Cu  Cu41  1  0.37036600  0.12025000  0.99007700  1
