# generated using pymatgen
data_Cu(NiC9)2
_symmetry_space_group_name_H-M   'P 1'
_cell_length_a   9.40321709
_cell_length_b   9.40777973
_cell_length_c   22.91561693
_cell_angle_alpha   90.15369767
_cell_angle_beta   89.98784873
_cell_angle_gamma   119.97452998
_symmetry_Int_Tables_number   1
_chemical_formula_structural   Cu(NiC9)2
_chemical_formula_sum   'Cu6 Ni12 C108'
_cell_volume   1756.04347227
_cell_formula_units_Z   6
loop_
 _symmetry_equiv_pos_site_id
 _symmetry_equiv_pos_as_xyz
  1  'x, y, z'
loop_
 _atom_site_type_symbol
 _atom_site_label
 _atom_site_symmetry_multiplicity
 _atom_site_fract_x
 _atom_site_fract_y
 _atom_site_fract_z
 _atom_site_occupancy
  C  C0  1  0.63182912  0.99759176  0.25578087  1
  C  C1  1  0.36713937  0.36831514  0.25260491  1
  C  C2  1  0.00176045  0.63228129  0.25261172  1
  C  C3  1  0.63858895  0.63700521  0.74181456  1
  C  C4  1  0.99521834  0.35475358  0.74415365  1
  C  C5  1  0.36629152  0.00851521  0.74976941  1
  C  C6  1  0.29774060  0.34108118  0.58256802  1
  C  C7  1  0.03574155  0.69800257  0.57947048  1
  C  C8  1  0.66592719  0.95786685  0.57965891  1
  C  C9  1  0.29370766  0.95799871  0.07777743  1
  C  C10  1  0.65975592  0.69614090  0.08046882  1
  C  C11  1  0.04388017  0.34376717  0.08045555  1
  C  C12  1  0.97682846  0.67917060  0.91487411  1
  C  C13  1  0.70659268  0.03118495  0.91242802  1
  C  C14  1  0.31890900  0.29118314  0.91219204  1
  C  C15  1  0.97882335  0.30315882  0.41869560  1
  C  C16  1  0.33000567  0.02606489  0.41924610  1
  C  C17  1  0.69439691  0.67447960  0.41842812  1
  C  C18  1  0.99554457  0.99897877  0.49931412  1
  C  C19  1  0.00465652  -0.00001143  0.99699376  1
  C  C20  1  0.66044411  0.32512303  0.82862751  1
  C  C21  1  0.66437784  0.33109843  0.33740860  1
  C  C22  1  0.32667655  0.65935511  0.16530207  1
  C  C23  1  0.33385602  0.65882954  0.66108866  1
  C  C24  1  0.00029801  0.99993392  0.35119820  1
  C  C25  1  0.00040027  0.00291293  0.84857583  1
  C  C26  1  0.99433073  0.00298101  0.64946646  1
  C  C27  1  0.00239078  0.99922647  0.14531932  1
  C  C28  1  0.66630076  0.33408030  0.68334991  1
  C  C29  1  0.66747729  0.33604776  0.18234880  1
  C  C30  1  0.33181394  0.66495385  0.01552969  1
  C  C31  1  0.33380018  0.66471657  0.51457161  1
  C  C32  1  0.33343009  0.66562675  0.32251217  1
  C  C33  1  0.66475036  0.33777402  0.97883773  1
  C  C34  1  0.67300605  0.33903009  0.48246221  1
  C  C35  1  0.33679296  0.66529821  0.81848452  1
  Ni  Ni36  1  0.30274032  0.30862995  0.75246834  1
  Ni  Ni37  1  0.68904756  0.99261530  0.75264636  1
  Ni  Ni38  1  0.96361209  0.33324218  0.58434046  1
  Ni  Ni39  1  0.66868333  0.63164888  0.58430652  1
  Ni  Ni40  1  0.96065310  0.62823238  0.08245154  1
  Ni  Ni41  1  0.37108319  0.33262423  0.08258457  1
  Ni  Ni42  1  0.62987868  0.66241250  0.91911693  1
  Ni  Ni43  1  0.03192121  0.37137021  0.91821088  1
  Ni  Ni44  1  0.33852271  0.96637609  0.91894005  1
  Ni  Ni45  1  0.63614715  0.97653054  0.41769096  1
  Ni  Ni46  1  0.34021983  0.36277898  0.41742195  1
  Ni  Ni47  1  0.02557260  0.66195372  0.41779504  1
  Cu  Cu48  1  0.30064683  0.99564990  0.24895115  1
  Cu  Cu49  1  0.69642665  0.70007394  0.24877466  1
  Cu  Cu50  1  0.00246931  0.30230094  0.24887823  1
  Cu  Cu51  1  0.01026671  0.70061543  0.75215650  1
  Cu  Cu52  1  0.37347050  0.04188271  0.58219621  1
  Cu  Cu53  1  0.66864972  0.04522821  0.08081334  1
  C  C54  1  0.21586007  0.01512756  0.30313638  1
  C  C55  1  0.79952811  0.78614020  0.30308677  1
  C  C56  1  0.98667484  0.19990916  0.30307275  1
  C  C57  1  0.22188749  0.19600560  0.80952936  1
  C  C58  1  0.98328539  0.77960908  0.80660114  1
  C  C59  1  0.80004547  0.02049985  0.80992767  1
  C  C60  1  0.76686200  0.95232249  0.69520155  1
  C  C61  1  0.18657161  0.22898194  0.69476406  1
  C  C62  1  0.03868728  0.80831898  0.69773334  1
  C  C63  1  0.78295605  0.80191997  0.19353450  1
  C  C64  1  0.01730766  0.21554263  0.19336749  1
  C  C65  1  0.19791258  0.98060842  0.19370518  1
  C  C66  1  0.88207151  0.35134450  0.64379276  1
  C  C67  1  0.46913013  0.11782383  0.63885754  1
  C  C68  1  0.64451033  0.52941350  0.64347642  1
  C  C69  1  0.88116870  0.52337063  0.14089795  1
  C  C70  1  0.64824820  0.12133368  0.13711099  1
  C  C71  1  0.47298573  0.35061557  0.14123285  1
  C  C72  1  0.48304484  0.31794497  0.02595275  1
  C  C73  1  0.83511914  0.51385113  0.02585523  1
  C  C74  1  0.68225091  0.15698414  0.02730159  1
  C  C75  1  0.47258693  0.15302842  0.52920879  1
  C  C76  1  0.67560968  0.51470227  0.52888973  1
  C  C77  1  0.83846466  0.32138102  0.52874471  1
  C  C78  1  0.55746397  0.69527901  0.97741592  1
  C  C79  1  0.13824200  0.44637860  0.97652040  1
  C  C80  1  0.30874025  0.86285476  0.97756585  1
  C  C81  1  0.55466091  0.85823009  0.47337011  1
  C  C82  1  0.30288416  0.44530388  0.47295396  1
  C  C83  1  0.14147996  0.69744711  0.47410596  1
  C  C84  1  0.09952772  0.62079054  0.35958288  1
  C  C85  1  0.52221979  0.90050417  0.35904289  1
  C  C86  1  0.38062486  0.47762079  0.35911757  1
  C  C87  1  0.13662086  0.50061057  0.86311921  1
  C  C88  1  0.36096267  0.86072350  0.86352411  1
  C  C89  1  0.49902688  0.63757067  0.86400391  1
  C  C90  1  0.99087337  0.81394751  0.41212582  1
  C  C91  1  0.82235520  0.00841427  0.41198253  1
  C  C92  1  0.18487601  0.17733144  0.41203014  1
  C  C93  1  0.00334408  0.18751122  0.91135211  1
  C  C94  1  0.18342293  0.99457656  0.91123412  1
  C  C95  1  0.81493078  0.81071992  0.91008045  1
  C  C96  1  0.97029448  0.16280346  0.58079862  1
  C  C97  1  0.20459005  0.03251765  0.58278166  1
  C  C98  1  0.84334252  0.80420643  0.58104755  1
  C  C99  1  0.96023582  0.80191869  0.07959353  1
  C  C100  1  0.82906313  0.03674655  0.08126894  1
  C  C101  1  0.19327459  0.16309665  0.07935388  1
  C  C102  1  0.66002602  0.14928591  0.74863200  1
  C  C103  1  0.49017220  0.34210595  0.74936119  1
  C  C104  1  0.86045166  0.52561041  0.74761414  1
  C  C105  1  0.67854531  0.52616864  0.24781872  1
  C  C106  1  0.84579948  0.31889371  0.24804843  1
  C  C107  1  0.47568286  0.14938590  0.24735086  1
  C  C108  1  0.63216620  0.48509265  0.92232489  1
  C  C109  1  0.85041237  0.36328168  0.92205493  1
  C  C110  1  0.51387864  0.14693234  0.92257364  1
  C  C111  1  0.64835228  0.15827533  0.42723321  1
  C  C112  1  0.50739603  0.34674978  0.42720695  1
  C  C113  1  0.84168864  0.49200889  0.42681593  1
  C  C114  1  0.35514796  0.49655963  0.07979304  1
  C  C115  1  0.14451835  0.65406990  0.07931574  1
  C  C116  1  0.51753183  0.87235314  0.07694101  1
  C  C117  1  0.35388870  0.86955820  0.57765784  1
  C  C118  1  0.50918063  0.65554043  0.57970002  1
  C  C119  1  0.14361699  0.49750302  0.58001663  1
  C  C120  1  0.31392705  0.83746803  0.25115144  1
  C  C121  1  0.52376269  0.68430468  0.25101684  1
  C  C122  1  0.15935374  0.47497660  0.25103670  1
  C  C123  1  0.31157103  0.49138169  0.76190155  1
  C  C124  1  0.16969042  0.68748523  0.75943784  1
  C  C125  1  0.50391714  0.82244172  0.76190966  1
