# generated using pymatgen
data_Cu4Ni4C11
_symmetry_space_group_name_H-M   'P 1'
_cell_length_a   6.03412300
_cell_length_b   6.09703835
_cell_length_c   9.36825918
_cell_angle_alpha   87.18805821
_cell_angle_beta   71.38255537
_cell_angle_gamma   68.17741828
_symmetry_Int_Tables_number   1
_chemical_formula_structural   Cu4Ni4C11
_chemical_formula_sum   'Cu4 Ni4 C11'
_cell_volume   302.26818820
_cell_formula_units_Z   1
loop_
 _symmetry_equiv_pos_site_id
 _symmetry_equiv_pos_as_xyz
  1  'x, y, z'
loop_
 _atom_site_type_symbol
 _atom_site_label
 _atom_site_symmetry_multiplicity
 _atom_site_fract_x
 _atom_site_fract_y
 _atom_site_fract_z
 _atom_site_occupancy
  C  C0  1  0.27140899  0.76821399  0.03600032  1
  C  C1  1  0.78751759  0.26358770  0.01244740  1
  C  C2  1  0.92549170  0.75195659  0.40070631  1
  C  C3  1  0.90487553  0.23697671  0.58577063  1
  C  C4  1  0.37670856  0.78203028  0.69424979  1
  C  C5  1  0.49652431  0.17546259  0.46085054  1
  C  C6  1  0.71542908  0.80372846  0.12737905  1
  C  C7  1  0.39306493  0.29597519  0.82634995  1
  C  C8  1  0.41508220  0.61807090  0.36903493  1
  C  C9  1  0.87803256  0.71951135  0.73911510  1
  C  C10  1  0.12988963  0.24910282  0.24869198  1
  Ni  Ni11  1  0.29467025  0.97805668  0.34108801  1
  Ni  Ni12  1  0.18098428  0.55557463  0.58855897  1
  Ni  Ni13  1  0.78616776  0.43401064  0.35406800  1
  Ni  Ni14  1  0.68660615  0.96088455  0.65216534  1
  Cu  Cu15  1  0.68151627  0.52622394  0.81365407  1
  Cu  Cu16  1  0.18761000  0.17722365  0.03363245  1
  Cu  Cu17  1  0.32903920  0.46770569  0.21321327  1
  Cu  Cu18  1  0.96563100  0.83987062  0.88873787  1
