# generated using pymatgen
data_Cu2NiC12
_symmetry_space_group_name_H-M   'P 1'
_cell_length_a   6.48008312
_cell_length_b   6.50511135
_cell_length_c   7.33783373
_cell_angle_alpha   94.34902658
_cell_angle_beta   81.24267832
_cell_angle_gamma   119.87281328
_symmetry_Int_Tables_number   1
_chemical_formula_structural   Cu2NiC12
_chemical_formula_sum   'Cu2 Ni1 C12'
_cell_volume   265.09178139
_cell_formula_units_Z   1
loop_
 _symmetry_equiv_pos_site_id
 _symmetry_equiv_pos_as_xyz
  1  'x, y, z'
loop_
 _atom_site_type_symbol
 _atom_site_label
 _atom_site_symmetry_multiplicity
 _atom_site_fract_x
 _atom_site_fract_y
 _atom_site_fract_z
 _atom_site_occupancy
  C  C0  1  0.35789581  1.00000000  0.69716822  1
  C  C1  1  0.64210419  0.00000000  0.30283178  1
  C  C2  1  0.75116253  0.50232506  0.00000000  1
  C  C3  1  0.24883747  0.49767494  1.00000000  1
  C  C4  1  0.26274989  0.52549979  0.50000000  1
  C  C5  1  0.73725011  0.47450021  0.50000000  1
  Ni  Ni6  1  -0.00000000  0.00000000  0.50000000  1
  Cu  Cu7  1  0.22458835  0.00000000  0.15328532  1
  Cu  Cu8  1  0.77541165  1.00000000  0.84671468  1
  C  C9  1  0.90503137  0.24550459  0.63214522  1
  C  C10  1  0.50000000  0.00000000  -0.00000000  1
  C  C11  1  0.65952578  0.75449541  0.63214622  1
  C  C12  1  0.09496863  0.75449541  0.36785478  1
  C  C13  1  -0.00000000  0.00000000  -0.00000000  1
  C  C14  1  0.34047422  0.24550459  0.36785378  1
