# generated using pymatgen
data_Cu2NiC4
_symmetry_space_group_name_H-M   'P 1'
_cell_length_a   6.06931470
_cell_length_b   6.08040954
_cell_length_c   6.06931786
_cell_angle_alpha   120.06048032
_cell_angle_beta   60.12091798
_cell_angle_gamma   89.99995762
_symmetry_Int_Tables_number   1
_chemical_formula_structural   Cu2NiC4
_chemical_formula_sum   'Cu4 Ni2 C8'
_cell_volume   158.52303463
_cell_formula_units_Z   2
loop_
 _symmetry_equiv_pos_site_id
 _symmetry_equiv_pos_as_xyz
  1  'x, y, z'
loop_
 _atom_site_type_symbol
 _atom_site_label
 _atom_site_symmetry_multiplicity
 _atom_site_fract_x
 _atom_site_fract_y
 _atom_site_fract_z
 _atom_site_occupancy
  Ni  Ni0  1  0.12501100  0.12501300  0.25002400  1
  Ni  Ni1  1  0.87505200  0.87505100  0.75010300  1
  Cu  Cu2  1  0.50013400  0.99968800  0.49982700  1
  Cu  Cu3  1  0.50013500  0.50013800  0.49982800  1
  Cu  Cu4  1  0.99968900  0.50013700  0.00027300  1
  Cu  Cu5  1  0.50001500  0.50001300  0.00002600  1
  C  C6  1  0.26401800  0.26401700  0.52803400  1
  C  C7  1  0.73622400  0.29156400  0.02778800  1
  C  C8  1  0.73622400  0.73622400  0.02778800  1
  C  C9  1  0.29156500  0.73622400  0.47244800  1
  C  C10  1  0.26373300  0.26373300  0.97225500  1
  C  C11  1  0.70852200  0.26373300  0.52746500  1
  C  C12  1  0.26373300  0.70852200  0.97225500  1
  C  C13  1  0.73594400  0.73594400  0.47188800  1
