# generated using pymatgen
data_Cu2NiC16
_symmetry_space_group_name_H-M   'P 1'
_cell_length_a   4.87031344
_cell_length_b   4.97392105
_cell_length_c   9.03418800
_cell_angle_alpha   90.00003055
_cell_angle_beta   89.99996920
_cell_angle_gamma   90.03237168
_symmetry_Int_Tables_number   1
_chemical_formula_structural   Cu2NiC16
_chemical_formula_sum   'Cu2 Ni1 C16'
_cell_volume   218.84914505
_cell_formula_units_Z   1
loop_
 _symmetry_equiv_pos_site_id
 _symmetry_equiv_pos_as_xyz
  1  'x, y, z'
loop_
 _atom_site_type_symbol
 _atom_site_label
 _atom_site_symmetry_multiplicity
 _atom_site_fract_x
 _atom_site_fract_y
 _atom_site_fract_z
 _atom_site_occupancy
  Ni  Ni0  1  0.50000000  0.00000000  0.67026300  1
  C  C1  1  0.00000000  0.00000000  0.02096900  1
  C  C2  1  0.00000000  0.00000000  0.31990200  1
  C  C3  1  0.50000100  0.49999900  0.85229000  1
  C  C4  1  0.49999900  0.50000100  0.48837700  1
  Cu  Cu5  1  0.00000000  0.00000000  0.67012900  1
  Cu  Cu6  1  0.50000000  0.50000000  0.17046100  1
  C  C7  1  0.24219300  0.82195400  0.83136400  1
  C  C8  1  0.22776600  0.79616300  0.17050600  1
  C  C9  1  0.24241500  0.82183800  0.50918000  1
  C  C10  1  0.27298200  0.30890300  0.99589700  1
  C  C11  1  0.27286700  0.30942400  0.34445300  1
  C  C12  1  0.29235700  0.33230700  0.67026400  1
  C  C13  1  0.72701800  0.69109700  0.99589700  1
  C  C14  1  0.72713300  0.69057600  0.34445300  1
  C  C15  1  0.70764300  0.66769300  0.67026400  1
  C  C16  1  0.75780800  0.17804300  0.83136300  1
  C  C17  1  0.77223400  0.20383700  0.17050600  1
  C  C18  1  0.75758200  0.17816300  0.50917900  1
