# generated using pymatgen
data_CuNiC16
_symmetry_space_group_name_H-M   'P 1'
_cell_length_a   5.54422395
_cell_length_b   10.99324067
_cell_length_c   9.63614943
_cell_angle_alpha   28.81440309
_cell_angle_beta   52.24846266
_cell_angle_gamma   57.57357574
_symmetry_Int_Tables_number   1
_chemical_formula_structural   CuNiC16
_chemical_formula_sum   'Cu1 Ni1 C16'
_cell_volume   223.81567906
_cell_formula_units_Z   1
loop_
 _symmetry_equiv_pos_site_id
 _symmetry_equiv_pos_as_xyz
  1  'x, y, z'
loop_
 _atom_site_type_symbol
 _atom_site_label
 _atom_site_symmetry_multiplicity
 _atom_site_fract_x
 _atom_site_fract_y
 _atom_site_fract_z
 _atom_site_occupancy
  Ni  Ni0  1  0.79981400  0.99974300  0.77651400  1
  Cu  Cu1  1  0.28772100  0.00410100  0.26013600  1
  C  C2  1  0.01216100  0.00380800  0.98449800  1
  C  C3  1  0.97669200  0.49638000  0.99901700  1
  C  C4  1  0.50090600  0.99289500  0.49653700  1
  C  C5  1  0.48742100  0.50302700  0.48772600  1
  C  C6  1  0.33784000  0.27934100  0.14246600  1
  C  C7  1  0.20745700  0.10910800  0.62931200  1
  C  C8  1  0.12798500  0.30529500  0.74956700  1
  C  C9  1  0.86058700  0.18513000  0.24288000  1
  C  C10  1  0.38092300  0.81928200  0.10218800  1
  C  C11  1  0.72903400  0.36473300  0.37723600  1
  C  C12  1  0.23348900  0.62095500  0.62019700  1
  C  C13  1  0.64000400  0.18557500  0.84342500  1
  C  C14  1  0.11659800  0.81412600  0.72891600  1
  C  C15  1  0.84473800  0.72159800  0.19806800  1
  C  C16  1  0.71656500  0.88696400  0.34966500  1
  C  C17  1  0.62079400  0.69008000  0.86261900  1
