# generated using pymatgen
data_Cu8NiC32
_symmetry_space_group_name_H-M   'P 1'
_cell_length_a   5.57229611
_cell_length_b   11.19481084
_cell_length_c   11.11815251
_cell_angle_alpha   54.34244744
_cell_angle_beta   54.08776841
_cell_angle_gamma   54.26304573
_symmetry_Int_Tables_number   1
_chemical_formula_structural   Cu8NiC32
_chemical_formula_sum   'Cu8 Ni1 C32'
_cell_volume   424.38904542
_cell_formula_units_Z   1
loop_
 _symmetry_equiv_pos_site_id
 _symmetry_equiv_pos_as_xyz
  1  'x, y, z'
loop_
 _atom_site_type_symbol
 _atom_site_label
 _atom_site_symmetry_multiplicity
 _atom_site_fract_x
 _atom_site_fract_y
 _atom_site_fract_z
 _atom_site_occupancy
  Ni  Ni0  1  0.66292900  0.81255100  0.80376800  1
  C  C1  1  0.38312700  0.17377800  0.17080600  1
  C  C2  1  0.15680800  0.06760200  0.57439200  1
  C  C3  1  0.16267200  0.57955700  0.05406500  1
  C  C4  1  0.15975600  0.56531200  0.56390600  1
  C  C5  1  0.87916500  0.42146600  0.42115500  1
  C  C6  1  0.88112000  0.42040500  0.92264200  1
  C  C7  1  0.89801000  0.92301800  0.40532300  1
  C  C8  1  0.84355100  0.92133600  0.90116200  1
  Cu  Cu9  1  0.18731800  0.07878100  0.07328000  1
  Cu  Cu10  1  0.36726500  0.66654000  0.17004500  1
  Cu  Cu11  1  0.37852100  0.17228100  0.65933000  1
  Cu  Cu12  1  0.66922300  0.32257600  0.31815500  1
  Cu  Cu13  1  0.37134900  0.66818200  0.66417400  1
  Cu  Cu14  1  0.67137500  0.32777600  0.81198100  1
  Cu  Cu15  1  0.67386500  0.81583600  0.31812700  1
  Cu  Cu16  1  0.02231000  0.99628300  0.98977800  1
  C  C17  1  0.09337700  0.37041500  0.20828800  1
  C  C18  1  0.45789700  0.03473300  0.36274400  1
  C  C19  1  0.74969000  0.22579000  0.03043400  1
  C  C20  1  0.25214600  0.27985800  0.46340000  1
  C  C21  1  0.58880300  0.46777100  0.10624700  1
  C  C22  1  0.07785200  0.37664800  0.71270100  1
  C  C23  1  0.07346800  0.87323100  0.21578600  1
  C  C24  1  0.97799100  0.11268900  0.28063300  1
  C  C25  1  0.45815600  0.01641000  0.86818300  1
  C  C26  1  0.46047700  0.51990400  0.37694700  1
  C  C27  1  0.79311600  0.21662900  0.51740100  1
  C  C28  1  0.78257200  0.70940700  0.01765300  1
  C  C29  1  0.25469600  0.28417000  0.96851100  1
  C  C30  1  0.25029200  0.77568100  0.46360800  1
  C  C31  1  0.58583400  0.46971400  0.60446200  1
  C  C32  1  0.59394000  0.97445300  0.10897800  1
  C  C33  1  0.07865600  0.87272400  0.70516500  1
  C  C34  1  0.95983100  0.11376000  0.77302300  1
  C  C35  1  0.96726000  0.60752800  0.27118900  1
  C  C36  1  0.46028600  0.52369500  0.87350300  1
  C  C37  1  0.79095900  0.71192200  0.51859900  1
  C  C38  1  0.25135900  0.76580600  0.95975600  1
  C  C39  1  0.58114900  0.96858400  0.59791000  1
  C  C40  1  0.97280500  0.60473000  0.77101900  1
