# generated using pymatgen
data_Cu4Ni2C25
_symmetry_space_group_name_H-M   'P 1'
_cell_length_a   6.01898563
_cell_length_b   6.01522833
_cell_length_c   15.50689843
_cell_angle_alpha   90.01554757
_cell_angle_beta   90.53215844
_cell_angle_gamma   120.03131901
_symmetry_Int_Tables_number   1
_chemical_formula_structural   Cu4Ni2C25
_chemical_formula_sum   'Cu4 Ni2 C25'
_cell_volume   486.03562857
_cell_formula_units_Z   1
loop_
 _symmetry_equiv_pos_site_id
 _symmetry_equiv_pos_as_xyz
  1  'x, y, z'
loop_
 _atom_site_type_symbol
 _atom_site_label
 _atom_site_symmetry_multiplicity
 _atom_site_fract_x
 _atom_site_fract_y
 _atom_site_fract_z
 _atom_site_occupancy
  C  C0  1  0.34343700  0.67189900  0.57123800  1
  C  C1  1  0.66996500  0.33527400  0.06514200  1
  C  C2  1  0.66729000  0.33447300  0.41530000  1
  C  C3  1  0.32084100  0.65979000  0.88850900  1
  C  C4  1  0.00772900  0.00379200  0.71914900  1
  C  C5  1  0.99600100  0.99841800  0.27936300  1
  C  C6  1  0.97538400  0.98707800  0.94215500  1
  Ni  Ni7  1  0.01447000  0.00796100  0.09764200  1
  Ni  Ni8  1  0.00710100  0.00231600  0.49770600  1
  Cu  Cu9  1  0.33934400  0.67038600  0.15884200  1
  Cu  Cu10  1  0.67545500  0.33747100  0.64084400  1
  Cu  Cu11  1  0.64947400  0.32396300  0.83116900  1
  Cu  Cu12  1  0.33242800  0.66650000  0.34515500  1
  C  C13  1  0.18792000  0.82507100  0.08101700  1
  C  C14  1  0.18874200  0.36431800  0.08096700  1
  C  C15  1  0.65469200  0.82807400  0.08766000  1
  C  C16  1  0.34276500  0.17240700  0.57116700  1
  C  C17  1  0.78481100  0.62626500  0.91044200  1
  C  C18  1  0.84469700  0.16861600  0.57470300  1
  C  C19  1  0.84895600  0.67663900  0.57470400  1
  C  C20  1  0.17046600  0.82667300  0.41246200  1
  C  C21  1  0.65386700  0.82688500  0.41501200  1
  C  C22  1  0.31194600  0.15582300  0.89109500  1
  C  C23  1  0.78460100  0.15740000  0.91066900  1
  C  C24  1  0.16867300  0.34420700  0.41239900  1
  C  C25  1  0.48105600  0.96101500  0.25385500  1
  C  C26  1  0.51685100  0.48611300  0.74317400  1
  C  C27  1  0.96933300  0.48343800  0.75652800  1
  C  C28  1  0.51638200  0.02881600  0.74332300  1
  C  C29  1  0.48092600  0.52102100  0.25373800  1
  C  C30  1  0.04231800  0.52186200  0.24987000  1
