# generated using pymatgen
data_Cu5NiC31
_symmetry_space_group_name_H-M   'P 1'
_cell_length_a   9.18319685
_cell_length_b   9.17476467
_cell_length_c   23.77188424
_cell_angle_alpha   89.90394898
_cell_angle_beta   90.18287359
_cell_angle_gamma   120.30942623
_symmetry_Int_Tables_number   1
_chemical_formula_structural   Cu5NiC31
_chemical_formula_sum   'Cu15 Ni3 C93'
_cell_volume   1729.09266033
_cell_formula_units_Z   3
loop_
 _symmetry_equiv_pos_site_id
 _symmetry_equiv_pos_as_xyz
  1  'x, y, z'
loop_
 _atom_site_type_symbol
 _atom_site_label
 _atom_site_symmetry_multiplicity
 _atom_site_fract_x
 _atom_site_fract_y
 _atom_site_fract_z
 _atom_site_occupancy
  C  C0  1  0.35971873  0.35846463  0.25249354  1
  C  C1  1  0.03100148  0.69913211  0.58487475  1
  C  C2  1  0.29664761  0.96091494  0.07509324  1
  C  C3  1  0.98504147  0.00084949  0.50149897  1
  C  C4  1  0.00104794  0.01561314  0.98766701  1
  C  C5  1  0.66460410  0.32522781  0.82709983  1
  C  C6  1  0.68430002  0.33005945  0.33242767  1
  C  C7  1  0.33164396  0.66532067  0.17010645  1
  C  C8  1  0.37040746  0.66281925  0.66590476  1
  C  C9  1  0.99367219  0.99153206  0.35164507  1
  C  C10  1  0.00483396  0.00330474  0.85098274  1
  C  C11  1  0.99076589  0.00413503  0.65194726  1
  C  C12  1  0.98492265  0.99495104  0.14681415  1
  C  C13  1  0.65984457  0.33242260  0.68666591  1
  C  C14  1  0.68069502  0.33837986  0.18434135  1
  C  C15  1  0.33048666  0.65707946  0.01433021  1
  C  C16  1  0.34644762  0.66443616  0.51618113  1
  C  C17  1  0.33409744  0.67820723  0.32267796  1
  C  C18  1  0.67137639  0.33222796  0.97468231  1
  C  C19  1  0.66108417  0.33647654  0.48494414  1
  C  C20  1  0.32462011  0.66760429  0.82277132  1
  Ni  Ni21  1  0.67299601  0.63064577  0.58330912  1
  Ni  Ni22  1  0.03136153  0.37048000  0.91811054  1
  Ni  Ni23  1  0.33852500  0.96584443  0.92148147  1
  Cu  Cu24  1  0.29873706  0.00045532  0.24690138  1
  Cu  Cu25  1  0.68964492  0.69271772  0.25040497  1
  Cu  Cu26  1  0.00728449  0.30311557  0.25116742  1
  Cu  Cu27  1  0.30257099  0.31703301  0.75379392  1
  Cu  Cu28  1  0.01172752  0.69794391  0.75158348  1
  Cu  Cu29  1  0.68424098  0.98738685  0.75427580  1
  Cu  Cu30  1  0.95418294  0.33331442  0.58062860  1
  Cu  Cu31  1  0.36880089  0.03817320  0.58093888  1
  Cu  Cu32  1  0.96062493  0.62888476  0.07904905  1
  Cu  Cu33  1  0.66614178  0.04627595  0.07881881  1
  Cu  Cu34  1  0.38055919  0.33076973  0.08199411  1
  Cu  Cu35  1  0.62448619  0.65670012  0.91727952  1
  Cu  Cu36  1  0.64017769  0.98497918  0.41947443  1
  Cu  Cu37  1  0.34084610  0.35922127  0.41664668  1
  Cu  Cu38  1  0.02047648  0.65742470  0.42222415  1
  C  C39  1  0.20579329  0.01387171  0.29557315  1
  C  C40  1  0.78671791  0.77803492  0.30120037  1
  C  C41  1  0.99384093  0.20410002  0.30174215  1
  C  C42  1  0.21574927  0.20932162  0.80211318  1
  C  C43  1  0.99139902  0.78971070  0.79832927  1
  C  C44  1  0.79238162  0.00824897  0.80249240  1
  C  C45  1  0.75215229  0.96017670  0.70118615  1
  C  C46  1  0.20589336  0.24769019  0.70086959  1
  C  C47  1  0.03935722  0.78935428  0.69732303  1
  C  C48  1  0.77303076  0.78704457  0.19868762  1
  C  C49  1  0.02073703  0.21872019  0.19963880  1
  C  C50  1  0.20756074  0.98729731  0.19340600  1
  C  C51  1  0.87387864  0.34550133  0.63209204  1
  C  C52  1  0.46467454  0.11500159  0.63239550  1
  C  C53  1  0.66664758  0.53474087  0.63619566  1
  C  C54  1  0.88058068  0.53955016  0.13151516  1
  C  C55  1  0.65250030  0.12663548  0.13055595  1
  C  C56  1  0.46597372  0.34105077  0.13594049  1
  C  C57  1  0.48474135  0.32543593  0.03359008  1
  C  C58  1  0.85733661  0.52911051  0.02925332  1
  C  C59  1  0.67447763  0.15283742  0.02874212  1
  C  C60  1  0.46861894  0.14161549  0.53029988  1
  C  C61  1  0.67340438  0.51936224  0.53073808  1
  C  C62  1  0.84575648  0.32093154  0.53021318  1
  C  C63  1  0.55373169  0.67980210  0.96894144  1
  C  C64  1  0.13057690  0.44644237  0.97137271  1
  C  C65  1  0.32285065  0.87745332  0.97728229  1
  C  C66  1  0.55377840  0.87919624  0.46830483  1
  C  C67  1  0.32190353  0.44987885  0.46413378  1
  C  C68  1  0.11966261  0.67589253  0.47312918  1
  C  C69  1  0.09731590  0.63193459  0.37136703  1
  C  C70  1  0.54219743  0.91424878  0.36709316  1
  C  C71  1  0.37040133  0.45408829  0.36320397  1
  C  C72  1  0.12847441  0.48946361  0.86629030  1
  C  C73  1  0.36145184  0.86410416  0.87144253  1
  C  C74  1  0.51217156  0.63223827  0.86768088  1
  C  C75  1  0.99539207  0.80342643  0.41692227  1
  C  C76  1  0.81202744  0.01013394  0.41589611  1
  C  C77  1  0.19528769  0.18672760  0.41408534  1
  C  C78  1  0.99289739  0.19065860  0.90969027  1
  C  C79  1  0.19072992  0.99327569  0.91170478  1
  C  C80  1  0.79571426  0.79738219  0.90902188  1
  C  C81  1  0.97306085  0.18321733  0.57943302  1
  C  C82  1  0.20359591  0.03095158  0.58012530  1
  C  C83  1  0.84448814  0.79938832  0.57899596  1
  C  C84  1  0.97581405  0.79867958  0.07720457  1
  C  C85  1  0.81889619  0.03236655  0.07776683  1
  C  C86  1  0.21565127  0.16786831  0.07943266  1
  C  C87  1  0.65906764  0.13425162  0.75017435  1
  C  C88  1  0.47481823  0.34228062  0.75050385  1
  C  C89  1  0.86727131  0.52388218  0.74937334  1
  C  C90  1  0.66617226  0.51835480  0.24917553  1
  C  C91  1  0.85936193  0.32710251  0.24904457  1
  C  C92  1  0.46693384  0.16101746  0.24683963  1
  C  C93  1  0.63096385  0.49423886  0.92192949  1
  C  C94  1  0.85692210  0.36946731  0.92240227  1
  C  C95  1  0.50860979  0.14534075  0.92353907  1
  C  C96  1  0.65652706  0.15708930  0.42659599  1
  C  C97  1  0.49742071  0.34424033  0.42582057  1
  C  C98  1  0.84668944  0.49915113  0.42728306  1
  C  C99  1  0.35664553  0.47712052  0.07798044  1
  C  C100  1  0.13390560  0.65418604  0.07774772  1
  C  C101  1  0.51021723  0.87862609  0.07578501  1
  C  C102  1  0.33899035  0.86412898  0.57560362  1
  C  C103  1  0.51992507  0.65403181  0.57885377  1
  C  C104  1  0.11868162  0.49253425  0.57502078  1
  C  C105  1  0.32186986  0.85224219  0.25149077  1
  C  C106  1  0.51567008  0.66960307  0.25249031  1
  C  C107  1  0.16735230  0.47163513  0.25366102  1
  C  C108  1  0.32001947  0.48989043  0.76244231  1
  C  C109  1  0.17054049  0.68676711  0.76213173  1
  C  C110  1  0.51213838  0.83009539  0.76293042  1
