# generated using pymatgen
data_Cu2Ni3C32
_symmetry_space_group_name_H-M   'P 1'
_cell_length_a   8.93219891
_cell_length_b   8.87397099
_cell_length_c   22.78671839
_cell_angle_alpha   89.79697777
_cell_angle_beta   90.10584883
_cell_angle_gamma   119.88489856
_symmetry_Int_Tables_number   1
_chemical_formula_structural   Cu2Ni3C32
_chemical_formula_sum   'Cu6 Ni9 C96'
_cell_volume   1565.98869628
_cell_formula_units_Z   3
loop_
 _symmetry_equiv_pos_site_id
 _symmetry_equiv_pos_as_xyz
  1  'x, y, z'
loop_
 _atom_site_type_symbol
 _atom_site_label
 _atom_site_symmetry_multiplicity
 _atom_site_fract_x
 _atom_site_fract_y
 _atom_site_fract_z
 _atom_site_occupancy
  Ni  Ni0  1  0.36369967  0.99724368  0.74961032  1
  Ni  Ni1  1  0.66510851  0.95864911  0.58818067  1
  Ni  Ni2  1  0.67068143  0.70693564  0.08163000  1
  Ni  Ni3  1  0.02658466  0.00191113  0.49743857  1
  Ni  Ni4  1  0.01497242  0.00195882  0.99657490  1
  Ni  Ni5  1  0.68028998  0.34067585  0.83409039  1
  Ni  Ni6  1  0.66659474  0.33347665  0.33371460  1
  Ni  Ni7  1  0.30460421  0.66375206  0.16761387  1
  Ni  Ni8  1  0.33049241  0.65702971  0.66760456  1
  Cu  Cu9  1  0.00739116  0.00229652  0.64465578  1
  Cu  Cu10  1  0.00870981  0.00246944  0.14518683  1
  Cu  Cu11  1  0.31581277  0.66420356  0.01548655  1
  Cu  Cu12  1  0.32704456  0.66673477  0.51418577  1
  Cu  Cu13  1  0.33241533  0.66685630  0.32065251  1
  Cu  Cu14  1  0.33819881  0.66658400  0.82242279  1
  C  C15  1  0.00145344  0.00025462  0.34626904  1
  C  C16  1  0.98484813  0.00169304  0.84527345  1
  C  C17  1  0.66881153  0.32398451  0.68455289  1
  C  C18  1  0.67633450  0.33710190  0.18598859  1
  C  C19  1  0.67410990  0.33751013  0.98329796  1
  C  C20  1  0.65842862  0.32995394  0.48258781  1
  C  C21  1  0.70671417  0.01051521  0.74668444  1
  C  C22  1  0.38854826  0.05335119  0.58323001  1
  C  C23  1  0.94523045  0.60815494  0.08436699  1
  C  C24  1  0.30713598  0.01588623  0.25038474  1
  C  C25  1  0.70867747  0.69739060  0.24909148  1
  C  C26  1  0.98616626  0.28864257  0.25038668  1
  C  C27  1  0.30024940  0.29234331  0.75081171  1
  C  C28  1  0.98714512  0.69791788  0.75146360  1
  C  C29  1  0.94702354  0.33969443  0.58233029  1
  C  C30  1  0.66426205  0.60860215  0.58347938  1
  C  C31  1  0.66305935  0.05185445  0.08359762  1
  C  C32  1  0.39281501  0.33405785  0.08262348  1
  C  C33  1  0.65483828  0.66773737  0.91890081  1
  C  C34  1  0.01252559  0.34423730  0.91625898  1
  C  C35  1  0.33224203  0.99129391  0.91476258  1
  C  C36  1  0.65689644  0.98676112  0.41764652  1
  C  C37  1  0.33141306  0.34595435  0.41592464  1
  C  C38  1  0.01047267  0.66625804  0.41594510  1
  C  C39  1  0.21943209  0.03798028  0.30373536  1
  C  C40  1  0.82330557  0.79008389  0.30092957  1
  C  C41  1  0.96637165  0.17982018  0.30416414  1
  C  C42  1  0.21260937  0.17543569  0.80311922  1
  C  C43  1  0.96491127  0.78469754  0.80486564  1
  C  C44  1  0.82272945  0.03250571  0.80136369  1
  C  C45  1  0.77917257  0.98729065  0.68941545  1
  C  C46  1  0.20404958  0.21611708  0.69720467  1
  C  C47  1  0.02031610  0.80463372  0.69891781  1
  C  C48  1  0.78092896  0.79221394  0.19406278  1
  C  C49  1  0.00693342  0.21070926  0.19739029  1
  C  C50  1  0.20742233  0.99252760  0.19736897  1
  C  C51  1  0.86589146  0.35571801  0.63744453  1
  C  C52  1  0.48957213  0.13852996  0.64211426  1
  C  C53  1  0.65696164  0.51153082  0.63783194  1
  C  C54  1  0.85478192  0.50629605  0.14143163  1
  C  C55  1  0.64638901  0.13472498  0.13794563  1
  C  C56  1  0.49149890  0.34715191  0.13715676  1
  C  C57  1  0.47667437  0.31808270  0.02860706  1
  C  C58  1  0.83673045  0.51720582  0.02881825  1
  C  C59  1  0.67102139  0.14783082  0.02930957  1
  C  C60  1  0.48831729  0.15959774  0.52872726  1
  C  C61  1  0.67878919  0.52592013  0.52900996  1
  C  C62  1  0.84702225  0.32993135  0.52906252  1
  C  C63  1  0.58236382  0.69716685  0.97323742  1
  C  C64  1  0.11909773  0.41824575  0.96890606  1
  C  C65  1  0.30139262  0.87780611  0.96585804  1
  C  C66  1  0.58702491  0.88439515  0.47229458  1
  C  C67  1  0.30001535  0.42041334  0.46879650  1
  C  C68  1  0.11757572  0.70087877  0.46875243  1
  C  C69  1  0.08579370  0.63151020  0.36427868  1
  C  C70  1  0.54231559  0.90480166  0.36742797  1
  C  C71  1  0.36239867  0.45424496  0.36377566  1
  C  C72  1  0.08721550  0.45327454  0.86411032  1
  C  C73  1  0.36444646  0.91948222  0.86078787  1
  C  C74  1  0.54366485  0.63801693  0.86797652  1
  C  C75  1  0.99266706  0.82559759  0.40617032  1
  C  C76  1  0.83149483  0.00423791  0.40740177  1
  C  C77  1  0.17497360  0.16780375  0.40726728  1
  C  C78  1  0.99432976  0.16712831  0.90791445  1
  C  C79  1  0.17530332  0.01020944  0.90691645  1
  C  C80  1  0.83050134  0.82504423  0.90932475  1
  C  C81  1  0.95233603  0.17518797  0.58271482  1
  C  C82  1  0.21065766  0.03639336  0.58139842  1
  C  C83  1  0.81669438  0.78628031  0.58369652  1
  C  C84  1  0.95342277  0.78647952  0.08322842  1
  C  C85  1  0.82060809  0.03597602  0.08433870  1
  C  C86  1  0.21825288  0.18291929  0.08333140  1
  C  C87  1  0.69195435  0.18249183  0.74551878  1
  C  C88  1  0.47442738  0.30220779  0.74830597  1
  C  C89  1  0.82664338  0.52499649  0.74588301  1
  C  C90  1  0.69659713  0.52145546  0.24748902  1
  C  C91  1  0.82125347  0.29775304  0.24790617  1
  C  C92  1  0.48156718  0.17956488  0.24655231  1
  C  C93  1  0.67529848  0.51002249  0.92450064  1
  C  C94  1  0.83439233  0.32033584  0.92430636  1
  C  C95  1  0.48896678  0.16706748  0.92437566  1
  C  C96  1  0.67989650  0.16609485  0.42416871  1
  C  C97  1  0.48798413  0.32494381  0.42323638  1
  C  C98  1  0.83273928  0.51215327  0.42481553  1
  C  C99  1  0.38563997  0.49825293  0.08038952  1
  C  C100  1  0.12479100  0.62700437  0.08378941  1
  C  C101  1  0.51100090  0.87311350  0.08190731  1
  C  C102  1  0.38105273  0.87496146  0.58259890  1
  C  C103  1  0.50668315  0.62544268  0.58242504  1
  C  C104  1  0.12207743  0.49073480  0.58090437  1
  C  C105  1  0.33107223  0.86396549  0.25726928  1
  C  C106  1  0.53524836  0.67497880  0.25688504  1
  C  C107  1  0.13550773  0.46515109  0.25672576  1
  C  C108  1  0.32365413  0.46703758  0.75767970  1
  C  C109  1  0.14098049  0.67691407  0.75911912  1
  C  C110  1  0.52082476  0.85806374  0.75510481  1
