# generated using pymatgen
data_Cu4NiC12
_symmetry_space_group_name_H-M   'P 1'
_cell_length_a   6.97994991
_cell_length_b   6.97995023
_cell_length_c   5.71083388
_cell_angle_alpha   75.56221618
_cell_angle_beta   104.43778135
_cell_angle_gamma   96.03366438
_symmetry_Int_Tables_number   1
_chemical_formula_structural   Cu4NiC12
_chemical_formula_sum   'Cu4 Ni1 C12'
_cell_volume   260.66027580
_cell_formula_units_Z   1
loop_
 _symmetry_equiv_pos_site_id
 _symmetry_equiv_pos_as_xyz
  1  'x, y, z'
loop_
 _atom_site_type_symbol
 _atom_site_label
 _atom_site_symmetry_multiplicity
 _atom_site_fract_x
 _atom_site_fract_y
 _atom_site_fract_z
 _atom_site_occupancy
  Ni  Ni0  1  0.91162900  0.91162900  0.25000000  1
  Cu  Cu1  1  0.20484200  0.61839900  0.75800300  1
  Cu  Cu2  1  0.38798000  0.80806700  0.26561400  1
  Cu  Cu3  1  0.61839900  0.20484200  0.74199700  1
  Cu  Cu4  1  0.80806700  0.38798000  0.23438600  1
  C  C5  1  0.03911500  0.78461600  0.62687800  1
  C  C6  1  0.09433900  0.40402000  0.79420100  1
  C  C7  1  0.20606400  0.95734600  0.19289300  1
  C  C8  1  0.35454300  0.63169600  0.55309800  1
  C  C9  1  0.40402000  0.09433900  0.70579900  1
  C  C10  1  0.34034500  0.64829400  0.04563600  1
  C  C11  1  0.63169600  0.35454300  0.94690200  1
  C  C12  1  0.61969900  0.89641300  0.29993100  1
  C  C13  1  0.64829400  0.34034500  0.45436400  1
  C  C14  1  0.78461600  0.03911500  0.87312200  1
  C  C15  1  0.89641300  0.61969900  0.20006900  1
  C  C16  1  0.95734600  0.20606400  0.30710700  1
