# generated using pymatgen
data_Cu2NiC12
_symmetry_space_group_name_H-M   'P 1'
_cell_length_a   5.93659162
_cell_length_b   5.88812785
_cell_length_c   6.26741037
_cell_angle_alpha   89.16372072
_cell_angle_beta   118.32705390
_cell_angle_gamma   120.34169660
_symmetry_Int_Tables_number   1
_chemical_formula_structural   Cu2NiC12
_chemical_formula_sum   'Cu2 Ni1 C12'
_cell_volume   158.95716185
_cell_formula_units_Z   1
loop_
 _symmetry_equiv_pos_site_id
 _symmetry_equiv_pos_as_xyz
  1  'x, y, z'
loop_
 _atom_site_type_symbol
 _atom_site_label
 _atom_site_symmetry_multiplicity
 _atom_site_fract_x
 _atom_site_fract_y
 _atom_site_fract_z
 _atom_site_occupancy
  Ni  Ni0  1  0.00000100  0.99999900  0.50000000  1
  Cu  Cu1  1  0.30967400  0.16096100  0.95845200  1
  Cu  Cu2  1  0.69032700  0.83903800  0.04154800  1
  C  C3  1  0.50000100  0.00000100  0.50000000  1
  C  C4  1  0.50000000  0.50000100  0.50000000  1
  C  C5  1  0.00000000  0.50000100  0.00000100  1
  C  C6  1  0.99999900  0.49999800  0.50000000  1
  C  C7  1  0.00594100  0.74813600  0.26832400  1
  C  C8  1  0.45478100  0.71524500  0.68822100  1
  C  C9  1  0.50659300  0.75014400  0.26422600  1
  C  C10  1  0.98967000  0.74393900  0.73671100  1
  C  C11  1  0.49340800  0.24985700  0.73577400  1
  C  C12  1  0.54521700  0.28475500  0.31177800  1
  C  C13  1  0.01032900  0.25606100  0.26328900  1
  C  C14  1  0.99405900  0.25186400  0.73167500  1
