# generated using pymatgen
data_CuNi3C35
_symmetry_space_group_name_H-M   'P 1'
_cell_length_a   17.95311304
_cell_length_b   9.00039474
_cell_length_c   22.57958054
_cell_angle_alpha   90.06516883
_cell_angle_beta   89.94228834
_cell_angle_gamma   119.92616017
_symmetry_Int_Tables_number   1
_chemical_formula_structural   CuNi3C35
_chemical_formula_sum   'Cu6 Ni18 C210'
_cell_volume   3162.06029902
_cell_formula_units_Z   6
loop_
 _symmetry_equiv_pos_site_id
 _symmetry_equiv_pos_as_xyz
  1  'x, y, z'
loop_
 _atom_site_type_symbol
 _atom_site_label
 _atom_site_symmetry_multiplicity
 _atom_site_fract_x
 _atom_site_fract_y
 _atom_site_fract_z
 _atom_site_occupancy
  C  C0  1  0.31754950  0.00204538  0.24510692  1
  C  C1  1  0.18940436  0.35986678  0.24917519  1
  C  C2  1  0.49787888  0.63618815  0.25497029  1
  C  C3  1  0.30962521  0.61942525  0.73952385  1
  C  C4  1  0.81718072  0.63390763  0.74385474  1
  C  C5  1  0.00198797  0.35385778  0.75398326  1
  C  C6  1  0.18229353  0.01600927  0.75608898  1
  C  C7  1  0.68999332  0.02033329  0.74902088  1
  C  C8  1  0.16260408  0.34919323  0.58807648  1
  C  C9  1  0.82884092  0.69976311  0.08034282  1
  C  C10  1  0.48239935  0.65310974  0.91874027  1
  C  C11  1  0.35149401  0.03992000  0.91718331  1
  C  C12  1  0.85406770  0.03936012  0.92220527  1
  C  C13  1  0.65994056  0.30406193  0.91739280  1
  C  C14  1  0.98045360  0.30797145  0.41737587  1
  C  C15  1  0.15854456  0.01474882  0.41594562  1
  C  C16  1  0.35425054  0.66772880  0.42318337  1
  C  C17  1  0.85047009  0.66208929  0.41593863  1
  C  C18  1  0.99364534  0.97176708  0.49745614  1
  C  C19  1  0.50379388  0.00024651  0.49805292  1
  C  C20  1  0.00913683  0.02162188  0.99742210  1
  C  C21  1  0.50072716  0.01652827  0.99725475  1
  C  C22  1  0.32758760  0.32852811  0.83469928  1
  C  C23  1  0.83513941  0.33309665  0.82869774  1
  C  C24  1  0.33469295  0.33481429  0.32875417  1
  C  C25  1  0.82886542  0.33246456  0.33347578  1
  C  C26  1  0.16346441  0.67255172  0.16100771  1
  C  C27  1  0.67839012  0.69732839  0.16182476  1
  C  C28  1  0.17546011  0.66674860  0.66084045  1
  C  C29  1  0.66476436  0.65464454  0.66028584  1
  Ni  Ni30  1  0.00099968  0.98516792  0.34896425  1
  Ni  Ni31  1  0.50343296  0.00055813  0.35103810  1
  Ni  Ni32  1  0.00512834  0.01375544  0.84956036  1
  Ni  Ni33  1  0.50404308  0.01855201  0.85046517  1
  Ni  Ni34  1  0.33210636  0.34323422  0.68007826  1
  Ni  Ni35  1  0.83103679  0.32541020  0.68358297  1
  Ni  Ni36  1  0.33116402  0.33618709  0.18401229  1
  Ni  Ni37  1  0.83123261  0.31721831  0.18038846  1
  Ni  Ni38  1  0.32994622  0.32942850  0.98196143  1
  Ni  Ni39  1  0.83919861  0.32583606  0.98828761  1
  Ni  Ni40  1  0.34136379  0.34914182  0.48682604  1
  Ni  Ni41  1  0.82920447  0.33065937  0.48147502  1
  Ni  Ni42  1  0.16445669  0.66325807  0.01608152  1
  Ni  Ni43  1  0.66303614  0.66342217  0.02056777  1
  Ni  Ni44  1  0.16849104  0.67946051  0.51970834  1
  Ni  Ni45  1  0.66441469  0.66363950  0.51630867  1
  Ni  Ni46  1  0.67049765  0.66827985  0.31750285  1
  Ni  Ni47  1  0.16545191  0.65521513  0.81773511  1
  Cu  Cu48  1  0.99688479  0.00515287  0.65029088  1
  Cu  Cu49  1  0.50114168  0.00817898  0.64287275  1
  Cu  Cu50  1  0.00000153  -0.00027108  0.14598217  1
  Cu  Cu51  1  0.49763050  0.99492271  0.14777481  1
  Cu  Cu52  1  0.16031576  0.67058617  0.31333975  1
  Cu  Cu53  1  0.66097162  0.65008803  0.81420701  1
  C  C54  1  0.14988061  0.00873198  0.25222794  1
  C  C55  1  0.35453501  0.70229273  0.25509152  1
  C  C56  1  0.15215106  0.29889655  0.75187191  1
  C  C57  1  0.64975617  0.29115539  0.75242265  1
  C  C58  1  0.85263354  0.00560075  0.75613186  1
  C  C59  1  0.33024559  0.63109585  0.58045101  1
  C  C60  1  0.82797694  0.03150314  0.08015470  1
  C  C61  1  0.51530923  0.36636177  0.92191269  1
  C  C62  1  0.01516732  0.66460382  0.42180430  1
  C  C63  1  0.64875523  0.00270336  0.25202533  1
  C  C64  1  0.84881665  0.69668918  0.25052422  1
  C  C65  1  0.99400992  0.28641417  0.25304646  1
  C  C66  1  0.50486425  0.29660372  0.25065494  1
  C  C67  1  0.00192746  0.71074106  0.75164384  1
  C  C68  1  0.49720105  0.70781983  0.75214236  1
  C  C69  1  0.35242777  0.00208024  0.75179031  1
  C  C70  1  0.48177239  0.34414776  0.58275433  1
  C  C71  1  0.97784600  0.33373523  0.58208531  1
  C  C72  1  0.18782887  0.03885101  0.58324732  1
  C  C73  1  0.68941777  0.03548037  0.58245349  1
  C  C74  1  0.83128955  0.62498540  0.58236333  1
  C  C75  1  0.47830948  0.62194647  0.08336929  1
  C  C76  1  0.98140895  0.62064353  0.08320302  1
  C  C77  1  0.33129103  0.03722225  0.08253589  1
  C  C78  1  0.18911366  0.34311639  0.08259906  1
  C  C79  1  0.68751985  0.33190341  0.08237674  1
  C  C80  1  0.31226030  0.66501589  0.91658413  1
  C  C81  1  0.81799080  0.66562009  0.91861204  1
  C  C82  1  0.01899391  0.37395925  0.91662161  1
  C  C83  1  0.16366022  0.95435465  0.91675508  1
  C  C84  1  0.66582683  0.96174918  0.91773661  1
  C  C85  1  0.31714574  0.96753419  0.41788622  1
  C  C86  1  0.81085393  0.95765968  0.41682252  1
  C  C87  1  0.16566985  0.36865990  0.41780595  1
  C  C88  1  0.66353049  0.37118873  0.41702639  1
  C  C89  1  0.52102151  0.66654793  0.41507322  1
  C  C90  1  0.11022246  0.04327371  0.31150889  1
  C  C91  1  0.60720594  0.02417710  0.30473403  1
  C  C92  1  0.41118375  0.79311555  0.31303056  1
  C  C93  1  0.90092894  0.78148494  0.30390851  1
  C  C94  1  0.49119488  0.18806145  0.30284160  1
  C  C95  1  0.98515501  0.18905963  0.30768202  1
  C  C96  1  0.10456967  0.16321142  0.80378271  1
  C  C97  1  0.61134999  0.17861282  0.81181905  1
  C  C98  1  0.48436015  0.78476596  0.80647058  1
  C  C99  1  0.98311863  0.78447790  0.80299597  1
  C  C100  1  0.40169882  0.01962335  0.80639617  1
  C  C101  1  0.90691509  0.02607975  0.81486845  1
  C  C102  1  0.39366275  0.96794232  0.69963941  1
  C  C103  1  0.89727041  0.95838596  0.69874561  1
  C  C104  1  0.09045674  0.20852322  0.68989557  1
  C  C105  1  0.58762008  0.19175272  0.69564661  1
  C  C106  1  0.01760651  0.81996713  0.69753745  1
  C  C107  1  0.50858543  0.81808429  0.69956122  1
  C  C108  1  0.40138299  0.83804817  0.19806788  1
  C  C109  1  0.89162564  0.80575866  0.19626382  1
  C  C110  1  0.00607139  0.20069387  0.20066169  1
  C  C111  1  0.51830875  0.21830313  0.19669509  1
  C  C112  1  0.08875275  0.98453349  0.19501228  1
  C  C113  1  0.59289815  0.97841307  0.19848781  1
  C  C114  1  0.43869870  0.35518350  0.63701152  1
  C  C115  1  0.93613059  0.34581016  0.63659747  1
  C  C116  1  0.23627388  0.12281704  0.63770271  1
  C  C117  1  0.73608698  0.11185936  0.63826831  1
  C  C118  1  0.31681360  0.51649801  0.63976191  1
  C  C119  1  0.82495763  0.52842052  0.63727424  1
  C  C120  1  0.43568491  0.52275699  0.13744095  1
  C  C121  1  0.94036423  0.52446028  0.13790058  1
  C  C122  1  0.32449442  0.12098455  0.13743480  1
  C  C123  1  0.82032935  0.12737080  0.13751717  1
  C  C124  1  0.23635744  0.36075312  0.13852843  1
  C  C125  1  0.74276064  0.35644441  0.13459375  1
  C  C126  1  0.23130899  0.31620122  0.03112848  1
  C  C127  1  0.72664136  0.31154163  0.02684434  1
  C  C128  1  0.42656835  0.54719144  0.02952434  1
  C  C129  1  0.92662709  0.54489967  0.03085757  1
  C  C130  1  0.34173552  0.13971991  0.02908371  1
  C  C131  1  0.84526953  0.13241881  0.01743141  1
  C  C132  1  0.22912251  0.14413136  0.52950110  1
  C  C133  1  0.73167649  0.14572060  0.53086883  1
  C  C134  1  0.34426585  0.54949658  0.51963565  1
  C  C135  1  0.84053532  0.54102608  0.52873070  1
  C  C136  1  0.43026942  0.31551043  0.52929004  1
  C  C137  1  0.92689792  0.31110149  0.52835016  1
  C  C138  1  0.27077455  0.69618773  0.96767437  1
  C  C139  1  0.77603317  0.69276995  0.97072413  1
  C  C140  1  0.07176341  0.46549198  0.96844958  1
  C  C141  1  0.58314332  0.46476617  0.97389077  1
  C  C142  1  0.15664066  0.84823752  0.96878217  1
  C  C143  1  0.65822275  0.85501837  0.96832496  1
  C  C144  1  0.27510683  0.85271266  0.46808724  1
  C  C145  1  0.77153619  0.84612521  0.46918723  1
  C  C146  1  0.15823937  0.45749965  0.47025842  1
  C  C147  1  0.65298100  0.45423228  0.47060823  1
  C  C148  1  0.08325484  0.70341667  0.47379856  1
  C  C149  1  0.57307395  0.67959025  0.46709800  1
  C  C150  1  0.06203871  0.63278686  0.36183989  1
  C  C151  1  0.56147054  0.65269023  0.35890577  1
  C  C152  1  0.26332411  0.88593399  0.36210794  1
  C  C153  1  0.76044107  0.87738161  0.36264723  1
  C  C154  1  0.18101703  0.47670925  0.36326856  1
  C  C155  1  0.67898545  0.48263438  0.36402707  1
  C  C156  1  0.05863574  0.46754121  0.86036742  1
  C  C157  1  0.56107969  0.49167156  0.86183507  1
  C  C158  1  0.17790101  0.87698626  0.86147069  1
  C  C159  1  0.68056156  0.88717777  0.86176512  1
  C  C160  1  0.26453458  0.64722209  0.86085479  1
  C  C161  1  0.76219471  0.64131779  0.86403023  1
  C  C162  1  0.00323130  0.83305182  0.41283209  1
  C  C163  1  0.51038403  0.82174796  0.41407183  1
  C  C164  1  0.40351051  0.98774471  0.41055124  1
  C  C165  1  0.90027519  0.98150093  0.41112265  1
  C  C166  1  0.08432773  0.20168438  0.41257852  1
  C  C167  1  0.58689645  0.19873195  0.41023299  1
  C  C168  1  0.00889341  0.19844693  0.91552397  1
  C  C169  1  0.50395155  0.17417764  0.91351443  1
  C  C170  1  0.08572986  0.97010439  0.91279983  1
  C  C171  1  0.58395952  0.96643018  0.91294289  1
  C  C172  1  0.40181401  0.81928723  0.91200750  1
  C  C173  1  0.90338819  0.81827820  0.91136213  1
  C  C174  1  0.49270463  0.18667964  0.58759267  1
  C  C175  1  0.98792084  0.17331339  0.58530337  1
  C  C176  1  0.09986696  0.02812342  0.58628951  1
  C  C177  1  0.60032405  0.01734704  0.58629257  1
  C  C178  1  0.41731461  0.82609873  0.58878368  1
  C  C179  1  0.91162542  0.80008032  0.58556963  1
  C  C180  1  0.48847346  0.80115578  0.08928416  1
  C  C181  1  0.98903041  0.79817157  0.08818890  1
  C  C182  1  0.41262475  0.02330741  0.08662198  1
  C  C183  1  0.91614283  0.00321386  0.08830250  1
  C  C184  1  0.10000130  0.18465071  0.08683760  1
  C  C185  1  0.60063248  0.17488752  0.08861462  1
  C  C186  1  0.34437765  0.15593781  0.74334956  1
  C  C187  1  0.84762356  0.17774817  0.74376002  1
  C  C188  1  0.24782679  0.31994880  0.74486924  1
  C  C189  1  0.74771306  0.32865179  0.74278582  1
  C  C190  1  0.42473959  0.53466241  0.74474742  1
  C  C191  1  0.92703354  0.53563821  0.74134304  1
  C  C192  1  0.34781648  0.51802621  0.24415838  1
  C  C193  1  0.84112942  0.52621795  0.24335304  1
  C  C194  1  0.42556179  0.31052229  0.24306054  1
  C  C195  1  0.92277678  0.31932634  0.24654957  1
  C  C196  1  0.24755793  0.16751866  0.24304637  1
  C  C197  1  0.73510577  0.15539891  0.24495642  1
  C  C198  1  0.32204302  0.51123415  0.92336712  1
  C  C199  1  0.82113933  0.50391859  0.92275269  1
  C  C200  1  0.42006720  0.35074595  0.92466384  1
  C  C201  1  0.93100407  0.35515105  0.91974263  1
  C  C202  1  0.24281717  0.12782256  0.92227936  1
  C  C203  1  0.74022702  0.14095325  0.92096146  1
  C  C204  1  0.32026754  0.13591605  0.42331055  1
  C  C205  1  0.82108217  0.13131984  0.42363566  1
  C  C206  1  0.24065594  0.33850405  0.42072049  1
  C  C207  1  0.74289550  0.35609565  0.42253363  1
  C  C208  1  0.43252409  0.51007800  0.41770535  1
  C  C209  1  0.92036008  0.48971246  0.42420768  1
  C  C210  1  0.17819906  0.49427842  0.07604607  1
  C  C211  1  0.67731893  0.48542010  0.07916435  1
  C  C212  1  0.06855301  0.64578742  0.07709779  1
  C  C213  1  0.56504012  0.64450688  0.07935633  1
  C  C214  1  0.25614708  0.86220888  0.07832738  1
  C  C215  1  0.74787481  0.83136660  0.07727899  1
  C  C216  1  0.17512457  0.86536576  0.58009126  1
  C  C217  1  0.67790775  0.86218735  0.57588702  1
  C  C218  1  0.24298875  0.64701661  0.57676203  1
  C  C219  1  0.75492925  0.64802607  0.57840502  1
  C  C220  1  0.06591774  0.48154288  0.57859686  1
  C  C221  1  0.56870129  0.49594083  0.57839751  1
  C  C222  1  0.15903911  0.83281764  0.25446831  1
  C  C223  1  0.65266765  0.84024838  0.25507905  1
  C  C224  1  0.25659015  0.67625995  0.25682678  1
  C  C225  1  0.76261115  0.68233493  0.25465414  1
  C  C226  1  0.07931372  0.45566526  0.25514559  1
  C  C227  1  0.57972960  0.47516115  0.25660490  1
  C  C228  1  0.15759473  0.48731477  0.75527478  1
  C  C229  1  0.65849465  0.48484501  0.75468863  1
  C  C230  1  0.08130338  0.69683382  0.75809626  1
  C  C231  1  0.58075762  0.70695722  0.75529802  1
  C  C232  1  0.26404759  0.84742355  0.75580499  1
  C  C233  1  0.75425511  0.83714114  0.75733490  1
