# generated using pymatgen
data_Cu2NiC6
_symmetry_space_group_name_H-M   'P 1'
_cell_length_a   5.19008541
_cell_length_b   5.58006071
_cell_length_c   5.20831121
_cell_angle_alpha   85.00393021
_cell_angle_beta   117.59192749
_cell_angle_gamma   64.39556659
_symmetry_Int_Tables_number   1
_chemical_formula_structural   Cu2NiC6
_chemical_formula_sum   'Cu2 Ni1 C6'
_cell_volume   112.49983236
_cell_formula_units_Z   1
loop_
 _symmetry_equiv_pos_site_id
 _symmetry_equiv_pos_as_xyz
  1  'x, y, z'
loop_
 _atom_site_type_symbol
 _atom_site_label
 _atom_site_symmetry_multiplicity
 _atom_site_fract_x
 _atom_site_fract_y
 _atom_site_fract_z
 _atom_site_occupancy
  Ni  Ni0  1  0.41535200  0.90136000  0.72490500  1
  Cu  Cu1  1  0.00747300  0.99203400  0.00597900  1
  Cu  Cu2  1  0.99443600  0.50366100  0.49434800  1
  C  C3  1  0.11859400  0.20824200  0.82889500  1
  C  C4  1  0.86843000  0.74590200  0.11852900  1
  C  C5  1  0.49659900  0.22324700  0.62601200  1
  C  C6  1  0.93486700  0.20813100  0.27796200  1
  C  C7  1  0.16819600  0.72197700  0.76867700  1
  C  C8  1  0.50855400  0.74544600  0.41719300  1
