# generated using pymatgen
data_Cu2NiC10
_symmetry_space_group_name_H-M   'P 1'
_cell_length_a   5.34671804
_cell_length_b   5.28599306
_cell_length_c   6.41931200
_cell_angle_alpha   90.00000000
_cell_angle_beta   90.00000000
_cell_angle_gamma   87.01185924
_symmetry_Int_Tables_number   1
_chemical_formula_structural   Cu2NiC10
_chemical_formula_sum   'Cu2 Ni1 C10'
_cell_volume   181.18050374
_cell_formula_units_Z   1
loop_
 _symmetry_equiv_pos_site_id
 _symmetry_equiv_pos_as_xyz
  1  'x, y, z'
loop_
 _atom_site_type_symbol
 _atom_site_label
 _atom_site_symmetry_multiplicity
 _atom_site_fract_x
 _atom_site_fract_y
 _atom_site_fract_z
 _atom_site_occupancy
  Ni  Ni0  1  0.50000000  0.75000000  0.06880100  1
  Cu  Cu1  1  0.00000000  0.75000000  0.18324700  1
  Cu  Cu2  1  0.00000000  0.25000000  0.81421400  1
  C  C3  1  0.50000000  0.75000000  0.63684800  1
  C  C4  1  0.50000000  0.25000000  0.35073100  1
  C  C5  1  0.24060200  0.35026400  0.62543900  1
  C  C6  1  0.75939800  0.14973600  0.62543900  1
  C  C7  1  0.73776700  0.59283300  0.33975900  1
  C  C8  1  0.26223300  0.90716700  0.33975900  1
  C  C9  1  0.26448100  0.46400200  0.12729800  1
  C  C10  1  0.73551900  0.03599800  0.12729800  1
  C  C11  1  0.83276100  0.55773500  0.93266700  1
  C  C12  1  0.16723900  0.94226500  0.93266700  1
