# generated using pymatgen
data_Cu3Ni2C
_symmetry_space_group_name_H-M   'P 1'
_cell_length_a   8.73741600
_cell_length_b   12.76651700
_cell_length_c   14.83716100
_cell_angle_alpha   90.00000000
_cell_angle_beta   90.00000000
_cell_angle_gamma   90.00000000
_symmetry_Int_Tables_number   1
_chemical_formula_structural   Cu3Ni2C
_chemical_formula_sum   'Cu24 Ni16 C8'
_cell_volume   1655.03144917
_cell_formula_units_Z   8
loop_
 _symmetry_equiv_pos_site_id
 _symmetry_equiv_pos_as_xyz
  1  'x, y, z'
loop_
 _atom_site_type_symbol
 _atom_site_label
 _atom_site_symmetry_multiplicity
 _atom_site_fract_x
 _atom_site_fract_y
 _atom_site_fract_z
 _atom_site_occupancy
  Ni  Ni0  1  0.15162600  0.58183400  0.13421900  1
  Ni  Ni1  1  0.98921000  0.36516800  0.60992600  1
  Ni  Ni2  1  0.98921000  0.86516800  0.89007400  1
  Ni  Ni3  1  0.01079000  0.36516800  0.10992600  1
  Ni  Ni4  1  0.01079000  0.86516800  0.39007400  1
  Ni  Ni5  1  0.51815100  0.53884800  0.87301100  1
  Ni  Ni6  1  0.51815100  0.03884800  0.62698900  1
  Ni  Ni7  1  0.48184900  0.53884800  0.37301100  1
  Ni  Ni8  1  0.34398600  0.14755400  0.96295500  1
  Ni  Ni9  1  0.65601400  0.64755400  0.03704500  1
  Ni  Ni10  1  0.65601400  0.14755400  0.46295500  1
  Ni  Ni11  1  0.34398600  0.64755400  0.53704500  1
  Ni  Ni12  1  0.84837400  0.08183400  0.86578100  1
  Ni  Ni13  1  0.84837400  0.58183400  0.63421900  1
  Ni  Ni14  1  0.15162600  0.08183400  0.36578100  1
  Ni  Ni15  1  0.48184900  0.03884800  0.12698900  1
  Cu  Cu16  1  0.74302800  0.33039100  0.08737300  1
  Cu  Cu17  1  0.25697200  0.83039100  0.91262700  1
  Cu  Cu18  1  0.25697200  0.33039100  0.58737300  1
  Cu  Cu19  1  0.74302800  0.83039100  0.41262700  1
  Cu  Cu20  1  0.32128000  0.40464500  0.13837100  1
  Cu  Cu21  1  0.67872000  0.90464500  0.86162900  1
  Cu  Cu22  1  0.67872000  0.40464500  0.63837100  1
  Cu  Cu23  1  0.32128000  0.90464500  0.36162900  1
  Cu  Cu24  1  0.99889500  0.74460100  0.13798200  1
  Cu  Cu25  1  0.00110500  0.24460100  0.86201800  1
  Cu  Cu26  1  0.00110500  0.74460100  0.63798200  1
  Cu  Cu27  1  0.99889500  0.24460100  0.36201800  1
  Cu  Cu28  1  0.17064000  0.58541100  0.39518500  1
  Cu  Cu29  1  0.82936000  0.08541100  0.60481500  1
  Cu  Cu30  1  0.82936000  0.58541100  0.89518500  1
  Cu  Cu31  1  0.17064000  0.08541100  0.10481500  1
  Cu  Cu32  1  0.49731300  0.71378100  0.66445200  1
  Cu  Cu33  1  0.50268700  0.21378100  0.33554800  1
  Cu  Cu34  1  0.50268700  0.71378100  0.16445200  1
  Cu  Cu35  1  0.49731300  0.21378100  0.83554800  1
  Cu  Cu36  1  0.74901600  0.50247000  0.35080500  1
  Cu  Cu37  1  0.25098400  0.00247000  0.64919500  1
  Cu  Cu38  1  0.25098400  0.50247000  0.85080500  1
  Cu  Cu39  1  0.74901600  0.00247000  0.14919500  1
  C  C40  1  0.98751000  0.00259900  0.38294800  1
  C  C41  1  0.01249000  0.50259900  0.61705200  1
  C  C42  1  0.01249000  0.00259900  0.88294800  1
  C  C43  1  0.98751000  0.50259900  0.11705200  1
  C  C44  1  0.49307100  0.09909700  0.52074600  1
  C  C45  1  0.49307100  0.59909700  0.97925400  1
  C  C46  1  0.50692900  0.09909700  0.02074600  1
  C  C47  1  0.50692900  0.59909700  0.47925400  1
