# generated using pymatgen
data_CuNi2C
_symmetry_space_group_name_H-M   'P 1'
_cell_length_a   6.37532106
_cell_length_b   6.37532106
_cell_length_c   6.37532106
_cell_angle_alpha   132.98850123
_cell_angle_beta   132.98850123
_cell_angle_gamma   68.67220650
_symmetry_Int_Tables_number   1
_chemical_formula_structural   CuNi2C
_chemical_formula_sum   'Cu4 Ni8 C4'
_cell_volume   136.14788037
_cell_formula_units_Z   4
loop_
 _symmetry_equiv_pos_site_id
 _symmetry_equiv_pos_as_xyz
  1  'x, y, z'
loop_
 _atom_site_type_symbol
 _atom_site_label
 _atom_site_symmetry_multiplicity
 _atom_site_fract_x
 _atom_site_fract_y
 _atom_site_fract_z
 _atom_site_occupancy
  C  C0  1  0.00000000  0.00000000  0.00000000  1
  C  C1  1  0.25000000  0.75000000  0.50000000  1
  C  C2  1  0.49211000  0.99211000  0.50000000  1
  C  C3  1  0.00789000  0.50789000  0.50000000  1
  Ni  Ni4  1  0.69407700  0.58408100  0.65719400  1
  Ni  Ni5  1  0.92688700  0.03688300  0.34280600  1
  Ni  Ni6  1  0.96311700  0.30592300  0.89000400  1
  Ni  Ni7  1  0.41591900  0.07311300  0.10999600  1
  Ni  Ni8  1  0.54194700  0.46927900  0.25793800  1
  Ni  Ni9  1  0.21134100  0.28400900  0.74206200  1
  Ni  Ni10  1  0.71599100  0.45805300  0.92733200  1
  Ni  Ni11  1  0.53072100  0.78865900  0.07266800  1
  Cu  Cu12  1  0.63970600  0.65843300  0.52654500  1
  Cu  Cu13  1  0.13188800  0.11316100  0.47345500  1
  Cu  Cu14  1  0.88683900  0.36029400  0.01872800  1
  Cu  Cu15  1  0.34156700  0.86811200  0.98127200  1
