# generated using pymatgen
data_Cu6Ni6C
_symmetry_space_group_name_H-M   'P 1'
_cell_length_a   6.56680700
_cell_length_b   11.55784900
_cell_length_c   12.17190900
_cell_angle_alpha   90.00000000
_cell_angle_beta   90.00000000
_cell_angle_gamma   90.00000000
_symmetry_Int_Tables_number   1
_chemical_formula_structural   Cu6Ni6C
_chemical_formula_sum   'Cu24 Ni24 C4'
_cell_volume   923.82554204
_cell_formula_units_Z   4
loop_
 _symmetry_equiv_pos_site_id
 _symmetry_equiv_pos_as_xyz
  1  'x, y, z'
loop_
 _atom_site_type_symbol
 _atom_site_label
 _atom_site_symmetry_multiplicity
 _atom_site_fract_x
 _atom_site_fract_y
 _atom_site_fract_z
 _atom_site_occupancy
  C  C0  1  0.43540800  0.25000000  0.37311400  1
  C  C1  1  0.93540800  0.75000000  0.12688600  1
  C  C2  1  0.56459200  0.75000000  0.62688600  1
  C  C3  1  0.06459200  0.25000000  0.87311400  1
  Ni  Ni4  1  0.43950300  0.62189400  0.72682000  1
  Ni  Ni5  1  0.67159500  0.75000000  0.22121400  1
  Ni  Ni6  1  0.81205200  0.62304600  0.02575700  1
  Ni  Ni7  1  0.18794800  0.12304600  0.97424300  1
  Ni  Ni8  1  0.70022200  0.25000000  0.46717600  1
  Ni  Ni9  1  0.17159500  0.25000000  0.27878600  1
  Ni  Ni10  1  0.79977800  0.25000000  0.96717600  1
  Ni  Ni11  1  0.56049700  0.12189400  0.27318000  1
  Ni  Ni12  1  0.93950300  0.12189400  0.77318000  1
  Ni  Ni13  1  0.56049700  0.37810600  0.27318000  1
  Ni  Ni14  1  0.43950300  0.87810600  0.72682000  1
  Ni  Ni15  1  0.93950300  0.37810600  0.77318000  1
  Ni  Ni16  1  0.29977800  0.75000000  0.53282400  1
  Ni  Ni17  1  0.18794800  0.37695400  0.97424300  1
  Ni  Ni18  1  0.32840500  0.25000000  0.77878600  1
  Ni  Ni19  1  0.82840500  0.75000000  0.72121400  1
  Ni  Ni20  1  0.68794800  0.87695400  0.52575700  1
  Ni  Ni21  1  0.31205200  0.37695400  0.47424300  1
  Ni  Ni22  1  0.20022200  0.75000000  0.03282400  1
  Ni  Ni23  1  0.06049700  0.87810600  0.22682000  1
  Ni  Ni24  1  0.81205200  0.87695400  0.02575700  1
  Ni  Ni25  1  0.31205200  0.12304600  0.47424300  1
  Ni  Ni26  1  0.68794800  0.62304600  0.52575700  1
  Ni  Ni27  1  0.06049700  0.62189400  0.22682000  1
  Cu  Cu28  1  0.36909000  0.94979800  0.78131900  1
  Cu  Cu29  1  0.75555700  0.94744500  0.46868900  1
  Cu  Cu30  1  0.02432800  0.25000000  0.22611100  1
  Cu  Cu31  1  0.84882900  0.25000000  0.51857900  1
  Cu  Cu32  1  0.97567200  0.75000000  0.77388900  1
  Cu  Cu33  1  0.74444300  0.55255500  0.96868900  1
  Cu  Cu34  1  0.75555700  0.55255500  0.46868900  1
  Cu  Cu35  1  0.13091000  0.94979800  0.28131900  1
  Cu  Cu36  1  0.65117100  0.25000000  0.01857900  1
  Cu  Cu37  1  0.24444300  0.05255500  0.53131100  1
  Cu  Cu38  1  0.25555700  0.44744500  0.03131100  1
  Cu  Cu39  1  0.63091000  0.05020200  0.21868100  1
  Cu  Cu40  1  0.74444300  0.94744500  0.96868900  1
  Cu  Cu41  1  0.86909000  0.44979800  0.71868100  1
  Cu  Cu42  1  0.13091000  0.55020200  0.28131900  1
  Cu  Cu43  1  0.52432800  0.75000000  0.27388900  1
  Cu  Cu44  1  0.24444300  0.44744500  0.53131100  1
  Cu  Cu45  1  0.86909000  0.05020200  0.71868100  1
  Cu  Cu46  1  0.15117100  0.75000000  0.48142100  1
  Cu  Cu47  1  0.25555700  0.05255500  0.03131100  1
  Cu  Cu48  1  0.63091000  0.44979800  0.21868100  1
  Cu  Cu49  1  0.36909000  0.55020200  0.78131900  1
  Cu  Cu50  1  0.34882900  0.75000000  0.98142100  1
  Cu  Cu51  1  0.47567200  0.25000000  0.72611100  1
