# generated using pymatgen
data_Cu3NiC9
_symmetry_space_group_name_H-M   'P 1'
_cell_length_a   5.87054909
_cell_length_b   6.06510083
_cell_length_c   6.09396147
_cell_angle_alpha   57.56507214
_cell_angle_beta   61.12889895
_cell_angle_gamma   61.44809111
_symmetry_Int_Tables_number   1
_chemical_formula_structural   Cu3NiC9
_chemical_formula_sum   'Cu3 Ni1 C9'
_cell_volume   153.16759114
_cell_formula_units_Z   1
loop_
 _symmetry_equiv_pos_site_id
 _symmetry_equiv_pos_as_xyz
  1  'x, y, z'
loop_
 _atom_site_type_symbol
 _atom_site_label
 _atom_site_symmetry_multiplicity
 _atom_site_fract_x
 _atom_site_fract_y
 _atom_site_fract_z
 _atom_site_occupancy
  Ni  Ni0  1  0.29791400  0.27398000  0.20804700  1
  C  C1  1  0.66974700  0.67487200  0.07117200  1
  Cu  Cu2  1  0.66447700  0.15874200  0.58852700  1
  Cu  Cu3  1  0.15929000  0.66125600  0.58419100  1
  Cu  Cu4  1  0.66436900  0.66285200  0.58941300  1
  C  C5  1  0.88992200  0.41159500  0.33582100  1
  C  C6  1  0.43897600  0.40967100  0.34020300  1
  C  C7  1  0.43165900  0.86596300  0.34745100  1
  C  C8  1  0.43683100  0.40911400  0.79248900  1
  C  C9  1  0.87859600  0.92047000  0.39576700  1
  C  C10  1  0.88832300  0.46984600  0.82833500  1
  C  C11  1  0.44714500  0.91465400  0.83762500  1
  C  C12  1  0.88275100  0.91698400  0.83096000  1
