# generated using pymatgen
data_Cu2NiC2
_symmetry_space_group_name_H-M   'P 1'
_cell_length_a   5.76917200
_cell_length_b   6.19314400
_cell_length_c   6.20672747
_cell_angle_alpha   89.88987126
_cell_angle_beta   90.00000000
_cell_angle_gamma   90.00000000
_symmetry_Int_Tables_number   1
_chemical_formula_structural   Cu2NiC2
_chemical_formula_sum   'Cu8 Ni4 C8'
_cell_volume   221.76169840
_cell_formula_units_Z   4
loop_
 _symmetry_equiv_pos_site_id
 _symmetry_equiv_pos_as_xyz
  1  'x, y, z'
loop_
 _atom_site_type_symbol
 _atom_site_label
 _atom_site_symmetry_multiplicity
 _atom_site_fract_x
 _atom_site_fract_y
 _atom_site_fract_z
 _atom_site_occupancy
  Ni  Ni0  1  0.75000000  0.21619900  0.73241800  1
  Ni  Ni1  1  0.75000000  0.76157300  0.22218800  1
  Ni  Ni2  1  0.25000000  0.78380100  0.26758200  1
  Ni  Ni3  1  0.25000000  0.23842700  0.77781200  1
  Cu  Cu4  1  0.75000000  0.89581600  0.69407200  1
  Cu  Cu5  1  0.25000000  0.31570300  0.41104600  1
  Cu  Cu6  1  0.25000000  0.41930000  0.19314100  1
  Cu  Cu7  1  0.75000000  0.58070000  0.80685900  1
  Cu  Cu8  1  0.25000000  0.10418400  0.30592800  1
  Cu  Cu9  1  0.75000000  0.79699200  0.90307900  1
  Cu  Cu10  1  0.25000000  0.20300800  0.09692100  1
  Cu  Cu11  1  0.75000000  0.68429700  0.58895400  1
  C  C12  1  0.25000000  0.38522400  0.59966400  1
  C  C13  1  0.75000000  0.61477600  0.40033600  1
  C  C14  1  0.25000000  0.60707500  0.11971300  1
  C  C15  1  0.75000000  0.39292500  0.88028700  1
  C  C16  1  0.75000000  0.08881200  0.61593500  1
  C  C17  1  0.75000000  0.87786300  0.09438000  1
  C  C18  1  0.25000000  0.12213700  0.90562000  1
  C  C19  1  0.25000000  0.91118800  0.38406500  1
