# generated using pymatgen
data_Cu4NiC48
_symmetry_space_group_name_H-M   'P 1'
_cell_length_a   8.59449948
_cell_length_b   8.62101780
_cell_length_c   8.95299468
_cell_angle_alpha   89.14167829
_cell_angle_beta   91.88734562
_cell_angle_gamma   89.30582416
_symmetry_Int_Tables_number   1
_chemical_formula_structural   Cu4NiC48
_chemical_formula_sum   'Cu4 Ni1 C48'
_cell_volume   662.87019557
_cell_formula_units_Z   1
loop_
 _symmetry_equiv_pos_site_id
 _symmetry_equiv_pos_as_xyz
  1  'x, y, z'
loop_
 _atom_site_type_symbol
 _atom_site_label
 _atom_site_symmetry_multiplicity
 _atom_site_fract_x
 _atom_site_fract_y
 _atom_site_fract_z
 _atom_site_occupancy
  Ni  Ni0  1  0.48325700  0.40892900  0.95726100  1
  Cu  Cu1  1  0.86937000  0.34937300  0.36254700  1
  Cu  Cu2  1  0.64705700  0.65495900  0.81489800  1
  Cu  Cu3  1  0.36671700  0.14152900  0.62898900  1
  Cu  Cu4  1  0.12532000  0.85742300  0.14875300  1
  C  C5  1  0.68592400  0.01258500  0.81146700  1
  C  C6  1  0.71124600  0.68638300  0.43451000  1
  C  C7  1  0.81347000  0.29925200  0.95225900  1
  C  C8  1  0.82187400  0.98639500  0.30556500  1
  C  C9  1  0.03244200  0.31754700  0.68985400  1
  C  C10  1  0.16522600  0.49310900  0.21509300  1
  C  C11  1  0.20012600  0.81949400  0.55330900  1
  C  C12  1  0.28935800  0.20527400  0.06752100  1
  C  C13  1  0.31065300  0.50839700  0.67249600  1
  C  C14  1  0.44729300  0.66792100  0.19992900  1
  C  C15  1  0.54113500  0.17740100  0.31473000  1
  C  C16  1  0.97159200  0.82404600  0.80829200  1
  C  C17  1  0.64317100  0.30852000  0.36491800  1
  C  C18  1  0.96468100  0.28669300  0.85357300  1
  C  C19  1  0.89924000  0.36630400  0.58499000  1
  C  C20  1  0.89845100  0.12320400  0.38079500  1
  C  C21  1  0.04902000  0.79232600  0.65000100  1
  C  C22  1  0.09119900  0.87952100  0.92052000  1
  C  C23  1  0.08134100  0.62828400  0.14222100  1
  C  C24  1  0.09015000  0.40094100  0.33726900  1
  C  C25  1  0.13391500  0.18328200  0.64993000  1
  C  C26  1  0.14012000  0.46638800  0.72915300  1
  C  C27  1  0.15142400  0.85084800  0.39440100  1
  C  C28  1  0.19191900  0.08520500  0.13358600  1
  C  C29  1  0.21391500  0.37830900  0.08158400  1
  C  C30  1  0.27792500  0.64542400  0.55735600  1
  C  C31  1  0.31387200  0.92073000  0.63676000  1
  C  C32  1  0.34890100  0.21448600  0.91009800  1
  C  C33  1  0.33454000  0.54211900  0.27882200  1
  C  C34  1  0.35290000  0.80557300  0.14434500  1
  C  C35  1  0.40487300  0.56780200  0.80731300  1
  C  C36  1  0.38364000  0.37240800  0.59785200  1
  C  C37  1  0.41879100  0.11592300  0.41276400  1
  C  C38  1  0.45616500  0.23585600  0.15873300  1
  C  C39  1  0.55185000  0.72062600  0.33848000  1
  C  C40  1  0.87762300  0.68502100  0.84764600  1
  C  C41  1  0.61079100  0.87362100  0.88099100  1
  C  C42  1  0.59544800  0.10225000  0.69149700  1
  C  C43  1  0.90123900  0.91520200  0.17612100  1
  C  C44  1  0.64712100  0.03812200  0.25213500  1
  C  C45  1  0.66731600  0.65480400  0.59106200  1
  C  C46  1  0.69389600  0.40994000  0.87619000  1
  C  C47  1  0.73576000  0.13009100  0.94474400  1
  C  C48  1  0.78862600  0.85666900  0.43056900  1
  C  C49  1  0.81281200  0.57393800  0.35313500  1
  C  C50  1  0.85891000  0.32631300  0.11149700  1
  C  C51  1  0.85488400  0.96648200  0.75168400  1
  C  C52  1  0.54245900  0.58081400  0.08978300  1
