# generated using pymatgen
data_Cu8Ni16C33
_symmetry_space_group_name_H-M   'P 1'
_cell_length_a   5.79138400
_cell_length_b   8.39393700
_cell_length_c   11.64212800
_cell_angle_alpha   90.00000000
_cell_angle_beta   90.00000000
_cell_angle_gamma   90.00000000
_symmetry_Int_Tables_number   1
_chemical_formula_structural   Cu8Ni16C33
_chemical_formula_sum   'Cu8 Ni16 C33'
_cell_volume   565.95309221
_cell_formula_units_Z   1
loop_
 _symmetry_equiv_pos_site_id
 _symmetry_equiv_pos_as_xyz
  1  'x, y, z'
loop_
 _atom_site_type_symbol
 _atom_site_label
 _atom_site_symmetry_multiplicity
 _atom_site_fract_x
 _atom_site_fract_y
 _atom_site_fract_z
 _atom_site_occupancy
  Ni  Ni0  1  0.74972200  0.50007400  0.87850400  1
  Ni  Ni1  1  0.25027800  0.50007400  0.12149600  1
  Ni  Ni2  1  0.74972200  0.50007400  0.12149600  1
  Ni  Ni3  1  0.25027800  0.50007400  0.87850400  1
  Ni  Ni4  1  0.00000000  0.25416600  0.75090100  1
  Ni  Ni5  1  0.00000000  0.25416600  0.24909900  1
  Ni  Ni6  1  0.00000000  0.27943600  0.50000000  1
  Ni  Ni7  1  0.50000000  0.70514600  0.50000000  1
  Ni  Ni8  1  0.23935500  0.99704700  0.36946900  1
  Ni  Ni9  1  0.76064500  0.99704700  0.63053100  1
  Ni  Ni10  1  0.23935500  0.99704700  0.63053100  1
  Ni  Ni11  1  0.76064500  0.99704700  0.36946900  1
  Ni  Ni12  1  0.50000000  0.74841800  0.24892100  1
  Ni  Ni13  1  0.50000000  0.74841800  0.75107900  1
  Ni  Ni14  1  0.50000000  0.78058300  0.00000000  1
  Ni  Ni15  1  0.00000000  0.21919800  0.00000000  1
  Cu  Cu16  1  0.00000000  0.86454900  0.12893800  1
  Cu  Cu17  1  0.00000000  0.86454900  0.87106200  1
  Cu  Cu18  1  0.50000000  0.13385800  0.86990100  1
  Cu  Cu19  1  0.50000000  0.13385800  0.13009900  1
  Cu  Cu20  1  0.50000000  0.36591400  0.63181500  1
  Cu  Cu21  1  0.50000000  0.36591400  0.36818500  1
  Cu  Cu22  1  0.00000000  0.63584100  0.37001500  1
  Cu  Cu23  1  0.00000000  0.63584100  0.62998500  1
  C  C24  1  0.50000000  0.10967500  0.50000000  1
  C  C25  1  0.26131200  0.24286200  0.12768300  1
  C  C26  1  0.73868800  0.24286200  0.87231700  1
  C  C27  1  0.76090800  0.75667000  0.87260100  1
  C  C28  1  0.23909200  0.75667000  0.12739900  1
  C  C29  1  0.23909200  0.75667000  0.87260100  1
  C  C30  1  0.76090800  0.75667000  0.12739900  1
  C  C31  1  0.73868800  0.24286200  0.12768300  1
  C  C32  1  0.26131200  0.24286200  0.87231700  1
  C  C33  1  0.00000000  0.50818900  0.73917100  1
  C  C34  1  0.00000000  0.50818900  0.26082900  1
  C  C35  1  0.50000000  0.49462400  0.26015400  1
  C  C36  1  0.50000000  0.49462400  0.73984600  1
  C  C37  1  0.00000000  0.03128400  0.50000000  1
  C  C38  1  0.50000000  0.99104200  0.50000000  1
  C  C39  1  0.00000000  0.53628600  0.50000000  1
  C  C40  1  0.50000000  0.46251600  0.50000000  1
  C  C41  1  0.00000000  0.96463500  0.00000000  1
  C  C42  1  0.50000000  0.03460800  0.00000000  1
  C  C43  1  0.00000000  0.46560000  0.00000000  1
  C  C44  1  0.50000000  0.53429100  0.00000000  1
  C  C45  1  0.00000000  0.99401200  0.23761800  1
  C  C46  1  0.00000000  0.99401200  0.76238200  1
  C  C47  1  0.50000000  0.00532000  0.75994100  1
  C  C48  1  0.50000000  0.00532000  0.24005900  1
  C  C49  1  0.75865600  0.74617600  0.37473100  1
  C  C50  1  0.24134400  0.74617600  0.62526900  1
  C  C51  1  0.26230900  0.25450000  0.62704200  1
  C  C52  1  0.73769100  0.25450000  0.37295800  1
  C  C53  1  0.73769100  0.25450000  0.62704200  1
  C  C54  1  0.26230900  0.25450000  0.37295800  1
  C  C55  1  0.24134400  0.74617600  0.37473100  1
  C  C56  1  0.75865600  0.74617600  0.62526900  1
