# generated using pymatgen
data_Cu3Ni3C34
_symmetry_space_group_name_H-M   'P 1'
_cell_length_a   9.15561734
_cell_length_b   9.13289448
_cell_length_c   22.64576028
_cell_angle_alpha   90.31937801
_cell_angle_beta   89.69289963
_cell_angle_gamma   120.06942413
_symmetry_Int_Tables_number   1
_chemical_formula_structural   Cu3Ni3C34
_chemical_formula_sum   'Cu9 Ni9 C102'
_cell_volume   1638.70474340
_cell_formula_units_Z   3
loop_
 _symmetry_equiv_pos_site_id
 _symmetry_equiv_pos_as_xyz
  1  'x, y, z'
loop_
 _atom_site_type_symbol
 _atom_site_label
 _atom_site_symmetry_multiplicity
 _atom_site_fract_x
 _atom_site_fract_y
 _atom_site_fract_z
 _atom_site_occupancy
  C  C0  1  0.63522816  0.00902109  0.25841506  1
  C  C1  1  0.35081601  0.35042337  0.25437952  1
  C  C2  1  0.64826679  0.64933829  0.73787503  1
  C  C3  1  0.98644061  0.36397714  0.74640456  1
  C  C4  1  0.01792832  0.68491968  0.59145373  1
  C  C5  1  0.67827303  0.97062928  0.58228183  1
  C  C6  1  0.31333277  0.97060900  0.09557524  1
  C  C7  1  0.02177401  0.32355801  0.08246110  1
  C  C8  1  0.97105327  0.65623472  0.90004078  1
  C  C9  1  0.71083405  0.04189037  0.90931009  1
  C  C10  1  0.95461851  0.28896732  0.42161348  1
  C  C11  1  0.34430103  0.03036753  0.41275668  1
  C  C12  1  0.97445901  0.99424123  0.50535149  1
  C  C13  1  0.99071301  0.01332940  0.99861714  1
  C  C14  1  0.66230615  0.32303491  0.82284159  1
  C  C15  1  0.67654529  0.33322334  0.33459175  1
  C  C16  1  0.32807327  0.67382317  0.17291312  1
  C  C17  1  0.33236009  0.66548488  0.66439254  1
  C  C18  1  0.99206394  0.00393036  0.34963705  1
  C  C19  1  0.99681524  0.00926251  0.84676325  1
  C  C20  1  0.98650479  0.99205405  0.64842076  1
  C  C21  1  0.99799432  0.00556705  0.15172994  1
  C  C22  1  0.68065368  0.34308307  0.68386088  1
  C  C23  1  0.66713703  0.31683532  0.18831594  1
  C  C24  1  0.67777519  0.32559043  0.98172410  1
  C  C25  1  0.67635341  0.33496934  0.48645886  1
  C  C26  1  0.33675019  0.66042327  0.01740321  1
  C  C27  1  0.35173674  0.66482758  0.52225370  1
  C  C28  1  0.32964529  0.68119747  0.31313980  1
  C  C29  1  0.31862713  0.66682246  0.80984022  1
  Ni  Ni30  1  0.29092934  0.99939039  0.24869905  1
  Ni  Ni31  1  0.00537477  0.30287079  0.24927927  1
  Ni  Ni32  1  -0.00120453  0.70754900  0.75079614  1
  Ni  Ni33  1  0.69682500  0.99906747  0.75072736  1
  Ni  Ni34  1  0.97098515  0.33548849  0.58248593  1
  Ni  Ni35  1  0.66669835  0.62615669  0.58590526  1
  Ni  Ni36  1  0.66529269  0.02757353  0.08283685  1
  Ni  Ni37  1  0.04094172  0.36819894  0.91893768  1
  Ni  Ni38  1  0.63132771  0.96507745  0.41649596  1
  Cu  Cu39  1  0.70650034  0.70500517  0.24976767  1
  Cu  Cu40  1  0.29397238  0.29190304  0.75050940  1
  Cu  Cu41  1  0.37214905  0.04151588  0.58188028  1
  Cu  Cu42  1  0.95987311  0.62910059  0.08200268  1
  Cu  Cu43  1  0.37662719  0.33514289  0.08369525  1
  Cu  Cu44  1  0.62801478  0.66325879  0.91659610  1
  Cu  Cu45  1  0.33250407  0.96055911  0.91949534  1
  Cu  Cu46  1  0.33441140  0.37220989  0.41427585  1
  Cu  Cu47  1  0.03894045  0.66749437  0.41735488  1
  C  C48  1  0.19847538  0.02280260  0.30707378  1
  C  C49  1  0.80695540  0.78127940  0.30314884  1
  C  C50  1  0.96654821  0.17599387  0.30579892  1
  C  C51  1  0.21288769  0.19360063  0.80494998  1
  C  C52  1  0.98379940  0.79984491  0.81197326  1
  C  C53  1  0.81722349  0.03318881  0.81033377  1
  C  C54  1  0.78906275  0.96936628  0.69353862  1
  C  C55  1  0.18807593  0.21224380  0.69840412  1
  C  C56  1  0.02264369  0.81989928  0.69270225  1
  C  C57  1  0.78774249  0.81332119  0.19736970  1
  C  C58  1  0.03062751  0.21339309  0.18927890  1
  C  C59  1  0.18424007  0.97851710  0.18795757  1
  C  C60  1  0.87933419  0.36593691  0.64056279  1
  C  C61  1  0.48283047  0.12822608  0.63244867  1
  C  C62  1  0.64209941  0.52079681  0.64645688  1
  C  C63  1  0.87018546  0.52258846  0.13303900  1
  C  C64  1  0.63500885  0.12197452  0.14004020  1
  C  C65  1  0.46992509  0.35483261  0.13874329  1
  C  C66  1  0.46889313  0.32321725  0.03197496  1
  C  C67  1  0.86505316  0.55112305  0.02663534  1
  C  C68  1  0.69272738  0.15059998  0.02502972  1
  C  C69  1  0.44846920  0.13408009  0.52561461  1
  C  C70  1  0.68557041  0.52316347  0.52968714  1
  C  C71  1  0.84972869  0.29952598  0.52334911  1
  C  C72  1  0.54198165  0.68827582  0.96882284  1
  C  C73  1  0.14468965  0.46007415  0.98022952  1
  C  C74  1  0.31354916  0.85861618  0.97364079  1
  C  C75  1  0.53249859  0.85575434  0.47486588  1
  C  C76  1  0.30940173  0.45734263  0.46568454  1
  C  C77  1  0.13933837  0.68861141  0.47085557  1
  C  C78  1  0.12238836  0.64088955  0.36467709  1
  C  C79  1  0.51586640  0.87220359  0.35710150  1
  C  C80  1  0.35076249  0.46678145  0.35923046  1
  C  C81  1  0.13294154  0.49265707  0.86300790  1
  C  C82  1  0.36382293  0.88072831  0.86761692  1
  C  C83  1  0.53282023  0.64492493  0.86256683  1
  C  C84  1  0.02740689  0.82340021  0.41070781  1
  C  C85  1  0.82377422  0.99174497  0.41343161  1
  C  C86  1  0.17795822  0.19865833  0.41209098  1
  C  C87  1  0.00930475  0.17461075  0.91615730  1
  C  C88  1  0.17716368  0.97059407  0.91487460  1
  C  C89  1  0.80080468  0.81846833  0.91525626  1
  C  C90  1  0.98533079  0.16563218  0.58839460  1
  C  C91  1  0.20222507  0.02050492  0.58734235  1
  C  C92  1  0.84259441  0.81265639  0.58575034  1
  C  C93  1  0.98854385  0.80358703  0.08573752  1
  C  C94  1  0.84033950  0.01971302  0.08656814  1
  C  C95  1  0.20693841  0.17501747  0.08406994  1
  C  C96  1  0.67987383  0.16756690  0.74528690  1
  C  C97  1  0.46425734  0.31347941  0.74653930  1
  C  C98  1  0.82345297  0.52031509  0.74990997  1
  C  C99  1  0.68119157  0.53241682  0.24207817  1
  C  C100  1  0.83525982  0.31914149  0.24403108  1
  C  C101  1  0.47759370  0.17805781  0.24574524  1
  C  C102  1  0.64971038  0.51346228  0.92408346  1
  C  C103  1  0.84914729  0.35379026  0.92121566  1
  C  C104  1  0.48451058  0.13324126  0.92455603  1
  C  C105  1  0.64635427  0.15531444  0.41706367  1
  C  C106  1  0.48223741  0.34773315  0.41936863  1
  C  C107  1  0.86841876  0.51344223  0.41972999  1
  C  C108  1  0.34622025  0.48134598  0.07971981  1
  C  C109  1  0.13104689  0.64130541  0.08006466  1
  C  C110  1  0.48817101  0.84488837  0.07717360  1
  C  C111  1  0.35397143  0.86824134  0.57891818  1
  C  C112  1  0.50919090  0.66448566  0.58117739  1
  C  C113  1  0.14864252  0.51482362  0.57505428  1
  C  C114  1  0.32996377  0.84222517  0.25197982  1
  C  C115  1  0.53565816  0.68897756  0.25462464  1
  C  C116  1  0.18228635  0.48178092  0.25554678  1
  C  C117  1  0.31099180  0.46451808  0.75588482  1
  C  C118  1  0.15693147  0.66873400  0.75370913  1
  C  C119  1  0.51952118  0.81985136  0.75918268  1
