# generated using pymatgen
data_Cu2Ni3C32
_symmetry_space_group_name_H-M   'P 1'
_cell_length_a   9.23267982
_cell_length_b   9.22196776
_cell_length_c   24.12522715
_cell_angle_alpha   90.09086249
_cell_angle_beta   89.89760186
_cell_angle_gamma   119.86975894
_symmetry_Int_Tables_number   1
_chemical_formula_structural   Cu2Ni3C32
_chemical_formula_sum   'Cu6 Ni9 C96'
_cell_volume   1781.23432302
_cell_formula_units_Z   3
loop_
 _symmetry_equiv_pos_site_id
 _symmetry_equiv_pos_as_xyz
  1  'x, y, z'
loop_
 _atom_site_type_symbol
 _atom_site_label
 _atom_site_symmetry_multiplicity
 _atom_site_fract_x
 _atom_site_fract_y
 _atom_site_fract_z
 _atom_site_occupancy
  Ni  Ni0  1  0.36846674  0.99434140  0.74979094  1
  Ni  Ni1  1  0.66076964  0.96580323  0.58864491  1
  Ni  Ni2  1  0.67289208  0.69936908  0.08210335  1
  Ni  Ni3  1  0.02766665  0.00139780  0.50438374  1
  Ni  Ni4  1  0.01463147  0.00099055  0.00291126  1
  Ni  Ni5  1  0.68072560  0.33545123  0.83334839  1
  Ni  Ni6  1  0.66668233  0.33339967  0.33332555  1
  Ni  Ni7  1  0.30521759  0.66454161  0.16612506  1
  Ni  Ni8  1  0.33412889  0.66275730  0.66655342  1
  Cu  Cu9  1  0.00358486  0.00030267  0.64934064  1
  Cu  Cu10  1  0.00879002  0.00238517  0.14976184  1
  Cu  Cu11  1  0.31750975  0.66692139  0.01671940  1
  Cu  Cu12  1  0.32608751  0.66662564  0.51570727  1
  Cu  Cu13  1  0.33303411  0.66712571  0.31717470  1
  Cu  Cu14  1  0.34012409  0.66529580  0.81809463  1
  C  C15  1  0.00035639  0.99953502  0.34978296  1
  C  C16  1  0.98627419  0.99976594  0.84908766  1
  C  C17  1  0.66876513  0.33280642  0.68373278  1
  C  C18  1  0.67455680  0.33593228  0.18491809  1
  C  C19  1  0.67306057  0.33544440  0.98283153  1
  C  C20  1  0.65785303  0.32966905  0.48250080  1
  C  C21  1  0.69638667  0.99937635  0.74645978  1
  C  C22  1  0.37043145  0.03500454  0.58459112  1
  C  C23  1  0.96078282  0.63052845  0.08391734  1
  C  C24  1  0.30067191  0.00158563  0.25006562  1
  C  C25  1  0.70122105  0.70208059  0.24843358  1
  C  C26  1  0.00031794  0.29718587  0.25000092  1
  C  C27  1  0.29648486  0.29506254  0.74994971  1
  C  C28  1  0.00075606  0.70400154  0.75085691  1
  C  C29  1  0.96134657  0.33292524  0.58237086  1
  C  C30  1  0.66636172  0.63163401  0.58287529  1
  C  C31  1  0.66649658  0.03443427  0.08340045  1
  C  C32  1  0.37515766  0.33568561  0.08297662  1
  C  C33  1  0.63416873  0.66628515  0.91918964  1
  C  C34  1  0.03393037  0.36607655  0.91613036  1
  C  C35  1  0.33221285  0.97030848  0.91441031  1
  C  C36  1  0.63516198  0.96673384  0.41756636  1
  C  C37  1  0.33176587  0.36668162  0.41598809  1
  C  C38  1  0.03064800  0.66562613  0.41605301  1
  C  C39  1  0.21586951  0.01995305  0.30015014  1
  C  C40  1  0.80833998  0.79039903  0.29726252  1
  C  C41  1  0.98337659  0.19543369  0.30012350  1
  C  C42  1  0.21456727  0.18808190  0.79953947  1
  C  C43  1  0.98153258  0.78625949  0.80106980  1
  C  C44  1  0.80623493  0.01542962  0.79750442  1
  C  C45  1  0.77468807  0.98503424  0.69229645  1
  C  C46  1  0.20092985  0.21607853  0.69975957  1
  C  C47  1  0.02326912  0.80552512  0.70126992  1
  C  C48  1  0.77828991  0.79447082  0.19688186  1
  C  C49  1  0.01421201  0.21533347  0.19983929  1
  C  C50  1  0.20384576  0.98541199  0.20002861  1
  C  C51  1  0.87917222  0.35191501  0.63289885  1
  C  C52  1  0.47410863  0.12329463  0.63832968  1
  C  C53  1  0.65487537  0.53454053  0.63324877  1
  C  C54  1  0.86747200  0.52432597  0.13574237  1
  C  C55  1  0.64827968  0.11777444  0.13332166  1
  C  C56  1  0.47605915  0.34986193  0.13297466  1
  C  C57  1  0.45746032  0.31554639  0.03293820  1
  C  C58  1  0.85148530  0.53737438  0.03239175  1
  C  C59  1  0.67923898  0.13272773  0.03333113  1
  C  C60  1  0.46906134  0.14558594  0.53416796  1
  C  C61  1  0.68272418  0.54696860  0.53311957  1
  C  C62  1  0.85936188  0.31954660  0.53300520  1
  C  C63  1  0.55921113  0.68524916  0.97080063  1
  C  C64  1  0.13056090  0.44338063  0.96640054  1
  C  C65  1  0.31315575  0.86762721  0.96333181  1
  C  C66  1  0.56280090  0.87334317  0.46938018  1
  C  C67  1  0.31216803  0.44382072  0.46652480  1
  C  C68  1  0.12888789  0.68817564  0.46636676  1
  C  C69  1  0.10945188  0.64471452  0.36623328  1
  C  C70  1  0.53124770  0.88390078  0.36901602  1
  C  C71  1  0.35122341  0.46513542  0.36613211  1
  C  C72  1  0.11167708  0.46426749  0.86605107  1
  C  C73  1  0.35258153  0.89559715  0.86282327  1
  C  C74  1  0.53290989  0.64771376  0.87009799  1
  C  C75  1  0.01123566  0.81762487  0.41052963  1
  C  C76  1  0.80510844  0.98588184  0.41066304  1
  C  C77  1  0.18172531  0.19485583  0.41084147  1
  C  C78  1  0.01419617  0.19510160  0.91149032  1
  C  C79  1  0.18132496  0.99012060  0.91034866  1
  C  C80  1  0.80450219  0.81694117  0.91319598  1
  C  C81  1  0.96344082  0.17298823  0.58544619  1
  C  C82  1  0.19635889  0.01492624  0.58559718  1
  C  C83  1  0.81416161  0.80257447  0.58521761  1
  C  C84  1  0.96300877  0.80019164  0.08572068  1
  C  C85  1  0.81808711  0.01781522  0.08665185  1
  C  C86  1  0.20569426  0.19124890  0.08650160  1
  C  C87  1  0.67658244  0.16049507  0.74675699  1
  C  C88  1  0.46484380  0.30520647  0.74652382  1
  C  C89  1  0.84989089  0.53573712  0.74644621  1
  C  C90  1  0.68616646  0.53224031  0.24659193  1
  C  C91  1  0.84455174  0.31057307  0.24784835  1
  C  C92  1  0.46914723  0.15577978  0.24692983  1
  C  C93  1  0.65380960  0.51467170  0.92212229  1
  C  C94  1  0.86188821  0.34456938  0.92062302  1
  C  C95  1  0.48395727  0.13981386  0.92066004  1
  C  C96  1  0.65610564  0.13859019  0.42152226  1
  C  C97  1  0.48323969  0.34660241  0.42026456  1
  C  C98  1  0.86003845  0.51589643  0.42144495  1
  C  C99  1  0.37327355  0.49594651  0.07922634  1
  C  C100  1  0.13513221  0.65054162  0.08181108  1
  C  C101  1  0.51921434  0.86300467  0.07994418  1
  C  C102  1  0.37049512  0.86656318  0.58141796  1
  C  C103  1  0.51467283  0.64845924  0.57991940  1
  C  C104  1  0.13028833  0.47754815  0.57909686  1
  C  C105  1  0.31993876  0.85267645  0.25493973  1
  C  C106  1  0.53427068  0.68344014  0.25467513  1
  C  C107  1  0.14754026  0.46578564  0.25457613  1
  C  C108  1  0.31880439  0.46305787  0.75592036  1
  C  C109  1  0.15366775  0.68955111  0.75619915  1
  C  C110  1  0.51645893  0.84876853  0.75257253  1
