# generated using pymatgen
data_Cu3NiC
_symmetry_space_group_name_H-M   'P 1'
_cell_length_a   12.44106800
_cell_length_b   5.49630600
_cell_length_c   8.42641884
_cell_angle_alpha   79.68425209
_cell_angle_beta   90.00000000
_cell_angle_gamma   90.00000000
_symmetry_Int_Tables_number   1
_chemical_formula_structural   Cu3NiC
_chemical_formula_sum   'Cu24 Ni8 C8'
_cell_volume   566.88407432
_cell_formula_units_Z   8
loop_
 _symmetry_equiv_pos_site_id
 _symmetry_equiv_pos_as_xyz
  1  'x, y, z'
loop_
 _atom_site_type_symbol
 _atom_site_label
 _atom_site_symmetry_multiplicity
 _atom_site_fract_x
 _atom_site_fract_y
 _atom_site_fract_z
 _atom_site_occupancy
  C  C0  1  0.92043400  0.66725400  0.61672900  1
  C  C1  1  0.42043400  0.33274600  0.88327100  1
  C  C2  1  0.07956600  0.33274600  0.38327100  1
  C  C3  1  0.57956600  0.66725400  0.11672900  1
  C  C4  1  0.24596000  0.88429100  0.15822300  1
  C  C5  1  0.74596000  0.11570900  0.34177700  1
  C  C6  1  0.75404000  0.11570900  0.84177700  1
  C  C7  1  0.25404000  0.88429100  0.65822300  1
  Ni  Ni8  1  0.67577300  0.52098000  0.50926900  1
  Ni  Ni9  1  0.17577300  0.47902000  0.99073100  1
  Ni  Ni10  1  0.32422700  0.47902000  0.49073100  1
  Ni  Ni11  1  0.82422700  0.52098000  0.00926900  1
  Ni  Ni12  1  0.51857600  0.91352400  0.74538300  1
  Ni  Ni13  1  0.01857600  0.08647600  0.75461700  1
  Ni  Ni14  1  0.48142400  0.08647600  0.25461700  1
  Ni  Ni15  1  0.98142400  0.91352400  0.24538300  1
  Cu  Cu16  1  0.26078400  0.26634500  0.00401500  1
  Cu  Cu17  1  0.76078400  0.73365500  0.49598500  1
  Cu  Cu18  1  0.73921600  0.73365500  0.99598500  1
  Cu  Cu19  1  0.23921600  0.26634500  0.50401500  1
  Cu  Cu20  1  0.98459300  0.67050500  0.37158500  1
  Cu  Cu21  1  0.48459300  0.32949500  0.12841500  1
  Cu  Cu22  1  0.01540700  0.32949500  0.62841500  1
  Cu  Cu23  1  0.51540700  0.67050500  0.87158500  1
  Cu  Cu24  1  0.92118500  0.09531100  0.33730100  1
  Cu  Cu25  1  0.42118500  0.90468900  0.16269900  1
  Cu  Cu26  1  0.07881500  0.90468900  0.66269900  1
  Cu  Cu27  1  0.57881500  0.09531100  0.83730100  1
  Cu  Cu28  1  0.75970600  0.28136200  0.07620100  1
  Cu  Cu29  1  0.25970600  0.71863800  0.42379900  1
  Cu  Cu30  1  0.24029400  0.71863800  0.92379900  1
  Cu  Cu31  1  0.74029400  0.28136200  0.57620100  1
  Cu  Cu32  1  0.90355100  0.97418800  0.75613400  1
  Cu  Cu33  1  0.40355100  0.02581200  0.74386600  1
  Cu  Cu34  1  0.09644900  0.02581200  0.24386600  1
  Cu  Cu35  1  0.59644900  0.97418800  0.25613400  1
  Cu  Cu36  1  0.84041700  0.47396700  0.83397900  1
  Cu  Cu37  1  0.34041700  0.52603300  0.66602100  1
  Cu  Cu38  1  0.15958300  0.52603300  0.16602100  1
  Cu  Cu39  1  0.65958300  0.47396700  0.33397900  1
