# generated using pymatgen
data_Cu2Ni2C7
_symmetry_space_group_name_H-M   'P 1'
_cell_length_a   5.96073642
_cell_length_b   5.95810002
_cell_length_c   5.96318767
_cell_angle_alpha   52.73160852
_cell_angle_beta   52.70643667
_cell_angle_gamma   52.72346824
_symmetry_Int_Tables_number   1
_chemical_formula_structural   Cu2Ni2C7
_chemical_formula_sum   'Cu2 Ni2 C7'
_cell_volume   124.17758945
_cell_formula_units_Z   1
loop_
 _symmetry_equiv_pos_site_id
 _symmetry_equiv_pos_as_xyz
  1  'x, y, z'
loop_
 _atom_site_type_symbol
 _atom_site_label
 _atom_site_symmetry_multiplicity
 _atom_site_fract_x
 _atom_site_fract_y
 _atom_site_fract_z
 _atom_site_occupancy
  C  C0  1  0.00000000  0.00000000  0.00000000  1
  Ni  Ni1  1  0.17408400  0.17405700  0.17414900  1
  Ni  Ni2  1  0.82591600  0.82594300  0.82585100  1
  Cu  Cu3  1  0.36818100  0.36783100  0.36811200  1
  Cu  Cu4  1  0.63181900  0.63216900  0.63188800  1
  C  C5  1  0.03077600  0.83031700  0.41327700  1
  C  C6  1  0.58682100  0.96944100  0.16930900  1
  C  C7  1  0.16964900  0.58692600  0.96883600  1
  C  C8  1  0.83035100  0.41307400  0.03116400  1
  C  C9  1  0.41317900  0.03055900  0.83069100  1
  C  C10  1  0.96922400  0.16968300  0.58672300  1
