# generated using pymatgen
data_Cu(NiC11)3
_symmetry_space_group_name_H-M   'P 1'
_cell_length_a   18.14477975
_cell_length_b   9.12637827
_cell_length_c   23.00911645
_cell_angle_alpha   90.11561002
_cell_angle_beta   89.73293898
_cell_angle_gamma   120.11870528
_symmetry_Int_Tables_number   1
_chemical_formula_structural   Cu(NiC11)3
_chemical_formula_sum   'Cu6 Ni18 C198'
_cell_volume   3295.75762946
_cell_formula_units_Z   6
loop_
 _symmetry_equiv_pos_site_id
 _symmetry_equiv_pos_as_xyz
  1  'x, y, z'
loop_
 _atom_site_type_symbol
 _atom_site_label
 _atom_site_symmetry_multiplicity
 _atom_site_fract_x
 _atom_site_fract_y
 _atom_site_fract_z
 _atom_site_occupancy
  Ni  Ni0  1  0.32747466  0.02278376  0.25772636  1
  Ni  Ni1  1  0.68744154  0.37473641  0.24372157  1
  Ni  Ni2  1  0.48854462  0.61937164  0.24897962  1
  Ni  Ni3  1  0.82605527  0.63265930  0.75513563  1
  Ni  Ni4  1  0.98944889  0.35683919  0.74595970  1
  Ni  Ni5  1  0.18802190  0.00346218  0.73983268  1
  Ni  Ni6  1  0.00490537  0.01467952  0.50140029  1
  Ni  Ni7  1  0.51083190  0.99603374  0.50224333  1
  Ni  Ni8  1  0.01080593  0.02796790  0.00130268  1
  Ni  Ni9  1  0.50492424  0.99482448  0.99966012  1
  Ni  Ni10  1  0.34535476  0.32689534  0.83348475  1
  Ni  Ni11  1  0.82682438  0.31536874  0.82333707  1
  Ni  Ni12  1  0.32590706  0.34219851  0.33150325  1
  Ni  Ni13  1  0.84461967  0.36370489  0.33856482  1
  Ni  Ni14  1  0.16886791  0.64093597  0.16656023  1
  Ni  Ni15  1  0.67403459  0.67422761  0.16397441  1
  Ni  Ni16  1  0.17749484  0.67411435  0.66129277  1
  Ni  Ni17  1  0.65293264  0.67272256  0.65853174  1
  Cu  Cu18  1  0.50034769  0.00165692  0.36350450  1
  Cu  Cu19  1  0.00025693  0.00069323  0.86265598  1
  Cu  Cu20  1  0.34302109  0.33867409  0.67577170  1
  Cu  Cu21  1  0.82165184  0.31305345  0.67697261  1
  Cu  Cu22  1  0.32148100  0.33079666  0.17820301  1
  Cu  Cu23  1  0.83938107  0.34401194  0.17774632  1
  C  C24  1  0.00223017  0.98644924  0.36111203  1
  C  C25  1  0.50181298  0.01644434  0.85940756  1
  C  C26  1  0.99787059  0.99290512  0.64403338  1
  C  C27  1  0.49831088  0.01947551  0.63997331  1
  C  C28  1  0.00054182  0.99443115  0.14548664  1
  C  C29  1  0.49829473  0.00224495  0.14401374  1
  C  C30  1  0.33173982  0.35214814  0.97685053  1
  C  C31  1  0.82517489  0.30441962  0.97898862  1
  C  C32  1  0.33268125  0.34592017  0.48455526  1
  C  C33  1  0.83209079  0.31100300  0.47764205  1
  C  C34  1  0.17255634  0.66477393  0.01211238  1
  C  C35  1  0.65707401  0.66057346  0.02135813  1
  C  C36  1  0.15711548  0.65090841  0.52127696  1
  C  C37  1  0.66696127  0.67114143  0.51356147  1
  C  C38  1  0.16314720  0.65760596  0.31260355  1
  C  C39  1  0.66808693  0.65309346  0.31787049  1
  C  C40  1  0.16791032  0.68228567  0.81667092  1
  C  C41  1  0.66034835  0.66441603  0.81005218  1
  C  C42  1  0.13810456  0.98081321  0.25282131  1
  C  C43  1  0.34988205  0.71216741  0.24975315  1
  C  C44  1  0.85571185  0.72065995  0.25375403  1
  C  C45  1  0.50493084  0.30140810  0.24782167  1
  C  C46  1  0.63767381  0.29022447  0.75143052  1
  C  C47  1  0.00439749  0.70897460  0.74867464  1
  C  C48  1  0.35626334  0.99270854  0.75298691  1
  C  C49  1  0.84951717  0.98781564  0.75034829  1
  C  C50  1  0.48963054  0.34725397  0.57882482  1
  C  C51  1  0.97941545  0.32373892  0.58552486  1
  C  C52  1  0.18233113  0.02885385  0.58383998  1
  C  C53  1  0.67968590  0.02562479  0.58112439  1
  C  C54  1  0.33268445  0.63832814  0.58283316  1
  C  C55  1  0.47866866  0.63361457  0.08541425  1
  C  C56  1  0.83341968  0.02729887  0.08143303  1
  C  C57  1  0.17934407  0.33714420  0.08106259  1
  C  C58  1  0.68226607  0.33483519  0.08397782  1
  C  C59  1  0.31323595  0.66743562  0.91264669  1
  C  C60  1  0.01610509  0.39043289  0.91651008  1
  C  C61  1  0.51979352  0.38344970  0.91754485  1
  C  C62  1  0.17560762  0.96881413  0.92335405  1
  C  C63  1  0.66429352  0.94700798  0.91445011  1
  C  C64  1  0.81226843  0.95468014  0.41520835  1
  C  C65  1  0.16926579  0.37911054  0.41521318  1
  C  C66  1  0.67780542  0.38303511  0.42230649  1
  C  C67  1  0.01956320  0.65402025  0.41770802  1
  C  C68  1  0.51414033  0.64056064  0.41573117  1
  C  C69  1  0.64337821  0.98656618  0.24580766  1
  C  C70  1  0.00719520  0.28285953  0.25362047  1
  C  C71  1  0.14440959  0.30220810  0.74665721  1
  C  C72  1  0.50438692  0.72666774  0.75542124  1
  C  C73  1  0.83448802  0.64466803  0.58185141  1
  C  C74  1  0.99214137  0.64816646  0.07870362  1
  C  C75  1  0.33338714  0.02284371  0.08216789  1
  C  C76  1  0.79849919  0.63992183  0.91887535  1
  C  C77  1  0.29700083  0.95363508  0.41802263  1
  C  C78  1  0.08897231  0.00391398  0.30858182  1
  C  C79  1  0.60801469  0.00963303  0.29989568  1
  C  C80  1  0.40788131  0.79860242  0.30546306  1
  C  C81  1  0.91414970  0.82880657  0.30899791  1
  C  C82  1  0.49477327  0.19015147  0.30402431  1
  C  C83  1  0.00232173  0.18647795  0.30528819  1
  C  C84  1  0.10808297  0.20788542  0.80071169  1
  C  C85  1  0.58952188  0.17269983  0.80878654  1
  C  C86  1  0.50386051  0.81732677  0.80811382  1
  C  C87  1  0.99435509  0.79784575  0.80548475  1
  C  C88  1  0.41401180  0.99841716  0.80904260  1
  C  C89  1  0.90594167  0.01693129  0.80685304  1
  C  C90  1  0.40545646  0.98411353  0.69385208  1
  C  C91  1  0.90376866  0.96702395  0.69351359  1
  C  C92  1  0.08989172  0.20612713  0.69533302  1
  C  C93  1  0.58415919  0.19016912  0.69321971  1
  C  C94  1  0.01534631  0.83444273  0.69148123  1
  C  C95  1  0.51218449  0.81741831  0.70127534  1
  C  C96  1  0.40393594  0.84035041  0.19239405  1
  C  C97  1  0.90652907  0.83042642  0.19402406  1
  C  C98  1  0.01340816  0.20114839  0.19843991  1
  C  C99  1  0.51549593  0.19671993  0.19007164  1
  C  C100  1  0.08400699  0.97814238  0.19378548  1
  C  C101  1  0.58979837  0.97556768  0.19442224  1
  C  C102  1  0.46829084  0.39924028  0.64048036  1
  C  C103  1  0.95584345  0.36984512  0.64748749  1
  C  C104  1  0.22907150  0.08117191  0.64604546  1
  C  C105  1  0.72872113  0.06209337  0.64142546  1
  C  C106  1  0.30544709  0.52389871  0.64000804  1
  C  C107  1  0.82016816  0.56660665  0.63960268  1
  C  C108  1  0.45526523  0.54179413  0.14722628  1
  C  C109  1  0.96774602  0.56087397  0.13496905  1
  C  C110  1  0.31827850  0.07105870  0.13966425  1
  C  C111  1  0.81120415  0.09699010  0.13875133  1
  C  C112  1  0.22825381  0.39876806  0.14154373  1
  C  C113  1  0.72933743  0.37439471  0.14637100  1
  C  C114  1  0.23559176  0.31178668  0.02823596  1
  C  C115  1  0.74365302  0.31432233  0.03299549  1
  C  C116  1  0.41201084  0.51919152  0.03255079  1
  C  C117  1  0.93239046  0.55332097  0.03198679  1
  C  C118  1  0.34236042  0.13981466  0.03547933  1
  C  C119  1  0.84877798  0.16439596  0.02685435  1
  C  C120  1  0.23977537  0.17049256  0.53250615  1
  C  C121  1  0.73714612  0.16741726  0.52902050  1
  C  C122  1  0.34878473  0.53508228  0.52805014  1
  C  C123  1  0.84465134  0.54539049  0.53541211  1
  C  C124  1  0.41853003  0.31783643  0.52846835  1
  C  C125  1  0.91304428  0.30515800  0.53252846  1
  C  C126  1  0.26727480  0.68020296  0.97206483  1
  C  C127  1  0.74959970  0.65074028  0.96736335  1
  C  C128  1  0.08173168  0.51334357  0.96692355  1
  C  C129  1  0.57832949  0.47150401  0.97361414  1
  C  C130  1  0.18100688  0.85918458  0.97630283  1
  C  C131  1  0.65583308  0.82992978  0.96939218  1
  C  C132  1  0.24784993  0.84512692  0.46605835  1
  C  C133  1  0.76861934  0.84997433  0.47318808  1
  C  C134  1  0.15601485  0.48030794  0.46850315  1
  C  C135  1  0.68396739  0.50801437  0.47287921  1
  C  C136  1  0.07804698  0.68340400  0.47345853  1
  C  C137  1  0.58017521  0.65011779  0.46566438  1
  C  C138  1  0.06910906  0.63355661  0.36018245  1
  C  C139  1  0.56521569  0.63585214  0.35410263  1
  C  C140  1  0.25400090  0.86872238  0.36034849  1
  C  C141  1  0.74885093  0.85672349  0.35949144  1
  C  C142  1  0.18164543  0.49898670  0.35685167  1
  C  C143  1  0.68119092  0.48826036  0.35926349  1
  C  C144  1  0.06439165  0.49427638  0.85523166  1
  C  C145  1  0.56877606  0.50370248  0.86081779  1
  C  C146  1  0.17997008  0.86853206  0.86187907  1
  C  C147  1  0.68154852  0.86137947  0.85698361  1
  C  C148  1  0.24829472  0.63768298  0.85922250  1
  C  C149  1  0.75591547  0.63250729  0.86184856  1
  C  C150  1  0.00798411  0.82229775  0.41013589  1
  C  C151  1  0.50471386  0.80464601  0.42422169  1
  C  C152  1  0.38213438  0.97515108  0.42064390  1
  C  C153  1  0.90886429  0.98701232  0.40738180  1
  C  C154  1  0.08446759  0.18937064  0.40678317  1
  C  C155  1  0.59385708  0.20252347  0.42796890  1
  C  C156  1  0.00390361  0.20609313  0.92591340  1
  C  C157  1  0.50806354  0.19242216  0.90997580  1
  C  C158  1  0.09210792  0.98289291  0.92915645  1
  C  C159  1  0.58357637  0.97837460  0.90850753  1
  C  C160  1  0.40837416  0.83118616  0.90845661  1
  C  C161  1  0.88430660  0.78751538  0.92209036  1
  C  C162  1  0.48769439  0.16372748  0.58565745  1
  C  C163  1  0.98620734  0.15081201  0.59069861  1
  C  C164  1  0.08872918  0.02023623  0.58953959  1
  C  C165  1  0.58954895  0.02395105  0.59014866  1
  C  C166  1  0.42046466  0.81980298  0.59303105  1
  C  C167  1  0.91789301  0.81372685  0.58389481  1
  C  C168  1  0.48649084  0.82143490  0.08974178  1
  C  C169  1  0.99319109  0.81540953  0.08492266  1
  C  C170  1  0.41588313  0.01769365  0.08343572  1
  C  C171  1  0.92117263  0.01855619  0.09221901  1
  C  C172  1  0.08895726  0.15665083  0.09105130  1
  C  C173  1  0.58964243  0.15625399  0.08809448  1
  C  C174  1  0.33842904  0.14997494  0.75541812  1
  C  C175  1  0.83674836  0.14940404  0.74594140  1
  C  C176  1  0.23064947  0.32737347  0.74190618  1
  C  C177  1  0.73660194  0.34012011  0.75221530  1
  C  C178  1  0.42981869  0.55404690  0.75744764  1
  C  C179  1  0.92284770  0.52112489  0.74441641  1
  C  C180  1  0.33657400  0.52471104  0.24572838  1
  C  C181  1  0.84011971  0.52858914  0.25387132  1
  C  C182  1  0.42271095  0.32377812  0.24336925  1
  C  C183  1  0.93273836  0.30745712  0.25195058  1
  C  C184  1  0.23626321  0.13090889  0.25186910  1
  C  C185  1  0.73020812  0.13494008  0.24070358  1
  C  C186  1  0.32117889  0.49646664  0.92164429  1
  C  C187  1  0.80353105  0.48151009  0.92299012  1
  C  C188  1  0.42713849  0.36640195  0.92808919  1
  C  C189  1  0.92332463  0.38312294  0.92684313  1
  C  C190  1  0.26283778  0.15545179  0.92648534  1
  C  C191  1  0.75005257  0.13794493  0.92599824  1
  C  C192  1  0.30023931  0.11821545  0.41926816  1
  C  C193  1  0.82091807  0.14347747  0.42279776  1
  C  C194  1  0.25255760  0.35876948  0.42615702  1
  C  C195  1  0.76428998  0.36861887  0.42465706  1
  C  C196  1  0.42160095  0.46527000  0.42226364  1
  C  C197  1  0.92732266  0.48593396  0.42682219  1
  C  C198  1  0.15732213  0.48653624  0.06549094  1
  C  C199  1  0.66724029  0.49296353  0.06956536  1
  C  C200  1  0.08073981  0.68866710  0.06790447  1
  C  C201  1  0.57487087  0.66840052  0.06988199  1
  C  C202  1  0.26302837  0.84546288  0.07304030  1
  C  C203  1  0.75600881  0.84007311  0.06385212  1
  C  C204  1  0.16614168  0.83947472  0.56859673  1
  C  C205  1  0.66155384  0.83834525  0.56289471  1
  C  C206  1  0.25609476  0.67387323  0.56351062  1
  C  C207  1  0.76541483  0.68208816  0.57241059  1
  C  C208  1  0.07547744  0.47988069  0.57006643  1
  C  C209  1  0.58839493  0.49135056  0.56612735  1
  C  C210  1  0.13920107  0.80074046  0.25873112  1
  C  C211  1  0.64444146  0.82357088  0.24672300  1
  C  C212  1  0.25825848  0.71505240  0.25527403  1
  C  C213  1  0.76022039  0.70313533  0.25809962  1
  C  C214  1  0.08696192  0.45486366  0.25472181  1
  C  C215  1  0.59559227  0.48911400  0.25288088  1
  C  C216  1  0.14436918  0.46680009  0.74830286  1
  C  C217  1  0.63985327  0.47382760  0.75991585  1
  C  C218  1  0.09564596  0.70340720  0.75389136  1
  C  C219  1  0.58444087  0.70877128  0.75755722  1
  C  C220  1  0.26060997  0.81756400  0.75977740  1
  C  C221  1  0.75814684  0.80116412  0.75684374  1
