# generated using pymatgen
data_Cu4Ni2C9
_symmetry_space_group_name_H-M   'P 1'
_cell_length_a   6.34290375
_cell_length_b   6.34290359
_cell_length_c   6.41900592
_cell_angle_alpha   56.26612808
_cell_angle_beta   56.26613228
_cell_angle_gamma   56.42835731
_symmetry_Int_Tables_number   1
_chemical_formula_structural   Cu4Ni2C9
_chemical_formula_sum   'Cu4 Ni2 C9'
_cell_volume   167.06604136
_cell_formula_units_Z   1
loop_
 _symmetry_equiv_pos_site_id
 _symmetry_equiv_pos_as_xyz
  1  'x, y, z'
loop_
 _atom_site_type_symbol
 _atom_site_label
 _atom_site_symmetry_multiplicity
 _atom_site_fract_x
 _atom_site_fract_y
 _atom_site_fract_z
 _atom_site_occupancy
  C  C0  1  0.12500000  0.12500000  0.12500000  1
  Ni  Ni1  1  0.12500000  0.62500000  0.62500000  1
  Ni  Ni2  1  0.62500000  0.12500000  0.62500000  1
  Cu  Cu3  1  0.94194900  0.94194800  0.01245600  1
  Cu  Cu4  1  0.30805100  0.30805200  0.23754400  1
  Cu  Cu5  1  0.62500000  0.62500000  0.12500000  1
  Cu  Cu6  1  0.62500000  0.62500000  0.62500000  1
  C  C7  1  0.39885900  0.39885900  0.40756800  1
  C  C8  1  0.38802800  0.38802800  0.85755500  1
  C  C9  1  0.39423300  0.87721300  0.35115300  1
  C  C10  1  0.87721200  0.39423600  0.35115200  1
  C  C11  1  0.37278800  0.85576400  0.89884800  1
  C  C12  1  0.85576700  0.37278700  0.89884700  1
  C  C13  1  0.86197200  0.86197200  0.39244500  1
  C  C14  1  0.85114100  0.85114100  0.84243200  1
