# generated using pymatgen
data_Cu4NiC14
_symmetry_space_group_name_H-M   'P 1'
_cell_length_a   5.17927544
_cell_length_b   7.86960356
_cell_length_c   6.65543866
_cell_angle_alpha   76.56357698
_cell_angle_beta   72.60751615
_cell_angle_gamma   77.61218014
_symmetry_Int_Tables_number   1
_chemical_formula_structural   Cu4NiC14
_chemical_formula_sum   'Cu4 Ni1 C14'
_cell_volume   248.68551712
_cell_formula_units_Z   1
loop_
 _symmetry_equiv_pos_site_id
 _symmetry_equiv_pos_as_xyz
  1  'x, y, z'
loop_
 _atom_site_type_symbol
 _atom_site_label
 _atom_site_symmetry_multiplicity
 _atom_site_fract_x
 _atom_site_fract_y
 _atom_site_fract_z
 _atom_site_occupancy
  C  C0  1  0.66919386  0.83753543  0.20446922  1
  C  C1  1  0.33080614  0.16246457  0.79553078  1
  Ni  Ni2  1  -0.00000000  0.50000000  -0.00000000  1
  Cu  Cu3  1  0.48802303  0.33902082  0.18280642  1
  Cu  Cu4  1  0.01401241  0.83250415  0.65642357  1
  Cu  Cu5  1  0.51197697  0.66097918  0.81719358  1
  Cu  Cu6  1  0.98598759  0.16749585  0.34357643  1
  C  C7  1  0.95224258  0.91483160  0.37345202  1
  C  C8  1  0.58894032  0.57531384  0.12220198  1
  C  C9  1  0.04775742  0.08516840  0.62654798  1
  C  C10  1  0.41105968  0.42468616  0.87779802  1
  C  C11  1  0.59401321  0.24738973  0.44431639  1
  C  C12  1  0.89273357  0.60490586  0.70722195  1
  C  C13  1  0.40598679  0.75260927  0.55568361  1
  C  C14  1  0.10726643  0.39509414  0.29277705  1
  C  C15  1  0.38879879  0.10786416  0.16332402  1
  C  C16  1  0.09816438  0.75447602  0.94900391  1
  C  C17  1  0.61120121  0.89213584  0.83667598  1
  C  C18  1  0.90183562  0.24552398  0.05099609  1
