# generated using pymatgen
data_Cu(NiC3)2
_symmetry_space_group_name_H-M   'P 1'
_cell_length_a   4.86693600
_cell_length_b   7.26081950
_cell_length_c   8.94472692
_cell_angle_alpha   102.13496195
_cell_angle_beta   90.13140971
_cell_angle_gamma   94.32196780
_symmetry_Int_Tables_number   1
_chemical_formula_structural   Cu(NiC3)2
_chemical_formula_sum   'Cu3 Ni6 C18'
_cell_volume   308.09321508
_cell_formula_units_Z   3
loop_
 _symmetry_equiv_pos_site_id
 _symmetry_equiv_pos_as_xyz
  1  'x, y, z'
loop_
 _atom_site_type_symbol
 _atom_site_label
 _atom_site_symmetry_multiplicity
 _atom_site_fract_x
 _atom_site_fract_y
 _atom_site_fract_z
 _atom_site_occupancy
  Ni  Ni0  1  0.88368800  0.41811300  0.73673400  1
  Ni  Ni1  1  0.11631200  0.58188700  0.26326600  1
  Ni  Ni2  1  0.54876100  0.28605800  0.39173800  1
  Ni  Ni3  1  0.45123900  0.71394200  0.60826200  1
  Ni  Ni4  1  0.54720400  0.28701200  0.03302200  1
  Ni  Ni5  1  0.45279600  0.71298800  0.96697800  1
  Cu  Cu6  1  0.99297700  0.98745100  0.83322800  1
  Cu  Cu7  1  0.00702300  0.01254900  0.16677200  1
  Cu  Cu8  1  0.00000000  0.00000000  0.50000000  1
  C  C9  1  0.78957200  0.47058200  0.24546800  1
  C  C10  1  0.21042800  0.52941800  0.75453200  1
  C  C11  1  0.29577100  0.52691400  0.42257100  1
  C  C12  1  0.70422900  0.47308600  0.57742900  1
  C  C13  1  0.29577800  0.52426100  0.08566200  1
  C  C14  1  0.70422200  0.47573900  0.91433800  1
  C  C15  1  0.36497800  0.21124700  0.20025400  1
  C  C16  1  0.63502200  0.78875300  0.79974600  1
  C  C17  1  0.65736000  0.83242100  0.10703200  1
  C  C18  1  0.34296800  0.16564400  0.48971300  1
  C  C19  1  0.65703200  0.83435600  0.51028700  1
  C  C20  1  0.16978800  0.84975900  0.64064000  1
  C  C21  1  0.83021200  0.15024100  0.35936000  1
  C  C22  1  0.89344300  0.17739400  0.69875700  1
  C  C23  1  0.10655700  0.82260600  0.30124300  1
  C  C24  1  0.83168300  0.15299000  0.01907700  1
  C  C25  1  0.16831700  0.84701000  0.98092300  1
  C  C26  1  0.34264000  0.16757900  0.89296800  1
