# generated using pymatgen
data_Cu8Ni8C9
_symmetry_space_group_name_H-M   'P 1'
_cell_length_a   10.06468988
_cell_length_b   10.09443280
_cell_length_c   3.04939500
_cell_angle_alpha   90.00000000
_cell_angle_beta   90.00000000
_cell_angle_gamma   83.38232661
_symmetry_Int_Tables_number   1
_chemical_formula_structural   Cu8Ni8C9
_chemical_formula_sum   'Cu8 Ni8 C9'
_cell_volume   307.74622272
_cell_formula_units_Z   1
loop_
 _symmetry_equiv_pos_site_id
 _symmetry_equiv_pos_as_xyz
  1  'x, y, z'
loop_
 _atom_site_type_symbol
 _atom_site_label
 _atom_site_symmetry_multiplicity
 _atom_site_fract_x
 _atom_site_fract_y
 _atom_site_fract_z
 _atom_site_occupancy
  C  C0  1  0.89924000  0.39191300  0.50000000  1
  C  C1  1  0.03502400  0.02089700  0.00000000  1
  C  C2  1  0.05429500  0.55236300  0.00000000  1
  C  C3  1  0.22559500  0.24971800  0.50000000  1
  C  C4  1  0.24772600  0.76588200  0.50000000  1
  C  C5  1  0.54092100  0.51831100  0.00000000  1
  C  C6  1  0.49478300  0.99202600  0.00000000  1
  C  C7  1  0.70744400  0.23797300  0.50000000  1
  C  C8  1  0.75362000  0.72621700  0.50000000  1
  Ni  Ni9  1  0.09875500  0.41674700  0.50000000  1
  Ni  Ni10  1  0.11269900  0.91724000  0.50000000  1
  Ni  Ni11  1  0.13704100  0.16713600  0.00000000  1
  Ni  Ni12  1  0.17908700  0.67419900  0.00000000  1
  Ni  Ni13  1  0.57353000  0.40746600  0.50000000  1
  Ni  Ni14  1  0.66894000  0.64252800  0.00000000  1
  Ni  Ni15  1  0.82070900  0.31936200  0.00000000  1
  Ni  Ni16  1  0.91932300  0.59557600  0.50000000  1
  Cu  Cu17  1  0.32517500  0.32605400  0.00000000  1
  Cu  Cu18  1  0.35369600  0.85223100  0.00000000  1
  Cu  Cu19  1  0.38127600  0.09558700  0.50000000  1
  Cu  Cu20  1  0.41522300  0.62483300  0.50000000  1
  Cu  Cu21  1  0.59868500  0.88080300  0.50000000  1
  Cu  Cu22  1  0.63157700  0.12130100  0.00000000  1
  Cu  Cu23  1  0.83303100  0.82712500  0.00000000  1
  Cu  Cu24  1  0.90232900  0.07928700  0.50000000  1
