# generated using pymatgen
data_Cu4Ni4C9
_symmetry_space_group_name_H-M   'P 1'
_cell_length_a   6.08363342
_cell_length_b   7.70955132
_cell_length_c   8.62006373
_cell_angle_alpha   91.33671981
_cell_angle_beta   79.69777608
_cell_angle_gamma   68.36311657
_symmetry_Int_Tables_number   1
_chemical_formula_structural   Cu4Ni4C9
_chemical_formula_sum   'Cu4 Ni4 C9'
_cell_volume   367.98726460
_cell_formula_units_Z   1
loop_
 _symmetry_equiv_pos_site_id
 _symmetry_equiv_pos_as_xyz
  1  'x, y, z'
loop_
 _atom_site_type_symbol
 _atom_site_label
 _atom_site_symmetry_multiplicity
 _atom_site_fract_x
 _atom_site_fract_y
 _atom_site_fract_z
 _atom_site_occupancy
  C  C0  1  0.32979600  0.49212700  0.47347800  1
  C  C1  1  0.25713400  0.00145900  0.88249500  1
  C  C2  1  0.75989000  0.01415800  0.11674700  1
  Ni  Ni3  1  0.76579000  0.28408200  0.81226400  1
  Ni  Ni4  1  0.80107700  0.76827000  0.40210300  1
  Ni  Ni5  1  0.20303900  0.21376900  0.58249600  1
  Ni  Ni6  1  0.25410100  0.72740900  0.18209800  1
  Cu  Cu7  1  0.28632900  0.68425600  0.71989600  1
  Cu  Cu8  1  0.68738500  0.78484700  0.92850100  1
  Cu  Cu9  1  0.32464100  0.23159800  0.07230200  1
  Cu  Cu10  1  0.73077300  0.31033400  0.29730400  1
  C  C11  1  0.34052100  0.09364800  0.70759400  1
  C  C12  1  0.67965800  0.91050000  0.28769300  1
  C  C13  1  0.09399600  0.88365800  0.09101200  1
  C  C14  1  0.91426200  0.32446500  0.65557900  1
  C  C15  1  0.10010700  0.67451800  0.33776500  1
  C  C16  1  0.91941800  0.13423400  0.91161000  1
