# generated using pymatgen
data_CuNi4C
_symmetry_space_group_name_H-M   'P 1'
_cell_length_a   7.45002952
_cell_length_b   7.45002952
_cell_length_c   7.45002952
_cell_angle_alpha   126.71003965
_cell_angle_beta   126.71003965
_cell_angle_gamma   78.72424014
_symmetry_Int_Tables_number   1
_chemical_formula_structural   CuNi4C
_chemical_formula_sum   'Cu2 Ni8 C2'
_cell_volume   257.18677055
_cell_formula_units_Z   2
loop_
 _symmetry_equiv_pos_site_id
 _symmetry_equiv_pos_as_xyz
  1  'x, y, z'
loop_
 _atom_site_type_symbol
 _atom_site_label
 _atom_site_symmetry_multiplicity
 _atom_site_fract_x
 _atom_site_fract_y
 _atom_site_fract_z
 _atom_site_occupancy
  C  C0  1  0.50000000  0.50000000  0.00000000  1
  C  C1  1  0.00000000  0.00000000  0.00000000  1
  Ni  Ni2  1  0.70629100  0.52342300  0.50000000  1
  Ni  Ni3  1  0.52342300  0.02342300  0.81713100  1
  Ni  Ni4  1  0.20629100  0.70629100  0.18286900  1
  Ni  Ni5  1  0.79370900  0.29370900  0.81713100  1
  Ni  Ni6  1  0.47657700  0.97657700  0.18286900  1
  Ni  Ni7  1  0.29370900  0.47657700  0.50000000  1
  Ni  Ni8  1  0.97657700  0.79370900  0.50000000  1
  Ni  Ni9  1  0.02342300  0.20629100  0.50000000  1
  Cu  Cu10  1  0.75000000  0.75000000  0.00000000  1
  Cu  Cu11  1  0.25000000  0.25000000  0.00000000  1
