# generated using pymatgen
data_Cu3Ni5C31
_symmetry_space_group_name_H-M   'P 1'
_cell_length_a   18.58022946
_cell_length_b   9.29870596
_cell_length_c   23.49860189
_cell_angle_alpha   90.02096775
_cell_angle_beta   90.04990935
_cell_angle_gamma   120.06503089
_symmetry_Int_Tables_number   1
_chemical_formula_structural   Cu3Ni5C31
_chemical_formula_sum   'Cu18 Ni30 C186'
_cell_volume   3513.66965340
_cell_formula_units_Z   6
loop_
 _symmetry_equiv_pos_site_id
 _symmetry_equiv_pos_as_xyz
  1  'x, y, z'
loop_
 _atom_site_type_symbol
 _atom_site_label
 _atom_site_symmetry_multiplicity
 _atom_site_fract_x
 _atom_site_fract_y
 _atom_site_fract_z
 _atom_site_occupancy
  Ni  Ni0  1  0.31390558  0.99865709  0.24409220  1
  Ni  Ni1  1  0.81722618  0.01972306  0.24301932  1
  Ni  Ni2  1  0.18581968  0.36703877  0.24658957  1
  Ni  Ni3  1  0.32003835  0.61772916  0.74379929  1
  Ni  Ni4  1  0.81310540  0.62884640  0.74438532  1
  Ni  Ni5  1  0.68547775  0.00444027  0.74754685  1
  Ni  Ni6  1  0.16783718  0.34219239  0.58774781  1
  Ni  Ni7  1  0.65958885  0.33635400  0.57852376  1
  Ni  Ni8  1  0.01197396  0.70054093  0.57360040  1
  Ni  Ni9  1  0.16290609  0.98880968  0.08380184  1
  Ni  Ni10  1  0.66704919  0.99251291  0.08708119  1
  Ni  Ni11  1  0.51101012  0.32227818  0.07240705  1
  Ni  Ni12  1  0.84870236  0.01420592  0.92037334  1
  Ni  Ni13  1  0.66347444  0.31288883  0.91847766  1
  Ni  Ni14  1  0.48560706  0.28784184  0.42175117  1
  Ni  Ni15  1  0.16585222  0.01720994  0.42000953  1
  Ni  Ni16  1  0.66665470  0.05552758  0.41540987  1
  Ni  Ni17  1  0.84947997  0.65116753  0.41572366  1
  Ni  Ni18  1  0.99846542  0.98540262  0.50099978  1
  Ni  Ni19  1  0.48486747  0.98249101  0.49634214  1
  Ni  Ni20  1  0.99187375  0.98822924  0.99924002  1
  Ni  Ni21  1  0.48858447  0.00974186  0.99727614  1
  Ni  Ni22  1  0.34082338  0.33807194  0.83181511  1
  Ni  Ni23  1  0.83575698  0.33858638  0.83250112  1
  Ni  Ni24  1  0.33071869  0.34510302  0.33240832  1
  Ni  Ni25  1  0.83802672  0.34357822  0.33099393  1
  Ni  Ni26  1  0.16978153  0.65111045  0.16283087  1
  Ni  Ni27  1  0.67836249  0.67398061  0.16109693  1
  Ni  Ni28  1  0.18008225  0.68771819  0.66022422  1
  Ni  Ni29  1  0.66959431  0.68937166  0.66171279  1
  Cu  Cu30  1  0.00389688  0.00685529  0.34995371  1
  Cu  Cu31  1  0.50045681  0.99224036  0.34986226  1
  Cu  Cu32  1  0.00436296  0.00911987  0.85064551  1
  Cu  Cu33  1  0.49931667  0.00159687  0.85150402  1
  Cu  Cu34  1  0.33116865  0.32948665  0.68436665  1
  Cu  Cu35  1  0.82893501  0.32057970  0.68317697  1
  Cu  Cu36  1  0.32871940  0.33573814  0.18227460  1
  Cu  Cu37  1  0.83117925  0.33404527  0.18402732  1
  Cu  Cu38  1  0.33545853  0.32127461  0.98184530  1
  Cu  Cu39  1  0.82903356  0.33531754  0.98790058  1
  Cu  Cu40  1  0.32606316  0.33184909  0.48833265  1
  Cu  Cu41  1  0.83515403  0.34504083  0.48422471  1
  Cu  Cu42  1  0.17007186  0.66116475  0.02138687  1
  Cu  Cu43  1  0.67360031  0.65939676  0.01833337  1
  Cu  Cu44  1  0.17630985  0.69082087  0.51724223  1
  Cu  Cu45  1  0.66921984  0.66865712  0.52192542  1
  Cu  Cu46  1  0.66374809  0.65954885  0.31084518  1
  Cu  Cu47  1  0.16313175  0.65533786  0.81130279  1
  C  C48  1  0.99781626  0.00639578  0.65201674  1
  C  C49  1  0.50593003  0.98744845  0.64956168  1
  C  C50  1  0.00576735  0.02453862  0.14938691  1
  C  C51  1  0.49711590  0.98759301  0.15167875  1
  C  C52  1  0.16376541  0.68106658  0.31025573  1
  C  C53  1  0.66259173  0.64447926  0.80997574  1
  C  C54  1  0.14527656  0.99712478  0.24938307  1
  C  C55  1  0.64882169  0.99565886  0.25104468  1
  C  C56  1  0.34891235  0.70257262  0.25181180  1
  C  C57  1  0.00236460  0.30273813  0.25269315  1
  C  C58  1  0.14886035  0.29973955  0.74908668  1
  C  C59  1  0.64409132  0.29054105  0.75003867  1
  C  C60  1  0.50265377  0.70423042  0.75332637  1
  C  C61  1  0.85050312  0.99572850  0.75461878  1
  C  C62  1  0.17642875  0.02927924  0.58539867  1
  C  C63  1  0.68041799  0.02982268  0.58406511  1
  C  C64  1  0.33567164  0.63848646  0.58819568  1
  C  C65  1  0.83798281  0.64183394  0.58778778  1
  C  C66  1  0.33742349  0.03546384  0.08881431  1
  C  C67  1  0.83617553  0.03484332  0.08504387  1
  C  C68  1  0.18209582  0.32854525  0.08505687  1
  C  C69  1  0.67642398  0.32321514  0.08561426  1
  C  C70  1  0.81482310  0.66307397  0.91145451  1
  C  C71  1  0.51752979  0.37521240  0.91640131  1
  C  C72  1  0.31466261  0.97185142  0.41105391  1
  C  C73  1  0.66631507  0.36989499  0.41867338  1
  C  C74  1  0.01829009  0.66175348  0.41599309  1
  C  C75  1  0.85714070  0.71726174  0.24808247  1
  C  C76  1  0.50112593  0.28780378  0.24615629  1
  C  C77  1  0.00181167  0.71538788  0.74653292  1
  C  C78  1  0.35568810  0.99488625  0.74755224  1
  C  C79  1  0.48230124  0.32090851  0.58461673  1
  C  C80  1  0.98231797  0.32257609  0.58515521  1
  C  C81  1  0.48162381  0.64059751  0.08471674  1
  C  C82  1  0.98389399  0.64617618  0.08548038  1
  C  C83  1  0.31459478  0.66446165  0.91564263  1
  C  C84  1  0.01598789  0.37114077  0.91729130  1
  C  C85  1  0.16614926  0.95757844  0.91759441  1
  C  C86  1  0.66829904  0.95616559  0.91484673  1
  C  C87  1  0.81357739  0.96052026  0.41545618  1
  C  C88  1  0.16764047  0.38071482  0.41453470  1
  C  C89  1  0.51873923  0.66090619  0.41715841  1
  C  C90  1  0.10808638  0.02996196  0.30646321  1
  C  C91  1  0.60925838  0.00866826  0.31062065  1
  C  C92  1  0.40297587  0.79294256  0.30679720  1
  C  C93  1  0.89898619  0.78591265  0.30378066  1
  C  C94  1  0.49165761  0.19517082  0.29888708  1
  C  C95  1  0.98238527  0.17663605  0.30436867  1
  C  C96  1  0.10407369  0.19419691  0.80453671  1
  C  C97  1  0.60662657  0.18164080  0.80634626  1
  C  C98  1  0.48398843  0.79210936  0.80469488  1
  C  C99  1  0.98971927  0.79088628  0.79741776  1
  C  C100  1  0.40057072  0.01442644  0.80132247  1
  C  C101  1  0.90159954  0.01493649  0.81171563  1
  C  C102  1  0.40159253  0.97643552  0.69867667  1
  C  C103  1  0.90543745  0.97635598  0.69942523  1
  C  C104  1  0.08535126  0.18933096  0.69317838  1
  C  C105  1  0.58409600  0.19149528  0.69410563  1
  C  C106  1  0.01024433  0.82077644  0.69482734  1
  C  C107  1  0.51812103  0.83565144  0.69600047  1
  C  C108  1  0.40176688  0.82796211  0.19571194  1
  C  C109  1  0.90576887  0.83007798  0.20076432  1
  C  C110  1  0.01766249  0.20065664  0.19590613  1
  C  C111  1  0.50758792  0.19442954  0.19589659  1
  C  C112  1  0.08508000  0.97789578  0.19383722  1
  C  C113  1  0.58225094  0.98274619  0.19719539  1
  C  C114  1  0.44071803  0.34227526  0.63323216  1
  C  C115  1  0.94461210  0.35302097  0.63518778  1
  C  C116  1  0.23977347  0.12641371  0.63591578  1
  C  C117  1  0.73227763  0.11443818  0.64143661  1
  C  C118  1  0.32323765  0.52846704  0.64450625  1
  C  C119  1  0.82806956  0.52956544  0.64276484  1
  C  C120  1  0.44450258  0.53498640  0.13513577  1
  C  C121  1  0.94699471  0.54449660  0.13579207  1
  C  C122  1  0.32296368  0.11362774  0.14626291  1
  C  C123  1  0.82510456  0.12767905  0.13976903  1
  C  C124  1  0.22957248  0.35130614  0.14480035  1
  C  C125  1  0.74012610  0.35512310  0.13618710  1
  C  C126  1  0.22579578  0.28461364  0.03323539  1
  C  C127  1  0.71174061  0.28307346  0.02634730  1
  C  C128  1  0.43032611  0.56874333  0.03371207  1
  C  C129  1  0.93258977  0.56750234  0.03355505  1
  C  C130  1  0.36424432  0.16700839  0.03559794  1
  C  C131  1  0.85226535  0.14274686  0.02600667  1
  C  C132  1  0.20967795  0.14038724  0.52601949  1
  C  C133  1  0.72138037  0.14948764  0.52854580  1
  C  C134  1  0.35265961  0.55554804  0.53193437  1
  C  C135  1  0.86235241  0.57227113  0.53046534  1
  C  C136  1  0.43524306  0.30154880  0.53038861  1
  C  C137  1  0.93154335  0.29164340  0.53386135  1
  C  C138  1  0.26966283  0.68018877  0.96502994  1
  C  C139  1  0.77170435  0.69506171  0.96592656  1
  C  C140  1  0.06408573  0.45861403  0.96780428  1
  C  C141  1  0.56802628  0.45944291  0.97449946  1
  C  C142  1  0.16057454  0.86613098  0.97048537  1
  C  C143  1  0.65823711  0.86347319  0.96797773  1
  C  C144  1  0.27190558  0.86631844  0.46741440  1
  C  C145  1  0.77002004  0.85428219  0.46477004  1
  C  C146  1  0.15922247  0.45459506  0.46771575  1
  C  C147  1  0.65413454  0.45210695  0.47666306  1
  C  C148  1  0.06968684  0.68356091  0.47384986  1
  C  C149  1  0.57008590  0.68140247  0.46729706  1
  C  C150  1  0.07736114  0.65858114  0.36009282  1
  C  C151  1  0.55918967  0.64418031  0.36499690  1
  C  C152  1  0.25298629  0.85750708  0.35473641  1
  C  C153  1  0.76543227  0.88542186  0.36209958  1
  C  C154  1  0.17288931  0.47820025  0.36326294  1
  C  C155  1  0.67752360  0.49096676  0.36433772  1
  C  C156  1  0.05785082  0.46665720  0.86494255  1
  C  C157  1  0.57759206  0.49862209  0.86018475  1
  C  C158  1  0.17054641  0.86627485  0.86710660  1
  C  C159  1  0.67497455  0.86833790  0.86388792  1
  C  C160  1  0.26768982  0.65364206  0.86202947  1
  C  C161  1  0.75315836  0.65059564  0.85440330  1
  C  C162  1  0.00944801  0.83032554  0.41177571  1
  C  C163  1  0.50990846  0.81029517  0.41430882  1
  C  C164  1  0.40966123  0.01018951  0.40732853  1
  C  C165  1  0.89563954  0.96916339  0.41325884  1
  C  C166  1  0.09422973  0.20794210  0.41196872  1
  C  C167  1  0.58460015  0.18287880  0.41460862  1
  C  C168  1  0.00766600  0.20307130  0.91614346  1
  C  C169  1  0.51700417  0.19822843  0.91212922  1
  C  C170  1  0.09100285  0.97463017  0.91524720  1
  C  C171  1  0.59698724  0.98688248  0.91105925  1
  C  C172  1  0.39758656  0.81497424  0.91518368  1
  C  C173  1  0.90620084  0.82759936  0.90820513  1
  C  C174  1  0.49105234  0.16947130  0.59041950  1
  C  C175  1  0.98917577  0.16776188  0.59409182  1
  C  C176  1  0.08369048  0.02052134  0.59716361  1
  C  C177  1  0.58792241  0.02622055  0.59416652  1
  C  C178  1  0.41734983  0.83002119  0.60067929  1
  C  C179  1  0.92134416  0.83014499  0.59837060  1
  C  C180  1  0.48923013  0.80941005  0.09398807  1
  C  C181  1  0.99221144  0.81496385  0.09146783  1
  C  C182  1  0.42079463  0.01329721  0.09807121  1
  C  C183  1  0.91749088  0.00580634  0.09997629  1
  C  C184  1  0.08782270  0.15021911  0.09406560  1
  C  C185  1  0.58431633  0.14540309  0.09747755  1
  C  C186  1  0.34433783  0.13924739  0.74144490  1
  C  C187  1  0.83288569  0.14813690  0.74705713  1
  C  C188  1  0.24233636  0.32838948  0.74558762  1
  C  C189  1  0.73956741  0.32969131  0.74413573  1
  C  C190  1  0.42525151  0.52191305  0.74327275  1
  C  C191  1  0.92805863  0.54993930  0.74058738  1
  C  C192  1  0.33132002  0.51491078  0.24613233  1
  C  C193  1  0.84610696  0.55223463  0.24235725  1
  C  C194  1  0.42663879  0.30401874  0.24069385  1
  C  C195  1  0.92467842  0.32869213  0.24264547  1
  C  C196  1  0.24007018  0.14972603  0.24396512  1
  C  C197  1  0.74154013  0.15791040  0.24563529  1
  C  C198  1  0.32032973  0.51260734  0.91971319  1
  C  C199  1  0.81176791  0.48319613  0.91450279  1
  C  C200  1  0.42656340  0.35925410  0.91350811  1
  C  C201  1  0.93071347  0.34907049  0.91864362  1
  C  C202  1  0.24264637  0.12437130  0.91819724  1
  C  C203  1  0.74705700  0.12103723  0.91694897  1
  C  C204  1  0.31481345  0.15068253  0.41262286  1
  C  C205  1  0.82146483  0.12544261  0.42146933  1
  C  C206  1  0.24361505  0.36318274  0.41599869  1
  C  C207  1  0.75095325  0.35358848  0.42063301  1
  C  C208  1  0.43647010  0.50480938  0.42131424  1
  C  C209  1  0.92556283  0.49934450  0.41385370  1
  C  C210  1  0.16244980  0.47818548  0.07831548  1
  C  C211  1  0.65265104  0.46931096  0.08262480  1
  C  C212  1  0.06954801  0.67505012  0.07804696  1
  C  C213  1  0.56684512  0.67110264  0.07817606  1
  C  C214  1  0.25136431  0.85989193  0.07822694  1
  C  C215  1  0.74887495  0.85732753  0.08127568  1
  C  C216  1  0.15316868  0.83590118  0.58238037  1
  C  C217  1  0.66030946  0.84092813  0.57990047  1
  C  C218  1  0.24872996  0.64160741  0.58160299  1
  C  C219  1  0.75233661  0.64756102  0.58180270  1
  C  C220  1  0.06745710  0.46286860  0.57847778  1
  C  C221  1  0.56769280  0.46663715  0.58115771  1
  C  C222  1  0.15178674  0.82315668  0.25573801  1
  C  C223  1  0.65868117  0.82932591  0.24593681  1
  C  C224  1  0.25697272  0.69631627  0.25529818  1
  C  C225  1  0.77519522  0.71282751  0.24816786  1
  C  C226  1  0.09268603  0.47713929  0.26076076  1
  C  C227  1  0.57731961  0.45312915  0.24641722  1
  C  C228  1  0.15713333  0.48585585  0.74741883  1
  C  C229  1  0.65121611  0.47847549  0.75595478  1
  C  C230  1  0.07849994  0.70459649  0.74900453  1
  C  C231  1  0.59312030  0.70952920  0.76089527  1
  C  C232  1  0.27325391  0.83759871  0.74968204  1
  C  C233  1  0.75839678  0.81848031  0.75583091  1
