# generated using pymatgen
data_Cu2NiC2
_symmetry_space_group_name_H-M   'P 1'
_cell_length_a   8.35383200
_cell_length_b   8.35383200
_cell_length_c   5.82548800
_cell_angle_alpha   90.00000000
_cell_angle_beta   90.00000000
_cell_angle_gamma   90.00000000
_symmetry_Int_Tables_number   1
_chemical_formula_structural   Cu2NiC2
_chemical_formula_sum   'Cu8 Ni4 C8'
_cell_volume   406.54047123
_cell_formula_units_Z   4
loop_
 _symmetry_equiv_pos_site_id
 _symmetry_equiv_pos_as_xyz
  1  'x, y, z'
loop_
 _atom_site_type_symbol
 _atom_site_label
 _atom_site_symmetry_multiplicity
 _atom_site_fract_x
 _atom_site_fract_y
 _atom_site_fract_z
 _atom_site_occupancy
  C  C0  1  0.50000000  0.22116800  0.19550400  1
  C  C1  1  0.50000000  0.77883200  0.19550400  1
  C  C2  1  0.27883200  0.00000000  0.69550400  1
  C  C3  1  0.72116800  0.00000000  0.69550400  1
  C  C4  1  0.22116800  0.50000000  0.80449600  1
  C  C5  1  0.00000000  0.27883200  0.30449600  1
  C  C6  1  0.00000000  0.72116800  0.30449600  1
  C  C7  1  0.77883200  0.50000000  0.80449600  1
  Ni  Ni8  1  0.50000000  0.00000000  0.91925800  1
  Ni  Ni9  1  0.50000000  0.00000000  0.41925800  1
  Ni  Ni10  1  0.00000000  0.50000000  0.58074200  1
  Ni  Ni11  1  0.00000000  0.50000000  0.08074200  1
  Cu  Cu12  1  0.28611800  0.71388200  0.50000000  1
  Cu  Cu13  1  0.21388200  0.21388200  0.00000000  1
  Cu  Cu14  1  0.78611800  0.78611800  0.00000000  1
  Cu  Cu15  1  0.71388200  0.28611800  0.50000000  1
  Cu  Cu16  1  0.78611800  0.21388200  0.00000000  1
  Cu  Cu17  1  0.71388200  0.71388200  0.50000000  1
  Cu  Cu18  1  0.28611800  0.28611800  0.50000000  1
  Cu  Cu19  1  0.21388200  0.78611800  0.00000000  1
