# generated using pymatgen
data_CuNiC16
_symmetry_space_group_name_H-M   'P 1'
_cell_length_a   5.70641074
_cell_length_b   11.22136800
_cell_length_c   9.91611585
_cell_angle_alpha   27.88502925
_cell_angle_beta   50.59828741
_cell_angle_gamma   56.38384113
_symmetry_Int_Tables_number   1
_chemical_formula_structural   CuNiC16
_chemical_formula_sum   'Cu1 Ni1 C16'
_cell_volume   229.42683061
_cell_formula_units_Z   1
loop_
 _symmetry_equiv_pos_site_id
 _symmetry_equiv_pos_as_xyz
  1  'x, y, z'
loop_
 _atom_site_type_symbol
 _atom_site_label
 _atom_site_symmetry_multiplicity
 _atom_site_fract_x
 _atom_site_fract_y
 _atom_site_fract_z
 _atom_site_occupancy
  Ni  Ni0  1  0.15508200  0.49163800  0.22095700  1
  Cu  Cu1  1  0.31660700  0.01163500  0.27013500  1
  C  C2  1  0.01529100  0.99832100  0.98029100  1
  C  C3  1  0.95768400  0.49682400  0.99686300  1
  C  C4  1  0.51071000  0.98943700  0.49495100  1
  C  C5  1  0.46207500  0.51209700  0.47951000  1
  C  C6  1  0.32313600  0.27704500  0.14921600  1
  C  C7  1  0.25408300  0.13629800  0.59317700  1
  C  C8  1  0.11429900  0.31704200  0.72527900  1
  C  C9  1  0.89253500  0.17283500  0.23379300  1
  C  C10  1  0.36623100  0.81269100  0.10319200  1
  C  C11  1  0.77507300  0.39475900  0.34480000  1
  C  C12  1  0.20586200  0.65937600  0.58399900  1
  C  C13  1  0.58962300  0.19493700  0.86857600  1
  C  C14  1  0.14218900  0.80160800  0.72161200  1
  C  C15  1  0.85478800  0.69858300  0.22372900  1
  C  C16  1  0.70328900  0.89061900  0.34100000  1
  C  C17  1  0.57550300  0.65615500  0.90322500  1
