# generated using pymatgen
data_CuNiC18
_symmetry_space_group_name_H-M   'P 1'
_cell_length_a   15.49801900
_cell_length_b   8.96406487
_cell_length_c   8.93755480
_cell_angle_alpha   90.00000000
_cell_angle_beta   124.76570655
_cell_angle_gamma   90.00000000
_symmetry_Int_Tables_number   1
_chemical_formula_structural   CuNiC18
_chemical_formula_sum   'Cu4 Ni4 C72'
_cell_volume   1020.00552460
_cell_formula_units_Z   4
loop_
 _symmetry_equiv_pos_site_id
 _symmetry_equiv_pos_as_xyz
  1  'x, y, z'
loop_
 _atom_site_type_symbol
 _atom_site_label
 _atom_site_symmetry_multiplicity
 _atom_site_fract_x
 _atom_site_fract_y
 _atom_site_fract_z
 _atom_site_occupancy
  C  C0  1  0.25260371  0.72392673  0.98889232  1
  C  C1  1  0.75260371  0.77607327  0.48889232  1
  C  C2  1  0.75260371  0.22392673  0.98889232  1
  C  C3  1  0.25260371  0.27607327  0.48889232  1
  C  C4  1  0.50334608  0.11341063  0.74860005  1
  C  C5  1  0.50334608  0.88658937  0.24860005  1
  C  C6  1  0.00334608  0.61341063  0.74860005  1
  C  C7  1  0.00334608  0.38658937  0.24860005  1
  C  C8  1  0.18362645  0.94184357  0.28426146  1
  C  C9  1  0.18362645  0.05815643  0.78426146  1
  C  C10  1  0.68362645  0.44184357  0.28426146  1
  C  C11  1  0.68362645  0.55815643  0.78426146  1
  Ni  Ni12  1  0.10267214  0.75045656  0.56059121  1
  Ni  Ni13  1  0.10267214  0.24954344  0.06059121  1
  Ni  Ni14  1  0.60267214  0.25045656  0.56059121  1
  Ni  Ni15  1  0.60267214  0.74954344  0.06059121  1
  Cu  Cu16  1  0.89751679  0.75650011  0.94831573  1
  Cu  Cu17  1  0.89751679  0.24349989  0.44831573  1
  Cu  Cu18  1  0.39751679  0.25650011  0.94831573  1
  Cu  Cu19  1  0.39751679  0.74349989  0.44831573  1
  C  C20  1  -0.00001321  0.95182725  0.75949046  1
  C  C21  1  -0.00001321  0.04817275  0.25949046  1
  C  C22  1  0.49998679  0.45182725  0.75949046  1
  C  C23  1  0.49998679  0.54817275  0.25949046  1
  C  C24  1  0.35396602  0.90018902  0.76328248  1
  C  C25  1  0.64705575  0.89170217  0.74891408  1
  C  C26  1  0.64705575  0.10829783  0.24891408  1
  C  C27  1  0.35396602  0.09981098  0.26328248  1
  C  C28  1  0.85396602  0.40018902  0.76328248  1
  C  C29  1  0.14705575  0.39170217  0.74891408  1
  C  C30  1  0.14705575  0.60829783  0.24891408  1
  C  C31  1  0.85396602  0.59981098  0.26328248  1
  C  C32  1  0.15261530  0.56160548  0.74150563  1
  C  C33  1  0.84669050  0.57760219  0.75846747  1
  C  C34  1  0.84669050  0.42239781  0.25846747  1
  C  C35  1  0.15261530  0.43839452  0.24150563  1
  C  C36  1  0.65261530  0.06160548  0.74150563  1
  C  C37  1  0.34669050  0.07760219  0.75846747  1
  C  C38  1  0.34669050  0.92239781  0.25846747  1
  C  C39  1  0.65261530  0.93839452  0.24150563  1
  C  C40  1  0.43205021  0.54688917  0.58111204  1
  C  C41  1  0.56252195  0.54708243  0.92881413  1
  C  C42  1  0.56252195  0.45291757  0.42881413  1
  C  C43  1  0.43205021  0.45311083  0.08111204  1
  C  C44  1  0.93205021  0.04688917  0.58111204  1
  C  C45  1  0.06252195  0.04708243  0.92881413  1
  C  C46  1  0.06252195  0.95291757  0.42881413  1
  C  C47  1  0.93205021  0.95311083  0.08111204  1
  C  C48  1  0.25679218  0.83953504  0.74761394  1
  C  C49  1  0.73984933  0.81273362  0.75416974  1
  C  C50  1  0.73984933  0.18726638  0.25416974  1
  C  C51  1  0.25679218  0.16046496  0.24761394  1
  C  C52  1  0.75679218  0.33953504  0.74761394  1
  C  C53  1  0.23984933  0.31273362  0.75416974  1
  C  C54  1  0.23984933  0.68726638  0.25416974  1
  C  C55  1  0.75679218  0.66046496  0.24761394  1
  C  C56  1  0.35002169  0.87052133  0.58384784  1
  C  C57  1  0.64245821  0.84068164  0.90520062  1
  C  C58  1  0.64245821  0.15931836  0.40520062  1
  C  C59  1  0.35002169  0.12947867  0.08384784  1
  C  C60  1  0.85002169  0.37052133  0.58384784  1
  C  C61  1  0.14245821  0.34068164  0.90520062  1
  C  C62  1  0.14245821  0.65931836  0.40520062  1
  C  C63  1  0.85002169  0.62947867  0.08384784  1
  C  C64  1  0.45616502  0.84781321  0.93272009  1
  C  C65  1  0.54772197  0.82912114  0.56261598  1
  C  C66  1  0.54772197  0.17087886  0.06261598  1
  C  C67  1  0.45616502  0.15218679  0.43272009  1
  C  C68  1  0.95616502  0.34781321  0.93272009  1
  C  C69  1  0.04772197  0.32912114  0.56261598  1
  C  C70  1  0.04772197  0.67087886  0.06261598  1
  C  C71  1  0.95616502  0.65218679  0.43272009  1
  C  C72  1  0.07597450  0.84960682  0.74720629  1
  C  C73  1  0.91636540  0.84780180  0.75437842  1
  C  C74  1  0.91636540  0.15219820  0.25437842  1
  C  C75  1  0.07597450  0.15039318  0.24720629  1
  C  C76  1  0.57597450  0.34960682  0.74720629  1
  C  C77  1  0.41636540  0.34780180  0.75437842  1
  C  C78  1  0.41636540  0.65219820  0.25437842  1
  C  C79  1  0.57597450  0.65039318  0.24720629  1
