# generated using pymatgen
data_Cu4NiC13
_symmetry_space_group_name_H-M   'P 1'
_cell_length_a   9.04580200
_cell_length_b   7.58995300
_cell_length_c   16.59906607
_cell_angle_alpha   69.00486290
_cell_angle_beta   90.00000000
_cell_angle_gamma   90.00000000
_symmetry_Int_Tables_number   1
_chemical_formula_structural   Cu4NiC13
_chemical_formula_sum   'Cu16 Ni4 C52'
_cell_volume   1063.98548348
_cell_formula_units_Z   4
loop_
 _symmetry_equiv_pos_site_id
 _symmetry_equiv_pos_as_xyz
  1  'x, y, z'
loop_
 _atom_site_type_symbol
 _atom_site_label
 _atom_site_symmetry_multiplicity
 _atom_site_fract_x
 _atom_site_fract_y
 _atom_site_fract_z
 _atom_site_occupancy
  C  C0  1  0.58022400  0.92981000  0.07584200  1
  C  C1  1  0.41977600  0.07019000  0.92415800  1
  C  C2  1  0.91977600  0.92981000  0.57584200  1
  C  C3  1  0.08022400  0.07019000  0.42415800  1
  Ni  Ni4  1  0.34617600  0.68051200  0.36036800  1
  Ni  Ni5  1  0.15382400  0.68051200  0.86036800  1
  Ni  Ni6  1  0.84617600  0.31948800  0.13963200  1
  Ni  Ni7  1  0.65382400  0.31948800  0.63963200  1
  Cu  Cu8  1  0.96995900  0.90748800  0.30979300  1
  Cu  Cu9  1  0.75916400  0.23328600  0.94381900  1
  Cu  Cu10  1  0.25916400  0.76671400  0.55618100  1
  Cu  Cu11  1  0.73991200  0.63458600  0.42375400  1
  Cu  Cu12  1  0.05964200  0.66320600  0.21441500  1
  Cu  Cu13  1  0.26008800  0.36541400  0.57624600  1
  Cu  Cu14  1  0.24083600  0.76671400  0.05618100  1
  Cu  Cu15  1  0.03004100  0.09251200  0.69020700  1
  Cu  Cu16  1  0.74083600  0.23328600  0.44381900  1
  Cu  Cu17  1  0.55964200  0.33679400  0.28558500  1
  Cu  Cu18  1  0.53004100  0.90748800  0.80979300  1
  Cu  Cu19  1  0.23991200  0.36541400  0.07624600  1
  Cu  Cu20  1  0.76008800  0.63458600  0.92375400  1
  Cu  Cu21  1  0.46995900  0.09251200  0.19020700  1
  Cu  Cu22  1  0.44035800  0.66320600  0.71441500  1
  Cu  Cu23  1  0.94035800  0.33679400  0.78558500  1
  C  C24  1  0.37593700  0.91585700  0.84353900  1
  C  C25  1  0.73658200  0.58491400  0.52025900  1
  C  C26  1  0.84153400  0.43208400  0.70945500  1
  C  C27  1  0.62177500  0.11357200  0.96034500  1
  C  C28  1  0.37822500  0.88642800  0.03965500  1
  C  C29  1  0.15243000  0.80061500  0.13348800  1
  C  C30  1  0.15846600  0.56791600  0.29054500  1
  C  C31  1  0.26341800  0.41508600  0.47974100  1
  C  C32  1  0.03884200  0.17932000  0.76513800  1
  C  C33  1  0.78944500  0.45270900  0.40025400  1
  C  C34  1  0.39191900  0.27160100  0.62891900  1
  C  C35  1  0.11445000  0.24052700  0.60899400  1
  C  C36  1  0.45653600  0.45523900  0.31473200  1
  C  C37  1  0.61314800  0.09074400  0.77718000  1
  C  C38  1  0.95653600  0.54476100  0.18526800  1
  C  C39  1  0.28944500  0.54729100  0.09974600  1
  C  C40  1  0.87593700  0.08414300  0.65646100  1
  C  C41  1  0.63813300  0.20751900  0.51835800  1
  C  C42  1  0.76341800  0.58491400  0.02025900  1
  C  C43  1  0.65846600  0.43208400  0.20945500  1
  C  C44  1  0.13813300  0.79248100  0.98164200  1
  C  C45  1  0.84757000  0.19938500  0.86651200  1
  C  C46  1  0.65243000  0.19938500  0.36651200  1
  C  C47  1  0.11314800  0.90925600  0.72282000  1
  C  C48  1  0.87822500  0.11357200  0.46034500  1
  C  C49  1  0.61445000  0.75947300  0.89100600  1
  C  C50  1  0.89191900  0.72839900  0.87108100  1
  C  C51  1  0.53884200  0.82068000  0.73486200  1
  C  C52  1  0.46115800  0.17932000  0.26513800  1
  C  C53  1  0.10808100  0.27160100  0.12891900  1
  C  C54  1  0.38555000  0.24052700  0.10899400  1
  C  C55  1  0.12177500  0.88642800  0.53965500  1
  C  C56  1  0.88685200  0.09074400  0.27718000  1
  C  C57  1  0.34757000  0.80061500  0.63348800  1
  C  C58  1  0.62406300  0.08414300  0.15646100  1
  C  C59  1  0.86186700  0.20751900  0.01835800  1
  C  C60  1  0.34153400  0.56791600  0.79054500  1
  C  C61  1  0.23658200  0.41508600  0.97974100  1
  C  C62  1  0.36186700  0.79248100  0.48164200  1
  C  C63  1  0.12406300  0.91585700  0.34353900  1
  C  C64  1  0.71055500  0.45270900  0.90025400  1
  C  C65  1  0.04346400  0.45523900  0.81473200  1
  C  C66  1  0.38685200  0.90925600  0.22282000  1
  C  C67  1  0.54346400  0.54476100  0.68526800  1
  C  C68  1  0.88555000  0.75947300  0.39100600  1
  C  C69  1  0.96115800  0.82068000  0.23486200  1
  C  C70  1  0.21055500  0.54729100  0.59974600  1
  C  C71  1  0.60808100  0.72839900  0.37108100  1
