# generated using pymatgen
data_CuNiC18
_symmetry_space_group_name_H-M   'P 1'
_cell_length_a   9.01763155
_cell_length_b   9.01763124
_cell_length_c   22.39943177
_cell_angle_alpha   89.21838887
_cell_angle_beta   90.78161112
_cell_angle_gamma   119.60526999
_symmetry_Int_Tables_number   1
_chemical_formula_structural   CuNiC18
_chemical_formula_sum   'Cu6 Ni6 C108'
_cell_volume   1583.47867445
_cell_formula_units_Z   6
loop_
 _symmetry_equiv_pos_site_id
 _symmetry_equiv_pos_as_xyz
  1  'x, y, z'
loop_
 _atom_site_type_symbol
 _atom_site_label
 _atom_site_symmetry_multiplicity
 _atom_site_fract_x
 _atom_site_fract_y
 _atom_site_fract_z
 _atom_site_occupancy
  C  C0  1  0.66323785  0.01324800  0.25467002  1
  C  C1  1  0.97410323  0.61420892  0.24534592  1
  C  C2  1  0.98675200  0.33676215  0.75467002  1
  C  C3  1  0.38579108  0.02589677  0.74534592  1
  C  C4  1  0.32990485  0.34658100  0.58800302  1
  C  C5  1  0.64077023  0.94754192  0.57867892  1
  C  C6  1  0.65341900  0.67009515  0.08800302  1
  C  C7  1  0.05245808  0.35922977  0.07867892  1
  C  C8  1  0.99657085  0.67991500  0.92133702  1
  C  C9  1  0.30743623  0.28087592  0.91201292  1
  C  C10  1  0.32008500  0.00342915  0.42133702  1
  C  C11  1  0.71912408  0.69256377  0.41201292  1
  C  C12  1  0.98662699  0.97772691  0.49292575  1
  C  C13  1  0.02227309  0.01337301  0.99292575  1
  C  C14  1  0.65329399  0.31105991  0.82625875  1
  C  C15  1  0.68894009  0.34670601  0.32625875  1
  C  C16  1  0.31995999  0.64439391  0.15959275  1
  C  C17  1  0.35560609  0.68004001  0.65959275  1
  Ni  Ni18  1  0.98176465  0.99396409  0.35273146  1
  Ni  Ni19  1  0.00603591  0.01823535  0.85273146  1
  Ni  Ni20  1  0.64843165  0.32729709  0.68606446  1
  Ni  Ni21  1  0.67270291  0.35156835  0.18606446  1
  Ni  Ni22  1  0.31509765  0.66063109  0.01939846  1
  Ni  Ni23  1  0.33936891  0.68490235  0.51939846  1
  Cu  Cu24  1  0.99484275  0.99882516  0.64648273  1
  Cu  Cu25  1  0.00117484  0.00515725  0.14648273  1
  Cu  Cu26  1  0.66150975  0.33215816  0.97981573  1
  Cu  Cu27  1  0.66784184  0.33849025  0.47981573  1
  Cu  Cu28  1  0.32817575  0.66549216  0.31314973  1
  Cu  Cu29  1  0.33450784  0.67182425  0.81314973  1
  C  C30  1  0.70230894  0.70255291  0.25304334  1
  C  C31  1  0.00050004  0.29207705  0.25151672  1
  C  C32  1  0.29744709  0.29769106  0.75304334  1
  C  C33  1  0.70792295  -0.00050004  0.75151672  1
  C  C34  1  0.36897594  0.03588591  0.58637634  1
  C  C35  1  0.66716704  0.62541005  0.58484972  1
  C  C36  1  0.96411409  0.63102406  0.08637634  1
  C  C37  1  0.37458995  0.33283296  0.08484972  1
  C  C38  1  0.03564194  0.36921991  0.91971034  1
  C  C39  1  0.33383304  0.95874405  0.91818372  1
  C  C40  1  0.63078009  0.96435806  0.41971034  1
  C  C41  1  0.04125595  0.66616696  0.41818372  1
  C  C42  1  0.29038196  0.00045765  0.25180768  1
  C  C43  1  -0.00045765  0.70961804  0.75180768  1
  C  C44  1  0.95704896  0.33379065  0.58514068  1
  C  C45  1  0.66620935  0.04295104  0.08514068  1
  C  C46  1  0.62371496  0.66712465  0.91847468  1
  C  C47  1  0.33287535  0.37628504  0.41847468  1
  C  C48  1  0.21796309  0.02161785  0.30630780  1
  C  C49  1  0.81795496  0.78813428  0.31046532  1
  C  C50  1  0.98319875  0.17362298  0.30591501  1
  C  C51  1  0.21186572  0.18204504  0.81046532  1
  C  C52  1  0.97838215  0.78203691  0.80630780  1
  C  C53  1  0.82637702  0.01680125  0.80591501  1
  C  C54  1  0.79985928  0.97246570  0.68933580  1
  C  C55  1  0.16239742  0.19551814  0.69308154  1
  C  C56  1  0.02501264  0.82525144  0.69824094  1
  C  C57  1  0.80448186  0.83760258  0.19308154  1
  C  C58  1  0.02753430  0.20014072  0.18933580  1
  C  C59  1  0.17474856  0.97498736  0.19824094  1
  C  C60  1  0.88463009  0.35495085  0.63964080  1
  C  C61  1  0.48462196  0.12146728  0.64379832  1
  C  C62  1  0.64986575  0.50695598  0.63924801  1
  C  C63  1  0.87853272  0.51537804  0.14379832  1
  C  C64  1  0.64504915  0.11536991  0.13964080  1
  C  C65  1  0.49304402  0.35013425  0.13924801  1
  C  C66  1  0.46652628  0.30579870  0.02266880  1
  C  C67  1  0.82906442  0.52885114  0.02641454  1
  C  C68  1  0.69167964  0.15858444  0.03157394  1
  C  C69  1  0.47114886  0.17093558  0.52641454  1
  C  C70  1  0.69420130  0.53347372  0.52266880  1
  C  C71  1  0.84141556  0.30832036  0.53157394  1
  C  C72  1  0.55129609  0.68828485  0.97297480  1
  C  C73  1  0.15128796  0.45480128  0.97713232  1
  C  C74  1  0.31653175  0.84028998  0.97258201  1
  C  C75  1  0.54519872  0.84871204  0.47713232  1
  C  C76  1  0.31171515  0.44870391  0.47297480  1
  C  C77  1  0.15971002  0.68346825  0.47258201  1
  C  C78  1  0.13319228  0.63913270  0.35600280  1
  C  C79  1  0.49573042  0.86218514  0.35974854  1
  C  C80  1  0.35834564  0.49191844  0.36490794  1
  C  C81  1  0.13781486  0.50426958  0.85974854  1
  C  C82  1  0.36086730  0.86680772  0.85600280  1
  C  C83  1  0.50808156  0.64165436  0.86490794  1
  C  C84  1  0.02556361  0.83710095  0.41072134  1
  C  C85  1  0.81711216  0.98827777  0.41268995  1
  C  C86  1  0.19675181  0.20141213  0.40903412  1
  C  C87  1  0.01172223  0.18288784  0.91268995  1
  C  C88  1  0.16289905  0.97443639  0.91072134  1
  C  C89  1  0.79858787  0.80324819  0.90903412  1
  C  C90  1  0.95929058  0.16426498  0.58618856  1
  C  C91  1  0.18360240  0.03830066  0.59020740  1
  C  C92  1  0.83892535  0.82237092  0.58928858  1
  C  C93  1  0.96169934  0.81639760  0.09020740  1
  C  C94  1  0.83573502  0.04070942  0.08618856  1
  C  C95  1  0.17762908  0.16107465  0.08928858  1
  C  C96  1  0.69223061  0.17043395  0.74405434  1
  C  C97  1  0.48377916  0.32161077  0.74602295  1
  C  C98  1  0.86341881  0.53474513  0.74236712  1
  C  C99  1  0.67838923  0.51622084  0.24602295  1
  C  C100  1  0.82956605  0.30776939  0.24405434  1
  C  C101  1  0.46525487  0.13658119  0.24236712  1
  C  C102  1  0.62595758  0.49759798  0.91952156  1
  C  C103  1  0.85026940  0.37163366  0.92354040  1
  C  C104  1  0.50559235  0.15570392  0.92262158  1
  C  C105  1  0.62836634  0.14973060  0.42354040  1
  C  C106  1  0.50240202  0.37404242  0.41952156  1
  C  C107  1  0.84429608  0.49440765  0.42262158  1
  C  C108  1  0.35889661  0.50376795  0.07738834  1
  C  C109  1  0.15044516  0.65494477  0.07935695  1
  C  C110  1  0.53008481  0.86807913  0.07570112  1
  C  C111  1  0.34505523  0.84955484  0.57935695  1
  C  C112  1  0.49623205  0.64110339  0.57738834  1
  C  C113  1  0.13192087  0.46991519  0.57570112  1
  C  C114  1  0.29262358  0.83093198  0.25285556  1
  C  C115  1  0.51693540  0.70496766  0.25687440  1
  C  C116  1  0.17225835  0.48903792  0.25595558  1
  C  C117  1  0.29503234  0.48306460  0.75687440  1
  C  C118  1  0.16906802  0.70737642  0.75285556  1
  C  C119  1  0.51096208  0.82774165  0.75595558  1
