# generated using pymatgen
data_CuNi11C70
_symmetry_space_group_name_H-M   'P 1'
_cell_length_a   18.17882853
_cell_length_b   9.10149976
_cell_length_c   22.40165305
_cell_angle_alpha   89.91404147
_cell_angle_beta   90.17506329
_cell_angle_gamma   120.05867434
_symmetry_Int_Tables_number   1
_chemical_formula_structural   CuNi11C70
_chemical_formula_sum   'Cu3 Ni33 C210'
_cell_volume   3207.97111851
_cell_formula_units_Z   3
loop_
 _symmetry_equiv_pos_site_id
 _symmetry_equiv_pos_as_xyz
  1  'x, y, z'
loop_
 _atom_site_type_symbol
 _atom_site_label
 _atom_site_symmetry_multiplicity
 _atom_site_fract_x
 _atom_site_fract_y
 _atom_site_fract_z
 _atom_site_occupancy
  C  C0  1  0.31637406  0.98475130  0.25281908  1
  C  C1  1  0.81790231  0.98597253  0.25352103  1
  C  C2  1  0.17941128  0.38178802  0.25262425  1
  C  C3  1  0.68027250  0.38336795  0.25259858  1
  C  C4  1  0.00489102  0.63445442  0.25788124  1
  C  C5  1  0.50410535  0.63273169  0.25622525  1
  C  C6  1  0.31799251  0.65103101  0.75400898  1
  C  C7  1  0.81058992  0.63963765  0.75274265  1
  C  C8  1  0.00305402  0.37771314  0.75510933  1
  C  C9  1  0.51094501  0.37636776  0.75503012  1
  C  C10  1  0.17972983  0.97636883  0.75301717  1
  C  C11  1  0.67936626  0.98143217  0.75281814  1
  C  C12  1  0.14402418  0.32157361  0.58345539  1
  C  C13  1  0.64347449  0.31791566  0.58990485  1
  C  C14  1  0.01557914  0.71227867  0.58824411  1
  C  C15  1  0.51809497  0.71899054  0.58897037  1
  C  C16  1  0.34102997  0.96395893  0.58889668  1
  C  C17  1  0.84094349  0.96841998  0.58910321  1
  C  C18  1  0.33965986  0.71520544  0.08827168  1
  C  C19  1  0.83979967  0.71544627  0.08897978  1
  C  C20  1  0.01775427  0.31852510  0.08837759  1
  C  C21  1  0.51644835  0.31681560  0.08774897  1
  C  C22  1  0.48583424  0.66409213  0.91430378  1
  C  C23  1  0.98860355  0.66145141  0.91442689  1
  C  C24  1  0.34630455  0.02607218  0.91507486  1
  C  C25  1  0.84407986  0.02723316  0.91416049  1
  C  C26  1  0.66578552  0.30634969  0.91385096  1
  C  C27  1  0.48777904  0.31418890  0.41458621  1
  C  C28  1  0.34315980  0.66114515  0.41419936  1
  C  C29  1  0.84554782  0.66094008  0.41473292  1
  C  C30  1  0.00313911  0.00510857  0.50448085  1
  C  C31  1  0.50463642  0.00008823  0.50673194  1
  C  C32  1  0.00905834  0.00850120  0.00876545  1
  C  C33  1  0.50333425  0.99906871  0.00774860  1
  C  C34  1  0.33207976  0.33402477  0.83630161  1
  C  C35  1  0.83282577  0.33265261  0.83232629  1
  C  C36  1  0.33024213  0.32858315  0.33461932  1
  C  C37  1  0.83610351  0.32972023  0.33706287  1
  C  C38  1  0.16681012  0.66363702  0.17057199  1
  C  C39  1  0.66748633  0.66356831  0.17088729  1
  C  C40  1  0.16749005  0.67808999  0.67159153  1
  C  C41  1  0.66676220  0.66618498  0.67566408  1
  C  C42  1  0.99626755  0.98946092  0.64521276  1
  C  C43  1  0.49988834  0.99972519  0.64809066  1
  C  C44  1  0.99849692  0.00232687  0.14507219  1
  C  C45  1  0.49830117  0.00227036  0.14451846  1
  C  C46  1  0.16590993  0.65847954  0.31776600  1
  C  C47  1  0.66719436  0.65950342  0.31758069  1
  C  C48  1  0.16722162  0.67501696  0.81836848  1
  C  C49  1  0.66638669  0.66663216  0.81450943  1
  C  C50  1  0.99349758  0.99955798  0.35742067  1
  C  C51  1  0.49454190  0.99695704  0.35608677  1
  C  C52  1  0.99517320  0.99272009  0.85610569  1
  C  C53  1  0.49855523  0.99901726  0.85184137  1
  C  C54  1  0.33893453  0.33535051  0.68487208  1
  C  C55  1  0.83261498  0.33296023  0.68800969  1
  C  C56  1  0.33734633  0.33938231  0.18447749  1
  C  C57  1  0.83832912  0.34122677  0.18487496  1
  C  C58  1  0.33028504  0.33387381  0.98063380  1
  C  C59  1  0.83356137  0.33328002  0.98131063  1
  C  C60  1  0.33073192  0.33075198  0.47934647  1
  C  C61  1  0.83482965  0.32999431  0.47891079  1
  C  C62  1  0.16692427  0.66861605  0.01979479  1
  C  C63  1  0.66620320  0.66862817  0.02097170  1
  C  C64  1  0.16466580  0.66441159  0.51812379  1
  C  C65  1  0.66681050  0.66735068  0.51887968  1
  Ni  Ni66  1  0.35243548  0.70828595  0.24673199  1
  Ni  Ni67  1  0.85319630  0.70987890  0.24717095  1
  Ni  Ni68  1  0.00166405  0.29336482  0.24697656  1
  Ni  Ni69  1  0.50147037  0.29415119  0.24700359  1
  Ni  Ni70  1  0.64488821  0.29245077  0.74688302  1
  Ni  Ni71  1  0.00263357  0.71043108  0.74679003  1
  Ni  Ni72  1  0.50047115  0.70876119  0.74697257  1
  Ni  Ni73  1  0.35157021  0.99546078  0.74657091  1
  Ni  Ni74  1  0.85406024  0.99835718  0.74650199  1
  Ni  Ni75  1  0.48103582  0.33366039  0.58091412  1
  Ni  Ni76  1  0.97983872  0.33455379  0.58447185  1
  Ni  Ni77  1  0.18731418  0.04108932  0.58387182  1
  Ni  Ni78  1  0.68836254  0.04268381  0.58257518  1
  Ni  Ni79  1  0.33252340  0.62457773  0.58309210  1
  Ni  Ni80  1  0.83279423  0.62290535  0.58206198  1
  Ni  Ni81  1  0.48167709  0.63081140  0.08196513  1
  Ni  Ni82  1  0.98285785  0.63258398  0.08222573  1
  Ni  Ni83  1  0.33111382  0.04066263  0.08285576  1
  Ni  Ni84  1  0.83118000  0.03953937  0.08396959  1
  Ni  Ni85  1  0.18564914  0.32958663  0.08390406  1
  Ni  Ni86  1  0.68612717  0.32918656  0.08327423  1
  Ni  Ni87  1  0.31004838  0.66275390  0.91352576  1
  Ni  Ni88  1  0.80952452  0.66274217  0.91554297  1
  Ni  Ni89  1  0.02318915  0.37585795  0.91494792  1
  Ni  Ni90  1  0.52070255  0.37603644  0.91535652  1
  Ni  Ni91  1  0.16740016  0.96067583  0.91480512  1
  Ni  Ni92  1  0.66666493  0.95723969  0.91457196  1
  Ni  Ni93  1  0.30775619  0.95722782  0.41377182  1
  Ni  Ni94  1  0.80796680  0.95793328  0.41337710  1
  Ni  Ni95  1  0.16486394  0.37248436  0.41434081  1
  Ni  Ni96  1  0.66737434  0.37276335  0.41502919  1
  Ni  Ni97  1  0.02178330  0.66784417  0.41319518  1
  Ni  Ni98  1  0.52238299  0.66981679  0.41443717  1
  Cu  Cu99  1  0.14389089  0.00145238  0.24923740  1
  Cu  Cu100  1  0.64381593  0.00171815  0.24948173  1
  Cu  Cu101  1  0.14402909  0.28620526  0.74847444  1
  C  C102  1  0.10520358  0.03131195  0.30355383  1
  C  C103  1  0.60373085  0.03007603  0.30375862  1
  C  C104  1  0.41667729  0.80043902  0.30772388  1
  C  C105  1  0.91659135  0.79927395  0.30778172  1
  C  C106  1  0.48538914  0.16574115  0.30738943  1
  C  C107  1  0.98523373  0.16102796  0.30554769  1
  C  C108  1  0.10342692  0.17722188  0.80263464  1
  C  C109  1  0.59853593  0.16438695  0.80767168  1
  C  C110  1  0.48182037  0.79937347  0.80738709  1
  C  C111  1  0.98705103  0.80773560  0.80720457  1
  C  C112  1  0.41560677  0.03367899  0.80727164  1
  C  C113  1  0.91796245  0.03238623  0.80761438  1
  C  C114  1  0.39473358  0.97125553  0.68860749  1
  C  C115  1  0.89930139  0.97563852  0.68947597  1
  C  C116  1  0.09501158  0.21231158  0.69490429  1
  C  C117  1  0.58842128  0.20860484  0.68887202  1
  C  C118  1  0.02004682  0.82918100  0.69006600  1
  C  C119  1  0.51314045  0.81868689  0.68867016  1
  C  C120  1  0.39920374  0.82172042  0.18993695  1
  C  C121  1  0.89849782  0.82127165  0.18957550  1
  C  C122  1  0.01710184  0.20966512  0.18943885  1
  C  C123  1  0.51738836  0.20822438  0.19040588  1
  C  C124  1  0.09235866  0.97688107  0.19596542  1
  C  C125  1  0.59187364  0.97650112  0.19609103  1
  C  C126  1  0.43411885  0.36855615  0.64029260  1
  C  C127  1  0.93447110  0.37117917  0.64274511  1
  C  C128  1  0.25081226  0.13469637  0.64270301  1
  C  C129  1  0.75154137  0.13301673  0.64177613  1
  C  C130  1  0.31479425  0.49461023  0.64131815  1
  C  C131  1  0.81561873  0.49695020  0.64094101  1
  C  C132  1  0.43408128  0.49878183  0.14096506  1
  C  C133  1  0.93418671  0.49961324  0.14073278  1
  C  C134  1  0.31765358  0.13669668  0.14205869  1
  C  C135  1  0.81746806  0.13637798  0.14227600  1
  C  C136  1  0.25077121  0.36585269  0.14242062  1
  C  C137  1  0.75122696  0.36465079  0.14138561  1
  C  C138  1  0.23965943  0.31575639  0.02760055  1
  C  C139  1  0.73870349  0.31676648  0.02518125  1
  C  C140  1  0.42004433  0.52739483  0.02514679  1
  C  C141  1  0.92015045  0.52705403  0.02531162  1
  C  C142  1  0.34333636  0.16494252  0.02594159  1
  C  C143  1  0.84223747  0.16260032  0.02623986  1
  C  C144  1  0.23974935  0.16702547  0.52795656  1
  C  C145  1  0.74048014  0.16953720  0.52736199  1
  C  C146  1  0.34355933  0.52340413  0.52609834  1
  C  C147  1  0.84462024  0.52488023  0.52511351  1
  C  C148  1  0.41882569  0.31358396  0.52508315  1
  C  C149  1  0.91718734  0.30959585  0.52813303  1
  C  C150  1  0.26523213  0.69833468  0.97288549  1
  C  C151  1  0.76756856  0.70092712  0.97495323  1
  C  C152  1  0.08161279  0.46844046  0.97501296  1
  C  C153  1  0.58373881  0.46688023  0.97475060  1
  C  C154  1  0.14879922  0.82872065  0.97214925  1
  C  C155  1  0.65068568  0.82888478  0.97272727  1
  C  C156  1  0.26578646  0.83309621  0.47362911  1
  C  C157  1  0.76488063  0.83164596  0.47308120  1
  C  C158  1  0.15220749  0.46705407  0.47485790  1
  C  C159  1  0.64883985  0.46458089  0.47402384  1
  C  C160  1  0.08224125  0.69375516  0.47397411  1
  C  C161  1  0.58179342  0.69434876  0.47456053  1
  C  C162  1  0.05984603  0.63691677  0.35457785  1
  C  C163  1  0.55798750  0.62538856  0.35674138  1
  C  C164  1  0.25739977  0.88160699  0.35400080  1
  C  C165  1  0.75669172  0.88102950  0.35376040  1
  C  C166  1  0.19098067  0.49097097  0.35710871  1
  C  C167  1  0.68772590  0.48729026  0.35701572  1
  C  C168  1  0.05778855  0.49079610  0.85669022  1
  C  C169  1  0.55773055  0.49219036  0.85788612  1
  C  C170  1  0.18888973  0.89163741  0.85609158  1
  C  C171  1  0.68990062  0.88744601  0.85708821  1
  C  C172  1  0.25678682  0.63145707  0.85398851  1
  C  C173  1  0.75373614  0.62318538  0.85737971  1
  C  C174  1  0.00862403  0.83669970  0.41011300  1
  C  C175  1  0.50875390  0.83645847  0.40998686  1
  C  C176  1  0.40563280  0.97459658  0.41057496  1
  C  C177  1  0.90371635  0.96898084  0.41100910  1
  C  C178  1  0.08130132  0.18141333  0.40860787  1
  C  C179  1  0.57921088  0.18465088  0.40906833  1
  C  C180  1  0.00907789  0.18153523  0.90958156  1
  C  C181  1  0.51158385  0.18452004  0.91129663  1
  C  C182  1  0.08007012  0.97481192  0.90886147  1
  C  C183  1  0.58044726  0.97564374  0.91123091  1
  C  C184  1  0.40675516  0.83838619  0.91055638  1
  C  C185  1  0.90665465  0.83696618  0.91087600  1
  C  C186  1  0.48873011  0.16748586  0.58364892  1
  C  C187  1  0.99248963  0.17325961  0.58801963  1
  C  C188  1  0.09655575  0.02751229  0.58672441  1
  C  C189  1  0.59599443  0.02211461  0.58459318  1
  C  C190  1  0.41546886  0.80803998  0.58452959  1
  C  C191  1  0.91530758  0.80830180  0.58401929  1
  C  C192  1  0.48569263  0.80745235  0.08733687  1
  C  C193  1  0.98557106  0.80792476  0.08674551  1
  C  C194  1  0.41449565  0.02382039  0.08473880  1
  C  C195  1  0.91488594  0.02451933  0.08445111  1
  C  C196  1  0.09307833  0.17102643  0.08658199  1
  C  C197  1  0.59313261  0.17096325  0.08573262  1
  C  C198  1  0.34458803  0.17581011  0.74421238  1
  C  C199  1  0.85011501  0.17985270  0.74503557  1
  C  C200  1  0.23124928  0.30140775  0.74601850  1
  C  C201  1  0.73993904  0.30083258  0.74456295  1
  C  C202  1  0.40785683  0.51658670  0.74419168  1
  C  C203  1  0.91119895  0.52305239  0.74476848  1
  C  C204  1  0.34553737  0.51420922  0.24483475  1
  C  C205  1  0.84524813  0.51410387  0.24422624  1
  C  C206  1  0.40887223  0.29889429  0.24505553  1
  C  C207  1  0.90895871  0.29896532  0.24459126  1
  C  C208  1  0.23152826  0.16201716  0.24523843  1
  C  C209  1  0.73056356  0.16088359  0.24576317  1
  C  C210  1  0.32936865  0.50530106  0.92455918  1
  C  C211  1  0.82724081  0.50251978  0.92515112  1
  C  C212  1  0.42419629  0.34718966  0.92588578  1
  C  C213  1  0.92538266  0.34772140  0.92588846  1
  C  C214  1  0.25122823  0.14867948  0.92649125  1
  C  C215  1  0.74925720  0.15165066  0.92571519  1
  C  C216  1  0.32951366  0.15409286  0.42478540  1
  C  C217  1  0.82508909  0.14958686  0.42529269  1
  C  C218  1  0.25036362  0.35380774  0.42696127  1
  C  C219  1  0.75147284  0.35450416  0.42665245  1
  C  C220  1  0.42522947  0.50314367  0.42564187  1
  C  C221  1  0.92451960  0.50600161  0.42547105  1
  C  C222  1  0.18419812  0.51059490  0.07657819  1
  C  C223  1  0.68450804  0.51034777  0.07657427  1
  C  C224  1  0.07190923  0.62874596  0.07723197  1
  C  C225  1  0.57148163  0.62787613  0.07703176  1
  C  C226  1  0.24553053  0.85149843  0.07655260  1
  C  C227  1  0.74547498  0.85102107  0.07740892  1
  C  C228  1  0.18316820  0.85628545  0.57686910  1
  C  C229  1  0.68383776  0.85623248  0.57579603  1
  C  C230  1  0.24401596  0.63348010  0.57737040  1
  C  C231  1  0.74447106  0.63360192  0.57608564  1
  C  C232  1  0.07318133  0.51219720  0.57742471  1
  C  C233  1  0.57280155  0.51148145  0.57706507  1
  C  C234  1  0.15698699  0.85533984  0.25533029  1
  C  C235  1  0.65560116  0.85391363  0.25619007  1
  C  C236  1  0.25902575  0.68570380  0.25341135  1
  C  C237  1  0.75905311  0.68566743  0.25342738  1
  C  C238  1  0.07978522  0.48520006  0.25411246  1
  C  C239  1  0.57958765  0.48619904  0.25418648  1
  C  C240  1  0.15588184  0.45876247  0.75580617  1
  C  C241  1  0.65951160  0.48015514  0.75529603  1
  C  C242  1  0.08124638  0.67588736  0.75440485  1
  C  C243  1  0.57929279  0.67817044  0.75503101  1
  C  C244  1  0.25798643  0.83146223  0.75389800  1
  C  C245  1  0.76044074  0.83816482  0.75434417  1
