# generated using pymatgen
data_Cu2Ni2C15
_symmetry_space_group_name_H-M   'P 1'
_cell_length_a   5.98903395
_cell_length_b   5.84626575
_cell_length_c   8.82650705
_cell_angle_alpha   90.00000000
_cell_angle_beta   82.99762779
_cell_angle_gamma   90.00000000
_symmetry_Int_Tables_number   1
_chemical_formula_structural   Cu2Ni2C15
_chemical_formula_sum   'Cu2 Ni2 C15'
_cell_volume   306.74161631
_cell_formula_units_Z   1
loop_
 _symmetry_equiv_pos_site_id
 _symmetry_equiv_pos_as_xyz
  1  'x, y, z'
loop_
 _atom_site_type_symbol
 _atom_site_label
 _atom_site_symmetry_multiplicity
 _atom_site_fract_x
 _atom_site_fract_y
 _atom_site_fract_z
 _atom_site_occupancy
  Ni  Ni0  1  0.24008602  0.75000000  0.01209964  1
  Ni  Ni1  1  0.85368890  0.25000000  0.08602861  1
  Cu  Cu2  1  0.76188819  0.75000000  0.23654988  1
  Cu  Cu3  1  0.14837250  0.25000000  0.71666543  1
  C  C4  1  0.76541656  0.25000000  0.48125433  1
  C  C5  1  0.22457549  0.75000000  0.48322687  1
  C  C6  1  0.51903622  0.25000000  0.84901032  1
  C  C7  1  0.71611108  0.75000000  0.74770628  1
  C  C8  1  0.29632470  0.25000000  0.26772742  1
  C  C9  1  0.75083775  0.75000000  0.95560650  1
  C  C10  1  0.30706270  0.25000000  0.03974498  1
  C  C11  1  0.47693791  0.98528095  0.71023723  1
  C  C12  1  0.93282955  0.52850326  0.63646948  1
  C  C13  1  0.50270302  0.01988134  0.33817552  1
  C  C14  1  0.93282955  0.97149674  0.63646948  1
  C  C15  1  0.47693791  0.51471905  0.71023723  1
  C  C16  1  0.50270302  0.48011866  0.33817552  1
  C  C17  1  0.04582947  0.48985831  0.30308864  1
  C  C18  1  0.04582947  0.01014169  0.30308864  1
