# generated using pymatgen
data_Cu2Ni5C32
_symmetry_space_group_name_H-M   'P 1'
_cell_length_a   18.45223425
_cell_length_b   9.25162392
_cell_length_c   22.95153710
_cell_angle_alpha   90.05539027
_cell_angle_beta   88.20438171
_cell_angle_gamma   119.84436628
_symmetry_Int_Tables_number   1
_chemical_formula_structural   Cu2Ni5C32
_chemical_formula_sum   'Cu12 Ni30 C192'
_cell_volume   3396.35570016
_cell_formula_units_Z   6
loop_
 _symmetry_equiv_pos_site_id
 _symmetry_equiv_pos_as_xyz
  1  'x, y, z'
loop_
 _atom_site_type_symbol
 _atom_site_label
 _atom_site_symmetry_multiplicity
 _atom_site_fract_x
 _atom_site_fract_y
 _atom_site_fract_z
 _atom_site_occupancy
  Ni  Ni0  1  0.18005912  0.37087050  0.23636462  1
  Ni  Ni1  1  0.68022528  0.37425439  0.23643127  1
  Ni  Ni2  1  0.99187979  0.63094774  0.26010854  1
  Ni  Ni3  1  0.49283743  0.63113282  0.25902274  1
  Ni  Ni4  1  0.49121775  0.34516039  0.76661875  1
  Ni  Ni5  1  0.18186656  0.99378120  0.74205130  1
  Ni  Ni6  1  0.67776179  0.99208327  0.74152747  1
  Ni  Ni7  1  0.66452136  0.34779740  0.57763483  1
  Ni  Ni8  1  0.01266956  0.70271893  0.57657559  1
  Ni  Ni9  1  0.82618813  0.95807830  0.59787618  1
  Ni  Ni10  1  0.49673004  0.68140837  0.91019295  1
  Ni  Ni11  1  0.99889421  0.67988518  0.90750786  1
  Ni  Ni12  1  0.84386422  0.02931834  0.90108792  1
  Ni  Ni13  1  0.15589948  0.29468877  0.92960131  1
  Ni  Ni14  1  0.49485933  0.31370622  0.40883150  1
  Ni  Ni15  1  0.99225759  0.30885875  0.40989360  1
  Ni  Ni16  1  0.34150828  0.65641759  0.39932053  1
  Ni  Ni17  1  0.84525155  0.66226738  0.40760257  1
  Ni  Ni18  1  0.03269590  0.01228005  0.49958277  1
  Ni  Ni19  1  0.52743046  0.98344408  0.49684220  1
  Ni  Ni20  1  0.01478396  0.02112747  0.00280947  1
  Ni  Ni21  1  0.53029971  0.07047260  0.99698982  1
  Ni  Ni22  1  0.34049383  0.31544888  0.83636518  1
  Ni  Ni23  1  0.84980179  0.33525716  0.82890199  1
  Ni  Ni24  1  0.33454381  0.32461182  0.33194652  1
  Ni  Ni25  1  0.83470415  0.32438626  0.33451910  1
  Ni  Ni26  1  0.18041656  0.64973648  0.16568414  1
  Ni  Ni27  1  0.68042747  0.65115832  0.16647048  1
  Ni  Ni28  1  0.18053689  0.69356261  0.67157884  1
  Ni  Ni29  1  0.67512380  0.68704059  0.66982223  1
  Cu  Cu30  1  0.00270551  0.00255502  0.35325267  1
  Cu  Cu31  1  0.50319842  0.00418534  0.35205252  1
  Cu  Cu32  1  0.99912936  -0.00122755  0.84969043  1
  Cu  Cu33  1  0.49685260  0.00019796  0.85579224  1
  Cu  Cu34  1  0.33396324  0.33361262  0.68711343  1
  Cu  Cu35  1  0.83682779  0.34103159  0.68883759  1
  Cu  Cu36  1  0.33501595  0.33673519  0.18439478  1
  Cu  Cu37  1  0.83448765  0.33641579  0.18453387  1
  Cu  Cu38  1  0.16062655  0.65601222  0.02125666  1
  Cu  Cu39  1  0.66019272  0.65314699  0.02266541  1
  Cu  Cu40  1  0.16612033  0.67272898  0.52043938  1
  Cu  Cu41  1  0.65945929  0.66806790  0.52149700  1
  C  C42  1  0.35036688  0.71402741  0.25124596  1
  C  C43  1  0.85100130  0.71498725  0.25172100  1
  C  C44  1  0.00278075  0.30598208  0.25538487  1
  C  C45  1  0.50258223  0.30544050  0.25520672  1
  C  C46  1  0.00427613  0.69757306  0.75418051  1
  C  C47  1  0.50239038  0.69727246  0.75596288  1
  C  C48  1  0.35175459  0.98749844  0.74824126  1
  C  C49  1  0.84559131  0.98573864  0.75289410  1
  C  C50  1  0.18105283  0.04041660  0.59090977  1
  C  C51  1  0.68287826  0.04711889  0.59041551  1
  C  C52  1  0.83626570  0.63917005  0.58132609  1
  C  C53  1  0.17975485  0.32111094  0.08885120  1
  C  C54  1  0.67956311  0.32049951  0.09133489  1
  C  C55  1  0.01692520  0.37540131  0.91940880  1
  C  C56  1  0.51355905  0.37295547  0.91863166  1
  C  C57  1  0.16942365  0.96997314  0.91600501  1
  C  C58  1  0.67189052  0.97079657  0.91862639  1
  C  C59  1  0.17106096  0.37129738  0.41728484  1
  C  C60  1  0.66977766  0.36839375  0.42088011  1
  C  C61  1  0.01449817  0.65595693  0.42078738  1
  C  C62  1  0.51176054  0.65523267  0.41722397  1
  C  C63  1  0.99538982  0.97895399  0.65160110  1
  C  C64  1  0.49624140  0.97531393  0.65139143  1
  C  C65  1  0.99865280  0.01670014  0.14951819  1
  C  C66  1  0.49827195  0.01439839  0.14911910  1
  C  C67  1  0.32666246  0.31462920  0.98119470  1
  C  C68  1  0.82454580  0.32124371  0.98073435  1
  C  C69  1  0.32520076  0.32856219  0.48070144  1
  C  C70  1  0.82755375  0.34952536  0.48155725  1
  C  C71  1  0.16449547  0.64701182  0.31527386  1
  C  C72  1  0.66264340  0.64843454  0.31578630  1
  C  C73  1  0.16239203  0.68301363  0.81484747  1
  C  C74  1  0.66377668  0.67990954  0.81571079  1
  C  C75  1  0.14571221  0.98150538  0.24758022  1
  C  C76  1  0.64642869  0.98080818  0.24756232  1
  C  C77  1  0.14391438  0.31072533  0.74943248  1
  C  C78  1  0.64208773  0.30217324  0.74673906  1
  C  C79  1  0.47623465  0.30534707  0.58041122  1
  C  C80  1  0.97720875  0.31374761  0.57824285  1
  C  C81  1  0.34271738  0.64147812  0.57967131  1
  C  C82  1  0.47792391  0.65082971  0.08231426  1
  C  C83  1  0.97769568  0.65018135  0.08154705  1
  C  C84  1  0.34043557  0.04024512  0.08194572  1
  C  C85  1  0.84103295  0.04097004  0.08034055  1
  C  C86  1  0.30641566  0.64744288  0.91603607  1
  C  C87  1  0.80945892  0.64860952  0.91681085  1
  C  C88  1  0.30948199  0.97026799  0.41401078  1
  C  C89  1  0.80781748  0.96871461  0.41620698  1
  C  C90  1  0.10849325  0.00996182  0.30118477  1
  C  C91  1  0.60970842  0.00969812  0.30147767  1
  C  C92  1  0.40365245  0.78603767  0.30915341  1
  C  C93  1  0.90513622  0.78605290  0.30932202  1
  C  C94  1  0.49559851  0.21583505  0.31700681  1
  C  C95  1  0.99646163  0.21534307  0.31680330  1
  C  C96  1  0.10761277  0.22255612  0.80599460  1
  C  C97  1  0.59932670  0.19632654  0.79814547  1
  C  C98  1  0.49770094  0.78153101  0.81598078  1
  C  C99  1  0.00352569  0.78810834  0.81424898  1
  C  C100  1  0.41896786  0.03903762  0.79786362  1
  C  C101  1  0.89531878  0.00075407  0.81072412  1
  C  C102  1  0.39363893  0.96580276  0.68495578  1
  C  C103  1  0.89727929  0.98634042  0.69079732  1
  C  C104  1  0.08997071  0.21517838  0.70041631  1
  C  C105  1  0.59448821  0.22272071  0.69238170  1
  C  C106  1  0.01699538  0.82075903  0.69633988  1
  C  C107  1  0.52003404  0.82602143  0.69897796  1
  C  C108  1  0.40274302  0.82896771  0.19302115  1
  C  C109  1  0.90214617  0.83062901  0.19303371  1
  C  C110  1  0.02250865  0.20935533  0.20076316  1
  C  C111  1  0.52080292  0.20526950  0.20139685  1
  C  C112  1  0.09368520  0.96377344  0.19649156  1
  C  C113  1  0.59402867  0.96252346  0.19697150  1
  C  C114  1  0.43163641  0.31374861  0.63322100  1
  C  C115  1  0.93135718  0.32631610  0.62969323  1
  C  C116  1  0.22753573  0.12386423  0.64943222  1
  C  C117  1  0.72890835  0.12049149  0.65017327  1
  C  C118  1  0.33721088  0.54012368  0.63007448  1
  C  C119  1  0.82485402  0.50835173  0.63100566  1
  C  C120  1  0.43543175  0.55524191  0.13651768  1
  C  C121  1  0.93405291  0.55523062  0.13537880  1
  C  C122  1  0.33619220  0.12681218  0.13404508  1
  C  C123  1  0.83801964  0.13435360  0.13083952  1
  C  C124  1  0.22465049  0.31850712  0.14770788  1
  C  C125  1  0.72184291  0.31641456  0.15127718  1
  C  C126  1  0.23129987  0.30860773  0.02814457  1
  C  C127  1  0.73585430  0.30991528  0.03343592  1
  C  C128  1  0.43192218  0.55737325  0.02994579  1
  C  C129  1  0.93288453  0.55942904  0.02860572  1
  C  C130  1  0.35002554  0.14084385  0.02758904  1
  C  C131  1  0.84902016  0.13449735  0.02439185  1
  C  C132  1  0.23440233  0.15447989  0.53061633  1
  C  C133  1  0.73217361  0.18192644  0.53364001  1
  C  C134  1  0.34839884  0.56115153  0.52334591  1
  C  C135  1  0.85491188  0.56972028  0.51783918  1
  C  C136  1  0.43298669  0.30958335  0.52639354  1
  C  C137  1  0.93105677  0.30350991  0.52387503  1
  C  C138  1  0.26971522  0.66332946  0.97117363  1
  C  C139  1  0.76870208  0.65582841  0.97145431  1
  C  C140  1  0.08087401  0.44403486  0.97186458  1
  C  C141  1  0.56962133  0.46582304  0.97269925  1
  C  C142  1  0.15846391  0.84264894  0.96720439  1
  C  C143  1  0.67207948  0.85761254  0.97116250  1
  C  C144  1  0.26816016  0.88394640  0.46919146  1
  C  C145  1  0.76907551  0.88007506  0.47151652  1
  C  C146  1  0.16988371  0.48608792  0.46917435  1
  C  C147  1  0.66767094  0.46191722  0.47966375  1
  C  C148  1  0.06335414  0.67676668  0.48005985  1
  C  C149  1  0.56930202  0.68109873  0.47070856  1
  C  C150  1  0.06558481  0.63728030  0.36116170  1
  C  C151  1  0.55640672  0.63327233  0.35487093  1
  C  C152  1  0.25933841  0.88485464  0.36269676  1
  C  C153  1  0.75556819  0.88044905  0.36522799  1
  C  C154  1  0.18953278  0.48191574  0.35460038  1
  C  C155  1  0.68394837  0.49096910  0.36245302  1
  C  C156  1  0.06179087  0.50456776  0.86138590  1
  C  C157  1  0.55837101  0.48612174  0.85651193  1
  C  C158  1  0.18063003  0.89787762  0.85172389  1
  C  C159  1  0.68874641  0.89224843  0.85606771  1
  C  C160  1  0.25628447  0.63595925  0.86511164  1
  C  C161  1  0.75938132  0.63221490  0.86493720  1
  C  C162  1  0.99255008  0.80414174  0.41451890  1
  C  C163  1  0.48620052  0.79911345  0.41382648  1
  C  C164  1  0.39248066  0.98221282  0.41067747  1
  C  C165  1  0.89110615  0.98006829  0.41072721  1
  C  C166  1  0.08613002  0.19148906  0.41792648  1
  C  C167  1  0.58506189  0.18762640  0.41788843  1
  C  C168  1  0.99243871  0.18213281  0.91128200  1
  C  C169  1  0.49197267  0.18227252  0.91560175  1
  C  C170  1  0.08801573  0.99953932  0.91757112  1
  C  C171  1  0.58724921  0.98300554  0.91791884  1
  C  C172  1  0.39409205  0.78511058  0.91085601  1
  C  C173  1  0.89352391  0.80073705  0.91279242  1
  C  C174  1  0.48298580  0.15182712  0.57975913  1
  C  C175  1  0.98195596  0.15810268  0.58127501  1
  C  C176  1  0.08915599  0.03402813  0.58999425  1
  C  C177  1  0.59053782  0.04107166  0.59017154  1
  C  C178  1  0.42288161  0.80660602  0.57968702  1
  C  C179  1  0.92272602  0.82277085  0.58689335  1
  C  C180  1  0.47971377  0.81434532  0.08271740  1
  C  C181  1  0.98080816  0.81525029  0.08188834  1
  C  C182  1  0.41849110  0.02683699  0.08178622  1
  C  C183  1  0.91998600  0.02963945  0.08099806  1
  C  C184  1  0.08730783  0.14539710  0.08721137  1
  C  C185  1  0.58738766  0.14623183  0.08789747  1
  C  C186  1  0.33157796  0.14217767  0.74477255  1
  C  C187  1  0.82278771  0.13443997  0.75019431  1
  C  C188  1  0.22803733  0.32749552  0.74340613  1
  C  C189  1  0.72746355  0.32717531  0.74385451  1
  C  C190  1  0.42547841  0.50702937  0.74971405  1
  C  C191  1  0.92383758  0.51371157  0.75122840  1
  C  C192  1  0.33194511  0.52107029  0.24523460  1
  C  C193  1  0.83334286  0.52288800  0.24487659  1
  C  C194  1  0.42499170  0.34029718  0.24808774  1
  C  C195  1  0.92468219  0.33947475  0.24825246  1
  C  C196  1  0.23228802  0.12273112  0.24184838  1
  C  C197  1  0.73344710  0.12078390  0.24182265  1
  C  C198  1  0.30842327  0.48446086  0.91697977  1
  C  C199  1  0.82349553  0.50075543  0.91755794  1
  C  C200  1  0.42556965  0.38812091  0.92365271  1
  C  C201  1  0.92924361  0.38612246  0.92857402  1
  C  C202  1  0.25317835  0.15971660  0.91960241  1
  C  C203  1  0.76000884  0.15685596  0.91812259  1
  C  C204  1  0.32303040  0.14468209  0.41467362  1
  C  C205  1  0.82082594  0.14115570  0.41723508  1
  C  C206  1  0.25795255  0.35828724  0.41820795  1
  C  C207  1  0.75763996  0.35883281  0.41586113  1
  C  C208  1  0.42407193  0.46752624  0.42281298  1
  C  C209  1  0.92658278  0.46950076  0.42074562  1
  C  C210  1  0.16966115  0.48510742  0.08667704  1
  C  C211  1  0.66883253  0.48362741  0.08827245  1
  C  C212  1  0.06375066  0.67671499  0.08114050  1
  C  C213  1  0.56435336  0.67995765  0.08157358  1
  C  C214  1  0.26566656  0.87307569  0.08033478  1
  C  C215  1  0.76735598  0.87231492  0.08139785  1
  C  C216  1  0.16146442  0.84729145  0.58639928  1
  C  C217  1  0.67620955  0.86758222  0.58212922  1
  C  C218  1  0.26981113  0.66745570  0.58018761  1
  C  C219  1  0.75546062  0.66667342  0.58210323  1
  C  C220  1  0.06186689  0.46297279  0.57722325  1
  C  C221  1  0.56292521  0.45211356  0.58129070  1
  C  C222  1  0.14601742  0.82100658  0.25224709  1
  C  C223  1  0.64682393  0.82011545  0.25209741  1
  C  C224  1  0.25876311  0.70870015  0.25384719  1
  C  C225  1  0.75856911  0.70634644  0.25570185  1
  C  C226  1  0.09030517  0.49152062  0.25173816  1
  C  C227  1  0.59111791  0.48958833  0.25162012  1
  C  C228  1  0.15207903  0.47861395  0.75002648  1
  C  C229  1  0.64412927  0.46492815  0.75078502  1
  C  C230  1  0.09468482  0.69789470  0.74870496  1
  C  C231  1  0.59083043  0.68907455  0.75151402  1
  C  C232  1  0.26196508  0.81009597  0.75660584  1
  C  C233  1  0.75716492  0.80148721  0.75317060  1
