# generated using pymatgen
data_Cu5NiC28
_symmetry_space_group_name_H-M   'P 1'
_cell_length_a   8.97971496
_cell_length_b   8.96797541
_cell_length_c   23.06665456
_cell_angle_alpha   89.82022565
_cell_angle_beta   89.98275920
_cell_angle_gamma   119.98933167
_symmetry_Int_Tables_number   1
_chemical_formula_structural   Cu5NiC28
_chemical_formula_sum   'Cu15 Ni3 C84'
_cell_volume   1608.85065374
_cell_formula_units_Z   3
loop_
 _symmetry_equiv_pos_site_id
 _symmetry_equiv_pos_as_xyz
  1  'x, y, z'
loop_
 _atom_site_type_symbol
 _atom_site_label
 _atom_site_symmetry_multiplicity
 _atom_site_fract_x
 _atom_site_fract_y
 _atom_site_fract_z
 _atom_site_occupancy
  C  C0  1  0.00877460  0.00885469  0.85743125  1
  C  C1  1  0.99150625  0.99163483  0.64505600  1
  C  C2  1  0.00072708  0.00106716  0.14429059  1
  C  C3  1  0.66636004  0.32732745  0.97336929  1
  C  C4  1  0.66994772  0.34491007  0.48054508  1
  C  C5  1  0.32268955  0.66358390  0.01834917  1
  C  C6  1  0.34039497  0.66725381  0.52509683  1
  C  C7  1  0.33349268  0.66741781  0.30942259  1
  C  C8  1  0.32477042  0.66940976  0.81221179  1
  C  C9  1  0.99917477  0.99929378  0.35224161  1
  C  C10  1  0.66311057  0.34222379  0.68725049  1
  C  C11  1  0.66628379  0.33366880  0.18582969  1
  Ni  Ni12  1  0.66818061  0.61836312  0.58704263  1
  Ni  Ni13  1  0.04510950  0.37780126  0.91618764  1
  Ni  Ni14  1  0.33159466  0.95400703  0.91592845  1
  Cu  Cu15  1  0.29209037  0.00667748  0.25085085  1
  Cu  Cu16  1  0.71414852  0.70789243  0.25082673  1
  Cu  Cu17  1  0.99369556  0.28587298  0.25087759  1
  Cu  Cu18  1  0.29507913  0.29054054  0.74896902  1
  Cu  Cu19  1  0.99396187  0.70478311  0.74971587  1
  Cu  Cu20  1  0.70922327  0.00580775  0.74943969  1
  Cu  Cu21  1  0.95385759  0.33309505  0.58470971  1
  Cu  Cu22  1  0.37960916  0.04690306  0.58472251  1
  Cu  Cu23  1  0.95311645  0.61939899  0.08529254  1
  Cu  Cu24  1  0.66481040  0.04489827  0.08529501  1
  Cu  Cu25  1  0.38160889  0.33591325  0.08523499  1
  Cu  Cu26  1  0.62202985  0.66763738  0.91644121  1
  Cu  Cu27  1  0.62721694  0.95657411  0.41584309  1
  Cu  Cu28  1  0.32768585  0.37226285  0.41586138  1
  Cu  Cu29  1  0.04499823  0.67181060  0.41588754  1
  C  C30  1  0.21056394  0.02899528  0.30237994  1
  C  C31  1  0.81818421  0.78921720  0.30231890  1
  C  C32  1  0.97102222  0.18138366  0.30244024  1
  C  C33  1  0.20695087  0.18037308  0.80101082  1
  C  C34  1  0.97162392  0.79031227  0.80092176  1
  C  C35  1  0.81743564  0.02735855  0.80079635  1
  C  C36  1  0.79468633  0.97512286  0.69753543  1
  C  C37  1  0.18059102  0.20773916  0.69787354  1
  C  C38  1  0.02783421  0.82063601  0.69790923  1
  C  C39  1  0.79233373  0.82193562  0.19838611  1
  C  C40  1  0.02930777  0.20778855  0.19848420  1
  C  C41  1  0.17841829  0.97065491  0.19848886  1
  C  C42  1  0.87995754  0.36327972  0.63549059  1
  C  C43  1  0.48541566  0.11697792  0.63542203  1
  C  C44  1  0.63099511  0.49790232  0.64068711  1
  C  C45  1  0.87639787  0.51507829  0.13701037  1
  C  C46  1  0.63877214  0.12328825  0.13675520  1
  C  C47  1  0.48468335  0.36008236  0.13704533  1
  C  C48  1  0.45428072  0.30294098  0.03279704  1
  C  C49  1  0.84834020  0.54747744  0.03285591  1
  C  C50  1  0.69877997  0.15295710  0.03285058  1
  C  C51  1  0.45917559  0.15224843  0.53097742  1
  C  C52  1  0.69668756  0.53323106  0.52670555  1
  C  C53  1  0.84708098  0.30333602  0.53104777  1
  C  C54  1  0.54474776  0.69622139  0.96904356  1
  C  C55  1  0.16460754  0.46327120  0.97350375  1
  C  C56  1  0.30493921  0.83750981  0.97357492  1
  C  C57  1  0.54059008  0.84631363  0.46767248  1
  C  C58  1  0.30452270  0.45788311  0.46756078  1
  C  C59  1  0.15129693  0.69406332  0.46762481  1
  C  C60  1  0.12853794  0.64030300  0.36421031  1
  C  C61  1  0.51147107  0.87091208  0.36437821  1
  C  C62  1  0.36085256  0.48814734  0.36442300  1
  C  C63  1  0.13566037  0.49833091  0.85999381  1
  C  C64  1  0.36884601  0.86805474  0.86002697  1
  C  C65  1  0.51453907  0.63631649  0.86460948  1
  C  C66  1  0.02408007  0.82061053  0.40685511  1
  C  C67  1  0.79509751  0.97319691  0.40721451  1
  C  C68  1  0.17801139  0.20374722  0.40732620  1
  C  C69  1  0.01918271  0.18846026  0.90690970  1
  C  C70  1  0.16331785  0.97136029  0.90661905  1
  C  C71  1  0.79309402  0.81879639  0.90804034  1
  C  C72  1  0.97790282  0.18191584  0.59110157  1
  C  C73  1  0.20652202  0.02711992  0.59132612  1
  C  C74  1  0.83460591  0.81273256  0.59286469  1
  C  C75  1  0.97570047  0.79695649  0.09397909  1
  C  C76  1  0.82230491  0.02609595  0.09391552  1
  C  C77  1  0.20410699  0.17917795  0.09412943  1
  C  C78  1  0.69187411  0.15585937  0.73966422  1
  C  C79  1  0.46112531  0.30360374  0.74271613  1
  C  C80  1  0.84739108  0.53580874  0.74183647  1
  C  C81  1  0.68933820  0.53703293  0.24065261  1
  C  C82  1  0.84777012  0.31066466  0.24054943  1
  C  C83  1  0.46300419  0.15239064  0.24061099  1
  C  C84  1  0.64065919  0.51525671  0.92590430  1
  C  C85  1  0.86021835  0.36210673  0.92741940  1
  C  C86  1  0.49634161  0.14264579  0.92717858  1
  C  C87  1  0.63996198  0.12575699  0.42458660  1
  C  C88  1  0.48451568  0.35730929  0.42426054  1
  C  C89  1  0.87434186  0.51155816  0.42355398  1
  C  C90  1  0.35814367  0.48547936  0.07688362  1
  C  C91  1  0.12766812  0.64382668  0.07739282  1
  C  C92  1  0.51831210  0.87111153  0.07628283  1
  C  C93  1  0.35490007  0.87154923  0.57288666  1
  C  C94  1  0.50315701  0.64519571  0.57150553  1
  C  C95  1  0.12673554  0.48619597  0.57290736  1
  C  C96  1  0.30667710  0.84592163  0.25925624  1
  C  C97  1  0.53906475  0.69313413  0.25935316  1
  C  C98  1  0.15405053  0.46092538  0.25932853  1
  C  C99  1  0.30996775  0.46108868  0.75763242  1
  C  C100  1  0.15419292  0.69478967  0.75580248  1
  C  C101  1  0.54128275  0.84608880  0.75652062  1
