# generated using pymatgen
data_Cu5NiC57
_symmetry_space_group_name_H-M   'P 1'
_cell_length_a   9.08806455
_cell_length_b   9.08806424
_cell_length_c   22.04045424
_cell_angle_alpha   90.00000000
_cell_angle_beta   90.00000000
_cell_angle_gamma   120.00000117
_symmetry_Int_Tables_number   1
_chemical_formula_structural   Cu5NiC57
_chemical_formula_sum   'Cu10 Ni2 C114'
_cell_volume   1576.49994038
_cell_formula_units_Z   2
loop_
 _symmetry_equiv_pos_site_id
 _symmetry_equiv_pos_as_xyz
  1  'x, y, z'
loop_
 _atom_site_type_symbol
 _atom_site_label
 _atom_site_symmetry_multiplicity
 _atom_site_fract_x
 _atom_site_fract_y
 _atom_site_fract_z
 _atom_site_occupancy
  C  C0  1  0.63252888  0.99941166  0.25018867  1
  C  C1  1  0.36688278  0.36747112  0.25018867  1
  C  C2  1  0.00058834  0.63311722  0.25018867  1
  C  C3  1  0.63252888  0.63311722  0.75018867  1
  C  C4  1  0.00058834  0.36747112  0.75018867  1
  C  C5  1  0.36688278  0.99941166  0.75018867  1
  C  C6  1  0.29264167  0.33355758  0.58757969  1
  C  C7  1  0.04091691  0.70735833  0.58757969  1
  C  C8  1  0.66644242  0.95908309  0.58757969  1
  C  C9  1  0.29264167  0.95908309  0.08757969  1
  C  C10  1  0.66644242  0.70735833  0.08757969  1
  C  C11  1  0.04091691  0.33355758  0.08757969  1
  C  C12  1  0.97966872  0.68287092  0.90805184  1
  C  C13  1  0.70320120  0.02033128  0.90805184  1
  C  C14  1  0.31712908  0.29679880  0.90805184  1
  C  C15  1  0.97966872  0.29679880  0.40805184  1
  C  C16  1  0.31712908  0.02033128  0.40805184  1
  C  C17  1  0.70320120  0.68287092  0.40805184  1
  C  C18  1  -0.00000000  0.00000000  0.50003166  1
  C  C19  1  -0.00000000  0.00000000  0.00003166  1
  C  C20  1  0.66666700  0.33333300  0.82258539  1
  C  C21  1  0.66666700  0.33333300  0.32258539  1
  C  C22  1  0.33333300  0.66666700  0.17014438  1
  C  C23  1  0.33333300  0.66666700  0.67014438  1
  Ni  Ni24  1  0.66666700  0.33333300  0.98202703  1
  Ni  Ni25  1  0.66666700  0.33333300  0.48202703  1
  Cu  Cu26  1  -0.00000000  0.00000000  0.34135775  1
  Cu  Cu27  1  -0.00000000  0.00000000  0.84135775  1
  Cu  Cu28  1  -0.00000000  0.00000000  0.65762012  1
  Cu  Cu29  1  -0.00000000  0.00000000  0.15762012  1
  Cu  Cu30  1  0.66666700  0.33333300  0.68283827  1
  Cu  Cu31  1  0.66666700  0.33333300  0.18283827  1
  Cu  Cu32  1  0.33333300  0.66666700  0.01281885  1
  Cu  Cu33  1  0.33333300  0.66666700  0.51281885  1
  Cu  Cu34  1  0.33333300  0.66666700  0.31807447  1
  Cu  Cu35  1  0.33333300  0.66666700  0.81807447  1
  C  C36  1  0.29752216  0.99897787  0.24992173  1
  C  C37  1  0.70145571  0.70247784  0.24992173  1
  C  C38  1  0.00102213  0.29854429  0.24992173  1
  C  C39  1  0.29752216  0.29854429  0.74992173  1
  C  C40  1  0.00102213  0.70247784  0.74992173  1
  C  C41  1  0.70145571  0.99897787  0.74992173  1
  C  C42  1  0.96354888  0.33572918  0.58511906  1
  C  C43  1  0.37218130  0.03645112  0.58511906  1
  C  C44  1  0.66427082  0.62781870  0.58511906  1
  C  C45  1  0.96354888  0.62781870  0.08511906  1
  C  C46  1  0.66427082  0.03645112  0.08511906  1
  C  C47  1  0.37218130  0.33572918  0.08511906  1
  C  C48  1  0.62897581  0.66709529  0.91815134  1
  C  C49  1  0.03811848  0.37102419  0.91815134  1
  C  C50  1  0.33290471  0.96188152  0.91815134  1
  C  C51  1  0.62897581  0.96188152  0.41815134  1
  C  C52  1  0.33290471  0.37102419  0.41815134  1
  C  C53  1  0.03811848  0.66709529  0.41815134  1
  C  C54  1  0.21690277  0.02742750  0.30749890  1
  C  C55  1  0.81052473  0.78309723  0.30749890  1
  C  C56  1  0.97257250  0.18947527  0.30749890  1
  C  C57  1  0.21690277  0.18947527  0.80749890  1
  C  C58  1  0.97257250  0.78309723  0.80749890  1
  C  C59  1  0.81052473  0.02742750  0.80749890  1
  C  C60  1  0.78232703  0.97042637  0.69224270  1
  C  C61  1  0.18809934  0.21767297  0.69224270  1
  C  C62  1  0.02957363  0.81190066  0.69224270  1
  C  C63  1  0.78232703  0.81190066  0.19224270  1
  C  C64  1  0.02957363  0.21767297  0.19224270  1
  C  C65  1  0.18809934  0.97042637  0.19224270  1
  C  C66  1  0.88013014  0.36254761  0.64092912  1
  C  C67  1  0.48241847  0.11986986  0.64092912  1
  C  C68  1  0.63745239  0.51758153  0.64092912  1
  C  C69  1  0.88013014  0.51758153  0.14092912  1
  C  C70  1  0.63745239  0.11986986  0.14092912  1
  C  C71  1  0.48241847  0.36254761  0.14092912  1
  C  C72  1  0.47492314  0.31810324  0.02818608  1
  C  C73  1  0.84318110  0.52507686  0.02818608  1
  C  C74  1  0.68189676  0.15681890  0.02818608  1
  C  C75  1  0.47492314  0.15681890  0.52818608  1
  C  C76  1  0.68189676  0.52507686  0.52818608  1
  C  C77  1  0.84318110  0.31810324  0.52818608  1
  C  C78  1  0.55019115  0.69345751  0.97556259  1
  C  C79  1  0.14326537  0.44980885  0.97556259  1
  C  C80  1  0.30654249  0.85673463  0.97556259  1
  C  C81  1  0.55019115  0.85673463  0.47556259  1
  C  C82  1  0.30654249  0.44980885  0.47556259  1
  C  C83  1  0.14326537  0.69345751  0.47556259  1
  C  C84  1  0.10829672  0.62438567  0.36161406  1
  C  C85  1  0.51608794  0.89170328  0.36161406  1
  C  C86  1  0.37561433  0.48391206  0.36161406  1
  C  C87  1  0.10829672  0.48391206  0.86161406  1
  C  C88  1  0.37561433  0.89170328  0.86161406  1
  C  C89  1  0.51608794  0.62438567  0.86161406  1
  C  C90  1  0.00858873  0.81951430  0.41273908  1
  C  C91  1  0.81092557  0.99141127  0.41273908  1
  C  C92  1  0.18048570  0.18907443  0.41273908  1
  C  C93  1  0.00858873  0.18907443  0.91273908  1
  C  C94  1  0.18048570  0.99141127  0.91273908  1
  C  C95  1  0.81092557  0.81951430  0.91273908  1
  C  C96  1  0.96918418  0.16952120  0.58287873  1
  C  C97  1  0.20033701  0.03081582  0.58287873  1
  C  C98  1  0.83047880  0.79966299  0.58287873  1
  C  C99  1  0.96918418  0.79966299  0.08287873  1
  C  C100  1  0.83047880  0.03081582  0.08287873  1
  C  C101  1  0.20033701  0.16952120  0.08287873  1
  C  C102  1  0.68369996  0.16077442  0.74629710  1
  C  C103  1  0.47707547  0.31630004  0.74629710  1
  C  C104  1  0.83922558  0.52292453  0.74629710  1
  C  C105  1  0.68369996  0.52292453  0.24629710  1
  C  C106  1  0.83922558  0.31630004  0.24629710  1
  C  C107  1  0.47707547  0.16077442  0.24629710  1
  C  C108  1  0.64835804  0.50047628  0.92543263  1
  C  C109  1  0.85211924  0.35164196  0.92543263  1
  C  C110  1  0.49952372  0.14788076  0.92543263  1
  C  C111  1  0.64835804  0.14788076  0.42543263  1
  C  C112  1  0.49952372  0.35164196  0.42543263  1
  C  C113  1  0.85211924  0.50047628  0.42543263  1
  C  C114  1  0.35494412  0.49442133  0.07742166  1
  C  C115  1  0.13947620  0.64505588  0.07742166  1
  C  C116  1  0.50557867  0.86052380  0.07742166  1
  C  C117  1  0.35494412  0.86052380  0.57742166  1
  C  C118  1  0.50557867  0.64505588  0.57742166  1
  C  C119  1  0.13947620  0.49442133  0.57742166  1
  C  C120  1  0.31506327  0.83726923  0.25435238  1
  C  C121  1  0.52220496  0.68493673  0.25435238  1
  C  C122  1  0.16273077  0.47779504  0.25435238  1
  C  C123  1  0.31506327  0.47779504  0.75435238  1
  C  C124  1  0.16273077  0.68493673  0.75435238  1
  C  C125  1  0.52220496  0.83726923  0.75435238  1
