# generated using pymatgen
data_Cu2NiC10
_symmetry_space_group_name_H-M   'P 1'
_cell_length_a   6.24066910
_cell_length_b   6.49691813
_cell_length_c   5.14382920
_cell_angle_alpha   90.21930035
_cell_angle_beta   90.45661122
_cell_angle_gamma   61.29564228
_symmetry_Int_Tables_number   1
_chemical_formula_structural   Cu2NiC10
_chemical_formula_sum   'Cu2 Ni1 C10'
_cell_volume   182.92167964
_cell_formula_units_Z   1
loop_
 _symmetry_equiv_pos_site_id
 _symmetry_equiv_pos_as_xyz
  1  'x, y, z'
loop_
 _atom_site_type_symbol
 _atom_site_label
 _atom_site_symmetry_multiplicity
 _atom_site_fract_x
 _atom_site_fract_y
 _atom_site_fract_z
 _atom_site_occupancy
  C  C0  1  0.89438700  0.60058000  0.49218700  1
  C  C1  1  0.49222500  0.65970200  0.01294400  1
  C  C2  1  0.49496500  0.39941900  0.49219000  1
  C  C3  1  0.15192700  0.34029700  0.01294400  1
  Ni  Ni4  1  0.55718400  0.00000000  0.66868200  1
  Cu  Cu5  1  0.83714200  0.00000200  0.06313300  1
  Cu  Cu6  1  0.13955100  0.99999900  0.56171800  1
  C  C7  1  0.80860200  0.74240700  0.93140600  1
  C  C8  1  0.46341400  0.75368300  0.50803100  1
  C  C9  1  0.55100400  0.25759900  0.93140600  1
  C  C10  1  0.21709800  0.24631200  0.50803200  1
  C  C11  1  0.83962400  0.00000000  0.44325000  1
  C  C12  1  0.12579700  0.00000000  0.94008100  1
