# generated using pymatgen
data_CuNi2C5
_symmetry_space_group_name_H-M   'P 1'
_cell_length_a   8.76626423
_cell_length_b   8.76626423
_cell_length_c   11.61300800
_cell_angle_alpha   90.00000000
_cell_angle_beta   90.00000000
_cell_angle_gamma   142.95451547
_symmetry_Int_Tables_number   1
_chemical_formula_structural   CuNi2C5
_chemical_formula_sum   'Cu4 Ni8 C20'
_cell_volume   537.64301444
_cell_formula_units_Z   4
loop_
 _symmetry_equiv_pos_site_id
 _symmetry_equiv_pos_as_xyz
  1  'x, y, z'
loop_
 _atom_site_type_symbol
 _atom_site_label
 _atom_site_symmetry_multiplicity
 _atom_site_fract_x
 _atom_site_fract_y
 _atom_site_fract_z
 _atom_site_occupancy
  Ni  Ni0  1  0.77201500  0.27201500  0.61438600  1
  Ni  Ni1  1  0.27201500  0.77201500  0.38561400  1
  Ni  Ni2  1  0.24181200  0.74181200  0.87139500  1
  Ni  Ni3  1  0.74181200  0.24181200  0.12860500  1
  Ni  Ni4  1  0.90177200  0.07132900  0.39081700  1
  Ni  Ni5  1  0.07132900  0.90177200  0.60918300  1
  Ni  Ni6  1  0.40177200  0.57132900  0.60918300  1
  Ni  Ni7  1  0.57132900  0.40177200  0.39081700  1
  Cu  Cu8  1  0.39401500  0.57254100  0.14343300  1
  Cu  Cu9  1  0.57254100  0.39401500  0.85656700  1
  Cu  Cu10  1  0.89401500  0.07254100  0.85656700  1
  Cu  Cu11  1  0.07254100  0.89401500  0.14343300  1
  C  C12  1  0.12543200  0.43961100  0.20787300  1
  C  C13  1  0.43961100  0.12543200  0.79212700  1
  C  C14  1  0.62543200  0.93961100  0.79212700  1
  C  C15  1  0.93961100  0.62543200  0.20787300  1
  C  C16  1  0.56198200  0.88684500  0.49251500  1
  C  C17  1  0.88684500  0.56198200  0.50748500  1
  C  C18  1  0.06198200  0.38684500  0.50748500  1
  C  C19  1  0.38684500  0.06198200  0.49251500  1
  C  C20  1  0.13530900  0.63530900  0.69916400  1
  C  C21  1  0.63530900  0.13530900  0.30083600  1
  C  C22  1  0.54599000  0.84763100  0.07961300  1
  C  C23  1  0.84763100  0.54599000  0.92038700  1
  C  C24  1  0.17364400  0.06661700  0.26609600  1
  C  C25  1  0.06661700  0.17364400  0.73390400  1
  C  C26  1  0.67364400  0.56661700  0.73390400  1
  C  C27  1  0.56661700  0.67364400  0.26609600  1
  C  C28  1  0.26597700  0.26597700  0.50000000  1
  C  C29  1  0.76597700  0.76597700  0.50000000  1
  C  C30  1  0.34763100  0.04599000  0.07961300  1
  C  C31  1  0.04599000  0.34763100  0.92038700  1
