# generated using pymatgen
data_Cu(Ni2C3)2
_symmetry_space_group_name_H-M   'P 1'
_cell_length_a   9.66044439
_cell_length_b   9.66044439
_cell_length_c   9.66044454
_cell_angle_alpha   89.25403268
_cell_angle_beta   89.25403268
_cell_angle_gamma   89.25403030
_symmetry_Int_Tables_number   1
_chemical_formula_structural   Cu(Ni2C3)2
_chemical_formula_sum   'Cu2 Ni8 C12'
_cell_volume   901.32586202
_cell_formula_units_Z   2
loop_
 _symmetry_equiv_pos_site_id
 _symmetry_equiv_pos_as_xyz
  1  'x, y, z'
loop_
 _atom_site_type_symbol
 _atom_site_label
 _atom_site_symmetry_multiplicity
 _atom_site_fract_x
 _atom_site_fract_y
 _atom_site_fract_z
 _atom_site_occupancy
  C  C0  1  0.05526700  0.93371600  0.71399300  1
  C  C1  1  0.93371600  0.71399300  0.05526700  1
  C  C2  1  0.71399300  0.05526700  0.93371600  1
  C  C3  1  0.56628400  0.44473300  0.78600700  1
  C  C4  1  0.78600700  0.56628400  0.44473300  1
  C  C5  1  0.44473300  0.78600700  0.56628400  1
  C  C6  1  0.06628400  0.28600700  0.94473300  1
  C  C7  1  0.94473300  0.06628400  0.28600700  1
  C  C8  1  0.28600700  0.94473300  0.06628400  1
  C  C9  1  0.43371600  0.55526700  0.21399300  1
  C  C10  1  0.21399300  0.43371600  0.55526700  1
  C  C11  1  0.55526700  0.21399300  0.43371600  1
  Ni  Ni12  1  0.75000000  0.75000000  0.75000000  1
  Ni  Ni13  1  0.25000000  0.25000000  0.25000000  1
  Ni  Ni14  1  0.75000000  0.36782700  0.13217300  1
  Ni  Ni15  1  0.13217300  0.75000000  0.36782700  1
  Ni  Ni16  1  0.36782700  0.13217300  0.75000000  1
  Ni  Ni17  1  0.25000000  0.63217300  0.86782700  1
  Ni  Ni18  1  0.86782700  0.25000000  0.63217300  1
  Ni  Ni19  1  0.63217300  0.86782700  0.25000000  1
  Cu  Cu20  1  0.50000000  0.50000000  0.50000000  1
  Cu  Cu21  1  0.00000000  0.00000000  0.00000000  1
