# generated using pymatgen
data_Cu4Ni8C7
_symmetry_space_group_name_H-M   'P 1'
_cell_length_a   7.64567273
_cell_length_b   5.86924688
_cell_length_c   5.64241193
_cell_angle_alpha   74.95389103
_cell_angle_beta   69.70842058
_cell_angle_gamma   69.76642008
_symmetry_Int_Tables_number   1
_chemical_formula_structural   Cu4Ni8C7
_chemical_formula_sum   'Cu4 Ni8 C7'
_cell_volume   220.00717474
_cell_formula_units_Z   1
loop_
 _symmetry_equiv_pos_site_id
 _symmetry_equiv_pos_as_xyz
  1  'x, y, z'
loop_
 _atom_site_type_symbol
 _atom_site_label
 _atom_site_symmetry_multiplicity
 _atom_site_fract_x
 _atom_site_fract_y
 _atom_site_fract_z
 _atom_site_occupancy
  C  C0  1  0.33674600  0.16355700  0.66351200  1
  C  C1  1  0.83677000  0.66353400  0.66359300  1
  C  C2  1  0.69786800  0.38604400  0.28262300  1
  C  C3  1  0.33677100  0.66349300  0.66361900  1
  C  C4  1  0.14488400  0.30780200  0.28804200  1
  C  C5  1  0.52855600  0.01930000  0.03905000  1
  C  C6  1  0.97564000  0.94103900  0.04437100  1
  Ni  Ni7  1  0.32963000  0.33504900  0.94301900  1
  Ni  Ni8  1  0.62991900  0.56214500  0.56740200  1
  Ni  Ni9  1  0.95632300  0.16506400  0.26089000  1
  Ni  Ni10  1  0.71727000  0.16205500  0.06591000  1
  Ni  Ni11  1  0.04352000  0.76483300  0.75975200  1
  Ni  Ni12  1  0.34379400  0.99208900  0.38411300  1
  Ni  Ni13  1  0.68151900  0.68799900  0.02125800  1
  Ni  Ni14  1  0.99195400  0.63908900  0.30585700  1
  Cu  Cu15  1  0.61960000  0.04235900  0.64281700  1
  Cu  Cu16  1  0.28838100  0.88602200  0.93359700  1
  Cu  Cu17  1  0.38514400  0.44116400  0.39356200  1
  Cu  Cu18  1  0.05385800  0.28450600  0.68415700  1
