# generated using pymatgen
data_CuNiC7
_symmetry_space_group_name_H-M   'P 1'
_cell_length_a   3.91529376
_cell_length_b   3.91529366
_cell_length_c   16.01082153
_cell_angle_alpha   97.02314609
_cell_angle_beta   97.02314867
_cell_angle_gamma   89.99999699
_symmetry_Int_Tables_number   1
_chemical_formula_structural   CuNiC7
_chemical_formula_sum   'Cu2 Ni2 C14'
_cell_volume   241.74113087
_cell_formula_units_Z   2
loop_
 _symmetry_equiv_pos_site_id
 _symmetry_equiv_pos_as_xyz
  1  'x, y, z'
loop_
 _atom_site_type_symbol
 _atom_site_label
 _atom_site_symmetry_multiplicity
 _atom_site_fract_x
 _atom_site_fract_y
 _atom_site_fract_z
 _atom_site_occupancy
  Ni  Ni0  1  0.71576600  0.71576600  0.43153300  1
  Ni  Ni1  1  0.28423400  0.28423400  0.56846700  1
  Cu  Cu2  1  0.59666400  0.59666400  0.19332800  1
  Cu  Cu3  1  0.40333600  0.40333600  0.80667200  1
  C  C4  1  0.50000000  0.50000000  0.00000000  1
  C  C5  1  0.84407500  0.84407500  0.68815000  1
  C  C6  1  0.15592500  0.15592500  0.31185000  1
  C  C7  1  0.00000000  0.00000000  0.00000000  1
  C  C8  1  0.85916300  0.35916300  0.71832400  1
  C  C9  1  0.35916300  0.85916300  0.71832400  1
  C  C10  1  0.14083700  0.64083700  0.28167600  1
  C  C11  1  0.64083700  0.14083700  0.28167600  1
  C  C12  1  0.78836800  0.78836800  0.57673600  1
  C  C13  1  0.21163200  0.21163200  0.42326400  1
  C  C14  1  0.00000000  0.50000000  0.00000000  1
  C  C15  1  0.06727200  0.06727200  0.13454400  1
  C  C16  1  0.93272800  0.93272800  0.86545600  1
  C  C17  1  0.50000000  0.00000000  0.00000000  1
