# generated using pymatgen
data_CuNiC18
_symmetry_space_group_name_H-M   'P 1'
_cell_length_a   15.48733754
_cell_length_b   8.93595017
_cell_length_c   8.94786280
_cell_angle_alpha   90.02801947
_cell_angle_beta   124.97055605
_cell_angle_gamma   89.95319037
_symmetry_Int_Tables_number   1
_chemical_formula_structural   CuNiC18
_chemical_formula_sum   'Cu4 Ni4 C72'
_cell_volume   1014.74607523
_cell_formula_units_Z   4
loop_
 _symmetry_equiv_pos_site_id
 _symmetry_equiv_pos_as_xyz
  1  'x, y, z'
loop_
 _atom_site_type_symbol
 _atom_site_label
 _atom_site_symmetry_multiplicity
 _atom_site_fract_x
 _atom_site_fract_y
 _atom_site_fract_z
 _atom_site_occupancy
  C  C0  1  0.24219706  0.77515504  0.99391739  1
  C  C1  1  0.74727531  0.72032707  0.50125812  1
  C  C2  1  0.74795808  0.27661007  0.00172564  1
  C  C3  1  0.24120403  0.21899503  0.49336769  1
  C  C4  1  0.50085290  0.10386201  0.75263929  1
  C  C5  1  0.50234088  0.89367404  0.24642225  1
  C  C6  1  0.00341726  0.61775920  0.75227244  1
  C  C7  1  0.99987429  0.38349211  0.24357243  1
  C  C8  1  0.81464825  0.93819879  0.22712652  1
  C  C9  1  0.81403978  0.06685596  0.72467594  1
  C  C10  1  0.30345070  0.43446111  0.20692177  1
  C  C11  1  0.30903293  0.55731796  0.72790689  1
  Ni  Ni12  1  0.10281035  0.75987541  0.55044159  1
  Ni  Ni13  1  0.60179912  0.25810797  0.55203955  1
  Ni  Ni14  1  0.39755855  0.74867328  0.44146995  1
  Ni  Ni15  1  0.60406849  0.74089595  0.05233001  1
  Cu  Cu16  1  0.89926497  0.74983720  0.94513885  1
  Cu  Cu17  1  0.90017271  0.25081810  0.44510812  1
  Cu  Cu18  1  0.10058833  0.24312547  0.04848559  1
  Cu  Cu19  1  0.39827993  0.25020954  0.94330040  1
  C  C20  1  0.99792217  0.95943818  0.74799143  1
  C  C21  1  0.99890929  0.04999427  0.24098458  1
  C  C22  1  0.49466857  0.44183731  0.74645619  1
  C  C23  1  0.49582569  0.54841184  0.23889265  1
  C  C24  1  0.35565010  0.90290372  0.76412352  1
  C  C25  1  0.65590393  0.89271702  0.74557932  1
  C  C26  1  0.65264428  0.10948516  0.24454543  1
  C  C27  1  0.35132489  0.10737403  0.24993630  1
  C  C28  1  0.86080386  0.39998949  0.75594620  1
  C  C29  1  0.14696752  0.38822567  0.74497001  1
  C  C30  1  0.14547541  0.60051694  0.23777367  1
  C  C31  1  0.85842684  0.59942322  0.25802905  1
  C  C32  1  0.15629182  0.56314319  0.74519145  1
  C  C33  1  0.85528935  0.57346498  0.76091898  1
  C  C34  1  0.85367015  0.42583925  0.25971790  1
  C  C35  1  0.15265855  0.42606786  0.22999467  1
  C  C36  1  0.66672375  0.06644810  0.74480459  1
  C  C37  1  0.34698046  0.07569463  0.76739498  1
  C  C38  1  0.34522847  0.93416797  0.24212800  1
  C  C39  1  0.66388603  0.93563908  0.24253192  1
  C  C40  1  0.42596612  0.53337784  0.56798448  1
  C  C41  1  0.55643811  0.54026369  0.91456154  1
  C  C42  1  0.55528913  0.45965295  0.41680035  1
  C  C43  1  0.43517339  0.44841124  0.06646827  1
  C  C44  1  0.92844019  0.05127355  0.56827832  1
  C  C45  1  0.05888932  0.06158632  0.91541589  1
  C  C46  1  0.07082913  0.96283340  0.41824865  1
  C  C47  1  0.92866802  0.94680467  0.07347733  1
  C  C48  1  0.26440400  0.81962441  0.75243097  1
  C  C49  1  0.75069194  0.81844452  0.75874830  1
  C  C50  1  0.74797344  0.18079842  0.25583552  1
  C  C51  1  0.25409017  0.18021672  0.23068505  1
  C  C52  1  0.76743271  0.32570275  0.74687339  1
  C  C53  1  0.24428336  0.32280979  0.75913856  1
  C  C54  1  0.23786705  0.66944620  0.23973527  1
  C  C55  1  0.76467331  0.67439357  0.24572452  1
  C  C56  1  0.35989830  0.86886391  0.59932322  1
  C  C57  1  0.65664175  0.86262175  0.91574600  1
  C  C58  1  0.65736033  0.13769213  0.41961523  1
  C  C59  1  0.36389021  0.15875534  0.09840789  1
  C  C60  1  0.86329593  0.36033323  0.58971228  1
  C  C61  1  0.14659899  0.35442988  0.91478636  1
  C  C62  1  0.15650010  0.62863744  0.41878162  1
  C  C63  1  0.86607274  0.64267647  0.09834582  1
  C  C64  1  0.45662319  0.84911726  0.94320690  1
  C  C65  1  0.55345663  0.83966932  0.56686737  1
  C  C66  1  0.54767936  0.16508158  0.07107897  1
  C  C67  1  0.44885378  0.15682702  0.43889657  1
  C  C68  1  0.96198044  0.34162742  0.93458077  1
  C  C69  1  0.04568189  0.33083011  0.56618757  1
  C  C70  1  0.04192012  0.66382843  0.07014850  1
  C  C71  1  0.95593132  0.65607005  0.44195007  1
  C  C72  1  0.07619998  0.85312750  0.74659265  1
  C  C73  1  0.91878521  0.85784271  0.75832916  1
  C  C74  1  0.91926054  0.14889299  0.25367306  1
  C  C75  1  0.07207389  0.15688026  0.22431790  1
  C  C76  1  0.57518319  0.33590626  0.75035848  1
  C  C77  1  0.41300812  0.34296467  0.75271237  1
  C  C78  1  0.40904621  0.64648944  0.23010230  1
  C  C79  1  0.57686335  0.65616155  0.24784126  1
