# generated using pymatgen
data_CuNiC8
_symmetry_space_group_name_H-M   'P 1'
_cell_length_a   8.51802700
_cell_length_b   9.12818800
_cell_length_c   13.76201300
_cell_angle_alpha   90.00000000
_cell_angle_beta   90.00000000
_cell_angle_gamma   90.00000000
_symmetry_Int_Tables_number   1
_chemical_formula_structural   CuNiC8
_chemical_formula_sum   'Cu4 Ni4 C32'
_cell_volume   1070.05364850
_cell_formula_units_Z   4
loop_
 _symmetry_equiv_pos_site_id
 _symmetry_equiv_pos_as_xyz
  1  'x, y, z'
loop_
 _atom_site_type_symbol
 _atom_site_label
 _atom_site_symmetry_multiplicity
 _atom_site_fract_x
 _atom_site_fract_y
 _atom_site_fract_z
 _atom_site_occupancy
  Ni  Ni0  1  0.20126600  0.45944200  0.03359400  1
  Ni  Ni1  1  0.79873400  0.95944200  0.96640600  1
  Ni  Ni2  1  0.79873400  0.45944200  0.53359400  1
  Ni  Ni3  1  0.20126600  0.95944200  0.46640600  1
  C  C4  1  0.20385800  0.11144000  0.59935000  1
  C  C5  1  0.79614200  0.61144000  0.40065000  1
  C  C6  1  0.79614200  0.11144000  0.09935000  1
  C  C7  1  0.20385800  0.61144000  0.90065000  1
  C  C8  1  0.33535100  0.29251400  0.55934900  1
  C  C9  1  0.66464900  0.79251400  0.44065100  1
  C  C10  1  0.66464900  0.29251400  0.05934900  1
  C  C11  1  0.33535100  0.79251400  0.94065100  1
  C  C12  1  0.54425500  0.21410200  0.50063200  1
  C  C13  1  0.45574500  0.71410200  0.49936800  1
  C  C14  1  0.45574500  0.21410200  0.00063200  1
  C  C15  1  0.54425500  0.71410200  0.99936800  1
  C  C16  1  0.54157200  0.25243000  0.35274500  1
  C  C17  1  0.45842800  0.75243000  0.64725500  1
  C  C18  1  0.45842800  0.25243000  0.85274500  1
  C  C19  1  0.54157200  0.75243000  0.14725500  1
  C  C20  1  0.40607400  0.08967600  0.28872800  1
  C  C21  1  0.59392600  0.58967600  0.71127200  1
  C  C22  1  0.59392600  0.08967600  0.78872800  1
  C  C23  1  0.40607400  0.58967600  0.21127200  1
  C  C24  1  0.20379100  0.18601300  0.23424900  1
  C  C25  1  0.79620800  0.68601300  0.76575100  1
  C  C26  1  0.79620800  0.18601300  0.73424900  1
  C  C27  1  0.20379100  0.68601300  0.26575100  1
  C  C28  1  0.07494300  0.26671400  0.34968400  1
  C  C29  1  0.92505700  0.76671400  0.65031600  1
  C  C30  1  0.92505700  0.26671400  0.84968400  1
  C  C31  1  0.07494300  0.76671400  0.15031600  1
  C  C32  1  0.98111200  0.09531500  0.42847200  1
  C  C33  1  0.01888800  0.59531500  0.57152800  1
  C  C34  1  0.01888800  0.09531500  0.92847200  1
  C  C35  1  0.98111200  0.59531500  0.07152800  1
  Cu  Cu36  1  0.12571800  0.52955400  0.99924300  1
  Cu  Cu37  1  0.87428200  0.02955400  0.00075700  1
  Cu  Cu38  1  0.87428200  0.52955400  0.49924300  1
  Cu  Cu39  1  0.12571800  0.02955400  0.50075700  1
