# generated using pymatgen
data_Cu5Ni2C63
_symmetry_space_group_name_H-M   'P 1'
_cell_length_a   18.12228492
_cell_length_b   9.06353946
_cell_length_c   23.84064831
_cell_angle_alpha   90.08448523
_cell_angle_beta   90.06933420
_cell_angle_gamma   120.05477959
_symmetry_Int_Tables_number   1
_chemical_formula_structural   Cu5Ni2C63
_chemical_formula_sum   'Cu15 Ni6 C189'
_cell_volume   3389.36164629
_cell_formula_units_Z   3
loop_
 _symmetry_equiv_pos_site_id
 _symmetry_equiv_pos_as_xyz
  1  'x, y, z'
loop_
 _atom_site_type_symbol
 _atom_site_label
 _atom_site_symmetry_multiplicity
 _atom_site_fract_x
 _atom_site_fract_y
 _atom_site_fract_z
 _atom_site_occupancy
  Ni  Ni0  1  0.00077185  0.00069090  0.50231292  1
  Ni  Ni1  1  0.50523654  0.00888932  0.99654027  1
  Ni  Ni2  1  0.33541109  0.33694171  0.82642943  1
  Ni  Ni3  1  0.83117545  0.32979229  0.82844012  1
  Ni  Ni4  1  0.33109994  0.33442917  0.34252230  1
  Ni  Ni5  1  0.83522252  0.33107485  0.33299351  1
  Cu  Cu6  1  0.00305115  0.00220709  0.35672969  1
  Cu  Cu7  1  0.50088918  0.00046386  0.85547533  1
  Cu  Cu8  1  0.99985475  0.99913877  0.64796898  1
  Cu  Cu9  1  0.50303048  0.00412853  0.14742467  1
  Cu  Cu10  1  0.32773079  0.32810978  0.68033295  1
  Cu  Cu11  1  0.83889740  0.33912069  0.68219090  1
  Cu  Cu12  1  0.82738894  0.32711192  0.18096865  1
  Cu  Cu13  1  0.32842905  0.32923101  0.98115674  1
  Cu  Cu14  1  0.83846129  0.33791847  0.98425316  1
  Cu  Cu15  1  0.33867274  0.34064243  0.48701826  1
  Cu  Cu16  1  0.82862987  0.32657863  0.48524523  1
  Cu  Cu17  1  0.16111057  0.66042482  0.30784857  1
  Cu  Cu18  1  0.67295409  0.66943125  0.30869883  1
  Cu  Cu19  1  0.17332879  0.67597911  0.80710258  1
  Cu  Cu20  1  0.66034560  0.65830667  0.80607009  1
  C  C21  1  0.49852468  0.99708188  0.35513771  1
  C  C22  1  0.99892468  0.99918341  0.85449652  1
  C  C23  1  0.50038267  0.00081858  0.64904829  1
  C  C24  1  0.99795914  0.99834762  0.14836983  1
  C  C25  1  0.33751336  0.33741763  0.18278849  1
  C  C26  1  0.16378449  0.66632542  0.01772586  1
  C  C27  1  0.66988317  0.66899476  0.01693699  1
  C  C28  1  0.16902946  0.66766920  0.51809172  1
  C  C29  1  0.66380504  0.66523732  0.51845168  1
  C  C30  1  0.15026380  0.01511390  0.24443810  1
  C  C31  1  0.64471256  0.00921961  0.25496309  1
  C  C32  1  0.35845317  0.70057568  0.25050125  1
  C  C33  1  0.85911756  0.71050787  0.24850147  1
  C  C34  1  0.99640677  0.28265374  0.24807466  1
  C  C35  1  0.49133052  0.28215227  0.25118279  1
  C  C36  1  0.14554316  0.28133602  0.75490671  1
  C  C37  1  0.64551505  0.28353078  0.74833600  1
  C  C38  1  0.99558848  0.70850048  0.75471025  1
  C  C39  1  0.49581820  0.70940558  0.74819405  1
  C  C40  1  0.35904753  0.00812518  0.74845061  1
  C  C41  1  0.85817667  0.00868128  0.75450574  1
  C  C42  1  0.48718994  0.33204978  0.58325520  1
  C  C43  1  0.98835666  0.33968432  0.57904753  1
  C  C44  1  0.18203284  0.02559996  0.57830451  1
  C  C45  1  0.67862120  0.02349445  0.58383348  1
  C  C46  1  0.33400774  0.64357873  0.58348284  1
  C  C47  1  0.82987769  0.63563405  0.57883700  1
  C  C48  1  0.48294057  0.62162243  0.08175933  1
  C  C49  1  0.98709004  0.64159859  0.08353873  1
  C  C50  1  0.32832397  0.03519457  0.08199595  1
  C  C51  1  0.83311757  0.02496908  0.08317642  1
  C  C52  1  0.18564728  0.33684395  0.08612661  1
  C  C53  1  0.68211393  0.33840553  0.07825953  1
  C  C54  1  0.31086517  0.67139854  0.92049315  1
  C  C55  1  0.81315555  0.67250829  0.91473967  1
  C  C56  1  0.02480294  0.37455126  0.91568974  1
  C  C57  1  0.52276555  0.37741708  0.91950611  1
  C  C58  1  0.16169690  0.95024102  0.91542831  1
  C  C59  1  0.66632522  0.95458621  0.91975870  1
  C  C60  1  0.31378958  0.95611684  0.41355657  1
  C  C61  1  0.81061556  0.95263229  0.41964774  1
  C  C62  1  0.16810576  0.37876840  0.41886298  1
  C  C63  1  0.66209806  0.37100563  0.41446600  1
  C  C64  1  0.02249037  0.66678045  0.41911087  1
  C  C65  1  0.52257131  0.67280372  0.41417750  1
  C  C66  1  0.12103953  0.05420007  0.29673867  1
  C  C67  1  0.59187543  0.02131911  0.30371143  1
  C  C68  1  0.41409837  0.78340981  0.30137155  1
  C  C69  1  0.90858741  0.79153637  0.29951490  1
  C  C70  1  0.47590401  0.16693054  0.30105755  1
  C  C71  1  0.98814660  0.18602946  0.29938426  1
  C  C72  1  0.09466363  0.16964954  0.80510960  1
  C  C73  1  0.60668033  0.18721133  0.79992158  1
  C  C74  1  0.48668093  0.78670734  0.80008929  1
  C  C75  1  0.99034000  0.81061066  0.80499228  1
  C  C76  1  0.40653656  0.02535415  0.80036403  1
  C  C77  1  0.91484318  0.02008797  0.80490286  1
  C  C78  1  0.40949297  0.00366351  0.69806493  1
  C  C79  1  0.89751679  0.99585169  0.70247664  1
  C  C80  1  0.10070061  0.20320852  0.70249403  1
  C  C81  1  0.59212192  0.18203187  0.69796556  1
  C  C82  1  0.00171848  0.79874249  0.70251174  1
  C  C83  1  0.49823161  0.81559574  0.69798105  1
  C  C84  1  0.39652304  0.80028583  0.20014565  1
  C  C85  1  0.90973228  0.81639602  0.19755634  1
  C  C86  1  0.99936027  0.18112275  0.19741884  1
  C  C87  1  0.50280770  0.20806073  0.20008487  1
  C  C88  1  0.09371048  0.99870986  0.19650283  1
  C  C89  1  0.59988800  0.99597732  0.20257944  1
  C  C90  1  0.45322854  0.37827208  0.63148242  1
  C  C91  1  0.95474418  0.37170695  0.63082877  1
  C  C92  1  0.23137581  0.09183152  0.63019938  1
  C  C93  1  0.73572407  0.09255195  0.63217539  1
  C  C94  1  0.31059994  0.53022926  0.63198399  1
  C  C95  1  0.81415715  0.53564105  0.63016534  1
  C  C96  1  0.43806102  0.50935740  0.13338375  1
  C  C97  1  0.95347207  0.52890336  0.13224432  1
  C  C98  1  0.31733843  0.12581018  0.13284221  1
  C  C99  1  0.81065188  0.09099253  0.13249355  1
  C  C100  1  0.24720530  0.37150112  0.13435522  1
  C  C101  1  0.73036410  0.36972405  0.13080557  1
  C  C102  1  0.21512875  0.29002103  0.03654312  1
  C  C103  1  0.72479922  0.31140201  0.03055684  1
  C  C104  1  0.42845735  0.54245162  0.03314055  1
  C  C105  1  0.93235051  0.57842303  0.03420946  1
  C  C106  1  0.34333215  0.14020093  0.03252391  1
  C  C107  1  0.85612770  0.13688319  0.03464371  1
  C  C108  1  0.22432640  0.13676147  0.53004752  1
  C  C109  1  0.71075902  0.13213372  0.53422890  1
  C  C110  1  0.35698558  0.57742512  0.53439339  1
  C  C111  1  0.84227102  0.55293230  0.52988955  1
  C  C112  1  0.43248689  0.28665945  0.53346179  1
  C  C113  1  0.93296205  0.31380802  0.53082670  1
  C  C114  1  0.25866625  0.67527666  0.97120839  1
  C  C115  1  0.77072641  0.69404159  0.96677101  1
  C  C116  1  0.07761362  0.46126856  0.96884164  1
  C  C117  1  0.57702587  0.48270728  0.96930297  1
  C  C118  1  0.15191306  0.84100556  0.96713994  1
  C  C119  1  0.66457610  0.85016993  0.97093005  1
  C  C120  1  0.27466850  0.85236567  0.46477979  1
  C  C121  1  0.75774409  0.84412813  0.46906170  1
  C  C122  1  0.16750715  0.48061612  0.46896978  1
  C  C123  1  0.64935938  0.45441580  0.46507531  1
  C  C124  1  0.07771811  0.67222010  0.46781209  1
  C  C125  1  0.57366541  0.69500943  0.46628943  1
  C  C126  1  0.06203552  0.65747202  0.36647105  1
  C  C127  1  0.56257914  0.64776374  0.36528457  1
  C  C128  1  0.26166237  0.87777990  0.36370151  1
  C  C129  1  0.76553757  0.87194815  0.36774196  1
  C  C130  1  0.17246454  0.47002705  0.36721410  1
  C  C131  1  0.67556758  0.47344902  0.36455634  1
  C  C132  1  0.06522082  0.48134370  0.86725418  1
  C  C133  1  0.56248436  0.46636853  0.86768146  1
  C  C134  1  0.17606909  0.87472958  0.86620948  1
  C  C135  1  0.67027901  0.87022663  0.86871367  1
  C  C136  1  0.26551863  0.66098158  0.86908797  1
  C  C137  1  0.76017235  0.64575498  0.86570735  1
  C  C138  1  0.01920939  0.82675939  0.42264398  1
  C  C139  1  0.51730609  0.83472679  0.40727398  1
  C  C140  1  0.39899264  0.96306078  0.40538768  1
  C  C141  1  0.89419971  0.96139741  0.42344484  1
  C  C142  1  0.08839957  0.21186505  0.42243075  1
  C  C143  1  0.58045161  0.19974679  0.40638345  1
  C  C144  1  0.02108193  0.20615677  0.91049689  1
  C  C145  1  0.51927150  0.21123788  0.92393952  1
  C  C146  1  0.08138259  0.95749979  0.91059576  1
  C  C147  1  0.58650901  0.96125015  0.92403631  1
  C  C148  1  0.39404713  0.82952572  0.92514389  1
  C  C149  1  0.89763622  0.83484516  0.90920233  1
  C  C150  1  0.50262818  0.18881368  0.59657581  1
  C  C151  1  0.00280724  0.19375577  0.58352054  1
  C  C152  1  0.09411634  0.99378187  0.58265967  1
  C  C153  1  0.59186097  0.99542623  0.59716983  1
  C  C154  1  0.40649889  0.81713013  0.59699972  1
  C  C155  1  0.90236621  0.81117093  0.58342573  1
  C  C156  1  0.49492964  0.79215407  0.09090686  1
  C  C157  1  0.00343887  0.81739377  0.09706295  1
  C  C158  1  0.39959431  0.00536466  0.09140656  1
  C  C159  1  0.90673923  0.99681358  0.09628415  1
  C  C160  1  0.10020349  0.19361810  0.10230779  1
  C  C161  1  0.59380701  0.19321364  0.08200707  1
  C  C162  1  0.34923929  0.15994569  0.74272088  1
  C  C163  1  0.85476836  0.16839283  0.75636659  1
  C  C164  1  0.22937638  0.29009484  0.75704295  1
  C  C165  1  0.73095674  0.30246817  0.74182918  1
  C  C166  1  0.41981524  0.53765261  0.74200533  1
  C  C167  1  0.91593449  0.54151088  0.75665067  1
  C  C168  1  0.35329687  0.52632763  0.24299972  1
  C  C169  1  0.84951589  0.54011460  0.24234706  1
  C  C170  1  0.40955844  0.29314392  0.24378129  1
  C  C171  1  0.92052880  0.30126980  0.24174839  1
  C  C172  1  0.23696176  0.17114127  0.23109085  1
  C  C173  1  0.72820395  0.16794280  0.25758883  1
  C  C174  1  0.31854484  0.51802168  0.92573534  1
  C  C175  1  0.82851438  0.52908988  0.92287003  1
  C  C176  1  0.43736067  0.35873671  0.92471916  1
  C  C177  1  0.93844826  0.34650885  0.92383982  1
  C  C178  1  0.23409150  0.12315705  0.92403644  1
  C  C179  1  0.74269727  0.12465721  0.92493595  1
  C  C180  1  0.33122841  0.13258355  0.42044334  1
  C  C181  1  0.81880311  0.12213686  0.42447564  1
  C  C182  1  0.24439390  0.35943126  0.42310858  1
  C  C183  1  0.73353806  0.33994352  0.42214574  1
  C  C184  1  0.43499080  0.52860454  0.42098252  1
  C  C185  1  0.93694146  0.51506396  0.42381429  1
  C  C186  1  0.17743880  0.49120473  0.07686399  1
  C  C187  1  0.67570511  0.49575512  0.06722678  1
  C  C188  1  0.07357503  0.66426137  0.06949736  1
  C  C189  1  0.56680618  0.63088376  0.07558516  1
  C  C190  1  0.24767064  0.86710527  0.07434413  1
  C  C191  1  0.75926096  0.85188321  0.07015815  1
  C  C192  1  0.17597542  0.85575278  0.56660818  1
  C  C193  1  0.66483565  0.84781669  0.56990723  1
  C  C194  1  0.26043000  0.66890290  0.56944952  1
  C  C195  1  0.75058015  0.65071470  0.56702561  1
  C  C196  1  0.07516828  0.49652042  0.56816766  1
  C  C197  1  0.57342728  0.48138684  0.56858673  1
  C  C198  1  0.15959555  0.86532313  0.24661076  1
  C  C199  1  0.65087460  0.85738739  0.26317383  1
  C  C200  1  0.27306884  0.67077571  0.26018892  1
  C  C201  1  0.77755677  0.70615287  0.24693654  1
  C  C202  1  0.07610458  0.44635723  0.24655389  1
  C  C203  1  0.56165789  0.45226901  0.26132832  1
  C  C204  1  0.15264975  0.44667982  0.76222305  1
  C  C205  1  0.64747897  0.44650523  0.74718445  1
  C  C206  1  0.07111027  0.69403256  0.76233994  1
  C  C207  1  0.57538523  0.70553202  0.74693403  1
  C  C208  1  0.27722961  0.84911507  0.74669373  1
  C  C209  1  0.77560193  0.85800554  0.76239889  1
