# generated using pymatgen
data_Cu5Ni3C70
_symmetry_space_group_name_H-M   'P 1'
_cell_length_a   17.56668188
_cell_length_b   8.79323097
_cell_length_c   22.07690237
_cell_angle_alpha   89.95653757
_cell_angle_beta   90.00518226
_cell_angle_gamma   120.05939984
_symmetry_Int_Tables_number   1
_chemical_formula_structural   Cu5Ni3C70
_chemical_formula_sum   'Cu15 Ni9 C210'
_cell_volume   2951.52575931
_cell_formula_units_Z   3
loop_
 _symmetry_equiv_pos_site_id
 _symmetry_equiv_pos_as_xyz
  1  'x, y, z'
loop_
 _atom_site_type_symbol
 _atom_site_label
 _atom_site_symmetry_multiplicity
 _atom_site_fract_x
 _atom_site_fract_y
 _atom_site_fract_z
 _atom_site_occupancy
  C  C0  1  0.31929883  0.00733066  0.25004593  1
  C  C1  1  0.68516398  0.36156810  0.24985761  1
  C  C2  1  0.31640981  0.62687839  0.74965013  1
  C  C3  1  0.81630290  0.62653355  0.74975230  1
  C  C4  1  0.15268664  0.34139814  0.58050796  1
  C  C5  1  0.65271928  0.34053198  0.57988837  1
  C  C6  1  0.01737347  0.69381199  0.58075511  1
  C  C7  1  0.51732831  0.69425396  0.58085579  1
  C  C8  1  0.32924038  0.96387402  0.58107199  1
  C  C9  1  0.82948105  0.96597812  0.58067934  1
  C  C10  1  0.15270286  0.96454924  0.08060562  1
  C  C11  1  0.65297163  0.96521447  0.08085599  1
  C  C12  1  0.32954049  0.69396466  0.08100720  1
  C  C13  1  0.82960930  0.69458998  0.08052936  1
  C  C14  1  0.01711835  0.34132808  0.08066771  1
  C  C15  1  0.51735230  0.34064983  0.08124733  1
  C  C16  1  0.66319363  0.02883906  0.41433513  1
  C  C17  1  0.35090785  0.67324343  0.41372902  1
  C  C18  1  0.99993802  0.99944584  0.49470664  1
  C  C19  1  0.49973984  0.01164811  0.49377058  1
  C  C20  1  0.99984379  0.99937296  0.99575265  1
  C  C21  1  0.49987442  0.99958349  0.99618211  1
  C  C22  1  0.33366220  0.32304934  0.83176697  1
  C  C23  1  0.83354975  0.32322595  0.83172464  1
  C  C24  1  0.33423621  0.33719959  0.32832183  1
  C  C25  1  0.84204532  0.33942937  0.32890690  1
  C  C26  1  0.16281099  0.65659670  0.16710225  1
  C  C27  1  0.66594439  0.67577978  0.16705466  1
  C  C28  1  0.16244204  0.66735708  0.66795789  1
  C  C29  1  0.66245584  0.66790970  0.66802720  1
  Ni  Ni30  1  0.49959865  0.00545263  0.35187130  1
  Ni  Ni31  1  0.33364186  0.32793174  0.68815625  1
  Ni  Ni32  1  0.83357155  0.32713470  0.68797829  1
  Ni  Ni33  1  0.33316662  0.33934890  0.18640835  1
  Ni  Ni34  1  0.83664534  0.33176397  0.18735061  1
  Ni  Ni35  1  0.16681058  0.66716472  0.01483280  1
  Ni  Ni36  1  0.66675701  0.66684199  0.01477440  1
  Ni  Ni37  1  0.16456360  0.66419561  0.51544663  1
  Ni  Ni38  1  0.66822450  0.66707863  0.51579058  1
  Cu  Cu39  1  0.00004621  0.99892204  0.35266071  1
  Cu  Cu40  1  -0.00000059  0.00132497  0.85465287  1
  Cu  Cu41  1  0.50006079  0.00178782  0.85456229  1
  Cu  Cu42  1  0.00105529  0.00211582  0.65079779  1
  Cu  Cu43  1  0.50121832  0.00051135  0.65041829  1
  Cu  Cu44  1  -0.00003541  0.00123449  0.15018956  1
  Cu  Cu45  1  0.50004276  0.99787167  0.15197862  1
  Cu  Cu46  1  0.33330707  0.33557337  0.97828458  1
  Cu  Cu47  1  0.83363541  0.33478278  0.97829689  1
  Cu  Cu48  1  0.33209921  0.32130259  0.47878006  1
  Cu  Cu49  1  0.83689178  0.34217023  0.47773080  1
  Cu  Cu50  1  0.16376472  0.66019334  0.31444233  1
  Cu  Cu51  1  0.66521052  0.66966915  0.31559259  1
  Cu  Cu52  1  0.16385573  0.66801486  0.81712368  1
  Cu  Cu53  1  0.66366020  0.66743674  0.81720563  1
  C  C54  1  0.14409885  0.99759630  0.25124072  1
  C  C55  1  0.64674602  0.99793908  0.25248408  1
  C  C56  1  0.35288803  0.70375275  0.25324979  1
  C  C57  1  0.85471177  0.71118588  0.25140463  1
  C  C58  1  0.00031947  0.28920733  0.25177084  1
  C  C59  1  0.49980050  0.29484815  0.25107270  1
  C  C60  1  0.14421047  0.29114751  0.75189886  1
  C  C61  1  0.64411139  0.29094018  0.75172103  1
  C  C62  1  0.00233836  0.71274179  0.75150102  1
  C  C63  1  0.50233745  0.71260029  0.75165562  1
  C  C64  1  0.35496813  0.00061259  0.75172119  1
  C  C65  1  0.85480210  0.00052794  0.75187410  1
  C  C66  1  0.47855021  0.33389341  0.58483784  1
  C  C67  1  0.97816494  0.33374626  0.58430569  1
  C  C68  1  0.18794332  0.04237688  0.58476598  1
  C  C69  1  0.68836245  0.04341558  0.58345185  1
  C  C70  1  0.33333506  0.62400253  0.58448389  1
  C  C71  1  0.83358912  0.62457134  0.58567013  1
  C  C72  1  0.47843564  0.62325636  0.08378307  1
  C  C73  1  0.97829253  0.62329160  0.08406790  1
  C  C74  1  0.33334620  0.04305199  0.08484272  1
  C  C75  1  0.83327195  0.04383912  0.08371892  1
  C  C76  1  0.18812054  0.33312029  0.08365341  1
  C  C77  1  0.68824408  0.33330485  0.08498243  1
  C  C78  1  0.31304521  0.66677569  0.91683124  1
  C  C79  1  0.81301289  0.66638475  0.91684070  1
  C  C80  1  0.01999316  0.37344786  0.91796325  1
  C  C81  1  0.51987677  0.37330592  0.91807409  1
  C  C82  1  0.16658489  0.96039733  0.91786755  1
  C  C83  1  0.66648845  0.96030007  0.91784565  1
  C  C84  1  0.31179716  0.95733916  0.41758062  1
  C  C85  1  0.81460287  0.95963522  0.41772278  1
  C  C86  1  0.16506051  0.37098643  0.41784682  1
  C  C87  1  0.66692566  0.37542283  0.41808782  1
  C  C88  1  0.02149781  0.66925422  0.41745996  1
  C  C89  1  0.51957231  0.66326017  0.41872807  1
  C  C90  1  0.09513763  0.01801707  0.30532223  1
  C  C91  1  0.60470553  0.02652668  0.30801331  1
  C  C92  1  0.40588771  0.79114105  0.30939465  1
  C  C93  1  0.91408366  0.80988791  0.30537985  1
  C  C94  1  0.48556304  0.17722310  0.30454320  1
  C  C95  1  0.99168319  0.17130951  0.30585208  1
  C  C96  1  0.09486640  0.17135294  0.80530927  1
  C  C97  1  0.59489528  0.17147826  0.80531385  1
  C  C98  1  0.48941009  0.80928981  0.80492277  1
  C  C99  1  0.98947666  0.80947600  0.80483609  1
  C  C100  1  0.41385575  0.01718233  0.80569660  1
  C  C101  1  0.91392325  0.01726001  0.80564444  1
  C  C102  1  0.39898372  0.96819282  0.69351302  1
  C  C103  1  0.89905500  0.96828530  0.69349038  1
  C  C104  1  0.08686790  0.20181140  0.69290578  1
  C  C105  1  0.58688083  0.20194277  0.69287718  1
  C  C106  1  0.01567680  0.82792774  0.69245267  1
  C  C107  1  0.51567869  0.82745434  0.69260442  1
  C  C108  1  0.39906716  0.83028253  0.19530048  1
  C  C109  1  0.89917807  0.82663012  0.19293359  1
  C  C110  1  0.01470133  0.20250939  0.19302759  1
  C  C111  1  0.51714479  0.20592674  0.19251424  1
  C  C112  1  0.08688091  0.97199218  0.19274850  1
  C  C113  1  0.58623426  0.96961771  0.19414498  1
  C  C114  1  0.43721100  0.36752354  0.63912196  1
  C  C115  1  0.93742564  0.36759184  0.63905961  1
  C  C116  1  0.24578169  0.12591230  0.63914082  1
  C  C117  1  0.74634908  0.12782959  0.63800159  1
  C  C118  1  0.31835035  0.51400123  0.64125940  1
  C  C119  1  0.81825150  0.51513760  0.64240825  1
  C  C120  1  0.43745944  0.50763732  0.13847721  1
  C  C121  1  0.93725135  0.50886432  0.13918571  1
  C  C122  1  0.31738749  0.11972007  0.14212379  1
  C  C123  1  0.81673033  0.12496334  0.13876298  1
  C  C124  1  0.24508492  0.36446251  0.13866665  1
  C  C125  1  0.74288275  0.36517558  0.14207657  1
  C  C126  1  0.23166601  0.29870941  0.02675149  1
  C  C127  1  0.73406586  0.30074787  0.02897168  1
  C  C128  1  0.41721386  0.53559516  0.02681027  1
  C  C129  1  0.91745910  0.53572329  0.02712046  1
  C  C130  1  0.34987960  0.16769032  0.02908757  1
  C  C131  1  0.85112765  0.16617818  0.02694942  1
  C  C132  1  0.23190368  0.16414264  0.52744242  1
  C  C133  1  0.72888967  0.15956376  0.52490042  1
  C  C134  1  0.35035100  0.53892188  0.52707746  1
  C  C135  1  0.85015067  0.53318421  0.52951284  1
  C  C136  1  0.41681817  0.29834598  0.52762516  1
  C  C137  1  0.91738528  0.29971595  0.52716790  1
  C  C138  1  0.27638008  0.69903254  0.97446119  1
  C  C139  1  0.77644325  0.69896964  0.97443218  1
  C  C140  1  0.07246498  0.44510927  0.97573245  1
  C  C141  1  0.57251444  0.44505987  0.97576047  1
  C  C142  1  0.14977551  0.85497356  0.97559571  1
  C  C143  1  0.64985218  0.85502767  0.97556013  1
  C  C144  1  0.27139861  0.84801071  0.47457740  1
  C  C145  1  0.77812590  0.85773275  0.47622164  1
  C  C146  1  0.15009645  0.44447460  0.47599181  1
  C  C147  1  0.65533289  0.45560324  0.47568184  1
  C  C148  1  0.07188608  0.69998996  0.47605306  1
  C  C149  1  0.57522725  0.69626771  0.47522514  1
  C  C150  1  0.06798554  0.63897659  0.36224916  1
  C  C151  1  0.56796472  0.63845029  0.36257721  1
  C  C152  1  0.25303409  0.86883215  0.36010348  1
  C  C153  1  0.75060385  0.86557327  0.36306231  1
  C  C154  1  0.18179882  0.49883572  0.36309050  1
  C  C155  1  0.68058651  0.49264849  0.36059105  1
  C  C156  1  0.06853544  0.49694661  0.86250385  1
  C  C157  1  0.56841185  0.49696929  0.86259920  1
  C  C158  1  0.17949269  0.86275872  0.86242592  1
  C  C159  1  0.67961826  0.86297236  0.86239445  1
  C  C160  1  0.25421948  0.64000637  0.85975138  1
  C  C161  1  0.75425686  0.63991530  0.85975532  1
  C  C162  1  0.00854886  0.82838609  0.40640029  1
  C  C163  1  0.50773934  0.82350435  0.41060402  1
  C  C164  1  0.40291450  0.97864715  0.41088195  1
  C  C165  1  0.90638816  0.98299826  0.40688971  1
  C  C166  1  0.08546316  0.18677444  0.40718653  1
  C  C167  1  0.59019026  0.18820256  0.41119621  1
  C  C168  1  0.00881204  0.18923505  0.90648766  1
  C  C169  1  0.50881506  0.18932796  0.90649601  1
  C  C170  1  0.08569641  0.98278376  0.90611386  1
  C  C171  1  0.58568259  0.98280134  0.90609999  1
  C  C172  1  0.40614637  0.82874644  0.90656702  1
  C  C173  1  0.90614004  0.82856224  0.90653334  1
  C  C174  1  0.48525025  0.16174824  0.58885941  1
  C  C175  1  0.98531572  0.16150933  0.58899129  1
  C  C176  1  0.09496406  0.02925750  0.58856245  1
  C  C177  1  0.59456682  0.02816546  0.58901304  1
  C  C178  1  0.41934759  0.81198610  0.58911620  1
  C  C179  1  0.91971672  0.81083417  0.58865142  1
  C  C180  1  0.48527188  0.80944048  0.08863508  1
  C  C181  1  0.98554291  0.80988274  0.08859631  1
  C  C182  1  0.41930142  0.02798113  0.08883476  1
  C  C183  1  0.91943183  0.02887228  0.08882075  1
  C  C184  1  0.09455811  0.16097241  0.08858720  1
  C  C185  1  0.59504991  0.16059861  0.08854609  1
  C  C186  1  0.34644852  0.16226236  0.74701985  1
  C  C187  1  0.84650926  0.16229849  0.74697280  1
  C  C188  1  0.23593274  0.31508832  0.74690040  1
  C  C189  1  0.73594844  0.31506995  0.74696569  1
  C  C190  1  0.41871415  0.53497399  0.74620805  1
  C  C191  1  0.91875759  0.53509743  0.74616655  1
  C  C192  1  0.34077426  0.52392635  0.24424450  1
  C  C193  1  0.84303043  0.52853263  0.24722300  1
  C  C194  1  0.41884982  0.31149650  0.24265635  1
  C  C195  1  0.91996411  0.30735091  0.24738020  1
  C  C196  1  0.23595966  0.15523238  0.24723731  1
  C  C197  1  0.73601416  0.16176401  0.24330989  1
  C  C198  1  0.32169713  0.49891005  0.92153626  1
  C  C199  1  0.82172102  0.49870585  0.92162648  1
  C  C200  1  0.42774812  0.35668929  0.92164535  1
  C  C201  1  0.92793415  0.35728310  0.92145490  1
  C  C202  1  0.25084702  0.14400788  0.92150095  1
  C  C203  1  0.75062972  0.14435301  0.92165822  1
  C  C204  1  0.31838109  0.14209866  0.42301758  1
  C  C205  1  0.81949660  0.14253326  0.42107811  1
  C  C206  1  0.25200760  0.36269543  0.42156397  1
  C  C207  1  0.75318319  0.35964913  0.42260591  1
  C  C208  1  0.42642087  0.49531450  0.42235980  1
  C  C209  1  0.92868363  0.49960962  0.42199604  1
  C  C210  1  0.17416276  0.49117393  0.07636110  1
  C  C211  1  0.67490887  0.49204985  0.07674098  1
  C  C212  1  0.07138856  0.65116179  0.07662120  1
  C  C213  1  0.57167277  0.65202009  0.07615777  1
  C  C214  1  0.25379511  0.85717637  0.07684537  1
  C  C215  1  0.75442551  0.85733244  0.07623629  1
  C  C216  1  0.17385307  0.85679955  0.57711029  1
  C  C217  1  0.67381759  0.85653585  0.57706159  1
  C  C218  1  0.25371629  0.65104886  0.57745177  1
  C  C219  1  0.75425742  0.65104327  0.57780334  1
  C  C220  1  0.07143470  0.49130871  0.57678925  1
  C  C221  1  0.57141427  0.49142000  0.57677075  1
  C  C222  1  0.15090367  0.82745688  0.25661896  1
  C  C223  1  0.65269894  0.82705309  0.25629900  1
  C  C224  1  0.26197790  0.70121339  0.25535771  1
  C  C225  1  0.76256075  0.69546119  0.25699920  1
  C  C226  1  0.08631833  0.47088518  0.25808590  1
  C  C227  1  0.58771500  0.47570633  0.25496147  1
  C  C228  1  0.15181302  0.47497657  0.75636931  1
  C  C229  1  0.65189218  0.47509949  0.75645244  1
  C  C230  1  0.08659709  0.69967149  0.75694174  1
  C  C231  1  0.58660005  0.69951366  0.75702148  1
  C  C232  1  0.26505882  0.82575886  0.75645037  1
  C  C233  1  0.76508875  0.82567037  0.75633525  1
