# generated using pymatgen
data_Cu(NiC6)2
_symmetry_space_group_name_H-M   'P 1'
_cell_length_a   5.68667300
_cell_length_b   11.13436100
_cell_length_c   13.76985600
_cell_angle_alpha   90.00000000
_cell_angle_beta   90.00000000
_cell_angle_gamma   90.00000000
_symmetry_Int_Tables_number   1
_chemical_formula_structural   Cu(NiC6)2
_chemical_formula_sum   'Cu4 Ni8 C48'
_cell_volume   871.87244516
_cell_formula_units_Z   4
loop_
 _symmetry_equiv_pos_site_id
 _symmetry_equiv_pos_as_xyz
  1  'x, y, z'
loop_
 _atom_site_type_symbol
 _atom_site_label
 _atom_site_symmetry_multiplicity
 _atom_site_fract_x
 _atom_site_fract_y
 _atom_site_fract_z
 _atom_site_occupancy
  Ni  Ni0  1  0.60342900  0.45884800  0.15026700  1
  Ni  Ni1  1  0.60342900  0.04115200  0.84973300  1
  Ni  Ni2  1  0.89657100  0.95884800  0.34973300  1
  Ni  Ni3  1  0.89657100  0.54115200  0.65026700  1
  Ni  Ni4  1  0.39657100  0.54115200  0.84973300  1
  Ni  Ni5  1  0.39657100  0.95884800  0.15026700  1
  Ni  Ni6  1  0.10342900  0.04115200  0.65026700  1
  Ni  Ni7  1  0.10342900  0.45884800  0.34973300  1
  Cu  Cu8  1  0.60092100  0.25000000  0.50000000  1
  Cu  Cu9  1  0.89907900  0.75000000  0.00000000  1
  Cu  Cu10  1  0.39907900  0.75000000  0.50000000  1
  Cu  Cu11  1  0.10092100  0.25000000  0.00000000  1
  C  C12  1  0.96717300  0.49980300  0.20274400  1
  C  C13  1  0.96717300  0.00019700  0.79725600  1
  C  C14  1  0.53282700  0.99980300  0.29725600  1
  C  C15  1  0.53282700  0.50019700  0.70274400  1
  C  C16  1  0.03282700  0.50019700  0.79725600  1
  C  C17  1  0.03282700  0.99980300  0.20274400  1
  C  C18  1  0.46717300  0.00019700  0.70274400  1
  C  C19  1  0.46717300  0.49980300  0.29725600  1
  C  C20  1  0.73480800  0.43903600  0.40838600  1
  C  C21  1  0.73480800  0.06096400  0.59161400  1
  C  C22  1  0.76519200  0.93903600  0.09161400  1
  C  C23  1  0.76519200  0.56096400  0.90838600  1
  C  C24  1  0.98408400  0.19576500  0.16799000  1
  C  C25  1  0.98408400  0.30423500  0.83201000  1
  C  C26  1  0.51591600  0.69576500  0.33201000  1
  C  C27  1  0.51591600  0.80423500  0.66799000  1
  C  C28  1  0.01591600  0.80423500  0.83201000  1
  C  C29  1  0.01591600  0.69576500  0.16799000  1
  C  C30  1  0.48408400  0.30423500  0.66799000  1
  C  C31  1  0.48408400  0.19576500  0.33201000  1
  C  C32  1  0.11865800  0.27086900  0.31058800  1
  C  C33  1  0.11865800  0.22913100  0.68941200  1
  C  C34  1  0.38134200  0.77086900  0.18941200  1
  C  C35  1  0.38134200  0.72913100  0.81058800  1
  C  C36  1  0.88134200  0.72913100  0.68941200  1
  C  C37  1  0.88134200  0.77086900  0.31058800  1
  C  C38  1  0.61865800  0.22913100  0.81058800  1
  C  C39  1  0.61865800  0.27086900  0.18941200  1
  C  C40  1  0.25590100  0.39845500  0.49157600  1
  C  C41  1  0.25590100  0.10154500  0.50842400  1
  C  C42  1  0.24409900  0.89845500  0.00842400  1
  C  C43  1  0.24409900  0.60154500  0.99157600  1
  C  C44  1  0.74409900  0.60154500  0.50842400  1
  C  C45  1  0.74409900  0.89845500  0.49157600  1
  C  C46  1  0.75590100  0.10154500  0.99157600  1
  C  C47  1  0.75590100  0.39845500  0.00842400  1
  C  C48  1  0.43795100  0.14420800  0.08688000  1
  C  C49  1  0.43795100  0.35579200  0.91312000  1
  C  C50  1  0.06204900  0.64420800  0.41312000  1
  C  C51  1  0.06204900  0.85579200  0.58688000  1
  C  C52  1  0.56204900  0.85579200  0.91312000  1
  C  C53  1  0.56204900  0.64420800  0.08688000  1
  C  C54  1  0.93795100  0.35579200  0.58688000  1
  C  C55  1  0.93795100  0.14420800  0.41312000  1
  C  C56  1  0.23480800  0.43903600  0.09161400  1
  C  C57  1  0.23480800  0.06096400  0.90838600  1
  C  C58  1  0.26519200  0.93903600  0.40838600  1
  C  C59  1  0.26519200  0.56096400  0.59161400  1
