# generated using pymatgen
data_CuNiC
_symmetry_space_group_name_H-M   'P 1'
_cell_length_a   3.95768825
_cell_length_b   3.95768825
_cell_length_c   3.95998018
_cell_angle_alpha   88.87418197
_cell_angle_beta   88.87418197
_cell_angle_gamma   86.96775934
_symmetry_Int_Tables_number   1
_chemical_formula_structural   CuNiC
_chemical_formula_sum   'Cu1 Ni1 C1'
_cell_volume   61.91678739
_cell_formula_units_Z   1
loop_
 _symmetry_equiv_pos_site_id
 _symmetry_equiv_pos_as_xyz
  1  'x, y, z'
loop_
 _atom_site_type_symbol
 _atom_site_label
 _atom_site_symmetry_multiplicity
 _atom_site_fract_x
 _atom_site_fract_y
 _atom_site_fract_z
 _atom_site_occupancy
  C  C0  1  0.01781500  0.01781500  0.03274500  1
  Ni  Ni1  1  0.57449000  0.57449000  0.63680700  1
  Cu  Cu2  1  0.40869500  0.40869600  0.46644800  1
