# generated using pymatgen
data_Cu2Ni5C32
_symmetry_space_group_name_H-M   'P 1'
_cell_length_a   9.55603948
_cell_length_b   9.50036031
_cell_length_c   24.14155606
_cell_angle_alpha   89.93183487
_cell_angle_beta   90.32960429
_cell_angle_gamma   120.07060894
_symmetry_Int_Tables_number   1
_chemical_formula_structural   Cu2Ni5C32
_chemical_formula_sum   'Cu6 Ni15 C96'
_cell_volume   1896.69039461
_cell_formula_units_Z   3
loop_
 _symmetry_equiv_pos_site_id
 _symmetry_equiv_pos_as_xyz
  1  'x, y, z'
loop_
 _atom_site_type_symbol
 _atom_site_label
 _atom_site_symmetry_multiplicity
 _atom_site_fract_x
 _atom_site_fract_y
 _atom_site_fract_z
 _atom_site_occupancy
  Ni  Ni0  1  0.64295523  0.02220269  0.25401537  1
  Ni  Ni1  1  0.00220549  0.63183622  0.23900200  1
  Ni  Ni2  1  0.62644722  0.63171570  0.74086853  1
  Ni  Ni3  1  0.99278760  0.34365588  0.74441282  1
  Ni  Ni4  1  0.30613052  0.35284604  0.58753278  1
  Ni  Ni5  1  0.67020797  0.96613483  0.57506288  1
  Ni  Ni6  1  0.29783677  0.95312326  0.07805221  1
  Ni  Ni7  1  0.69082199  0.02788084  0.90886089  1
  Ni  Ni8  1  0.96149389  0.28517775  0.41063958  1
  Ni  Ni9  1  0.96677890  0.96155970  0.49225017  1
  Ni  Ni10  1  0.01498990  0.97971325  0.99200557  1
  Ni  Ni11  1  0.61559166  0.29584610  0.82414494  1
  Ni  Ni12  1  0.63014994  0.30444719  0.32699529  1
  Ni  Ni13  1  0.30093910  0.62883526  0.15960300  1
  Ni  Ni14  1  0.32470426  0.66256762  0.65865692  1
  Cu  Cu15  1  0.00868370  0.00394496  0.34749583  1
  Cu  Cu16  1  0.02448249  0.00963219  0.84898532  1
  Cu  Cu17  1  0.66587597  0.33083813  0.68125409  1
  Cu  Cu18  1  0.66927857  0.33875338  0.18087897  1
  Cu  Cu19  1  0.32047077  0.65906106  0.01539751  1
  Cu  Cu20  1  0.33678976  0.67272110  0.51393533  1
  C  C21  1  0.00008519  0.99865543  0.65274833  1
  C  C22  1  0.00541581  0.00918164  0.15186352  1
  C  C23  1  0.67974807  0.35383943  0.98504429  1
  C  C24  1  0.67252267  0.34062217  0.48529482  1
  C  C25  1  0.34104815  0.67288868  0.31903256  1
  C  C26  1  0.33322340  0.67809640  0.81903905  1
  C  C27  1  0.30651186  0.00103260  0.24870625  1
  C  C28  1  0.98982516  0.30378949  0.25451840  1
  C  C29  1  0.30879802  0.31034217  0.74764780  1
  C  C30  1  0.70414861  0.00477305  0.75384283  1
  C  C31  1  0.97592735  0.33591888  0.58555817  1
  C  C32  1  0.65617636  0.63660660  0.58717800  1
  C  C33  1  0.98264701  0.64405564  0.08916506  1
  C  C34  1  0.33710920  0.97464721  0.92373549  1
  C  C35  1  0.65053149  0.97704742  0.41849103  1
  C  C36  1  0.70496508  0.69914856  0.25112463  1
  C  C37  1  0.98805627  0.68697544  0.75139126  1
  C  C38  1  0.36938497  0.03063012  0.58384591  1
  C  C39  1  0.65773227  0.02719749  0.08331246  1
  C  C40  1  0.36889410  0.33835083  0.08385862  1
  C  C41  1  0.63928499  0.67964738  0.91600997  1
  C  C42  1  0.02719111  0.35313281  0.91521268  1
  C  C43  1  0.32382765  0.35812818  0.42007197  1
  C  C44  1  0.03435322  0.67072947  0.41579962  1
  C  C45  1  0.21160827  0.00838543  0.29802676  1
  C  C46  1  0.80304228  0.78286600  0.30029423  1
  C  C47  1  0.97729944  0.20976695  0.30798929  1
  C  C48  1  0.21230396  0.20122724  0.79559669  1
  C  C49  1  0.98401402  0.77676769  0.80007906  1
  C  C50  1  0.80304581  0.01481473  0.80575007  1
  C  C51  1  0.78726911  0.98417902  0.70092235  1
  C  C52  1  0.21973149  0.23590341  0.69126625  1
  C  C53  1  0.01025455  0.78075161  0.70007465  1
  C  C54  1  0.78125776  0.79695620  0.20064371  1
  C  C55  1  0.00261657  0.21173007  0.20333789  1
  C  C56  1  0.21135593  0.98125986  0.19367527  1
  C  C57  1  0.89118954  0.34351856  0.63857105  1
  C  C58  1  0.46731066  0.11347187  0.63314477  1
  C  C59  1  0.64609626  0.54543778  0.64111626  1
  C  C60  1  0.90030209  0.55996146  0.14371754  1
  C  C61  1  0.64649922  0.11336824  0.13280290  1
  C  C62  1  0.46124178  0.34877811  0.13400408  1
  C  C63  1  0.45154466  0.32379146  0.03383434  1
  C  C64  1  0.87679246  0.54693397  0.03853615  1
  C  C65  1  0.67332715  0.12342626  0.03247565  1
  C  C66  1  0.44665961  0.12845802  0.53354063  1
  C  C67  1  0.66446975  0.54097317  0.53641634  1
  C  C68  1  0.87047243  0.31715644  0.53322805  1
  C  C69  1  0.54283558  0.68336978  0.96266311  1
  C  C70  1  0.12659031  0.44528636  0.96287274  1
  C  C71  1  0.32665467  0.88228523  0.97747327  1
  C  C72  1  0.55895077  0.88384252  0.47081767  1
  C  C73  1  0.31628759  0.44186646  0.47065417  1
  C  C74  1  0.13297931  0.67899622  0.46390017  1
  C  C75  1  0.10992312  0.65633348  0.36367078  1
  C  C76  1  0.55394977  0.89093087  0.36435897  1
  C  C77  1  0.33700185  0.45659306  0.37039137  1
  C  C78  1  0.10018672  0.43920045  0.86252760  1
  C  C79  1  0.35423263  0.88075560  0.87288701  1
  C  C80  1  0.55185680  0.66218456  0.86263788  1
  C  C81  1  0.01211849  0.81301993  0.41444734  1
  C  C82  1  0.82253187  0.99757374  0.41736076  1
  C  C83  1  0.17063118  0.19902608  0.41668039  1
  C  C84  1  0.00388659  0.18615138  0.91510543  1
  C  C85  1  0.18885809  0.99622548  0.91774744  1
  C  C86  1  0.79704355  0.83539897  0.91563583  1
  C  C87  1  0.98971197  0.17641927  0.58545239  1
  C  C88  1  0.20610725  0.01389493  0.58714768  1
  C  C89  1  0.80591326  0.81311736  0.58531399  1
  C  C90  1  0.00774270  0.82090247  0.08492601  1
  C  C91  1  0.80061489  0.00491200  0.08651383  1
  C  C92  1  0.20715313  0.18381181  0.08458470  1
  C  C93  1  0.69589222  0.16333129  0.74919245  1
  C  C94  1  0.48547405  0.34385761  0.74750346  1
  C  C95  1  0.83447350  0.52817688  0.74870988  1
  C  C96  1  0.69140186  0.53729726  0.24698098  1
  C  C97  1  0.83344579  0.31716864  0.24934027  1
  C  C98  1  0.48198782  0.14805386  0.24683358  1
  C  C99  1  0.66686748  0.53903889  0.91943783  1
  C  C100  1  0.86041280  0.33297615  0.91836614  1
  C  C101  1  0.50123505  0.14203500  0.92228340  1
  C  C102  1  0.67376246  0.15392114  0.41756577  1
  C  C103  1  0.46595516  0.33440324  0.42060558  1
  C  C104  1  0.87310120  0.51611701  0.41827735  1
  C  C105  1  0.34651199  0.48059478  0.08026075  1
  C  C106  1  0.15402374  0.66258617  0.08565468  1
  C  C107  1  0.50580431  0.86657514  0.08022899  1
  C  C108  1  0.35795449  0.86921224  0.57980308  1
  C  C109  1  0.50102905  0.65271102  0.58305236  1
  C  C110  1  0.14976617  0.48326680  0.58104012  1
  C  C111  1  0.32285005  0.84254806  0.25179985  1
  C  C112  1  0.54130244  0.68334127  0.25446720  1
  C  C113  1  0.13896542  0.48083833  0.25433919  1
  C  C114  1  0.31562960  0.48028665  0.75139495  1
  C  C115  1  0.12454538  0.65150646  0.75410262  1
  C  C116  1  0.53257837  0.84767727  0.75473531  1
