# generated using pymatgen
data_Cu3(NiC2)2
_symmetry_space_group_name_H-M   'P 1'
_cell_length_a   7.02101100
_cell_length_b   7.20714300
_cell_length_c   13.53500100
_cell_angle_alpha   90.00000000
_cell_angle_beta   90.00000000
_cell_angle_gamma   90.00000000
_symmetry_Int_Tables_number   1
_chemical_formula_structural   Cu3(NiC2)2
_chemical_formula_sum   'Cu12 Ni8 C16'
_cell_volume   684.89040946
_cell_formula_units_Z   4
loop_
 _symmetry_equiv_pos_site_id
 _symmetry_equiv_pos_as_xyz
  1  'x, y, z'
loop_
 _atom_site_type_symbol
 _atom_site_label
 _atom_site_symmetry_multiplicity
 _atom_site_fract_x
 _atom_site_fract_y
 _atom_site_fract_z
 _atom_site_occupancy
  Ni  Ni0  1  0.49321000  0.33025000  0.40918700  1
  Ni  Ni1  1  0.99321000  0.16975000  0.09081300  1
  Ni  Ni2  1  0.00679000  0.83025000  0.59081300  1
  Ni  Ni3  1  0.50679000  0.66975000  0.90918700  1
  Ni  Ni4  1  0.50679000  0.66975000  0.59081300  1
  Ni  Ni5  1  0.00679000  0.83025000  0.90918700  1
  Ni  Ni6  1  0.99321000  0.16975000  0.40918700  1
  Ni  Ni7  1  0.49321000  0.33025000  0.09081300  1
  Cu  Cu8  1  0.83179300  0.50447400  0.25000000  1
  Cu  Cu9  1  0.33179300  0.99552600  0.25000000  1
  Cu  Cu10  1  0.66820700  0.00447400  0.75000000  1
  Cu  Cu11  1  0.16820700  0.49552600  0.75000000  1
  Cu  Cu12  1  0.16062700  0.66719800  0.12520400  1
  Cu  Cu13  1  0.33937300  0.16719800  0.87479600  1
  Cu  Cu14  1  0.33937300  0.16719800  0.62520400  1
  Cu  Cu15  1  0.83937300  0.33280200  0.87479600  1
  Cu  Cu16  1  0.16062700  0.66719800  0.37479600  1
  Cu  Cu17  1  0.66062700  0.83280200  0.12520400  1
  Cu  Cu18  1  0.83937300  0.33280200  0.62520400  1
  Cu  Cu19  1  0.66062700  0.83280200  0.37479600  1
  C  C20  1  0.80810100  0.64029100  0.75000000  1
  C  C21  1  0.30810100  0.85970900  0.75000000  1
  C  C22  1  0.69189900  0.14029100  0.25000000  1
  C  C23  1  0.19189900  0.35970900  0.25000000  1
  C  C24  1  0.03942400  0.12449800  0.75000000  1
  C  C25  1  0.53942400  0.37550200  0.75000000  1
  C  C26  1  0.46057600  0.62449800  0.25000000  1
  C  C27  1  0.96057600  0.87550200  0.25000000  1
  C  C28  1  0.17314300  0.45716700  0.54315000  1
  C  C29  1  0.67314300  0.04283300  0.95685000  1
  C  C30  1  0.67314300  0.04283300  0.54315000  1
  C  C31  1  0.17314300  0.45716700  0.95685000  1
  C  C32  1  0.82685700  0.54283300  0.45685000  1
  C  C33  1  0.82685700  0.54283300  0.04315000  1
  C  C34  1  0.32685700  0.95716700  0.04315000  1
  C  C35  1  0.32685700  0.95716700  0.45685000  1
