# generated using pymatgen
data_Cu5NiC29
_symmetry_space_group_name_H-M   'P 1'
_cell_length_a   9.42055841
_cell_length_b   9.26434681
_cell_length_c   23.03759805
_cell_angle_alpha   88.89524195
_cell_angle_beta   90.20297590
_cell_angle_gamma   120.99321985
_symmetry_Int_Tables_number   1
_chemical_formula_structural   Cu5NiC29
_chemical_formula_sum   'Cu15 Ni3 C87'
_cell_volume   1723.18667561
_cell_formula_units_Z   3
loop_
 _symmetry_equiv_pos_site_id
 _symmetry_equiv_pos_as_xyz
  1  'x, y, z'
loop_
 _atom_site_type_symbol
 _atom_site_label
 _atom_site_symmetry_multiplicity
 _atom_site_fract_x
 _atom_site_fract_y
 _atom_site_fract_z
 _atom_site_occupancy
  C  C0  1  0.74026213  0.43519495  0.83228948  1
  C  C1  1  0.60366935  0.29632870  0.30330586  1
  C  C2  1  0.30316303  0.71525500  0.16188887  1
  C  C3  1  0.01691399  0.01892987  0.35412927  1
  C  C4  1  0.98452453  0.01215473  0.63871077  1
  C  C5  1  0.00491236  0.00930259  0.14108466  1
  C  C6  1  0.66944777  0.33147030  0.98410479  1
  C  C7  1  0.34425616  0.66165922  0.31265936  1
  C  C8  1  0.31742166  0.65587709  0.80838627  1
  C  C9  1  0.05645242  0.14529849  0.78769011  1
  C  C10  1  0.66175009  0.35045515  0.65060563  1
  C  C11  1  0.62589665  0.31073749  0.15797554  1
  C  C12  1  0.63333544  0.34394350  0.49276912  1
  C  C13  1  0.26601136  0.61794728  0.01806724  1
  C  C14  1  0.27295779  0.67829359  0.54431630  1
  Ni  Ni15  1  0.15093334  0.85261010  0.25588086  1
  Ni  Ni16  1  0.72798943  0.86186984  0.26326079  1
  Ni  Ni17  1  0.02440891  0.51737641  0.90425505  1
  Cu  Cu18  1  0.24056764  0.31931359  0.23504288  1
  Cu  Cu19  1  0.30960707  0.38152480  0.70096945  1
  Cu  Cu20  1  0.02891188  0.73161969  0.73891712  1
  Cu  Cu21  1  0.64134895  0.96536419  0.72175538  1
  Cu  Cu22  1  0.91449878  0.31763093  0.58161432  1
  Cu  Cu23  1  0.34902960  0.05503845  0.57813806  1
  Cu  Cu24  1  0.69431737  0.63978273  0.57332856  1
  Cu  Cu25  1  0.93249693  0.62002644  0.08603820  1
  Cu  Cu26  1  0.70319851  0.02124812  0.05304639  1
  Cu  Cu27  1  0.27704198  0.26355743  0.03221510  1
  Cu  Cu28  1  0.40789477  0.40486411  0.89487249  1
  Cu  Cu29  1  0.56343057  0.00676830  0.89422412  1
  Cu  Cu30  1  0.70206559  0.02062080  0.33458601  1
  Cu  Cu31  1  0.39975694  0.34967070  0.38660398  1
  Cu  Cu32  1  0.96371144  0.61038031  0.34906658  1
  C  C33  1  0.19009898  0.98709087  0.30087720  1
  C  C34  1  0.81769808  0.80296456  0.30320651  1
  C  C35  1  0.00342124  0.16415532  0.30140264  1
  C  C36  1  0.20392865  0.13252085  0.84288351  1
  C  C37  1  0.01047911  0.66893663  0.89163596  1
  C  C38  1  0.87450692  0.08871488  0.84658537  1
  C  C39  1  0.81186646  0.96467588  0.70239643  1
  C  C40  1  0.13995079  0.20425585  0.70454294  1
  C  C41  1  0.05744486  0.86802438  0.69471382  1
  C  C42  1  0.81010876  0.92300044  0.20308887  1
  C  C43  1  0.10972028  0.23114924  0.18841952  1
  C  C44  1  0.11533051  0.90018810  0.19563465  1
  C  C45  1  0.84652961  0.31237546  0.64089347  1
  C  C46  1  0.47294303  0.12326189  0.62525534  1
  C  C47  1  0.64931221  0.54943233  0.63319933  1
  C  C48  1  0.82703059  0.51686728  0.13590827  1
  C  C49  1  0.57342413  0.08315337  0.17816368  1
  C  C50  1  0.40330857  0.38890143  0.18886205  1
  C  C51  1  0.46610565  0.30788066  0.02890820  1
  C  C52  1  0.84346773  0.54928079  0.02957495  1
  C  C53  1  0.71693134  0.20286638  0.04703767  1
  C  C54  1  0.42297621  0.13158830  0.52100494  1
  C  C55  1  0.76315301  0.55207688  0.53783009  1
  C  C56  1  0.78724382  0.25303602  0.53703185  1
  C  C57  1  0.60578864  0.65536540  0.09973008  1
  C  C58  1  0.13909175  0.51407590  0.95087581  1
  C  C59  1  0.39776533  0.84755927  0.03180574  1
  C  C60  1  0.35309684  0.44818343  0.57102655  1
  C  C61  1  0.04879385  0.49285235  0.56938290  1
  C  C62  1  0.60350183  0.90672421  0.57844081  1
  C  C63  1  0.12242988  0.60249817  0.35704585  1
  C  C64  1  0.51184506  0.89366495  0.34739346  1
  C  C65  1  0.37393151  0.49969101  0.36628964  1
  C  C66  1  0.08915627  0.47678779  0.84501812  1
  C  C67  1  0.40768111  0.86231984  0.86838378  1
  C  C68  1  0.44541314  0.56636483  0.86195598  1
  C  C69  1  0.98562372  0.75157308  0.38519977  1
  C  C70  1  0.78497650  0.98420836  0.38663469  1
  C  C71  1  0.22301598  0.20606544  0.40320817  1
  C  C72  1  0.73273913  0.97651955  0.99582303  1
  C  C73  1  0.83761186  0.96808429  0.88290151  1
  C  C74  1  0.37489284  0.27381366  0.83978635  1
  C  C75  1  0.98467015  0.20195501  0.58644608  1
  C  C76  1  0.21273509  0.08818478  0.59232930  1
  C  C77  1  0.85778641  0.81468103  0.58742367  1
  C  C78  1  0.95625918  0.79133010  0.08946582  1
  C  C79  1  0.86919113  0.07495793  0.08931265  1
  C  C80  1  0.21695758  0.14605204  0.08715057  1
  C  C81  1  0.70374939  0.09845869  0.76511298  1
  C  C82  1  0.53464406  0.23128595  0.75681121  1
  C  C83  1  0.66729100  0.37504745  0.73602218  1
  C  C84  1  0.99102707  0.67632744  0.27613447  1
  C  C85  1  0.54037727  0.38580147  0.21937120  1
  C  C86  1  0.63702928  0.12337107  0.23140309  1
  C  C87  1  0.58000155  0.43956892  0.91248082  1
  C  C88  1  0.84041081  0.36328879  0.91950172  1
  C  C89  1  0.51179362  0.09551715  0.93582675  1
  C  C90  1  0.68929015  0.26052826  0.39512416  1
  C  C91  1  0.49667832  0.41212885  0.44154409  1
  C  C92  1  0.79606381  0.38219796  0.42837325  1
  C  C93  1  0.28854557  0.42520467  0.05099785  1
  C  C94  1  0.08975467  0.62305586  0.08724511  1
  C  C95  1  0.51591605  0.71051397  0.11307743  1
  C  C96  1  0.26762731  0.86779724  0.57645237  1
  C  C97  1  0.53984237  0.85050892  0.52903271  1
  C  C98  1  0.32084816  0.49927602  0.52272922  1
  C  C99  1  0.28872386  0.80967725  0.25204462  1
  C  C100  1  0.54230091  0.73018161  0.25509397  1
  C  C101  1  0.23235644  0.47898068  0.24441678  1
  C  C102  1  0.27340331  0.47367076  0.74855816  1
  C  C103  1  0.19689721  0.75525770  0.75557279  1
  C  C104  1  0.53797506  0.79366127  0.75651988  1
