# generated using pymatgen
data_CuNi3C4
_symmetry_space_group_name_H-M   'P 1'
_cell_length_a   7.15717400
_cell_length_b   9.33844384
_cell_length_c   9.44410532
_cell_angle_alpha   72.37690856
_cell_angle_beta   77.28216774
_cell_angle_gamma   80.12740455
_symmetry_Int_Tables_number   1
_chemical_formula_structural   CuNi3C4
_chemical_formula_sum   'Cu4 Ni12 C16'
_cell_volume   583.09044931
_cell_formula_units_Z   4
loop_
 _symmetry_equiv_pos_site_id
 _symmetry_equiv_pos_as_xyz
  1  'x, y, z'
loop_
 _atom_site_type_symbol
 _atom_site_label
 _atom_site_symmetry_multiplicity
 _atom_site_fract_x
 _atom_site_fract_y
 _atom_site_fract_z
 _atom_site_occupancy
  C  C0  1  0.91720200  0.30581000  0.06076900  1
  C  C1  1  0.08279800  0.69419000  0.93923100  1
  C  C2  1  0.59997200  0.19174200  0.44789100  1
  C  C3  1  0.40002800  0.80825800  0.55210900  1
  Ni  Ni4  1  0.29925500  0.41559400  0.51417200  1
  Ni  Ni5  1  0.70074500  0.58440600  0.48582800  1
  Ni  Ni6  1  0.19352000  0.27917000  0.49993800  1
  Ni  Ni7  1  0.80648000  0.72083000  0.50006200  1
  Ni  Ni8  1  0.27264400  0.26143800  0.65593300  1
  Ni  Ni9  1  0.72735600  0.73856200  0.34406700  1
  Ni  Ni10  1  0.57171600  0.23641100  0.00764300  1
  Ni  Ni11  1  0.42828400  0.76358900  0.99235700  1
  Ni  Ni12  1  0.72915200  0.24626200  0.85042400  1
  Ni  Ni13  1  0.27084800  0.75373800  0.14957600  1
  Ni  Ni14  1  0.73928600  0.09398000  0.99429400  1
  Ni  Ni15  1  0.26071400  0.90602000  0.00570600  1
  Cu  Cu16  1  0.30558200  0.29967500  0.53991100  1
  Cu  Cu17  1  0.28559700  0.78969000  0.03371300  1
  Cu  Cu18  1  0.71440300  0.21031000  0.96628700  1
  Cu  Cu19  1  0.69441800  0.70032500  0.46008900  1
  C  C20  1  0.90606500  0.09028000  0.29673500  1
  C  C21  1  0.41468300  0.04697900  0.33953000  1
  C  C22  1  0.19598000  0.18145800  0.93594100  1
  C  C23  1  0.80402000  0.81854200  0.06405900  1
  C  C24  1  0.75984400  0.30774900  0.57471100  1
  C  C25  1  0.24015600  0.69225100  0.42528900  1
  C  C26  1  0.89612200  0.54233800  0.84580900  1
  C  C27  1  0.10387800  0.45766200  0.15419100  1
  C  C28  1  0.39564100  0.59115000  0.78691200  1
  C  C29  1  0.09393500  0.90972000  0.70326500  1
  C  C30  1  0.60435900  0.40885000  0.21308800  1
  C  C31  1  0.58531700  0.95302100  0.66047000  1
