# generated using pymatgen
data_Cu6NiC15
_symmetry_space_group_name_H-M   'P 1'
_cell_length_a   7.97700727
_cell_length_b   7.97702111
_cell_length_c   10.39991412
_cell_angle_alpha   71.44746763
_cell_angle_beta   108.55187903
_cell_angle_gamma   153.08744755
_symmetry_Int_Tables_number   1
_chemical_formula_structural   Cu6NiC15
_chemical_formula_sum   'Cu6 Ni1 C15'
_cell_volume   283.05647229
_cell_formula_units_Z   1
loop_
 _symmetry_equiv_pos_site_id
 _symmetry_equiv_pos_as_xyz
  1  'x, y, z'
loop_
 _atom_site_type_symbol
 _atom_site_label
 _atom_site_symmetry_multiplicity
 _atom_site_fract_x
 _atom_site_fract_y
 _atom_site_fract_z
 _atom_site_occupancy
  Ni  Ni0  1  0.42783200  0.57249000  0.67600700  1
  Cu  Cu1  1  0.12162500  0.87875600  0.11047000  1
  Cu  Cu2  1  0.88386100  0.11653100  0.89770400  1
  Cu  Cu3  1  0.27330500  0.72702500  0.40313900  1
  Cu  Cu4  1  0.34138600  0.65895600  0.10775700  1
  Cu  Cu5  1  0.66619700  0.33448500  0.89461700  1
  Cu  Cu6  1  0.70861400  0.29175800  0.58637700  1
  C  C7  1  0.18216900  0.81818600  0.93889200  1
  C  C8  1  0.12034100  0.88003900  0.26796800  1
  C  C9  1  0.24389700  0.75645200  0.58374000  1
  C  C10  1  0.37107500  0.62924500  0.93129600  1
  C  C11  1  0.26577100  0.73453800  0.20895600  1
  C  C12  1  0.38706400  0.61323000  0.47694900  1
  C  C13  1  0.44066300  0.55972800  0.22022500  1
  C  C14  1  0.56146000  0.43899900  0.78296700  1
  C  C15  1  0.00566500  0.99470400  0.00935600  1
  C  C16  1  0.59955800  0.40086100  0.53577300  1
  C  C17  1  0.73670100  0.26368200  0.78110500  1
  C  C18  1  0.64050100  0.35983600  0.06818800  1
  C  C19  1  0.74095000  0.25939900  0.42304200  1
  C  C20  1  0.89525900  0.10515000  0.73089400  1
  C  C21  1  0.81943900  0.18094900  0.04582800  1
