# generated using pymatgen
data_Cu2NiC15
_symmetry_space_group_name_H-M   'P 1'
_cell_length_a   9.20797920
_cell_length_b   9.19566639
_cell_length_c   24.39289993
_cell_angle_alpha   90.04162097
_cell_angle_beta   89.95623718
_cell_angle_gamma   119.92709470
_symmetry_Int_Tables_number   1
_chemical_formula_structural   Cu2NiC15
_chemical_formula_sum   'Cu12 Ni6 C90'
_cell_volume   1790.02882217
_cell_formula_units_Z   6
loop_
 _symmetry_equiv_pos_site_id
 _symmetry_equiv_pos_as_xyz
  1  'x, y, z'
loop_
 _atom_site_type_symbol
 _atom_site_label
 _atom_site_symmetry_multiplicity
 _atom_site_fract_x
 _atom_site_fract_y
 _atom_site_fract_z
 _atom_site_occupancy
  Ni  Ni0  1  0.98539343  0.98230543  0.50825116  1
  Ni  Ni1  1  0.00001997  0.00003852  0.99783516  1
  Ni  Ni2  1  0.66888288  0.31770604  0.82040412  1
  Ni  Ni3  1  0.65090929  0.31943635  0.33493205  1
  Ni  Ni4  1  0.33058155  0.68118772  0.17487940  1
  Ni  Ni5  1  0.36356929  0.67721264  0.66427771  1
  Cu  Cu6  1  0.01211949  0.00197049  0.35112564  1
  Cu  Cu7  1  0.99088633  0.00271179  0.84575678  1
  Cu  Cu8  1  0.97860854  0.98734824  0.64819244  1
  Cu  Cu9  1  0.00875295  0.99720129  0.15232140  1
  Cu  Cu10  1  0.66495846  0.33297659  0.68268127  1
  Cu  Cu11  1  0.65728319  0.32440653  0.18845229  1
  Cu  Cu12  1  0.66697746  0.33260654  0.98089933  1
  Cu  Cu13  1  0.66797259  0.34299974  0.48572603  1
  Cu  Cu14  1  0.33306461  0.66727366  0.01726917  1
  Cu  Cu15  1  0.34412249  0.66682496  0.52153114  1
  Cu  Cu16  1  0.33259089  0.67611299  0.31539398  1
  Cu  Cu17  1  0.34308103  0.67516058  0.81010671  1
  C  C18  1  0.29737385  0.99693062  0.25005527  1
  C  C19  1  0.70253002  0.00793870  0.75019389  1
  C  C20  1  0.66831900  0.63106223  0.58396977  1
  C  C21  1  0.70541501  0.70646279  0.24994680  1
  C  C22  1  0.00145563  0.29466564  0.24985007  1
  C  C23  1  0.29483635  0.29304396  0.75026857  1
  C  C24  1  0.99901769  0.70422493  0.75080080  1
  C  C25  1  0.96263306  0.33420427  0.58246070  1
  C  C26  1  0.37003918  0.03860836  0.58272873  1
  C  C27  1  0.95982762  0.62710665  0.08266330  1
  C  C28  1  0.66772934  0.03854944  0.08256700  1
  C  C29  1  0.37201617  0.33389470  0.08253840  1
  C  C30  1  0.62862200  0.66716129  0.91774121  1
  C  C31  1  0.04037048  0.37186907  0.91765622  1
  C  C32  1  0.33139280  0.96092897  0.91769546  1
  C  C33  1  0.62969375  0.96340918  0.41617819  1
  C  C34  1  0.33353487  0.37297302  0.41588603  1
  C  C35  1  0.03709278  0.66372861  0.41686714  1
  C  C36  1  0.20554143  0.02098684  0.30339914  1
  C  C37  1  0.80632915  0.78761039  0.29901326  1
  C  C38  1  0.97402307  0.19072926  0.29888404  1
  C  C39  1  0.21524634  0.19185306  0.80083467  1
  C  C40  1  0.98110694  0.78651300  0.80118374  1
  C  C41  1  0.80964251  0.02421772  0.80668220  1
  C  C42  1  0.79368382  0.98176403  0.69748162  1
  C  C43  1  0.19556026  0.21274883  0.70116972  1
  C  C44  1  0.02722172  0.80832646  0.70197576  1
  C  C45  1  0.78225022  0.80879150  0.19978010  1
  C  C46  1  0.02002027  0.21346505  0.19963232  1
  C  C47  1  0.18760096  0.97613549  0.19446741  1
  C  C48  1  0.88268499  0.35407465  0.63203759  1
  C  C49  1  0.47378236  0.11428088  0.63207618  1
  C  C50  1  0.64605322  0.51840759  0.63802884  1
  C  C51  1  0.88141755  0.52703524  0.13211425  1
  C  C52  1  0.64563619  0.11859285  0.13188133  1
  C  C53  1  0.47377418  0.35647079  0.13180334  1
  C  C54  1  0.45430648  0.31295426  0.03313122  1
  C  C55  1  0.85813705  0.54324837  0.03312408  1
  C  C56  1  0.68637789  0.14119210  0.03311627  1
  C  C57  1  0.45345425  0.13830742  0.53284848  1
  C  C58  1  0.68572549  0.53966925  0.52831527  1
  C  C59  1  0.85856428  0.30826423  0.53290240  1
  C  C60  1  0.54587355  0.68766697  0.96768291  1
  C  C61  1  0.14202379  0.45624652  0.96775038  1
  C  C62  1  0.31346303  0.85857288  0.96771722  1
  C  C63  1  0.54762401  0.86135328  0.46519812  1
  C  C64  1  0.31395499  0.45484170  0.46501824  1
  C  C65  1  0.13885947  0.68561979  0.46568126  1
  C  C66  1  0.11944916  0.64583983  0.36665018  1
  C  C67  1  0.52738051  0.88024848  0.36634657  1
  C  C68  1  0.35307914  0.47337663  0.36598651  1
  C  C69  1  0.11807238  0.47257002  0.86875730  1
  C  C70  1  0.35432496  0.88146720  0.86892377  1
  C  C71  1  0.52641834  0.64335337  0.86899041  1
  C  C72  1  0.01647383  0.81427794  0.41118509  1
  C  C73  1  0.79751957  0.97911418  0.41016908  1
  C  C74  1  0.17955413  0.20458538  0.41148330  1
  C  C75  1  0.02403034  0.20287428  0.91502020  1
  C  C76  1  0.18133562  0.97969193  0.91426530  1
  C  C77  1  0.79837319  0.81689312  0.91415264  1
  C  C78  1  0.98739457  0.18747276  0.58709524  1
  C  C79  1  0.20500390  0.02669394  0.58813645  1
  C  C80  1  0.83683340  0.81726481  0.58481114  1
  C  C81  1  0.97583266  0.79608479  0.08602161  1
  C  C82  1  0.81807232  0.02034906  0.08690324  1
  C  C83  1  0.20242948  0.18387273  0.08684024  1
  C  C84  1  0.68198111  0.17357235  0.74759136  1
  C  C85  1  0.46500137  0.31483189  0.74723542  1
  C  C86  1  0.84693990  0.53758001  0.74644294  1
  C  C87  1  0.69329510  0.53975281  0.24341125  1
  C  C88  1  0.85347139  0.31780866  0.24337528  1
  C  C89  1  0.48392040  0.16625990  0.24516931  1
  C  C90  1  0.64481827  0.51452444  0.92485302  1
  C  C91  1  0.87029355  0.35308562  0.92490924  1
  C  C92  1  0.48431818  0.12963188  0.92459233  1
  C  C93  1  0.64616730  0.13189662  0.42022734  1
  C  C94  1  0.48289965  0.35113151  0.42004906  1
  C  C95  1  0.86890670  0.51052453  0.41991428  1
  C  C96  1  0.35546976  0.48623987  0.07643629  1
  C  C97  1  0.13004509  0.64632486  0.07641305  1
  C  C98  1  0.51506054  0.86983098  0.07660979  1
  C  C99  1  0.34848148  0.86788039  0.57660319  1
  C  C100  1  0.49926781  0.64992175  0.57925817  1
  C  C101  1  0.12794360  0.48892567  0.57611144  1
  C  C102  1  0.31707714  0.82940130  0.25342604  1
  C  C103  1  0.53455484  0.68267776  0.25514731  1
  C  C104  1  0.15471049  0.46120150  0.25519179  1
  C  C105  1  0.30789766  0.46041262  0.75713982  1
  C  C106  1  0.14749392  0.68240919  0.75764135  1
  C  C107  1  0.51679374  0.83596055  0.75547796  1
