# generated using pymatgen
data_CuNi2C33
_symmetry_space_group_name_H-M   'P 1'
_cell_length_a   8.83498650
_cell_length_b   8.82438521
_cell_length_c   22.58564752
_cell_angle_alpha   89.31595726
_cell_angle_beta   90.20533996
_cell_angle_gamma   120.01574759
_symmetry_Int_Tables_number   1
_chemical_formula_structural   CuNi2C33
_chemical_formula_sum   'Cu3 Ni6 C99'
_cell_volume   1524.58620144
_cell_formula_units_Z   3
loop_
 _symmetry_equiv_pos_site_id
 _symmetry_equiv_pos_as_xyz
  1  'x, y, z'
loop_
 _atom_site_type_symbol
 _atom_site_label
 _atom_site_symmetry_multiplicity
 _atom_site_fract_x
 _atom_site_fract_y
 _atom_site_fract_z
 _atom_site_occupancy
  Ni  Ni0  1  0.99550107  0.99040535  0.50321288  1
  Ni  Ni1  1  0.02608990  0.01685766  0.99554447  1
  Ni  Ni2  1  0.67272568  0.32331133  0.83382578  1
  Ni  Ni3  1  0.65791795  0.30161267  0.33554856  1
  Ni  Ni4  1  0.33725594  0.66618430  0.16433446  1
  Ni  Ni5  1  0.36530461  0.68613209  0.67478619  1
  Cu  Cu6  1  0.98690643  0.99361513  0.64630612  1
  Cu  Cu7  1  0.00699086  0.00859944  0.13718565  1
  Cu  Cu8  1  0.34102294  0.67786836  0.31851745  1
  C  C9  1  0.98464396  0.99630459  0.35449329  1
  C  C10  1  0.99792669  0.02083335  0.85529774  1
  C  C11  1  0.66883197  0.33761739  0.69113152  1
  C  C12  1  0.65078619  0.33528558  0.18204701  1
  C  C13  1  0.65041711  0.32393495  0.97168622  1
  C  C14  1  0.67032087  0.33761218  0.48253173  1
  C  C15  1  0.31303370  0.64872205  0.01771375  1
  C  C16  1  0.36025866  0.67642670  0.52212955  1
  C  C17  1  0.33020718  0.68436114  0.81920074  1
  C  C18  1  0.69857939  0.99342707  0.74869956  1
  C  C19  1  0.66393246  0.61532441  0.58321136  1
  C  C20  1  0.38572547  0.35387831  0.07539623  1
  C  C21  1  0.03817765  0.37910245  0.91701118  1
  C  C22  1  0.31423752  0.94936613  0.91964389  1
  C  C23  1  0.63219750  0.97457394  0.41656413  1
  C  C24  1  0.30301441  0.01633529  0.24881487  1
  C  C25  1  0.71729538  0.69706988  0.24948391  1
  C  C26  1  0.98534469  0.28620584  0.25074207  1
  C  C27  1  0.29971568  0.30070707  0.75242782  1
  C  C28  1  0.00010385  0.69843815  0.75147683  1
  C  C29  1  0.96517823  0.35737755  0.58245124  1
  C  C30  1  0.39143446  0.03963806  0.58244193  1
  C  C31  1  0.95353299  0.60241244  0.08014530  1
  C  C32  1  0.64470976  0.04592605  0.08123530  1
  C  C33  1  0.62199478  0.67207900  0.91642927  1
  C  C34  1  0.32824869  0.35796355  0.41968441  1
  C  C35  1  0.03352115  0.67252430  0.41809216  1
  C  C36  1  0.21535359  0.02772231  0.30365811  1
  C  C37  1  0.82269479  0.79412809  0.30409716  1
  C  C38  1  0.98189108  0.17430717  0.30489967  1
  C  C39  1  0.20996107  0.18544083  0.80531972  1
  C  C40  1  0.97529041  0.78356161  0.80283007  1
  C  C41  1  0.83821633  0.02542021  0.80446002  1
  C  C42  1  0.75158255  0.94373918  0.68855147  1
  C  C43  1  0.20252308  0.22930847  0.69798937  1
  C  C44  1  0.03295658  0.79337192  0.69561767  1
  C  C45  1  0.79840728  0.79801887  0.19618437  1
  C  C46  1  0.99937625  0.20579247  0.19696296  1
  C  C47  1  0.21015148  0.01253352  0.19515754  1
  C  C48  1  0.87225840  0.35807070  0.63717945  1
  C  C49  1  0.49068116  0.12180873  0.63713956  1
  C  C50  1  0.64519628  0.49704612  0.64330384  1
  C  C51  1  0.86484895  0.50530935  0.13705531  1
  C  C52  1  0.64796291  0.14861992  0.13584467  1
  C  C53  1  0.49868629  0.35841379  0.13872612  1
  C  C54  1  0.51059341  0.35524480  0.02223532  1
  C  C55  1  0.86156590  0.50503602  0.02766744  1
  C  C56  1  0.65823233  0.14548657  0.02655673  1
  C  C57  1  0.49142195  0.13166468  0.52829248  1
  C  C58  1  0.64651655  0.48884017  0.52781100  1
  C  C59  1  0.85953002  0.34586725  0.52919288  1
  C  C60  1  0.53812435  0.68927963  0.97082761  1
  C  C61  1  0.16017801  0.46069882  0.97738028  1
  C  C62  1  0.29822105  0.82573571  0.97691410  1
  C  C63  1  0.52794877  0.82924234  0.47248393  1
  C  C64  1  0.30454692  0.44945498  0.47094395  1
  C  C65  1  0.14762907  0.69503485  0.46891736  1
  C  C66  1  0.08962231  0.63147824  0.36306086  1
  C  C67  1  0.52621138  0.92089705  0.35724912  1
  C  C68  1  0.36396883  0.45722676  0.36467307  1
  C  C69  1  0.14743604  0.50247917  0.86214343  1
  C  C70  1  0.35407183  0.86381864  0.86223483  1
  C  C71  1  0.51392181  0.64650166  0.86360880  1
  C  C72  1  0.02818706  0.84040209  0.41083827  1
  C  C73  1  0.82265013  0.97515769  0.40638846  1
  C  C74  1  0.16401611  0.18330396  0.41503177  1
  C  C75  1  0.01689594  0.18379546  0.90865349  1
  C  C76  1  0.14259934  0.96611660  0.90757566  1
  C  C77  1  0.79632080  0.83163021  0.91127242  1
  C  C78  1  0.99437077  0.20840398  0.58101620  1
  C  C79  1  0.22157785  0.02958314  0.58106885  1
  C  C80  1  0.83121343  0.80204882  0.57607461  1
  C  C81  1  0.96888231  0.77505525  0.07962866  1
  C  C82  1  0.79569314  0.02071247  0.08284349  1
  C  C83  1  0.19995585  0.18284764  0.07208726  1
  C  C84  1  0.68589456  0.17576487  0.74110339  1
  C  C85  1  0.47452133  0.30693685  0.74898720  1
  C  C86  1  0.83665389  0.51842064  0.74693414  1
  C  C87  1  0.71960714  0.52680419  0.24856453  1
  C  C88  1  0.81714223  0.28588467  0.25259245  1
  C  C89  1  0.48296821  0.18405649  0.24671935  1
  C  C90  1  0.64964491  0.51824693  0.91931052  1
  C  C91  1  0.84573348  0.35800214  0.92362519  1
  C  C92  1  0.48750188  0.14782300  0.92553489  1
  C  C93  1  0.68709176  0.17397471  0.43324393  1
  C  C94  1  0.47465605  0.32058973  0.42905668  1
  C  C95  1  0.84792434  0.53180862  0.42908372  1
  C  C96  1  0.38610393  0.53981882  0.07638624  1
  C  C97  1  0.13131759  0.61836842  0.08279200  1
  C  C98  1  0.47837103  0.87996086  0.08405040  1
  C  C99  1  0.36758136  0.85764384  0.58008635  1
  C  C100  1  0.47745292  0.62403578  0.57578368  1
  C  C101  1  0.13324614  0.52521264  0.57827897  1
  C  C102  1  0.33005221  0.86548195  0.24958229  1
  C  C103  1  0.53673776  0.65953673  0.25472472  1
  C  C104  1  0.13495574  0.46232168  0.25672197  1
  C  C105  1  0.33090200  0.47904913  0.76136598  1
  C  C106  1  0.14839207  0.66340446  0.75977876  1
  C  C107  1  0.50231996  0.83316116  0.76659860  1
