# generated using pymatgen
data_Cu2Ni7C32
_symmetry_space_group_name_H-M   'P 1'
_cell_length_a   9.19936601
_cell_length_b   9.20517546
_cell_length_c   22.21903863
_cell_angle_alpha   89.86267312
_cell_angle_beta   90.16401108
_cell_angle_gamma   119.72533064
_symmetry_Int_Tables_number   1
_chemical_formula_structural   Cu2Ni7C32
_chemical_formula_sum   'Cu6 Ni21 C96'
_cell_volume   1633.95159863
_cell_formula_units_Z   3
loop_
 _symmetry_equiv_pos_site_id
 _symmetry_equiv_pos_as_xyz
  1  'x, y, z'
loop_
 _atom_site_type_symbol
 _atom_site_label
 _atom_site_symmetry_multiplicity
 _atom_site_fract_x
 _atom_site_fract_y
 _atom_site_fract_z
 _atom_site_occupancy
  Ni  Ni0  1  0.35702600  0.36454878  0.25441523  1
  Ni  Ni1  1  0.01328567  0.64307629  0.25536664  1
  Ni  Ni2  1  0.63077899  0.64418325  0.75052798  1
  Ni  Ni3  1  0.00772821  0.37054727  0.75303839  1
  Ni  Ni4  1  0.35180697  0.98491423  0.75484619  1
  Ni  Ni5  1  0.29782600  0.31747068  0.58213837  1
  Ni  Ni6  1  0.01960328  0.69937248  0.58539992  1
  Ni  Ni7  1  0.67942957  0.97512841  0.58889143  1
  Ni  Ni8  1  0.29928018  0.98163404  0.08694425  1
  Ni  Ni9  1  0.68298789  0.70325003  0.08355805  1
  Ni  Ni10  1  0.02436924  0.32321197  0.08665494  1
  Ni  Ni11  1  0.96435575  0.65802167  0.92290106  1
  Ni  Ni12  1  0.68948550  0.03319105  0.92177497  1
  Ni  Ni13  1  0.96724134  0.31009867  0.42012379  1
  Ni  Ni14  1  0.34555650  0.03460326  0.42251548  1
  Ni  Ni15  1  0.99601287  0.98604426  0.49990554  1
  Ni  Ni16  1  0.01523340  0.00315274  0.99966831  1
  Ni  Ni17  1  0.65070758  0.33933599  0.83609509  1
  Ni  Ni18  1  0.66100296  0.33284836  0.33404356  1
  Ni  Ni19  1  0.35494462  0.68651489  0.17005952  1
  Ni  Ni20  1  0.34093297  0.67161063  0.66815259  1
  Cu  Cu21  1  0.00025165  0.99899180  0.65165178  1
  Cu  Cu22  1  0.99578718  0.99787420  0.15311063  1
  Cu  Cu23  1  0.65846117  0.33550146  0.98214764  1
  Cu  Cu24  1  0.66498202  0.34178683  0.48064228  1
  Cu  Cu25  1  0.34501857  0.67303411  0.31659161  1
  Cu  Cu26  1  0.33409134  0.66379230  0.81982545  1
  C  C27  1  0.99297921  0.99593534  0.34793264  1
  C  C28  1  0.99617534  0.00667785  0.84761989  1
  C  C29  1  0.66179209  0.31679249  0.68120632  1
  C  C30  1  0.67915050  0.33490569  0.18121507  1
  C  C31  1  0.32184664  0.65871401  0.01503734  1
  C  C32  1  0.34505277  0.67923729  0.51505852  1
  C  C33  1  0.70080921  0.01049085  0.74665842  1
  C  C34  1  0.37013175  0.02455919  0.57844184  1
  C  C35  1  0.97476229  0.63003475  0.07946693  1
  C  C36  1  0.30423622  0.01375476  0.24963008  1
  C  C37  1  0.70824007  0.69152925  0.24762730  1
  C  C38  1  0.98383046  0.29130956  0.24931587  1
  C  C39  1  0.30274498  0.29001267  0.74882924  1
  C  C40  1  0.98585365  0.69568707  0.75134730  1
  C  C41  1  0.97116227  0.34711597  0.58182729  1
  C  C42  1  0.65330199  0.62140969  0.58566462  1
  C  C43  1  0.65369952  0.03123381  0.08135212  1
  C  C44  1  0.37766545  0.34701849  0.08643953  1
  C  C45  1  0.64197415  0.68373039  0.91506492  1
  C  C46  1  0.03928092  0.35636911  0.91508887  1
  C  C47  1  0.31807428  0.95583221  0.91553804  1
  C  C48  1  0.64260989  0.95985978  0.41651126  1
  C  C49  1  0.31545374  0.35899007  0.41435833  1
  C  C50  1  0.04768724  0.68267520  0.41398468  1
  C  C51  1  0.18989446  0.02699069  0.30341979  1
  C  C52  1  0.83377586  0.81032230  0.29997713  1
  C  C53  1  0.97061954  0.17133953  0.30408954  1
  C  C54  1  0.19151944  0.16483924  0.80166731  1
  C  C55  1  0.97536205  0.80773413  0.80528093  1
  C  C56  1  0.83783057  0.03222647  0.80480327  1
  C  C57  1  0.77392527  0.98037199  0.68667239  1
  C  C58  1  0.21201570  0.22497874  0.68933326  1
  C  C59  1  0.02025858  0.79367359  0.69288907  1
  C  C60  1  0.77421817  0.77662125  0.18743737  1
  C  C61  1  0.01301959  0.22538765  0.19097024  1
  C  C62  1  0.21201282  0.99445174  0.19070259  1
  C  C63  1  0.86515487  0.36154351  0.63758126  1
  C  C64  1  0.50438671  0.13693968  0.63772946  1
  C  C65  1  0.63342725  0.50663241  0.64277966  1
  C  C66  1  0.86158336  0.49378919  0.13800880  1
  C  C67  1  0.63829695  0.14199578  0.13482564  1
  C  C68  1  0.49646451  0.36626154  0.14279328  1
  C  C69  1  0.44535279  0.30318319  0.03176200  1
  C  C70  1  0.86942007  0.55434274  0.02000047  1
  C  C71  1  0.68085814  0.12606156  0.02287707  1
  C  C72  1  0.44714335  0.13139793  0.51955501  1
  C  C73  1  0.69066506  0.54907090  0.53102513  1
  C  C74  1  0.87163566  0.32123534  0.52464138  1
  C  C75  1  0.53389839  0.69367962  0.96957743  1
  C  C76  1  0.15945023  0.46526711  0.97023314  1
  C  C77  1  0.30413168  0.82788932  0.96988471  1
  C  C78  1  0.54266182  0.84329500  0.47399820  1
  C  C79  1  0.30609357  0.46695788  0.46941273  1
  C  C80  1  0.17509395  0.70350549  0.46889673  1
  C  C81  1  0.12041065  0.66101573  0.35612687  1
  C  C82  1  0.53039180  0.88682402  0.36294526  1
  C  C83  1  0.32771654  0.44676698  0.35543629  1
  C  C84  1  0.10653324  0.45386065  0.85725280  1
  C  C85  1  0.33678603  0.88257452  0.85710419  1
  C  C86  1  0.55646392  0.67072809  0.85524962  1
  C  C87  1  0.04383752  0.85188978  0.41266179  1
  C  C88  1  0.81443809  0.96318515  0.41153706  1
  C  C89  1  0.14291647  0.18632599  0.41506498  1
  C  C90  1  0.03584254  0.18452330  0.91361011  1
  C  C91  1  0.14892374  0.95546005  0.91708822  1
  C  C92  1  0.81399341  0.85623951  0.91580620  1
  C  C93  1  0.00142215  0.19871637  0.58890083  1
  C  C94  1  0.18146315  0.98800586  0.58620062  1
  C  C95  1  0.79684596  0.80201547  0.59126199  1
  C  C96  1  0.01132818  0.81869839  0.08742469  1
  C  C97  1  0.80282060  0.00322317  0.09027647  1
  C  C98  1  0.19590292  0.20738854  0.09402345  1
  C  C99  1  0.70567074  0.19605936  0.74397342  1
  C  C100  1  0.47277149  0.28959859  0.74945074  1
  C  C101  1  0.81485169  0.52959348  0.75101394  1
  C  C102  1  0.71613447  0.52466565  0.25038994  1
  C  C103  1  0.81592927  0.29832956  0.24629211  1
  C  C104  1  0.47243973  0.18314959  0.25105669  1
  C  C105  1  0.67804863  0.53908042  0.91945227  1
  C  C106  1  0.86126450  0.32595495  0.92343619  1
  C  C107  1  0.47366699  0.12502238  0.92349228  1
  C  C108  1  0.67775334  0.13962250  0.42419961  1
  C  C109  1  0.45957346  0.32158910  0.41842893  1
  C  C110  1  0.87732960  0.52895388  0.42302754  1
  C  C111  1  0.38294829  0.52050765  0.08023523  1
  C  C112  1  0.15752398  0.62734898  0.07572977  1
  C  C113  1  0.48515188  0.86102721  0.08160962  1
  C  C114  1  0.37235915  0.84239355  0.57581495  1
  C  C115  1  0.48069714  0.61969380  0.57978606  1
  C  C116  1  0.14102911  0.51634693  0.58174799  1
  C  C117  1  0.31987001  0.85786265  0.25664013  1
  C  C118  1  0.52814260  0.65251290  0.25502621  1
  C  C119  1  0.13102773  0.46914369  0.25787775  1
  C  C120  1  0.33046464  0.46687132  0.75719539  1
  C  C121  1  0.13123967  0.66070976  0.75926661  1
  C  C122  1  0.51253652  0.85888589  0.75451910  1
