# generated using pymatgen
data_Cu6Ni4C7
_symmetry_space_group_name_H-M   'P 1'
_cell_length_a   6.17051597
_cell_length_b   7.37147414
_cell_length_c   9.50927264
_cell_angle_alpha   82.05202263
_cell_angle_beta   84.40753935
_cell_angle_gamma   77.48218365
_symmetry_Int_Tables_number   1
_chemical_formula_structural   Cu6Ni4C7
_chemical_formula_sum   'Cu6 Ni4 C7'
_cell_volume   417.17885404
_cell_formula_units_Z   1
loop_
 _symmetry_equiv_pos_site_id
 _symmetry_equiv_pos_as_xyz
  1  'x, y, z'
loop_
 _atom_site_type_symbol
 _atom_site_label
 _atom_site_symmetry_multiplicity
 _atom_site_fract_x
 _atom_site_fract_y
 _atom_site_fract_z
 _atom_site_occupancy
  C  C0  1  -0.00000000  0.50000000  -0.00000000  1
  C  C1  1  0.21065641  0.98640630  0.89545245  1
  C  C2  1  0.78934359  0.01359370  0.10454755  1
  C  C3  1  0.81492228  0.29481041  0.77676365  1
  C  C4  1  0.77597887  0.77936129  0.40205591  1
  C  C5  1  0.22402113  0.22063871  0.59794409  1
  C  C6  1  0.18507772  0.70518959  0.22323635  1
  Ni  Ni7  1  0.17599153  0.68588233  0.79230671  1
  Ni  Ni8  1  0.63319661  0.77290661  0.98304592  1
  Ni  Ni9  1  0.36680339  0.22709339  0.01695408  1
  Ni  Ni10  1  0.82400847  0.31411767  0.20769329  1
  Cu  Cu11  1  0.31419180  0.07318735  0.72515122  1
  Cu  Cu12  1  0.68580820  0.92681265  0.27484878  1
  Cu  Cu13  1  0.06918417  0.87078652  0.10656679  1
  Cu  Cu14  1  0.97074426  0.32660752  0.63437370  1
  Cu  Cu15  1  0.02925574  0.67339248  0.36562630  1
  Cu  Cu16  1  0.93081583  0.12921348  0.89343321  1
