# generated using pymatgen
data_CuNiC17
_symmetry_space_group_name_H-M   'P 1'
_cell_length_a   7.04681096
_cell_length_b   6.64468245
_cell_length_c   5.89938115
_cell_angle_alpha   74.10439537
_cell_angle_beta   103.05718940
_cell_angle_gamma   98.91113514
_symmetry_Int_Tables_number   1
_chemical_formula_structural   CuNiC17
_chemical_formula_sum   'Cu1 Ni1 C17'
_cell_volume   257.52137724
_cell_formula_units_Z   1
loop_
 _symmetry_equiv_pos_site_id
 _symmetry_equiv_pos_as_xyz
  1  'x, y, z'
loop_
 _atom_site_type_symbol
 _atom_site_label
 _atom_site_symmetry_multiplicity
 _atom_site_fract_x
 _atom_site_fract_y
 _atom_site_fract_z
 _atom_site_occupancy
  C  C0  1  0.17299100  0.47498700  0.34925700  1
  Ni  Ni1  1  0.91403400  0.90807200  0.27179000  1
  C  C2  1  0.23413800  0.65416400  0.75276400  1
  C  C3  1  0.39425500  0.89140500  0.18063100  1
  C  C4  1  0.60575200  0.19381300  0.76982000  1
  C  C5  1  0.75740100  0.34766300  0.25380500  1
  Cu  Cu6  1  0.07602100  0.08660000  0.76156000  1
  C  C7  1  0.03810000  0.80289100  0.66135400  1
  C  C8  1  0.14574300  0.40305000  0.73352600  1
  C  C9  1  0.17002400  0.00330400  0.12313900  1
  C  C10  1  0.35543000  0.71471500  0.50316300  1
  C  C11  1  0.38821900  0.02679800  0.81138800  1
  C  C12  1  0.32141400  0.62874900  0.07685500  1
  C  C13  1  0.63799100  0.39214000  0.93112300  1
  C  C14  1  0.63604200  0.00871700  0.25535700  1
  C  C15  1  0.57941200  0.32341900  0.46356200  1
  C  C16  1  0.80503100  0.05637700  0.84846600  1
  C  C17  1  0.90425800  0.59565200  0.24861800  1
  C  C18  1  0.98411500  0.20970900  0.37882200  1
