# generated using pymatgen
data_Cu3Ni7C10
_symmetry_space_group_name_H-M   'P 1'
_cell_length_a   8.35441535
_cell_length_b   8.35441547
_cell_length_c   5.53711303
_cell_angle_alpha   90.00000000
_cell_angle_beta   90.00000000
_cell_angle_gamma   119.99999948
_symmetry_Int_Tables_number   1
_chemical_formula_structural   Cu3Ni7C10
_chemical_formula_sum   'Cu3 Ni7 C10'
_cell_volume   334.69263455
_cell_formula_units_Z   1
loop_
 _symmetry_equiv_pos_site_id
 _symmetry_equiv_pos_as_xyz
  1  'x, y, z'
loop_
 _atom_site_type_symbol
 _atom_site_label
 _atom_site_symmetry_multiplicity
 _atom_site_fract_x
 _atom_site_fract_y
 _atom_site_fract_z
 _atom_site_occupancy
  C  C0  1  0.00000000  0.00000000  0.14031621  1
  C  C1  1  0.77740515  0.22259485  0.12274810  1
  C  C2  1  0.49672923  0.50327077  0.74682146  1
  C  C3  1  0.49672923  0.99345845  0.74682146  1
  C  C4  1  0.77740515  0.55480930  0.12274810  1
  C  C5  1  0.44519070  0.22259485  0.12274810  1
  C  C6  1  0.00654155  0.50327077  0.74682146  1
  C  C7  1  0.33333300  0.66666700  0.26715662  1
  C  C8  1  0.00000000  0.00000000  0.66618524  1
  C  C9  1  0.66666700  0.33333300  0.54935344  1
  Ni  Ni10  1  0.89205846  0.10794154  0.85081385  1
  Ni  Ni11  1  0.44938272  0.55061728  0.15225865  1
  Ni  Ni12  1  0.21588309  0.10794154  0.85081385  1
  Ni  Ni13  1  0.33333300  0.66666700  0.60171157  1
  Ni  Ni14  1  0.10123456  0.55061728  0.15225865  1
  Ni  Ni15  1  0.89205846  0.78411691  0.85081385  1
  Ni  Ni16  1  0.44938272  0.89876544  0.15225865  1
  Cu  Cu17  1  0.79292535  0.89646268  0.38443958  1
  Cu  Cu18  1  0.10353732  0.89646268  0.38443958  1
  Cu  Cu19  1  0.10353732  0.20707465  0.38443958  1
