# generated using pymatgen
data_Cu3NiC
_symmetry_space_group_name_H-M   'P 1'
_cell_length_a   9.88205183
_cell_length_b   9.88205183
_cell_length_c   9.07243900
_cell_angle_alpha   74.30829818
_cell_angle_beta   74.30829818
_cell_angle_gamma   27.68122715
_symmetry_Int_Tables_number   1
_chemical_formula_structural   Cu3NiC
_chemical_formula_sum   'Cu12 Ni4 C4'
_cell_volume   395.28899478
_cell_formula_units_Z   4
loop_
 _symmetry_equiv_pos_site_id
 _symmetry_equiv_pos_as_xyz
  1  'x, y, z'
loop_
 _atom_site_type_symbol
 _atom_site_label
 _atom_site_symmetry_multiplicity
 _atom_site_fract_x
 _atom_site_fract_y
 _atom_site_fract_z
 _atom_site_occupancy
  C  C0  1  0.03681100  0.09368600  0.51236600  1
  C  C1  1  0.90631400  0.96318900  0.98763400  1
  C  C2  1  0.96318900  0.90631400  0.48763400  1
  C  C3  1  0.09368600  0.03681100  0.01236600  1
  Ni  Ni4  1  0.60914700  0.73740700  0.16317200  1
  Ni  Ni5  1  0.26259300  0.39085300  0.33682800  1
  Ni  Ni6  1  0.39085300  0.26259300  0.83682800  1
  Ni  Ni7  1  0.73740700  0.60914700  0.66317200  1
  Cu  Cu8  1  0.66452800  0.51521800  0.19824000  1
  Cu  Cu9  1  0.48478200  0.33547200  0.30176000  1
  Cu  Cu10  1  0.33547200  0.48478200  0.80176000  1
  Cu  Cu11  1  0.51521800  0.66452800  0.69824000  1
  Cu  Cu12  1  0.45870200  0.89571500  0.32644000  1
  Cu  Cu13  1  0.10428500  0.54129800  0.17356000  1
  Cu  Cu14  1  0.54129800  0.10428500  0.67356000  1
  Cu  Cu15  1  0.89571500  0.45870200  0.82644000  1
  Cu  Cu16  1  0.01997800  0.32299800  0.54151400  1
  Cu  Cu17  1  0.67700200  0.98002200  0.95848600  1
  Cu  Cu18  1  0.98002200  0.67700200  0.45848600  1
  Cu  Cu19  1  0.32299800  0.01997800  0.04151400  1
