# generated using pymatgen
data_Cu(Ni2C11)3
_symmetry_space_group_name_H-M   'P 1'
_cell_length_a   9.18990011
_cell_length_b   9.18973889
_cell_length_c   22.49982606
_cell_angle_alpha   90.01248876
_cell_angle_beta   90.02280525
_cell_angle_gamma   119.91576768
_symmetry_Int_Tables_number   1
_chemical_formula_structural   Cu(Ni2C11)3
_chemical_formula_sum   'Cu3 Ni18 C99'
_cell_volume   1646.99266771
_cell_formula_units_Z   3
loop_
 _symmetry_equiv_pos_site_id
 _symmetry_equiv_pos_as_xyz
  1  'x, y, z'
loop_
 _atom_site_type_symbol
 _atom_site_label
 _atom_site_symmetry_multiplicity
 _atom_site_fract_x
 _atom_site_fract_y
 _atom_site_fract_z
 _atom_site_occupancy
  Ni  Ni0  1  0.00938958  0.00089743  0.50230889  1
  Ni  Ni1  1  0.98786519  0.98878392  0.99764594  1
  Ni  Ni2  1  0.66658321  0.33196693  0.83551062  1
  Ni  Ni3  1  0.66664084  0.33259868  0.32554157  1
  Ni  Ni4  1  0.34913780  0.66681663  0.16168927  1
  Ni  Ni5  1  0.31877558  0.65185328  0.66509939  1
  Ni  Ni6  1  0.64250402  0.01539030  0.24452909  1
  Ni  Ni7  1  0.37055057  0.35696219  0.24405260  1
  Ni  Ni8  1  0.98710304  0.62744885  0.24409789  1
  Ni  Ni9  1  0.62988270  0.62235519  0.74685529  1
  Ni  Ni10  1  0.98936410  0.36815249  0.74740142  1
  Ni  Ni11  1  0.38092468  0.00920933  0.74794547  1
  Ni  Ni12  1  0.66337934  0.97033898  0.58628128  1
  Ni  Ni13  1  0.31005382  0.97369020  0.08142675  1
  Ni  Ni14  1  0.02667186  0.33938004  0.08167302  1
  Ni  Ni15  1  0.96292203  0.28801871  0.41320175  1
  Ni  Ni16  1  0.32587766  0.03555063  0.41322716  1
  Ni  Ni17  1  0.71093971  0.67628234  0.41393008  1
  Cu  Cu18  1  0.99990916  0.00015202  0.35338288  1
  Cu  Cu19  1  0.66774042  0.33613332  0.68457559  1
  Cu  Cu20  1  0.66490424  0.33515483  0.17564527  1
  C  C21  1  0.00037139  0.00085921  0.85856607  1
  C  C22  1  0.00363727  0.99938107  0.64447631  1
  C  C23  1  0.99721291  0.99691783  0.14608384  1
  C  C24  1  0.66748504  0.33468507  0.97877878  1
  C  C25  1  0.66625180  0.33470416  0.48331639  1
  C  C26  1  0.33640167  0.66656772  0.01526297  1
  C  C27  1  0.33006376  0.66285023  0.52209718  1
  C  C28  1  0.33288205  0.66668998  0.31113970  1
  C  C29  1  0.33405635  0.66718066  0.81413930  1
  C  C30  1  0.29687901  0.99749334  0.25135370  1
  C  C31  1  0.70116508  0.70475505  0.25247815  1
  C  C32  1  0.00362908  0.29954222  0.25094126  1
  C  C33  1  0.28085165  0.28909807  0.75210365  1
  C  C34  1  0.00714109  0.71779616  0.75272604  1
  C  C35  1  0.71044858  0.99254193  0.75114195  1
  C  C36  1  0.96650837  0.33219983  0.58580160  1
  C  C37  1  0.36661662  0.03531422  0.58456963  1
  C  C38  1  0.66868689  0.63419589  0.58554096  1
  C  C39  1  0.96720690  0.63421513  0.08194173  1
  C  C40  1  0.66601468  0.03143801  0.08240936  1
  C  C41  1  0.36559847  0.33465673  0.08316822  1
  C  C42  1  0.62629184  0.66279570  0.91480934  1
  C  C43  1  0.03641655  0.37460312  0.91577882  1
  C  C44  1  0.33664401  0.96273777  0.91622865  1
  C  C45  1  0.61730530  0.96119467  0.41860545  1
  C  C46  1  0.34495817  0.38326586  0.41715824  1
  C  C47  1  0.03933177  0.65661500  0.41756923  1
  C  C48  1  0.22326975  0.02485283  0.31259053  1
  C  C49  1  0.79908182  0.77398337  0.31444767  1
  C  C50  1  0.97500256  0.19815401  0.31217638  1
  C  C51  1  0.18022099  0.17300283  0.80932040  1
  C  C52  1  0.99362460  0.81992198  0.80975948  1
  C  C53  1  0.82918965  0.00627916  0.80754067  1
  C  C54  1  0.79988714  0.97051022  0.69011844  1
  C  C55  1  0.16153954  0.19181542  0.69314963  1
  C  C56  1  0.02608584  0.83571185  0.69360103  1
  C  C57  1  0.81450220  0.83576603  0.19701379  1
  C  C58  1  0.02415803  0.19389329  0.19358455  1
  C  C59  1  0.17160804  0.97858380  0.19389616  1
  C  C60  1  0.90054598  0.36467391  0.64734159  1
  C  C61  1  0.47874978  0.09916242  0.64380541  1
  C  C62  1  0.63406417  0.53528705  0.64691957  1
  C  C63  1  0.91209991  0.52887650  0.14296197  1
  C  C64  1  0.61826676  0.08778639  0.14382082  1
  C  C65  1  0.45522162  0.36761110  0.14674623  1
  C  C66  1  0.47697926  0.30544034  0.03146252  1
  C  C67  1  0.83455543  0.52345582  0.02856581  1
  C  C68  1  0.69626894  0.17084759  0.03014484  1
  C  C69  1  0.47315919  0.16341578  0.52741801  1
  C  C70  1  0.68752599  0.52516683  0.52858434  1
  C  C71  1  0.83282712  0.30888705  0.52977573  1
  C  C72  1  0.51930949  0.68132833  0.96960544  1
  C  C73  1  0.15380684  0.47311854  0.97307301  1
  C  C74  1  0.31438004  0.84300216  0.97314324  1
  C  C75  1  0.51601247  0.84706879  0.47535542  1
  C  C76  1  0.33620186  0.49348958  0.47202053  1
  C  C77  1  0.16107863  0.66979899  0.47207875  1
  C  C78  1  0.13299097  0.63646001  0.35654308  1
  C  C79  1  0.50054588  0.86271178  0.35840575  1
  C  C80  1  0.36262185  0.49591603  0.35621054  1
  C  C81  1  0.13710800  0.49520015  0.85712919  1
  C  C82  1  0.35901079  0.86346230  0.85742280  1
  C  C83  1  0.50819472  0.64040531  0.85518765  1
  C  C84  1  0.01895879  0.82074796  0.41997614  1
  C  C85  1  0.80283015  0.98330142  0.41987888  1
  C  C86  1  0.18072978  0.19918390  0.41991065  1
  C  C87  1  0.01824647  0.18848607  0.91161067  1
  C  C88  1  0.16913125  0.98141094  0.91175056  1
  C  C89  1  0.81099201  0.83119431  0.91196513  1
  C  C90  1  0.96536189  0.15286138  0.58579909  1
  C  C91  1  0.18457451  0.02558869  0.58771846  1
  C  C92  1  0.83944301  0.81993044  0.58595017  1
  C  C93  1  0.98514140  0.82158093  0.08765873  1
  C  C94  1  0.84332390  0.02817207  0.08788874  1
  C  C95  1  0.18039262  0.15824222  0.08609858  1
  C  C96  1  0.68954647  0.15696403  0.75218752  1
  C  C97  1  0.46461285  0.30728889  0.75112474  1
  C  C98  1  0.84274046  0.53359746  0.75235000  1
  C  C99  1  0.67124527  0.51815636  0.24441372  1
  C  C100  1  0.84702166  0.33052684  0.24421554  1
  C  C101  1  0.48475992  0.15311294  0.24523489  1
  C  C102  1  0.63937491  0.49312140  0.92344058  1
  C  C103  1  0.85164656  0.35881129  0.92227405  1
  C  C104  1  0.50611423  0.14629890  0.92363274  1
  C  C105  1  0.62745975  0.14589296  0.42132144  1
  C  C106  1  0.51941813  0.37393145  0.42108504  1
  C  C107  1  0.85640855  0.48212834  0.42241133  1
  C  C108  1  0.32698886  0.48911069  0.07166573  1
  C  C109  1  0.15849322  0.66632689  0.07079943  1
  C  C110  1  0.50412108  0.84513002  0.06967988  1
  C  C111  1  0.34284072  0.84824433  0.57310009  1
  C  C112  1  0.51196016  0.67021680  0.57490786  1
  C  C113  1  0.15510865  0.48981366  0.57371907  1
  C  C114  1  0.29467964  0.81482698  0.25276800  1
  C  C115  1  0.52174670  0.70808912  0.25248358  1
  C  C116  1  0.18583396  0.48001794  0.25255758  1
  C  C117  1  0.29238347  0.47526254  0.75425127  1
  C  C118  1  0.18219760  0.70688967  0.75439840  1
  C  C119  1  0.52329972  0.81846171  0.75464304  1
