# generated using pymatgen
data_Cu2NiC3
_symmetry_space_group_name_H-M   'P 1'
_cell_length_a   3.89593100
_cell_length_b   6.30131400
_cell_length_c   6.88595359
_cell_angle_alpha   112.56324403
_cell_angle_beta   90.00000000
_cell_angle_gamma   90.00000000
_symmetry_Int_Tables_number   1
_chemical_formula_structural   Cu2NiC3
_chemical_formula_sum   'Cu4 Ni2 C6'
_cell_volume   156.10720179
_cell_formula_units_Z   2
loop_
 _symmetry_equiv_pos_site_id
 _symmetry_equiv_pos_as_xyz
  1  'x, y, z'
loop_
 _atom_site_type_symbol
 _atom_site_label
 _atom_site_symmetry_multiplicity
 _atom_site_fract_x
 _atom_site_fract_y
 _atom_site_fract_z
 _atom_site_occupancy
  C  C0  1  0.75000000  0.30888600  0.13291600  1
  C  C1  1  0.25000000  0.69111400  0.86708400  1
  C  C2  1  0.25000000  0.69228300  0.30473900  1
  C  C3  1  0.75000000  0.30771700  0.69526100  1
  C  C4  1  0.25000000  0.11688400  0.78353100  1
  C  C5  1  0.75000000  0.88311600  0.21646900  1
  Ni  Ni6  1  0.25000000  0.24961000  0.44403500  1
  Ni  Ni7  1  0.75000000  0.75039000  0.55596500  1
  Cu  Cu8  1  0.75000000  0.89935400  0.08108200  1
  Cu  Cu9  1  0.25000000  0.10064600  0.91891800  1
  Cu  Cu10  1  0.75000000  0.42886000  0.83607600  1
  Cu  Cu11  1  0.25000000  0.57114000  0.16392400  1
