# generated using pymatgen
data_Cu2NiC33
_symmetry_space_group_name_H-M   'P 1'
_cell_length_a   8.73123970
_cell_length_b   8.72369554
_cell_length_c   22.90580470
_cell_angle_alpha   89.82723834
_cell_angle_beta   89.72631378
_cell_angle_gamma   120.13966521
_symmetry_Int_Tables_number   1
_chemical_formula_structural   Cu2NiC33
_chemical_formula_sum   'Cu6 Ni3 C99'
_cell_volume   1508.78098405
_cell_formula_units_Z   3
loop_
 _symmetry_equiv_pos_site_id
 _symmetry_equiv_pos_as_xyz
  1  'x, y, z'
loop_
 _atom_site_type_symbol
 _atom_site_label
 _atom_site_symmetry_multiplicity
 _atom_site_fract_x
 _atom_site_fract_y
 _atom_site_fract_z
 _atom_site_occupancy
  C  C0  1  0.99986830  -0.00002065  0.49818233  1
  C  C1  1  0.99703200  0.98822652  0.99779107  1
  C  C2  1  0.66920332  0.32001906  0.82272114  1
  C  C3  1  0.65358905  0.32304828  0.33892393  1
  C  C4  1  0.31622068  0.67312994  0.16385012  1
  C  C5  1  0.34452134  0.67554263  0.66324976  1
  C  C6  1  0.01322135  0.00402685  0.35449942  1
  C  C7  1  0.99415224  0.00107233  0.84831157  1
  C  C8  1  0.66758590  0.32457039  0.68453184  1
  C  C9  1  0.66556771  0.33273844  0.48464184  1
  C  C10  1  0.32250911  0.66556429  0.02000819  1
  C  C11  1  0.33447702  0.66745018  0.51994943  1
  Ni  Ni12  1  0.29542514  0.00012718  0.25307285  1
  Ni  Ni13  1  0.71119178  0.01065767  0.75266670  1
  Ni  Ni14  1  0.96369968  0.62732244  0.08376636  1
  Cu  Cu15  1  0.98878015  0.99641002  0.64921015  1
  Cu  Cu16  1  0.00691012  0.98585553  0.15022974  1
  Cu  Cu17  1  0.66808118  0.33242686  0.18650570  1
  Cu  Cu18  1  0.67441184  0.34168522  0.98129993  1
  Cu  Cu19  1  0.33100028  0.67523563  0.31891917  1
  Cu  Cu20  1  0.34202067  0.67407897  0.81230655  1
  C  C21  1  0.70555705  0.70907121  0.25275415  1
  C  C22  1  0.00210596  0.28765380  0.25121917  1
  C  C23  1  0.29336951  0.28983190  0.75125649  1
  C  C24  1  0.99679627  0.70654830  0.75159701  1
  C  C25  1  0.96064085  0.33664992  0.58258455  1
  C  C26  1  0.37219206  0.04064733  0.58392816  1
  C  C27  1  0.66565791  0.62181822  0.58326532  1
  C  C28  1  0.66802062  0.03665567  0.08321836  1
  C  C29  1  0.37237401  0.33640783  0.08227711  1
  C  C30  1  0.62481140  0.66717736  0.91878441  1
  C  C31  1  0.04594423  0.37371450  0.91713342  1
  C  C32  1  0.33237813  0.96196661  0.91879469  1
  C  C33  1  0.63116159  0.96367954  0.41862633  1
  C  C34  1  0.33379912  0.37685052  0.41781732  1
  C  C35  1  0.03471461  0.66337487  0.41948687  1
  C  C36  1  0.20955913  0.03448089  0.30811789  1
  C  C37  1  0.81405308  0.79549303  0.30300413  1
  C  C38  1  0.97250357  0.17807509  0.30223213  1
  C  C39  1  0.21394417  0.18285905  0.80363115  1
  C  C40  1  0.98144976  0.79209207  0.80404329  1
  C  C41  1  0.82002262  0.02791452  0.80993052  1
  C  C42  1  0.78106738  0.95646742  0.69203397  1
  C  C43  1  0.18590030  0.21537486  0.69687038  1
  C  C44  1  0.04313165  0.81954519  0.69722012  1
  C  C45  1  0.77293832  0.81399271  0.19656326  1
  C  C46  1  0.02510886  0.21202207  0.19475914  1
  C  C47  1  0.18950925  0.96318158  0.19030289  1
  C  C48  1  0.88020759  0.35668615  0.63582812  1
  C  C49  1  0.47395864  0.12207433  0.63643000  1
  C  C50  1  0.64640939  0.52154826  0.63673958  1
  C  C51  1  0.87070027  0.50514318  0.14245499  1
  C  C52  1  0.63125318  0.11265583  0.13588117  1
  C  C53  1  0.47707340  0.35939597  0.13573884  1
  C  C54  1  0.44574527  0.29159605  0.02975768  1
  C  C55  1  0.83617761  0.54633045  0.02579451  1
  C  C56  1  0.70028511  0.14831022  0.02947654  1
  C  C57  1  0.44797855  0.14720601  0.53070016  1
  C  C58  1  0.69179690  0.54267749  0.53052885  1
  C  C59  1  0.85252778  0.30626051  0.53040006  1
  C  C60  1  0.53716150  0.68521392  0.97040194  1
  C  C61  1  0.14885678  0.46208017  0.96873416  1
  C  C62  1  0.31276084  0.85613702  0.97053213  1
  C  C63  1  0.54118138  0.84754801  0.46828011  1
  C  C64  1  0.31116900  0.46765778  0.46739579  1
  C  C65  1  0.15259740  0.69075074  0.46807338  1
  C  C66  1  0.10660085  0.62697130  0.36252562  1
  C  C67  1  0.52413751  0.89031113  0.36210453  1
  C  C68  1  0.36740771  0.48602887  0.36053949  1
  C  C69  1  0.12148093  0.48550082  0.86270672  1
  C  C70  1  0.36735636  0.88878139  0.86458660  1
  C  C71  1  0.51591759  0.63378060  0.86480844  1
  C  C72  1  0.02017060  0.82325577  0.41167822  1
  C  C73  1  0.80468379  0.97663429  0.40963924  1
  C  C74  1  0.17064162  0.20411863  0.41141384  1
  C  C75  1  0.02926017  0.19927827  0.91211166  1
  C  C76  1  0.17786040  0.98341628  0.91161567  1
  C  C77  1  0.80349415  0.81971308  0.91292040  1
  C  C78  1  0.98225938  0.17206681  0.58637721  1
  C  C79  1  0.18702245  0.02241325  0.58956458  1
  C  C80  1  0.83564377  0.80529336  0.58571033  1
  C  C81  1  0.96656846  0.81922511  0.08603966  1
  C  C82  1  0.83581347  0.03384950  0.09080826  1
  C  C83  1  0.19048463  0.17918636  0.08818509  1
  C  C84  1  0.68345735  0.17671030  0.74444425  1
  C  C85  1  0.47145557  0.31955838  0.74296526  1
  C  C86  1  0.83725884  0.53585234  0.74344687  1
  C  C87  1  0.69379424  0.53340789  0.24623316  1
  C  C88  1  0.84416850  0.31082046  0.24607785  1
  C  C89  1  0.49565210  0.17896187  0.24455628  1
  C  C90  1  0.63522017  0.49730630  0.92067209  1
  C  C91  1  0.86168668  0.35335459  0.92020335  1
  C  C92  1  0.49959341  0.14510510  0.92366195  1
  C  C93  1  0.64718630  0.13932236  0.42393777  1
  C  C94  1  0.49206218  0.35856376  0.42189734  1
  C  C95  1  0.85906207  0.50380667  0.42481351  1
  C  C96  1  0.36487532  0.49708445  0.07413490  1
  C  C97  1  0.15383418  0.64582437  0.07953344  1
  C  C98  1  0.51667420  0.86053705  0.07540700  1
  C  C99  1  0.34786206  0.86095194  0.57748307  1
  C  C100  1  0.51168069  0.64858310  0.57756272  1
  C  C101  1  0.14030529  0.49289950  0.57624763  1
  C  C102  1  0.31980386  0.82295323  0.25530480  1
  C  C103  1  0.52293971  0.67994468  0.25723592  1
  C  C104  1  0.16466329  0.46609892  0.25522126  1
  C  C105  1  0.29962762  0.46646167  0.75652529  1
  C  C106  1  0.15555137  0.68049661  0.75666176  1
  C  C107  1  0.50876031  0.82358372  0.75319896  1
