# generated using pymatgen
data_Cu6NiC13
_symmetry_space_group_name_H-M   'P 1'
_cell_length_a   6.71571452
_cell_length_b   6.71571451
_cell_length_c   6.71571449
_cell_angle_alpha   92.68578500
_cell_angle_beta   92.68578500
_cell_angle_gamma   92.68579951
_symmetry_Int_Tables_number   1
_chemical_formula_structural   Cu6NiC13
_chemical_formula_sum   'Cu6 Ni1 C13'
_cell_volume   301.85374152
_cell_formula_units_Z   1
loop_
 _symmetry_equiv_pos_site_id
 _symmetry_equiv_pos_as_xyz
  1  'x, y, z'
loop_
 _atom_site_type_symbol
 _atom_site_label
 _atom_site_symmetry_multiplicity
 _atom_site_fract_x
 _atom_site_fract_y
 _atom_site_fract_z
 _atom_site_occupancy
  Ni  Ni0  1  0.23041938  0.23041938  0.23041938  1
  Cu  Cu1  1  0.40812367  0.90173690  0.70805975  1
  Cu  Cu2  1  0.38938693  0.68817502  0.17929117  1
  Cu  Cu3  1  0.17929117  0.38938693  0.68817502  1
  Cu  Cu4  1  0.90173690  0.70805975  0.40812367  1
  Cu  Cu5  1  0.70805975  0.40812367  0.90173690  1
  Cu  Cu6  1  0.68817502  0.17929117  0.38938693  1
  C  C7  1  0.96104937  0.96104937  0.96104937  1
  C  C8  1  0.04202094  0.87941530  0.70651852  1
  C  C9  1  0.26280859  0.96552422  0.04282035  1
  C  C10  1  0.16824112  0.52581910  0.36595533  1
  C  C11  1  0.60469070  0.83604988  0.42389276  1
  C  C12  1  0.04282035  0.26280859  0.96552422  1
  C  C13  1  0.42389276  0.60469070  0.83604988  1
  C  C14  1  0.52581910  0.36595533  0.16824112  1
  C  C15  1  0.87941530  0.70651852  0.04202094  1
  C  C16  1  0.36595533  0.16824112  0.52581910  1
  C  C17  1  0.83604988  0.42389276  0.60469070  1
  C  C18  1  0.70651852  0.04202094  0.87941530  1
  C  C19  1  0.96552422  0.04282035  0.26280859  1
