# generated using pymatgen
data_Cu(NiC3)2
_symmetry_space_group_name_H-M   'P 1'
_cell_length_a   5.38631781
_cell_length_b   5.38631781
_cell_length_c   5.45821100
_cell_angle_alpha   90.00000000
_cell_angle_beta   90.00000000
_cell_angle_gamma   119.99999765
_symmetry_Int_Tables_number   1
_chemical_formula_structural   Cu(NiC3)2
_chemical_formula_sum   'Cu1 Ni2 C6'
_cell_volume   137.14024194
_cell_formula_units_Z   1
loop_
 _symmetry_equiv_pos_site_id
 _symmetry_equiv_pos_as_xyz
  1  'x, y, z'
loop_
 _atom_site_type_symbol
 _atom_site_label
 _atom_site_symmetry_multiplicity
 _atom_site_fract_x
 _atom_site_fract_y
 _atom_site_fract_z
 _atom_site_occupancy
  Ni  Ni0  1  0.66666700  0.33333300  0.50000000  1
  Ni  Ni1  1  0.33333300  0.66666700  0.50000000  1
  Cu  Cu2  1  0.00000000  0.00000000  0.00000000  1
  C  C3  1  0.62082700  0.62082700  0.29423700  1
  C  C4  1  0.00000000  0.37917300  0.29423700  1
  C  C5  1  0.37917300  0.00000000  0.29423700  1
  C  C6  1  0.00000000  0.62082700  0.70576300  1
  C  C7  1  0.62082700  0.00000000  0.70576300  1
  C  C8  1  0.37917300  0.37917300  0.70576300  1
