# generated using pymatgen
data_Cu6NiC24
_symmetry_space_group_name_H-M   'P 1'
_cell_length_a   5.46218817
_cell_length_b   5.25410700
_cell_length_c   15.53103564
_cell_angle_alpha   90.08746205
_cell_angle_beta   99.99894590
_cell_angle_gamma   90.16781084
_symmetry_Int_Tables_number   1
_chemical_formula_structural   Cu6NiC24
_chemical_formula_sum   'Cu6 Ni1 C24'
_cell_volume   438.95102187
_cell_formula_units_Z   1
loop_
 _symmetry_equiv_pos_site_id
 _symmetry_equiv_pos_as_xyz
  1  'x, y, z'
loop_
 _atom_site_type_symbol
 _atom_site_label
 _atom_site_symmetry_multiplicity
 _atom_site_fract_x
 _atom_site_fract_y
 _atom_site_fract_z
 _atom_site_occupancy
  Ni  Ni0  1  0.03698400  0.97377800  0.23381100  1
  Cu  Cu1  1  0.99059200  0.98822200  0.99363400  1
  Cu  Cu2  1  0.15593600  0.45816300  0.33805300  1
  Cu  Cu3  1  0.27823700  0.02525800  0.66458800  1
  Cu  Cu4  1  0.46473300  0.47149300  0.99600700  1
  Cu  Cu5  1  0.64316500  0.01606800  0.34020700  1
  Cu  Cu6  1  0.77891100  0.48084500  0.66472700  1
  C  C7  1  0.03004100  0.20911400  0.64284100  1
  C  C8  1  0.21667800  0.28322300  0.97919600  1
  C  C9  1  0.33782700  0.18163100  0.30554700  1
  C  C10  1  0.53045300  0.29526900  0.64335200  1
  C  C11  1  0.87725400  0.28799500  0.31237900  1
  C  C12  1  0.14251300  0.72652900  0.69231700  1
  C  C13  1  0.04656300  0.08023600  0.11543500  1
  C  C14  1  0.23469400  0.42918300  0.45216100  1
  C  C15  1  0.39568600  0.09363300  0.77589000  1
  C  C16  1  0.13100600  0.61589900  0.22459000  1
  C  C17  1  0.31404300  0.91693100  0.55942200  1
  C  C18  1  0.46629400  0.59140500  0.88964000  1
  C  C19  1  0.69647600  0.21528600  0.97434600  1
  C  C20  1  0.29701900  0.77428700  0.02222800  1
  C  C21  1  0.47116000  0.70377100  0.35535000  1
  C  C22  1  0.64324800  0.77868200  0.69234700  1
  C  C23  1  0.56535700  0.42720500  0.11022100  1
  C  C24  1  0.71350200  0.08145600  0.45240600  1
  C  C25  1  0.89796500  0.41303300  0.77577600  1
  C  C26  1  0.66537100  0.92412400  0.22329200  1
  C  C27  1  0.81452500  0.58631600  0.55929800  1
  C  C28  1  0.96061500  0.91897900  0.88103600  1
  C  C29  1  0.79666400  0.71272100  0.02122900  1
  C  C30  1  0.97791600  0.80176700  0.35421300  1
