# generated using pymatgen
data_Cu2Ni4C7
_symmetry_space_group_name_H-M   'P 1'
_cell_length_a   5.03841900
_cell_length_b   9.48693000
_cell_length_c   12.43370412
_cell_angle_alpha   50.22791830
_cell_angle_beta   90.00000000
_cell_angle_gamma   90.00000000
_symmetry_Int_Tables_number   1
_chemical_formula_structural   Cu2Ni4C7
_chemical_formula_sum   'Cu4 Ni8 C14'
_cell_volume   456.79174882
_cell_formula_units_Z   2
loop_
 _symmetry_equiv_pos_site_id
 _symmetry_equiv_pos_as_xyz
  1  'x, y, z'
loop_
 _atom_site_type_symbol
 _atom_site_label
 _atom_site_symmetry_multiplicity
 _atom_site_fract_x
 _atom_site_fract_y
 _atom_site_fract_z
 _atom_site_occupancy
  Ni  Ni0  1  0.43993000  0.05628600  0.12289100  1
  Ni  Ni1  1  0.43993000  0.94371400  0.37710900  1
  Ni  Ni2  1  0.56007000  0.94371400  0.87710900  1
  Ni  Ni3  1  0.56007000  0.05628600  0.62289100  1
  Ni  Ni4  1  0.67622900  0.57536800  0.40206100  1
  Ni  Ni5  1  0.67622900  0.42463200  0.09793900  1
  Ni  Ni6  1  0.32377100  0.42463200  0.59793900  1
  Ni  Ni7  1  0.32377100  0.57536800  0.90206100  1
  Cu  Cu8  1  0.09787800  0.29486500  0.35594500  1
  Cu  Cu9  1  0.09787800  0.70513500  0.14405500  1
  Cu  Cu10  1  0.90212200  0.70513500  0.64405500  1
  Cu  Cu11  1  0.90212200  0.29486500  0.85594500  1
  C  C12  1  0.34117900  0.83372700  0.07831900  1
  C  C13  1  0.34117900  0.16627300  0.42168100  1
  C  C14  1  0.65882100  0.16627300  0.92168100  1
  C  C15  1  0.65882100  0.83372700  0.57831900  1
  C  C16  1  0.23234600  0.50000000  0.25000000  1
  C  C17  1  0.76765400  0.50000000  0.75000000  1
  C  C18  1  0.92461300  0.29031200  0.45854200  1
  C  C19  1  0.92461300  0.70968800  0.04145800  1
  C  C20  1  0.07538700  0.70968800  0.54145800  1
  C  C21  1  0.07538700  0.29031200  0.95854200  1
  C  C22  1  0.95511200  0.25841600  0.26606300  1
  C  C23  1  0.95511200  0.74158400  0.23393700  1
  C  C24  1  0.04488800  0.25841600  0.76606300  1
  C  C25  1  0.04488800  0.74158400  0.73393700  1
