# generated using pymatgen
data_CuNi5C31
_symmetry_space_group_name_H-M   'P 1'
_cell_length_a   8.48948461
_cell_length_b   8.46872748
_cell_length_c   21.87435286
_cell_angle_alpha   90.39047446
_cell_angle_beta   89.88886583
_cell_angle_gamma   119.88916471
_symmetry_Int_Tables_number   1
_chemical_formula_structural   CuNi5C31
_chemical_formula_sum   'Cu3 Ni15 C93'
_cell_volume   1363.44803190
_cell_formula_units_Z   3
loop_
 _symmetry_equiv_pos_site_id
 _symmetry_equiv_pos_as_xyz
  1  'x, y, z'
loop_
 _atom_site_type_symbol
 _atom_site_label
 _atom_site_symmetry_multiplicity
 _atom_site_fract_x
 _atom_site_fract_y
 _atom_site_fract_z
 _atom_site_occupancy
  C  C0  1  0.00256159  0.36525189  0.75038107  1
  C  C1  1  0.66754330  0.96533164  0.58346271  1
  C  C2  1  0.03572990  0.33324741  0.08346643  1
  C  C3  1  0.00525351  0.99726453  0.50050834  1
  C  C4  1  0.00268851  0.99502281  0.00015606  1
  C  C5  1  0.66000926  0.32988050  0.83418104  1
  C  C6  1  0.67200909  0.33529500  0.33334920  1
  C  C7  1  0.34052375  0.67038135  0.16743702  1
  C  C8  1  0.33371662  0.66704818  0.66673368  1
  C  C9  1  0.00507601  0.99877733  0.64702644  1
  C  C10  1  0.99365324  0.99597816  0.14679850  1
  C  C11  1  0.33069850  0.67125627  0.01920322  1
  C  C12  1  0.32853144  0.67035327  0.51910846  1
  C  C13  1  0.33101095  0.66564629  0.31485316  1
  C  C14  1  0.33314747  0.67450316  0.81473048  1
  C  C15  1  0.98172089  0.98790169  0.35176071  1
  C  C16  1  0.01026822  0.00711057  0.85092894  1
  C  C17  1  0.66262962  0.33521031  0.68601841  1
  C  C18  1  0.67411994  0.34069220  0.18539636  1
  C  C19  1  0.66562340  0.32569637  0.98169965  1
  C  C20  1  0.67427845  0.33406533  0.48146635  1
  Ni  Ni21  1  0.70663908  0.70774815  0.24888899  1
  Ni  Ni22  1  0.00008515  0.28924890  0.24964236  1
  Ni  Ni23  1  0.29342552  0.29009494  0.74929231  1
  Ni  Ni24  1  0.99852288  0.71410668  0.74949490  1
  Ni  Ni25  1  0.70825023  0.99528888  0.74919975  1
  Ni  Ni26  1  0.95887591  0.33799721  0.58411397  1
  Ni  Ni27  1  0.37859152  0.05098558  0.58263997  1
  Ni  Ni28  1  0.66536699  0.61710069  0.58277827  1
  Ni  Ni29  1  0.95158635  0.62332725  0.08245467  1
  Ni  Ni30  1  0.66107365  0.04281524  0.08421880  1
  Ni  Ni31  1  0.38372155  0.33372278  0.08353618  1
  Ni  Ni32  1  0.04021650  0.37389507  0.91663807  1
  Ni  Ni33  1  0.33286068  0.95915271  0.91691309  1
  Ni  Ni34  1  0.62243304  0.95812294  0.41696857  1
  Ni  Ni35  1  0.04179985  0.66761180  0.41596263  1
  Cu  Cu36  1  0.28908599  0.00112136  0.24963612  1
  Cu  Cu37  1  0.62511875  0.66699960  0.91660382  1
  Cu  Cu38  1  0.33285486  0.37351203  0.41645197  1
  C  C39  1  0.21033689  0.03770969  0.30621891  1
  C  C40  1  0.82905038  0.78559305  0.30719223  1
  C  C41  1  0.96350799  0.16679447  0.30722148  1
  C  C42  1  0.21305170  0.17111482  0.80754183  1
  C  C43  1  0.95962371  0.79378987  0.80824770  1
  C  C44  1  0.83682068  0.04296633  0.80627864  1
  C  C45  1  0.78879703  0.96644875  0.69063929  1
  C  C46  1  0.17020104  0.21171965  0.69366533  1
  C  C47  1  0.03439099  0.82699132  0.69271292  1
  C  C48  1  0.79157980  0.82489999  0.19277006  1
  C  C49  1  0.03465183  0.21044143  0.19105891  1
  C  C50  1  0.17903903  0.96912704  0.19455864  1
  C  C51  1  0.87414840  0.37051875  0.64302252  1
  C  C52  1  0.50468984  0.13049654  0.64010090  1
  C  C53  1  0.62949985  0.49994889  0.64085511  1
  C  C54  1  0.87377682  0.49829039  0.13971143  1
  C  C55  1  0.62822565  0.13004029  0.14185094  1
  C  C56  1  0.50162898  0.36930128  0.14157265  1
  C  C57  1  0.46592241  0.29786540  0.02529423  1
  C  C58  1  0.83169514  0.53614382  0.02504363  1
  C  C59  1  0.70825072  0.16803050  0.02702460  1
  C  C60  1  0.46559201  0.16873142  0.52504992  1
  C  C61  1  0.70155637  0.53367223  0.52490570  1
  C  C62  1  0.83170068  0.29188592  0.52737643  1
  C  C63  1  0.54918205  0.70150773  0.97225467  1
  C  C64  1  0.15542294  0.45074976  0.97481859  1
  C  C65  1  0.29618198  0.84375684  0.97407574  1
  C  C66  1  0.54962387  0.84522555  0.47553938  1
  C  C67  1  0.29796941  0.44973450  0.47209840  1
  C  C68  1  0.15637510  0.70482030  0.47378527  1
  C  C69  1  0.11992968  0.62840249  0.35893487  1
  C  C70  1  0.50720698  0.87676959  0.35997643  1
  C  C71  1  0.36826933  0.48393913  0.36148880  1
  C  C72  1  0.11911316  0.48669645  0.85866198  1
  C  C73  1  0.37344968  0.88265573  0.85953485  1
  C  C74  1  0.51434786  0.63161387  0.86141118  1
  C  C75  1  0.02431012  0.84284007  0.40811296  1
  C  C76  1  0.81747120  0.98171348  0.40992803  1
  C  C77  1  0.16752335  0.18789956  0.40918525  1
  C  C78  1  0.01780006  0.17930890  0.90900909  1
  C  C79  1  0.15928260  0.97742039  0.90917858  1
  C  C80  1  0.80992770  0.83306667  0.91007617  1
  C  C81  1  0.96947258  0.16276602  0.58932637  1
  C  C82  1  0.19228315  0.03230019  0.58845717  1
  C  C83  1  0.83328285  0.80768716  0.58826515  1
  C  C84  1  0.97139072  0.81070724  0.08928765  1
  C  C85  1  0.83614027  0.03136426  0.08899027  1
  C  C86  1  0.19272990  0.16519006  0.08937625  1
  C  C87  1  0.69567203  0.17448167  0.74380972  1
  C  C88  1  0.48270155  0.30611491  0.74297078  1
  C  C89  1  0.82687167  0.51809117  0.74392278  1
  C  C90  1  0.69034452  0.51553955  0.24305317  1
  C  C91  1  0.82362250  0.30414702  0.24352900  1
  C  C92  1  0.47317977  0.16846218  0.24481264  1
  C  C93  1  0.64494077  0.50094371  0.92290008  1
  C  C94  1  0.84842953  0.35584754  0.92416954  1
  C  C95  1  0.50431882  0.15288259  0.92422786  1
  C  C96  1  0.64341151  0.15161725  0.42420423  1
  C  C97  1  0.49863035  0.35412162  0.42300706  1
  C  C98  1  0.84803983  0.49659863  0.42382796  1
  C  C99  1  0.36051092  0.50209644  0.07712133  1
  C  C100  1  0.13792105  0.63465003  0.07732043  1
  C  C101  1  0.49383477  0.85601617  0.07719311  1
  C  C102  1  0.36661981  0.86341010  0.57774393  1
  C  C103  1  0.49677717  0.63923791  0.57664624  1
  C  C104  1  0.14445602  0.50647457  0.57710332  1
  C  C105  1  0.30873683  0.83889501  0.25599641  1
  C  C106  1  0.52011797  0.68882473  0.25775507  1
  C  C107  1  0.16709053  0.47777437  0.25747403  1
  C  C108  1  0.31108275  0.47811230  0.75831276  1
  C  C109  1  0.16199515  0.68394786  0.75648291  1
  C  C110  1  0.52160152  0.82895482  0.75729384  1
