# generated using pymatgen
data_Cu7Ni4C67
_symmetry_space_group_name_H-M   'P 1'
_cell_length_a   17.64463177
_cell_length_b   8.79372587
_cell_length_c   22.16136616
_cell_angle_alpha   89.79792735
_cell_angle_beta   90.21433130
_cell_angle_gamma   119.80359073
_symmetry_Int_Tables_number   1
_chemical_formula_structural   Cu7Ni4C67
_chemical_formula_sum   'Cu21 Ni12 C201'
_cell_volume   2983.76750003
_cell_formula_units_Z   3
loop_
 _symmetry_equiv_pos_site_id
 _symmetry_equiv_pos_as_xyz
  1  'x, y, z'
loop_
 _atom_site_type_symbol
 _atom_site_label
 _atom_site_symmetry_multiplicity
 _atom_site_fract_x
 _atom_site_fract_y
 _atom_site_fract_z
 _atom_site_occupancy
  C  C0  1  0.18509321  0.36978411  0.24506441  1
  C  C1  1  0.68506266  0.37024163  0.24549600  1
  C  C2  1  0.99545778  0.63089030  0.25184572  1
  C  C3  1  0.49574211  0.63074700  0.25175335  1
  C  C4  1  0.49562924  0.35892472  0.75437843  1
  C  C5  1  0.18471673  0.99979313  0.74750093  1
  C  C6  1  0.68580336  0.00070343  0.74675437  1
  C  C7  1  0.65368045  0.33760140  0.58187262  1
  C  C8  1  0.01879804  0.70404061  0.58033887  1
  C  C9  1  0.82959656  0.96350438  0.58712106  1
  C  C10  1  0.48647551  0.66836832  0.91520100  1
  C  C11  1  0.98752843  0.67074444  0.91450932  1
  C  C12  1  0.85274227  0.03586920  0.91168496  1
  C  C13  1  0.16154469  0.29704655  0.91961495  1
  C  C14  1  0.48713720  0.30652322  0.41448977  1
  C  C15  1  0.98531619  0.30377617  0.41431092  1
  C  C16  1  0.35355982  0.66984493  0.41156483  1
  C  C17  1  0.85297662  0.66917656  0.41287356  1
  C  C18  1  0.01261287  0.00639319  0.49833678  1
  C  C19  1  0.50772398  0.99362642  0.49791844  1
  C  C20  1  0.00640158  0.00941800  0.00098255  1
  C  C21  1  0.50647820  0.02052895  0.99720505  1
  C  C22  1  0.33726925  0.33014243  0.83205778  1
  C  C23  1  0.83917319  0.33935385  0.82821221  1
  C  C24  1  0.33386882  0.32943703  0.33008852  1
  C  C25  1  0.83327287  0.32853553  0.33142185  1
  C  C26  1  0.17228414  0.66744504  0.16158441  1
  C  C27  1  0.67209130  0.66766069  0.16184372  1
  C  C28  1  0.17230651  0.66907225  0.66711438  1
  C  C29  1  0.67083706  0.67709057  0.66534327  1
  C  C30  1  0.99784962  0.98163338  0.64773241  1
  C  C31  1  0.49539847  0.97852939  0.64855434  1
  C  C32  1  0.99952485  0.01664410  0.14599850  1
  C  C33  1  0.49897298  0.01553374  0.14585990  1
  C  C34  1  0.32812689  0.31325311  0.97830678  1
  C  C35  1  0.82217779  0.31770986  0.97920784  1
  C  C36  1  0.32484887  0.33144810  0.47849580  1
  C  C37  1  0.82576925  0.34279708  0.48016449  1
  C  C38  1  0.16243805  0.64336914  0.31206411  1
  C  C39  1  0.66218387  0.64406934  0.31253291  1
  C  C40  1  0.15972928  0.67740357  0.81209087  1
  C  C41  1  0.66355656  0.68274526  0.81309374  1
  Ni  Ni42  1  0.00196965  0.99758234  0.35099076  1
  Ni  Ni43  1  0.50320695  0.99801359  0.35064115  1
  Ni  Ni44  1  0.99977314  0.00189681  0.84921409  1
  Ni  Ni45  1  0.49813658  0.00460641  0.85327051  1
  Ni  Ni46  1  0.33342520  0.32188754  0.68710015  1
  Ni  Ni47  1  0.83463121  0.33131598  0.68599860  1
  Ni  Ni48  1  0.33581798  0.35026913  0.18423877  1
  Ni  Ni49  1  0.83561919  0.34999902  0.18461971  1
  Ni  Ni50  1  0.15919557  0.64564599  0.01685001  1
  Ni  Ni51  1  0.65648093  0.64324866  0.01703639  1
  Ni  Ni52  1  0.16311127  0.67429691  0.51521838  1
  Ni  Ni53  1  0.66219952  0.66890186  0.51886244  1
  Cu  Cu54  1  0.35614934  0.71827793  0.25030884  1
  Cu  Cu55  1  0.85599471  0.71824189  0.25017549  1
  Cu  Cu56  1  0.99222915  0.28045933  0.25140514  1
  Cu  Cu57  1  0.49234766  0.28073365  0.25135433  1
  Cu  Cu58  1  0.99254978  0.69872272  0.75233682  1
  Cu  Cu59  1  0.49283353  0.70320625  0.75269146  1
  Cu  Cu60  1  0.35474403  0.99293153  0.75104646  1
  Cu  Cu61  1  0.85622089  0.00173036  0.75080960  1
  Cu  Cu62  1  0.18997453  0.04032366  0.58525307  1
  Cu  Cu63  1  0.68608118  0.03889216  0.58499523  1
  Cu  Cu64  1  0.83018716  0.62086882  0.58502373  1
  Cu  Cu65  1  0.18925175  0.33975403  0.08392644  1
  Cu  Cu66  1  0.68732424  0.33953513  0.08548608  1
  Cu  Cu67  1  0.02039608  0.37211602  0.91639127  1
  Cu  Cu68  1  0.52135181  0.36804556  0.91607517  1
  Cu  Cu69  1  0.16512606  0.95017100  0.91930484  1
  Cu  Cu70  1  0.66206968  0.95196218  0.92029540  1
  Cu  Cu71  1  0.16234215  0.37192172  0.41962278  1
  Cu  Cu72  1  0.66209313  0.36794354  0.41907189  1
  Cu  Cu73  1  0.02208040  0.67272052  0.41650026  1
  Cu  Cu74  1  0.52368671  0.67369086  0.41740497  1
  C  C75  1  0.14594832  0.00031357  0.24945911  1
  C  C76  1  0.64603410  0.00036342  0.24924469  1
  C  C77  1  0.14541187  0.29385582  0.74933502  1
  C  C78  1  0.64529489  0.29059689  0.74987865  1
  C  C79  1  0.47743341  0.33235731  0.58338385  1
  C  C80  1  0.98064561  0.33430133  0.58272050  1
  C  C81  1  0.33134543  0.62064249  0.58341917  1
  C  C82  1  0.47977316  0.62693768  0.08328191  1
  C  C83  1  0.97965753  0.62613031  0.08299788  1
  C  C84  1  0.33140751  0.04223306  0.08448232  1
  C  C85  1  0.83143266  0.04267732  0.08390049  1
  C  C86  1  0.31069160  0.67005884  0.91754411  1
  C  C87  1  0.80907632  0.66341637  0.91777659  1
  C  C88  1  0.30918560  0.95549825  0.41720222  1
  C  C89  1  0.80983085  0.95663915  0.41692693  1
  C  C90  1  0.10931847  0.03775246  0.30392746  1
  C  C91  1  0.60954372  0.03796929  0.30377293  1
  C  C92  1  0.41669981  0.79320498  0.31036319  1
  C  C93  1  0.91692030  0.79273668  0.31004563  1
  C  C94  1  0.48301405  0.17302871  0.31221260  1
  C  C95  1  0.98353376  0.17359779  0.31227986  1
  C  C96  1  0.11016736  0.18550808  0.80524211  1
  C  C97  1  0.60631567  0.17805098  0.80303669  1
  C  C98  1  0.48358958  0.79420698  0.81226288  1
  C  C99  1  0.98556160  0.79457968  0.81236435  1
  C  C100  1  0.42181065  0.04606298  0.80619816  1
  C  C101  1  0.91285771  0.03251477  0.81162771  1
  C  C102  1  0.40614666  0.97341661  0.69083912  1
  C  C103  1  0.90494056  0.97625456  0.69051048  1
  C  C104  1  0.08997652  0.20820994  0.69632758  1
  C  C105  1  0.59022476  0.21279372  0.69431970  1
  C  C106  1  0.01739836  0.83175182  0.69230894  1
  C  C107  1  0.51780507  0.83653399  0.69335778  1
  C  C108  1  0.40787882  0.84093696  0.19185781  1
  C  C109  1  0.90818588  0.84149294  0.19174747  1
  C  C110  1  0.01908050  0.19915645  0.19355371  1
  C  C111  1  0.51877267  0.19844643  0.19351504  1
  C  C112  1  0.08926639  0.96728912  0.19607640  1
  C  C113  1  0.58920355  0.96729218  0.19601301  1
  C  C114  1  0.43872377  0.36053735  0.63832093  1
  C  C115  1  0.94089019  0.36739482  0.63579309  1
  C  C116  1  0.24765027  0.13229819  0.64457885  1
  C  C117  1  0.74760078  0.12365918  0.64395444  1
  C  C118  1  0.32053753  0.51438703  0.63698118  1
  C  C119  1  0.81311255  0.49111588  0.64016673  1
  C  C120  1  0.44147808  0.51942235  0.13905313  1
  C  C121  1  0.94109437  0.51918775  0.13871192  1
  C  C122  1  0.32085202  0.12647327  0.13828389  1
  C  C123  1  0.82133651  0.12842652  0.13741912  1
  C  C124  1  0.24515312  0.35930671  0.14487766  1
  C  C125  1  0.74492885  0.35961895  0.14533472  1
  C  C126  1  0.23839913  0.30883749  0.02465799  1
  C  C127  1  0.73879678  0.30829275  0.02726623  1
  C  C128  1  0.42568495  0.54140433  0.02947947  1
  C  C129  1  0.92563297  0.54067885  0.02893335  1
  C  C130  1  0.34715069  0.15350323  0.02925866  1
  C  C131  1  0.84705190  0.15145652  0.02782048  1
  C  C132  1  0.24096813  0.17062983  0.52634663  1
  C  C133  1  0.73790537  0.17509798  0.52706869  1
  C  C134  1  0.34678061  0.54362246  0.52739079  1
  C  C135  1  0.85248530  0.54052209  0.52349649  1
  C  C136  1  0.42477255  0.31010663  0.52879891  1
  C  C137  1  0.92631583  0.30395690  0.52746453  1
  C  C138  1  0.27257130  0.69695994  0.97220268  1
  C  C139  1  0.77175661  0.69760412  0.97159023  1
  C  C140  1  0.08438471  0.44969742  0.97358338  1
  C  C141  1  0.57952622  0.45452485  0.97463306  1
  C  C142  1  0.14867006  0.82469381  0.97633437  1
  C  C143  1  0.65195037  0.82907101  0.97684333  1
  C  C144  1  0.27187612  0.84691858  0.47176832  1
  C  C145  1  0.77377654  0.84993294  0.47231249  1
  C  C146  1  0.15087590  0.47278769  0.47606382  1
  C  C147  1  0.64805556  0.45914777  0.47778331  1
  C  C148  1  0.07708000  0.70239654  0.47788013  1
  C  C149  1  0.58284590  0.70179791  0.47526009  1
  C  C150  1  0.07063780  0.63901545  0.35785623  1
  C  C151  1  0.56764974  0.63532795  0.35682009  1
  C  C152  1  0.25595593  0.87828767  0.36322778  1
  C  C153  1  0.75570045  0.87466026  0.36341255  1
  C  C154  1  0.18588235  0.49821574  0.35811083  1
  C  C155  1  0.68420416  0.49785858  0.35863320  1
  C  C156  1  0.06971586  0.50551750  0.85880863  1
  C  C157  1  0.56728488  0.50166294  0.85654615  1
  C  C158  1  0.18323740  0.87119803  0.85681321  1
  C  C159  1  0.68618702  0.87405595  0.85850953  1
  C  C160  1  0.25551633  0.63452154  0.86373203  1
  C  C161  1  0.75650115  0.63467181  0.86315766  1
  C  C162  1  0.00506848  0.83707973  0.41048319  1
  C  C163  1  0.50435065  0.83515169  0.41076840  1
  C  C164  1  0.39758611  0.97607612  0.41318861  1
  C  C165  1  0.89834185  0.97532155  0.41235980  1
  C  C166  1  0.07640725  0.18405014  0.41073323  1
  C  C167  1  0.57523493  0.18086831  0.40991226  1
  C  C168  1  0.00824349  0.17588422  0.90949033  1
  C  C169  1  0.50853095  0.17567412  0.90959946  1
  C  C170  1  0.08071625  0.97832098  0.91093954  1
  C  C171  1  0.57622823  0.96722592  0.91065065  1
  C  C172  1  0.39958731  0.81989608  0.91272404  1
  C  C173  1  0.89857365  0.81926659  0.91332344  1
  C  C174  1  0.48738662  0.17436674  0.58811355  1
  C  C175  1  0.98766894  0.17445484  0.58873679  1
  C  C176  1  0.09244119  0.02229186  0.58983588  1
  C  C177  1  0.59171001  0.03578969  0.58967792  1
  C  C178  1  0.41253844  0.79700645  0.58750613  1
  C  C179  1  0.91915640  0.81729767  0.58865115  1
  C  C180  1  0.48648276  0.80054656  0.08900531  1
  C  C181  1  0.98632407  0.79992619  0.08847718  1
  C  C182  1  0.41268784  0.02844996  0.08827012  1
  C  C183  1  0.91292586  0.02867210  0.08792440  1
  C  C184  1  0.09198547  0.15791672  0.09095262  1
  C  C185  1  0.59139559  0.15716040  0.09122217  1
  C  C186  1  0.34236081  0.16657787  0.74472138  1
  C  C187  1  0.83737574  0.16436293  0.74406634  1
  C  C188  1  0.23298749  0.30869306  0.74353187  1
  C  C189  1  0.73183683  0.30619922  0.74445301  1
  C  C190  1  0.41177205  0.50845472  0.74009940  1
  C  C191  1  0.90977592  0.50967261  0.74262397  1
  C  C192  1  0.34216194  0.51846022  0.24496990  1
  C  C193  1  0.84224285  0.51854202  0.24479718  1
  C  C194  1  0.41142581  0.31525162  0.24008971  1
  C  C195  1  0.91154876  0.31528023  0.24000036  1
  C  C196  1  0.23347239  0.15617608  0.24342054  1
  C  C197  1  0.73350586  0.15631059  0.24323405  1
  C  C198  1  0.32048722  0.50743759  0.92308970  1
  C  C199  1  0.82238416  0.50817962  0.92389612  1
  C  C200  1  0.42624621  0.36711215  0.92566191  1
  C  C201  1  0.92497881  0.36156922  0.92467242  1
  C  C202  1  0.25173912  0.15055793  0.92350645  1
  C  C203  1  0.75387899  0.14497204  0.92497927  1
  C  C204  1  0.32202895  0.13653360  0.42343146  1
  C  C205  1  0.82245135  0.13588018  0.42256318  1
  C  C206  1  0.25422079  0.36340832  0.42416240  1
  C  C207  1  0.75392300  0.36103867  0.42161314  1
  C  C208  1  0.42589495  0.48987622  0.42510490  1
  C  C209  1  0.92661042  0.48693971  0.42163939  1
  C  C210  1  0.18040691  0.51508405  0.07740441  1
  C  C211  1  0.68056092  0.51590639  0.07739196  1
  C  C212  1  0.06736379  0.64460713  0.07944298  1
  C  C213  1  0.56775373  0.64614959  0.07998790  1
  C  C214  1  0.25477026  0.86898351  0.07738373  1
  C  C215  1  0.75508593  0.86878107  0.07759998  1
  C  C216  1  0.17640990  0.84225158  0.57771250  1
  C  C217  1  0.68034434  0.85064371  0.57689804  1
  C  C218  1  0.25455260  0.64211754  0.57666776  1
  C  C219  1  0.74517103  0.64394145  0.57594827  1
  C  C220  1  0.06812252  0.49249618  0.57831576  1
  C  C221  1  0.56640354  0.48692651  0.58027173  1
  C  C222  1  0.15244589  0.83972283  0.25612698  1
  C  C223  1  0.65253604  0.83995857  0.25605852  1
  C  C224  1  0.25763410  0.69469233  0.25677438  1
  C  C225  1  0.75742232  0.69426396  0.25668676  1
  C  C226  1  0.08323151  0.47932987  0.25587791  1
  C  C227  1  0.58335381  0.47938104  0.25571328  1
  C  C228  1  0.15472341  0.46799126  0.75547049  1
  C  C229  1  0.65192806  0.46420098  0.75530133  1
  C  C230  1  0.08609613  0.69418985  0.75494921  1
  C  C231  1  0.58385484  0.68760292  0.75517868  1
  C  C232  1  0.25757905  0.82000132  0.75551407  1
  C  C233  1  0.75776751  0.82202413  0.75702311  1
