# generated using pymatgen
data_CuNiC10
_symmetry_space_group_name_H-M   'P 1'
_cell_length_a   8.78119004
_cell_length_b   8.75952327
_cell_length_c   22.77643979
_cell_angle_alpha   89.92953340
_cell_angle_beta   90.49167605
_cell_angle_gamma   119.97547344
_symmetry_Int_Tables_number   1
_chemical_formula_structural   CuNiC10
_chemical_formula_sum   'Cu9 Ni9 C90'
_cell_volume   1517.53565197
_cell_formula_units_Z   9
loop_
 _symmetry_equiv_pos_site_id
 _symmetry_equiv_pos_as_xyz
  1  'x, y, z'
loop_
 _atom_site_type_symbol
 _atom_site_label
 _atom_site_symmetry_multiplicity
 _atom_site_fract_x
 _atom_site_fract_y
 _atom_site_fract_z
 _atom_site_occupancy
  C  C0  1  0.97841070  0.97370576  0.49316812  1
  C  C1  1  0.99875512  0.98288686  0.99652457  1
  C  C2  1  0.65504341  0.31886949  0.83522106  1
  C  C3  1  0.67807770  0.32222614  0.33351275  1
  C  C4  1  0.31363886  0.66027149  0.16985389  1
  C  C5  1  0.35205920  0.66119652  0.66823321  1
  C  C6  1  0.99051468  0.00441883  0.65060961  1
  C  C7  1  0.00547008  0.99423722  0.14335772  1
  C  C8  1  0.65528274  0.33324529  0.69366385  1
  C  C9  1  0.67956514  0.34833853  0.47471080  1
  C  C10  1  0.35169318  0.68366562  0.51418023  1
  C  C11  1  0.32303194  0.67628020  0.30941071  1
  Ni  Ni12  1  0.30205631  0.02156885  0.24816052  1
  Ni  Ni13  1  0.00228491  0.27985890  0.24925064  1
  Ni  Ni14  1  0.28861110  0.30799844  0.75662861  1
  Ni  Ni15  1  0.71915897  0.00036724  0.76007206  1
  Ni  Ni16  1  0.66405626  0.62972459  0.58469285  1
  Ni  Ni17  1  0.93553431  0.59655394  0.08026776  1
  Ni  Ni18  1  0.32941216  0.95562117  0.91625827  1
  Ni  Ni19  1  0.64760519  0.96416380  0.41115988  1
  Ni  Ni20  1  0.04558599  0.68663526  0.41318180  1
  C  C21  1  0.01275645  0.01232976  0.35145667  1
  C  C22  1  0.02780087  0.01607678  0.84962696  1
  C  C23  1  0.69365387  0.34071956  0.19587137  1
  C  C24  1  0.64696098  0.32369586  0.98147724  1
  C  C25  1  0.30021061  0.66950176  0.01911945  1
  C  C26  1  0.35837492  0.68706993  0.81489223  1
  Cu  Cu27  1  0.71551318  0.70483733  0.24883045  1
  Cu  Cu28  1  0.01245124  0.71700304  0.75585816  1
  Cu  Cu29  1  0.96117714  0.33861137  0.58474566  1
  Cu  Cu30  1  0.37401356  0.04133671  0.58403286  1
  Cu  Cu31  1  0.64986549  0.03598312  0.07889039  1
  Cu  Cu32  1  0.38117472  0.34609029  0.07831536  1
  Cu  Cu33  1  0.61632677  0.66376813  0.92043371  1
  Cu  Cu34  1  0.04298915  0.37878834  0.91800639  1
  Cu  Cu35  1  0.32543199  0.36919038  0.41377858  1
  C  C36  1  0.20822360  0.04724690  0.30580605  1
  C  C37  1  0.82211694  0.78356026  0.30171392  1
  C  C38  1  0.96803443  0.15734225  0.30691344  1
  C  C39  1  0.21315906  0.17542511  0.81338474  1
  C  C40  1  0.97787148  0.79579530  0.80876690  1
  C  C41  1  0.84322944  0.01876739  0.81802341  1
  C  C42  1  0.79326451  0.96092420  0.70024385  1
  C  C43  1  0.17457420  0.21996415  0.69762854  1
  C  C44  1  0.03745221  0.82020802  0.70220784  1
  C  C45  1  0.79237694  0.80638221  0.19430570  1
  C  C46  1  0.00481073  0.18483564  0.18833282  1
  C  C47  1  0.18103332  0.97813002  0.18876633  1
  C  C48  1  0.87206486  0.34744766  0.63816236  1
  C  C49  1  0.47967647  0.12338242  0.63872939  1
  C  C50  1  0.65266071  0.51482862  0.64344303  1
  C  C51  1  0.84545084  0.47873198  0.13996486  1
  C  C52  1  0.62188764  0.11053643  0.13231372  1
  C  C53  1  0.48453819  0.36885696  0.13020331  1
  C  C54  1  0.45182091  0.30384902  0.02318346  1
  C  C55  1  0.81669166  0.50289513  0.02039653  1
  C  C56  1  0.67455324  0.14503854  0.02472123  1
  C  C57  1  0.45927079  0.14075981  0.53146280  1
  C  C58  1  0.67868629  0.52865571  0.52754034  1
  C  C59  1  0.85474598  0.31245981  0.53115015  1
  C  C60  1  0.52950973  0.68925795  0.97212040  1
  C  C61  1  0.15487877  0.45756646  0.97365426  1
  C  C62  1  0.28919798  0.83402217  0.97563833  1
  C  C63  1  0.56096637  0.84557899  0.47142516  1
  C  C64  1  0.30603064  0.45226810  0.46829772  1
  C  C65  1  0.15788453  0.70666087  0.47335147  1
  C  C66  1  0.12448784  0.63583022  0.35761508  1
  C  C67  1  0.52002832  0.86336052  0.35640252  1
  C  C68  1  0.35440420  0.47544698  0.36178098  1
  C  C69  1  0.12496424  0.48957594  0.86667546  1
  C  C70  1  0.36703035  0.86159030  0.86075341  1
  C  C71  1  0.50926937  0.63109284  0.86485326  1
  C  C72  1  0.04108699  0.86722315  0.40302265  1
  C  C73  1  0.84092021  0.98546830  0.40466349  1
  C  C74  1  0.16242174  0.19596423  0.41091169  1
  C  C75  1  0.02751962  0.20072073  0.91512501  1
  C  C76  1  0.14918302  0.97312192  0.90745727  1
  C  C77  1  0.79419213  0.81761825  0.91553070  1
  C  C78  1  0.98262916  0.17989402  0.58710345  1
  C  C79  1  0.20016444  0.02775381  0.58951878  1
  C  C80  1  0.84274321  0.82313071  0.58839623  1
  C  C81  1  0.96056570  0.79272362  0.08239204  1
  C  C82  1  0.80745517  0.01655328  0.08118626  1
  C  C83  1  0.19948287  0.18932322  0.08063298  1
  C  C84  1  0.70251592  0.17551988  0.75316853  1
  C  C85  1  0.48512698  0.33197103  0.75152787  1
  C  C86  1  0.85766428  0.53893047  0.75067206  1
  C  C87  1  0.70492808  0.52765706  0.24308842  1
  C  C88  1  0.82546141  0.30467114  0.24654100  1
  C  C89  1  0.49339328  0.20338651  0.23485198  1
  C  C90  1  0.62930700  0.49642886  0.92443824  1
  C  C91  1  0.86337141  0.35793608  0.92406489  1
  C  C92  1  0.50739337  0.15562467  0.92695291  1
  C  C93  1  0.65406086  0.15099075  0.42112461  1
  C  C94  1  0.47635031  0.33944523  0.42026402  1
  C  C95  1  0.84587167  0.51860368  0.41843573  1
  C  C96  1  0.37209139  0.51184056  0.06928241  1
  C  C97  1  0.13607789  0.61755018  0.07468394  1
  C  C98  1  0.48803506  0.85355182  0.07198014  1
  C  C99  1  0.35189530  0.86187433  0.58250317  1
  C  C100  1  0.48674470  0.64528849  0.58245493  1
  C  C101  1  0.13412380  0.49817428  0.58079817  1
  C  C102  1  0.33290174  0.85363957  0.25089304  1
  C  C103  1  0.53680067  0.67595628  0.25220289  1
  C  C104  1  0.17704090  0.47135535  0.25095204  1
  C  C105  1  0.29491335  0.49597560  0.76913189  1
  C  C106  1  0.17317431  0.70317488  0.76280279  1
  C  C107  1  0.52099639  0.82584667  0.76385663  1
