# generated using pymatgen
data_Cu11NiC58
_symmetry_space_group_name_H-M   'P 1'
_cell_length_a   18.20095166
_cell_length_b   9.10874206
_cell_length_c   23.65981996
_cell_angle_alpha   90.03386833
_cell_angle_beta   89.99649619
_cell_angle_gamma   120.01506783
_symmetry_Int_Tables_number   1
_chemical_formula_structural   Cu11NiC58
_chemical_formula_sum   'Cu33 Ni3 C174'
_cell_volume   3396.47572606
_cell_formula_units_Z   3
loop_
 _symmetry_equiv_pos_site_id
 _symmetry_equiv_pos_as_xyz
  1  'x, y, z'
loop_
 _atom_site_type_symbol
 _atom_site_label
 _atom_site_symmetry_multiplicity
 _atom_site_fract_x
 _atom_site_fract_y
 _atom_site_fract_z
 _atom_site_occupancy
  C  C0  1  0.00200933  0.98031823  0.49033979  1
  C  C1  1  0.49146204  0.01279362  0.00027661  1
  C  C2  1  0.33655296  0.33525847  0.84187904  1
  C  C3  1  0.84954322  0.36036136  0.82585607  1
  C  C4  1  0.33491112  0.34072507  0.33285821  1
  C  C5  1  0.83870671  0.34241754  0.34012992  1
  C  C6  1  0.00013717  0.99490408  0.35405047  1
  C  C7  1  0.49875194  0.99686657  0.35337090  1
  C  C8  1  0.99701450  0.99275631  0.85708524  1
  C  C9  1  0.50169074  0.00828602  0.85899523  1
  C  C10  1  0.49674195  0.99973360  0.15366108  1
  C  C11  1  0.33199874  0.33221584  0.68582843  1
  C  C12  1  0.83788237  0.33858833  0.68426022  1
  C  C13  1  0.34008405  0.34024098  0.18207979  1
  C  C14  1  0.82751887  0.32483239  0.18312505  1
  C  C15  1  0.33224118  0.32613588  0.97760319  1
  C  C16  1  0.84141955  0.34141091  0.98112496  1
  C  C17  1  0.33220483  0.32995097  0.48070035  1
  C  C18  1  0.84401325  0.34763230  0.47881404  1
  C  C19  1  0.16822407  0.66975240  0.02373980  1
  C  C20  1  0.16156580  0.66651606  0.52207264  1
  C  C21  1  0.66683167  0.66639536  0.52328365  1
  C  C22  1  0.00105246  0.99117645  0.65176144  1
  C  C23  1  0.49860164  0.99940061  0.64736504  1
  C  C24  1  0.00084155  0.99949072  0.15010120  1
  C  C25  1  0.66211170  0.65451781  0.01936197  1
  C  C26  1  0.16232269  0.66380928  0.31623572  1
  C  C27  1  0.66783475  0.66773401  0.31476642  1
  C  C28  1  0.16320991  0.66713747  0.81062595  1
  C  C29  1  0.66263686  0.65767016  0.81079985  1
  Ni  Ni30  1  0.99821063  0.70366191  0.75456204  1
  Ni  Ni31  1  0.52130149  0.37806511  0.91577657  1
  Ni  Ni32  1  0.01563793  0.66444944  0.41821569  1
  Cu  Cu33  1  0.14413981  0.99060896  0.24962236  1
  Cu  Cu34  1  0.65046126  0.99334659  0.25399957  1
  Cu  Cu35  1  0.34516353  0.69636522  0.25374299  1
  Cu  Cu36  1  0.85074301  0.71153113  0.25037747  1
  Cu  Cu37  1  0.00445084  0.29555123  0.25001838  1
  Cu  Cu38  1  0.50445870  0.30930076  0.25438506  1
  Cu  Cu39  1  0.14288966  0.29540626  0.75195063  1
  Cu  Cu40  1  0.64235087  0.29381509  0.75057070  1
  Cu  Cu41  1  0.50565904  0.71709242  0.75145555  1
  Cu  Cu42  1  0.35327446  0.98952102  0.75118833  1
  Cu  Cu43  1  0.85105304  0.98889192  0.75158342  1
  Cu  Cu44  1  0.48032287  0.32343366  0.58670464  1
  Cu  Cu45  1  0.98178685  0.31581041  0.58644521  1
  Cu  Cu46  1  0.18027706  0.03998288  0.58672409  1
  Cu  Cu47  1  0.68073263  0.03859830  0.58662688  1
  Cu  Cu48  1  0.33773604  0.63674096  0.58638252  1
  Cu  Cu49  1  0.83892467  0.64244892  0.58652228  1
  Cu  Cu50  1  0.48706192  0.63883326  0.07941564  1
  Cu  Cu51  1  0.98004058  0.63844266  0.08739605  1
  Cu  Cu52  1  0.33735930  0.03932531  0.08273111  1
  Cu  Cu53  1  0.83474775  0.02596820  0.08365977  1
  Cu  Cu54  1  0.17998821  0.32348627  0.08678898  1
  Cu  Cu55  1  0.68405830  0.33589944  0.07928655  1
  Cu  Cu56  1  0.30698443  0.66063486  0.91286158  1
  Cu  Cu57  1  0.80186648  0.66273455  0.91543300  1
  Cu  Cu58  1  0.02379862  0.38792368  0.91301970  1
  Cu  Cu59  1  0.16897030  0.95175392  0.91299699  1
  Cu  Cu60  1  0.66991147  0.94244196  0.91607902  1
  Cu  Cu61  1  0.30767999  0.95474646  0.41318902  1
  Cu  Cu62  1  0.80759233  0.95478543  0.41458749  1
  Cu  Cu63  1  0.16995720  0.38397323  0.41395978  1
  Cu  Cu64  1  0.66826959  0.38271584  0.41370767  1
  Cu  Cu65  1  0.52306199  0.66069968  0.41392546  1
  C  C66  1  0.10641788  0.01928348  0.29924173  1
  C  C67  1  0.60950290  0.01832313  0.30294734  1
  C  C68  1  0.39987881  0.77888562  0.30265533  1
  C  C69  1  0.90199958  0.78590348  0.30015791  1
  C  C70  1  0.49250794  0.20275184  0.30327362  1
  C  C71  1  0.98954372  0.19214347  0.29978335  1
  C  C72  1  0.10497176  0.19437144  0.80179766  1
  C  C73  1  0.60455843  0.19501315  0.80116567  1
  C  C74  1  0.49381237  0.79316582  0.80172627  1
  C  C75  1  0.98840801  0.79520107  0.80753311  1
  C  C76  1  0.40605724  0.01973067  0.80056493  1
  C  C77  1  0.90228959  0.02147393  0.80188371  1
  C  C78  1  0.39807864  0.96606732  0.69971644  1
  C  C79  1  0.89430972  0.96407582  0.70061796  1
  C  C80  1  0.08759079  0.21068648  0.70010434  1
  C  C81  1  0.58520365  0.21053059  0.70014246  1
  C  C82  1  0.01238847  0.83631257  0.69746138  1
  C  C83  1  0.51879422  0.82758481  0.70033941  1
  C  C84  1  0.37973266  0.79522938  0.20161589  1
  C  C85  1  0.89496886  0.82618456  0.19941313  1
  C  C86  1  0.01461404  0.19946184  0.19882652  1
  C  C87  1  0.52316901  0.24806824  0.20234737  1
  C  C88  1  0.08390836  0.96750728  0.19876877  1
  C  C89  1  0.60133152  0.95741208  0.20183593  1
  C  C90  1  0.44103163  0.34882236  0.63636476  1
  C  C91  1  0.94123489  0.34250003  0.63531937  1
  C  C92  1  0.23096614  0.12455682  0.63652364  1
  C  C93  1  0.73181669  0.11539717  0.63665620  1
  C  C94  1  0.32681653  0.53479411  0.63628664  1
  C  C95  1  0.82677142  0.53943783  0.63627695  1
  C  C96  1  0.45824499  0.54017030  0.13122005  1
  C  C97  1  0.93894375  0.52987408  0.13593640  1
  C  C98  1  0.33105653  0.12315105  0.13446048  1
  C  C99  1  0.81257002  0.09123235  0.13298725  1
  C  C100  1  0.23282759  0.34883364  0.13592499  1
  C  C101  1  0.73359440  0.37325140  0.13113077  1
  C  C102  1  0.20800507  0.27738639  0.03563746  1
  C  C103  1  0.72661657  0.31500288  0.02994076  1
  C  C104  1  0.43452420  0.55434391  0.03020889  1
  C  C105  1  0.92801763  0.58094345  0.03608311  1
  C  C106  1  0.34678009  0.14316406  0.03206949  1
  C  C107  1  0.85838131  0.13703148  0.03427840  1
  C  C108  1  0.21282968  0.14293445  0.53512970  1
  C  C109  1  0.70939602  0.14289987  0.53605988  1
  C  C110  1  0.36122130  0.57689462  0.53592431  1
  C  C111  1  0.86034770  0.58179344  0.53533071  1
  C  C112  1  0.42782687  0.27851521  0.53594034  1
  C  C113  1  0.92937660  0.27297855  0.53508626  1
  C  C114  1  0.26797651  0.67606054  0.96465980  1
  C  C115  1  0.75552163  0.67180611  0.96690103  1
  C  C116  1  0.06953523  0.46857480  0.96449074  1
  C  C117  1  0.58307850  0.49840519  0.97082848  1
  C  C118  1  0.16234505  0.85741491  0.96390889  1
  C  C119  1  0.66731104  0.84364931  0.96791053  1
  C  C120  1  0.26969409  0.86072496  0.46466221  1
  C  C121  1  0.76760839  0.85716748  0.46531596  1
  C  C122  1  0.16615948  0.46545212  0.46564355  1
  C  C123  1  0.66040528  0.46405403  0.46435975  1
  C  C124  1  0.07093148  0.67644366  0.47150295  1
  C  C125  1  0.56969789  0.67411746  0.46527676  1
  C  C126  1  0.07721484  0.65686703  0.35833578  1
  C  C127  1  0.57577486  0.65114208  0.36261840  1
  C  C128  1  0.25073232  0.85090257  0.36095946  1
  C  C129  1  0.75412046  0.84887726  0.36246485  1
  C  C130  1  0.17457082  0.49435539  0.36161360  1
  C  C131  1  0.67564674  0.49986044  0.36173103  1
  C  C132  1  0.07509490  0.49915744  0.86111513  1
  C  C133  1  0.58085492  0.50274389  0.85882260  1
  C  C134  1  0.17497681  0.84880165  0.86113759  1
  C  C135  1  0.67592892  0.85205003  0.86316698  1
  C  C136  1  0.25483809  0.65678924  0.86112007  1
  C  C137  1  0.75039327  0.65282506  0.86273421  1
  C  C138  1  0.00828454  0.83272219  0.41369309  1
  C  C139  1  0.51556237  0.80968117  0.40510924  1
  C  C140  1  0.39055269  0.97351917  0.40383156  1
  C  C141  1  0.89209887  0.97709396  0.40763730  1
  C  C142  1  0.09366461  0.21919548  0.40703164  1
  C  C143  1  0.59241672  0.22070774  0.40403551  1
  C  C144  1  0.01533280  0.22292964  0.90509669  1
  C  C145  1  0.52489149  0.20747864  0.92013769  1
  C  C146  1  0.09479635  0.96911385  0.90611803  1
  C  C147  1  0.59121330  0.94698984  0.91438834  1
  C  C148  1  0.39271477  0.80941378  0.90810175  1
  C  C149  1  0.88260012  0.81834990  0.91406500  1
  C  C150  1  0.48794978  0.16115517  0.60187339  1
  C  C151  1  0.98900991  0.15633578  0.60068678  1
  C  C152  1  0.09141159  0.02670305  0.59750868  1
  C  C153  1  0.59089051  0.02276504  0.60344982  1
  C  C154  1  0.41988900  0.81542938  0.60210109  1
  C  C155  1  0.91935962  0.82214913  0.59878515  1
  C  C156  1  0.50364276  0.81306630  0.08502347  1
  C  C157  1  0.98778642  0.81437515  0.10321900  1
  C  C158  1  0.41450096  0.02011410  0.08552969  1
  C  C159  1  0.91066869  0.00446017  0.10001410  1
  C  C160  1  0.08967998  0.15953998  0.10308728  1
  C  C161  1  0.59718070  0.19489860  0.08480383  1
  C  C162  1  0.33863338  0.13105414  0.74118603  1
  C  C163  1  0.83146893  0.12340249  0.74167905  1
  C  C164  1  0.22899945  0.32588918  0.74248927  1
  C  C165  1  0.72746185  0.32415015  0.74122861  1
  C  C166  1  0.43670149  0.54448491  0.74212762  1
  C  C167  1  0.92450964  0.51329675  0.74604626  1
  C  C168  1  0.33086096  0.52199390  0.24841884  1
  C  C169  1  0.83605288  0.54094068  0.23973974  1
  C  C170  1  0.43338937  0.34233431  0.24970868  1
  C  C171  1  0.93408671  0.32414717  0.23788796  1
  C  C172  1  0.22797199  0.13347574  0.23818268  1
  C  C173  1  0.73816600  0.13589339  0.24868073  1
  C  C174  1  0.30952613  0.50137055  0.91106772  1
  C  C175  1  0.80582706  0.50663357  0.91684361  1
  C  C176  1  0.43444800  0.37851089  0.91243434  1
  C  C177  1  0.94062975  0.38150083  0.91035162  1
  C  C178  1  0.24829056  0.11579100  0.90928414  1
  C  C179  1  0.74659762  0.10907616  0.91808802  1
  C  C180  1  0.30975753  0.11911834  0.41085792  1
  C  C181  1  0.80613767  0.11384393  0.41162566  1
  C  C182  1  0.24837103  0.37317878  0.41061884  1
  C  C183  1  0.74670099  0.37558885  0.41147365  1
  C  C184  1  0.44061753  0.50143468  0.41134869  1
  C  C185  1  0.92785931  0.48797511  0.40929227  1
  C  C186  1  0.15948843  0.45707800  0.07991489  1
  C  C187  1  0.67697720  0.49811953  0.06759775  1
  C  C188  1  0.06618991  0.67356822  0.07961958  1
  C  C189  1  0.57771458  0.65981442  0.06757616  1
  C  C190  1  0.26134711  0.87074521  0.07857290  1
  C  C191  1  0.76288142  0.85247814  0.06883733  1
  C  C192  1  0.16485992  0.86885211  0.58158169  1
  C  C193  1  0.65993499  0.86388336  0.57899555  1
  C  C194  1  0.27067585  0.67550771  0.57881652  1
  C  C195  1  0.76967146  0.67692542  0.57919197  1
  C  C196  1  0.06826111  0.45443911  0.57937281  1
  C  C197  1  0.56705133  0.45873226  0.57915725  1
  C  C198  1  0.14787289  0.82982187  0.25479865  1
  C  C199  1  0.65882875  0.83495922  0.26633421  1
  C  C200  1  0.25930484  0.68293783  0.26471327  1
  C  C201  1  0.76540545  0.70162857  0.25788169  1
  C  C202  1  0.08580608  0.46236531  0.25605716  1
  C  C203  1  0.58460581  0.48531721  0.26597479  1
  C  C204  1  0.14951402  0.46822692  0.75919432  1
  C  C205  1  0.64920928  0.46955705  0.75816376  1
  C  C206  1  0.09099805  0.69777722  0.76333075  1
  C  C207  1  0.58796074  0.70768664  0.75921121  1
  C  C208  1  0.26906545  0.82844123  0.75779177  1
  C  C209  1  0.76585519  0.82366084  0.76063404  1
