# generated using pymatgen
data_Cu6Ni6C7
_symmetry_space_group_name_H-M   'P 1'
_cell_length_a   7.24290651
_cell_length_b   7.57105119
_cell_length_c   7.80641108
_cell_angle_alpha   57.84321752
_cell_angle_beta   65.92976926
_cell_angle_gamma   64.61517092
_symmetry_Int_Tables_number   1
_chemical_formula_structural   Cu6Ni6C7
_chemical_formula_sum   'Cu6 Ni6 C7'
_cell_volume   318.25215955
_cell_formula_units_Z   1
loop_
 _symmetry_equiv_pos_site_id
 _symmetry_equiv_pos_as_xyz
  1  'x, y, z'
loop_
 _atom_site_type_symbol
 _atom_site_label
 _atom_site_symmetry_multiplicity
 _atom_site_fract_x
 _atom_site_fract_y
 _atom_site_fract_z
 _atom_site_occupancy
  C  C0  1  0.27970320  0.48440694  0.43865461  1
  C  C1  1  0.55003960  0.60843513  0.82175556  1
  C  C2  1  0.73844214  0.74527160  0.25020192  1
  C  C3  1  0.95431651  0.01949944  0.50560958  1
  C  C4  1  0.50964815  0.07062600  0.89622432  1
  C  C5  1  0.01315716  0.01170938  0.96896224  1
  C  C6  1  0.00921096  0.49009089  0.98534384  1
  Ni  Ni7  1  0.04239039  0.67972896  0.08601196  1
  Ni  Ni8  1  0.97683358  0.73022869  0.72645742  1
  Ni  Ni9  1  0.71604975  0.04160625  0.00951176  1
  Ni  Ni10  1  0.02385681  0.25874535  0.24835304  1
  Ni  Ni11  1  0.29677816  0.94383273  0.95717225  1
  Ni  Ni12  1  0.95481121  0.32135595  0.88581196  1
  Cu  Cu13  1  0.06700567  0.09824624  0.66005554  1
  Cu  Cu14  1  0.49957535  0.71417228  0.46067302  1
  Cu  Cu15  1  0.32482070  0.37078603  0.86350410  1
  Cu  Cu16  1  0.69103300  0.60817246  0.11488000  1
  Cu  Cu17  1  0.64356033  0.13653418  0.60204147  1
  Cu  Cu18  1  0.91412433  0.90762249  0.29556140  1
