# generated using pymatgen
data_Cu2NiC12
_symmetry_space_group_name_H-M   'P 1'
_cell_length_a   5.96010225
_cell_length_b   5.84113165
_cell_length_c   5.96010190
_cell_angle_alpha   60.65814378
_cell_angle_beta   65.48320392
_cell_angle_gamma   60.65814497
_symmetry_Int_Tables_number   1
_chemical_formula_structural   Cu2NiC12
_chemical_formula_sum   'Cu2 Ni1 C12'
_cell_volume   153.43993559
_cell_formula_units_Z   1
loop_
 _symmetry_equiv_pos_site_id
 _symmetry_equiv_pos_as_xyz
  1  'x, y, z'
loop_
 _atom_site_type_symbol
 _atom_site_label
 _atom_site_symmetry_multiplicity
 _atom_site_fract_x
 _atom_site_fract_y
 _atom_site_fract_z
 _atom_site_occupancy
  Ni  Ni0  1  0.30553601  0.94446399  0.30553601  1
  C  C1  1  0.99457374  0.25542626  0.99457374  1
  C  C2  1  0.55537998  0.95762115  0.55537998  1
  C  C3  1  0.55537998  0.43161889  0.55537998  1
  C  C4  1  0.95630031  0.79369969  0.95630031  1
  Cu  Cu5  1  0.02325543  0.49759512  0.48155433  1
  Cu  Cu6  1  0.48155433  0.49759512  0.02325543  1
  C  C7  1  0.18054368  0.34421080  0.18054368  1
  C  C8  1  0.32126728  0.23964089  0.69945094  1
  C  C9  1  0.18054368  0.79470184  0.18054368  1
  C  C10  1  0.69945094  0.23964089  0.32126728  1
  C  C11  1  0.32124199  0.74255259  0.69365284  1
  C  C12  1  0.79274340  0.22767381  0.79274341  1
  C  C13  1  0.69365284  0.74255259  0.32124199  1
  C  C14  1  0.79274340  0.68683938  0.79274341  1
