# generated using pymatgen
data_Cu2Ni10C7
_symmetry_space_group_name_H-M   'P 1'
_cell_length_a   8.17326498
_cell_length_b   5.71196425
_cell_length_c   5.81790847
_cell_angle_alpha   67.13267453
_cell_angle_beta   63.60979589
_cell_angle_gamma   64.81445203
_symmetry_Int_Tables_number   1
_chemical_formula_structural   Cu2Ni10C7
_chemical_formula_sum   'Cu2 Ni10 C7'
_cell_volume   213.40770975
_cell_formula_units_Z   1
loop_
 _symmetry_equiv_pos_site_id
 _symmetry_equiv_pos_as_xyz
  1  'x, y, z'
loop_
 _atom_site_type_symbol
 _atom_site_label
 _atom_site_symmetry_multiplicity
 _atom_site_fract_x
 _atom_site_fract_y
 _atom_site_fract_z
 _atom_site_occupancy
  C  C0  1  0.99018444  -0.00373290  0.52061532  1
  C  C1  1  0.78403728  0.63357588  0.67144022  1
  C  C2  1  0.64505542  0.33870313  0.35134707  1
  C  C3  1  0.33361495  0.65361798  0.69280228  1
  C  C4  1  0.19440723  0.35958606  0.37284331  1
  C  C5  1  0.48912489  0.99634152  0.02199707  1
  C  C6  1  -0.01103129  0.99612788  0.02149312  1
  Ni  Ni7  1  0.68721405  0.01937775  0.66452020  1
  Ni  Ni8  1  0.35814196  0.37379349  0.00567751  1
  Ni  Ni9  1  0.60886539  0.57107822  0.53810815  1
  Ni  Ni10  1  0.91539011  0.25060802  0.21117853  1
  Ni  Ni11  1  0.06322147  0.74171694  0.83160760  1
  Ni  Ni12  1  0.36988997  0.42125082  0.50594246  1
  Ni  Ni13  1  0.29161364  0.97354133  0.37985503  1
  Ni  Ni14  1  0.61990924  0.61861459  0.03860641  1
  Ni  Ni15  1  0.96818434  0.27627203  0.68599643  1
  Ni  Ni16  1  0.01006836  0.71641703  0.35748753  1
  Cu  Cu17  1  0.30305608  0.91291818  0.87096752  1
  Cu  Cu18  1  0.67534847  0.07876305  0.17418125  1
