# generated using pymatgen
data_Cu9Ni3C70
_symmetry_space_group_name_H-M   'P 1'
_cell_length_a   18.24821119
_cell_length_b   9.13421214
_cell_length_c   21.97985593
_cell_angle_alpha   90.40932211
_cell_angle_beta   89.11300146
_cell_angle_gamma   120.08496341
_symmetry_Int_Tables_number   1
_chemical_formula_structural   Cu9Ni3C70
_chemical_formula_sum   'Cu27 Ni9 C210'
_cell_volume   3169.72988033
_cell_formula_units_Z   3
loop_
 _symmetry_equiv_pos_site_id
 _symmetry_equiv_pos_as_xyz
  1  'x, y, z'
loop_
 _atom_site_type_symbol
 _atom_site_label
 _atom_site_symmetry_multiplicity
 _atom_site_fract_x
 _atom_site_fract_y
 _atom_site_fract_z
 _atom_site_occupancy
  C  C0  1  0.80949856  0.99945980  0.25520751  1
  C  C1  1  0.18273334  0.36713435  0.25723862  1
  C  C2  1  0.68309418  0.35390172  0.25238301  1
  C  C3  1  0.99788235  0.62630728  0.24034748  1
  C  C4  1  0.50694328  0.65068540  0.24631064  1
  C  C5  1  0.31247113  0.62442072  0.75597580  1
  C  C6  1  0.00521098  0.36410937  0.74592400  1
  C  C7  1  0.50556717  0.36481299  0.73843484  1
  C  C8  1  0.18383417  0.01366116  0.75192805  1
  C  C9  1  0.67844011  0.00704015  0.76101634  1
  C  C10  1  0.14813621  0.33135332  0.58538848  1
  C  C11  1  0.64217648  0.33511079  0.59204084  1
  C  C12  1  0.34108413  0.99056268  0.58420207  1
  C  C13  1  0.83095843  0.95550781  0.57891144  1
  C  C14  1  0.14444665  0.95094295  0.08092563  1
  C  C15  1  0.64867352  0.96394798  0.07948865  1
  C  C16  1  0.33253406  0.70948234  0.07339350  1
  C  C17  1  0.83987108  0.68797997  0.07816899  1
  C  C18  1  0.48547861  0.68548975  0.91503988  1
  C  C19  1  0.98033064  0.66072252  0.92384760  1
  C  C20  1  0.35096664  0.01817252  0.91722365  1
  C  C21  1  0.84083547  0.02952314  0.91161829  1
  C  C22  1  0.17242535  0.31771552  0.90495608  1
  C  C23  1  0.66530568  0.28023821  0.90787709  1
  C  C24  1  0.48164299  0.30063462  0.42818013  1
  C  C25  1  0.98435139  0.28713631  0.42202051  1
  C  C26  1  0.16837074  0.04818430  0.41956283  1
  C  C27  1  0.67181057  0.03013321  0.40969929  1
  C  C28  1  0.34318737  0.65265755  0.41762941  1
  C  C29  1  0.84642141  0.67853240  0.42353974  1
  C  C30  1  0.99941459  0.99958054  0.49835947  1
  C  C31  1  0.50165418  0.99652244  0.50902433  1
  C  C32  1  0.99874154  0.00020064  0.00374504  1
  C  C33  1  0.50094192  0.00244718  0.99325053  1
  C  C34  1  0.32961496  0.34877533  0.83081481  1
  C  C35  1  0.81970649  0.32819123  0.83160902  1
  C  C36  1  0.32891000  0.32440238  0.33661760  1
  C  C37  1  0.82508386  0.30588122  0.33347948  1
  C  C38  1  0.15828654  0.66103723  0.16026196  1
  C  C39  1  0.66110341  0.66508128  0.16568073  1
  C  C40  1  0.16207124  0.65899728  0.66849752  1
  C  C41  1  0.65667782  0.63894167  0.66781758  1
  C  C42  1  0.99955086  0.01531811  0.35617925  1
  C  C43  1  0.50591687  0.00555468  0.33683990  1
  C  C44  1  0.00550463  0.00764515  0.83478611  1
  C  C45  1  0.51019461  0.99573988  0.85253416  1
  C  C46  1  0.00494795  0.99906394  0.65874960  1
  C  C47  1  0.50543971  0.03733067  0.65412623  1
  C  C48  1  0.99950854  0.98602211  0.14855273  1
  C  C49  1  0.50569987  0.00898855  0.15724922  1
  C  C50  1  0.33739219  0.34226292  0.67802313  1
  C  C51  1  0.82381337  0.34332577  0.68576677  1
  C  C52  1  0.33530104  0.32835560  0.17953117  1
  C  C53  1  0.83407202  0.33227721  0.17597968  1
  C  C54  1  0.33472557  0.34679121  0.98420799  1
  C  C55  1  0.83268687  0.32918417  0.98843519  1
  C  C56  1  0.33301309  0.33873460  0.49128385  1
  C  C57  1  0.83418170  0.32208119  0.48752766  1
  C  C58  1  0.16189322  0.65741673  0.01505609  1
  C  C59  1  0.66455314  0.66814893  0.00570794  1
  C  C60  1  0.16214169  0.65399883  0.51111235  1
  C  C61  1  0.66127959  0.66611663  0.51733943  1
  C  C62  1  0.17126123  0.65616421  0.32688258  1
  C  C63  1  0.67048206  0.70283565  0.32010763  1
  C  C64  1  0.17117229  0.64160855  0.81926862  1
  C  C65  1  0.67146233  0.67088382  0.81798764  1
  Ni  Ni66  1  0.65300179  0.00387600  0.24555841  1
  Ni  Ni67  1  0.15320181  0.30239460  0.74543886  1
  Ni  Ni68  1  0.65175014  0.30999217  0.75327901  1
  Ni  Ni69  1  0.48236367  0.33752318  0.58057882  1
  Ni  Ni70  1  0.98289852  0.62663576  0.08257832  1
  Ni  Ni71  1  0.31619847  0.66652796  0.92007061  1
  Ni  Ni72  1  0.67107006  0.96777778  0.91967860  1
  Ni  Ni73  1  0.81483503  0.96655083  0.42064432  1
  Ni  Ni74  1  0.17068150  0.36576572  0.41834269  1
  Cu  Cu75  1  0.15047082  0.99843231  0.25090150  1
  Cu  Cu76  1  0.34885665  0.70037483  0.24757312  1
  Cu  Cu77  1  0.85252956  0.70578792  0.25217465  1
  Cu  Cu78  1  0.00192930  0.29403268  0.24916997  1
  Cu  Cu79  1  0.49683625  0.29778420  0.25181628  1
  Cu  Cu80  1  0.00039057  0.69970340  0.75225164  1
  Cu  Cu81  1  0.49779869  0.70647297  0.74832051  1
  Cu  Cu82  1  0.34892120  0.99715209  0.75167945  1
  Cu  Cu83  1  0.85178356  0.00033060  0.74712385  1
  Cu  Cu84  1  0.98109204  0.33463906  0.58553563  1
  Cu  Cu85  1  0.17889551  0.02001099  0.58148253  1
  Cu  Cu86  1  0.68488302  0.03745036  0.58391838  1
  Cu  Cu87  1  0.33231466  0.64007895  0.58327818  1
  Cu  Cu88  1  0.83875578  0.63273824  0.58148347  1
  Cu  Cu89  1  0.48203049  0.63097817  0.08619308  1
  Cu  Cu90  1  0.33723899  0.04301592  0.08392399  1
  Cu  Cu91  1  0.83322754  0.02655878  0.08415958  1
  Cu  Cu92  1  0.18606680  0.32962541  0.08729800  1
  Cu  Cu93  1  0.67947581  0.33772364  0.08295996  1
  Cu  Cu94  1  0.81931561  0.67335320  0.91676836  1
  Cu  Cu95  1  0.01647430  0.36296969  0.91496096  1
  Cu  Cu96  1  0.51611224  0.37073760  0.91853496  1
  Cu  Cu97  1  0.16428201  0.96190295  0.91632827  1
  Cu  Cu98  1  0.31699630  0.96161974  0.41391800  1
  Cu  Cu99  1  0.66387571  0.36736767  0.41430836  1
  Cu  Cu100  1  0.01955023  0.66607007  0.41463647  1
  Cu  Cu101  1  0.51596757  0.67006938  0.41378872  1
  C  C102  1  0.10876371  0.02217489  0.30564721  1
  C  C103  1  0.61312409  0.04005927  0.30816607  1
  C  C104  1  0.39887060  0.78284344  0.30343033  1
  C  C105  1  0.90425307  0.79215508  0.30623053  1
  C  C106  1  0.48255954  0.19715442  0.30866070  1
  C  C107  1  0.99446708  0.20287949  0.30681726  1
  C  C108  1  0.11343027  0.18655980  0.80774010  1
  C  C109  1  0.60668408  0.18543274  0.81203569  1
  C  C110  1  0.48517413  0.77605432  0.80675281  1
  C  C111  1  0.98527581  0.77174100  0.80952076  1
  C  C112  1  0.39801010  0.01080332  0.80598814  1
  C  C113  1  0.90071270  0.01296969  0.80357572  1
  C  C114  1  0.38700317  0.96931351  0.69539492  1
  C  C115  1  0.89424188  0.98021092  0.69200149  1
  C  C116  1  0.09207943  0.21452225  0.68690569  1
  C  C117  1  0.59744920  0.23350168  0.69048633  1
  C  C118  1  0.00891236  0.80527571  0.69894367  1
  C  C119  1  0.50333517  0.81065248  0.69611917  1
  C  C120  1  0.39202761  0.79935489  0.19225431  1
  C  C121  1  0.89141453  0.80853980  0.19620246  1
  C  C122  1  0.01233349  0.20522551  0.19629426  1
  C  C123  1  0.50443953  0.20862626  0.19804665  1
  C  C124  1  0.10002917  0.97681652  0.19516737  1
  C  C125  1  0.59132007  0.96683200  0.18740357  1
  C  C126  1  0.43607670  0.34964740  0.64323887  1
  C  C127  1  0.93570790  0.34261808  0.64049678  1
  C  C128  1  0.22977889  0.10018877  0.63668669  1
  C  C129  1  0.73939418  0.12471476  0.63707144  1
  C  C130  1  0.31711752  0.52781602  0.63635479  1
  C  C131  1  0.83244477  0.52795295  0.63356241  1
  C  C132  1  0.43966318  0.53720551  0.14341935  1
  C  C133  1  0.93856164  0.52319618  0.14583417  1
  C  C134  1  0.32696352  0.12950587  0.13802984  1
  C  C135  1  0.82053474  0.10756267  0.13911051  1
  C  C136  1  0.23727984  0.34984393  0.14245385  1
  C  C137  1  0.72969353  0.36108541  0.13910306  1
  C  C138  1  0.22649817  0.30304707  0.03191331  1
  C  C139  1  0.72098675  0.31064205  0.02887847  1
  C  C140  1  0.43205555  0.54061655  0.03202036  1
  C  C141  1  0.92133747  0.54145480  0.02356639  1
  C  C142  1  0.34444948  0.13663220  0.02698642  1
  C  C143  1  0.84072757  0.12223395  0.02827480  1
  C  C144  1  0.21932957  0.12798046  0.52660389  1
  C  C145  1  0.72302674  0.14174764  0.52723143  1
  C  C146  1  0.33956220  0.56101692  0.52589007  1
  C  C147  1  0.84629471  0.55491526  0.52282340  1
  C  C148  1  0.42233901  0.30379097  0.52065367  1
  C  C149  1  0.93555652  0.32685630  0.52878365  1
  C  C150  1  0.26973777  0.69533614  0.98012755  1
  C  C151  1  0.78123243  0.69177915  0.97553032  1
  C  C152  1  0.07098985  0.44445677  0.96782053  1
  C  C153  1  0.57022219  0.44938154  0.97233924  1
  C  C154  1  0.15359512  0.86107505  0.97176859  1
  C  C155  1  0.65534960  0.85656170  0.98192595  1
  C  C156  1  0.27808066  0.86494529  0.47140583  1
  C  C157  1  0.76730618  0.84186010  0.47865670  1
  C  C158  1  0.15048507  0.45084236  0.47727365  1
  C  C159  1  0.65425137  0.45023808  0.46927987  1
  C  C160  1  0.07456945  0.69503892  0.46734978  1
  C  C161  1  0.57066438  0.69644551  0.46589604  1
  C  C162  1  0.05790542  0.64053969  0.35760004  1
  C  C163  1  0.55313931  0.64359486  0.35622648  1
  C  C164  1  0.26160745  0.87772883  0.36143569  1
  C  C165  1  0.76071794  0.89803234  0.35767410  1
  C  C166  1  0.18956853  0.47950419  0.35594170  1
  C  C167  1  0.67198373  0.46519520  0.35833405  1
  C  C168  1  0.05460468  0.46458477  0.85826257  1
  C  C169  1  0.55364123  0.47394389  0.86311100  1
  C  C170  1  0.17209268  0.87774094  0.86081726  1
  C  C171  1  0.68681322  0.87785907  0.85941436  1
  C  C172  1  0.25787801  0.62231001  0.85930359  1
  C  C173  1  0.76465494  0.65187215  0.86540016  1
  C  C174  1  0.00994561  0.81816092  0.41040468  1
  C  C175  1  0.50527675  0.82194444  0.40968618  1
  C  C176  1  0.40174555  0.97418679  0.40786633  1
  C  C177  1  0.90866103  0.97985710  0.41714255  1
  C  C178  1  0.08691542  0.17556719  0.41402784  1
  C  C179  1  0.58684988  0.19327998  0.41301625  1
  C  C180  1  0.00558872  0.18948242  0.90998884  1
  C  C181  1  0.50500248  0.19803803  0.91397994  1
  C  C182  1  0.08808813  0.98380106  0.91471497  1
  C  C183  1  0.58615715  0.98584412  0.91750880  1
  C  C184  1  0.40960703  0.83914227  0.91416999  1
  C  C185  1  0.90461380  0.82994438  0.91172989  1
  C  C186  1  0.49001101  0.16164743  0.58244870  1
  C  C187  1  0.98742360  0.17706491  0.58456170  1
  C  C188  1  0.09294866  0.00169796  0.58633579  1
  C  C189  1  0.59941661  0.01671054  0.58921294  1
  C  C190  1  0.40909550  0.80858056  0.58881428  1
  C  C191  1  0.91360921  0.80774347  0.58532207  1
  C  C192  1  0.48687746  0.79975296  0.08556090  1
  C  C193  1  0.99346157  0.82170063  0.08536952  1
  C  C194  1  0.41243666  0.02009855  0.08834969  1
  C  C195  1  0.91104051  0.01149216  0.08813139  1
  C  C196  1  0.10092935  0.17660085  0.09141814  1
  C  C197  1  0.59367014  0.18328271  0.08767265  1
  C  C198  1  0.34293807  0.15434093  0.74793820  1
  C  C199  1  0.85062476  0.16253471  0.74525755  1
  C  C200  1  0.24847965  0.32242392  0.74021686  1
  C  C201  1  0.74328001  0.31191780  0.74890041  1
  C  C202  1  0.42265857  0.53082959  0.74607804  1
  C  C203  1  0.92926957  0.52263232  0.74660959  1
  C  C204  1  0.34118168  0.52814997  0.24569148  1
  C  C205  1  0.84570022  0.53622472  0.24876714  1
  C  C206  1  0.42413917  0.33060251  0.24735402  1
  C  C207  1  0.92435840  0.30863732  0.24667885  1
  C  C208  1  0.23574074  0.15723420  0.24625129  1
  C  C209  1  0.74837287  0.17546515  0.24032072  1
  C  C210  1  0.32804506  0.49730081  0.92378788  1
  C  C211  1  0.82930386  0.52125914  0.91813425  1
  C  C212  1  0.42985950  0.35103616  0.92548518  1
  C  C213  1  0.93180262  0.34756481  0.92093949  1
  C  C214  1  0.24303698  0.13285628  0.91978350  1
  C  C215  1  0.75682165  0.16105261  0.92330526  1
  C  C216  1  0.32775637  0.13412032  0.41627538  1
  C  C217  1  0.82890601  0.16124795  0.42449298  1
  C  C218  1  0.25664418  0.34836862  0.42468275  1
  C  C219  1  0.74207505  0.35225698  0.41746924  1
  C  C220  1  0.43085098  0.51627936  0.41930940  1
  C  C221  1  0.93396082  0.51360690  0.42108380  1
  C  C222  1  0.18111070  0.48613512  0.08334683  1
  C  C223  1  0.67480366  0.49532548  0.07666726  1
  C  C224  1  0.08071413  0.65915085  0.07707355  1
  C  C225  1  0.56816091  0.65304821  0.08465716  1
  C  C226  1  0.25903389  0.87221942  0.08386527  1
  C  C227  1  0.75799929  0.85158169  0.08247400  1
  C  C228  1  0.17469372  0.85312061  0.57466978  1
  C  C229  1  0.68109148  0.87176433  0.57998906  1
  C  C230  1  0.25594121  0.66282325  0.58153640  1
  C  C231  1  0.76017942  0.64480311  0.58219498  1
  C  C232  1  0.06847941  0.48609129  0.58506457  1
  C  C233  1  0.58038315  0.49969527  0.57633517  1
  C  C234  1  0.15752964  0.84373083  0.25542100  1
  C  C235  1  0.65924166  0.82909348  0.24900973  1
  C  C236  1  0.26217164  0.67764640  0.25017842  1
  C  C237  1  0.76489634  0.67951589  0.25605728  1
  C  C238  1  0.07845611  0.46913263  0.25044249  1
  C  C239  1  0.57671245  0.46370272  0.25479786  1
  C  C240  1  0.15869644  0.48856250  0.74900413  1
  C  C241  1  0.65626537  0.49509594  0.75904251  1
  C  C242  1  0.08099803  0.69662363  0.75546693  1
  C  C243  1  0.57647022  0.69427815  0.75007442  1
  C  C244  1  0.26013369  0.84903318  0.75471756  1
  C  C245  1  0.76448883  0.85729905  0.74913553  1
