# generated using pymatgen
data_Cu2Ni2C35
_symmetry_space_group_name_H-M   'P 1'
_cell_length_a   9.05889032
_cell_length_b   9.05342234
_cell_length_c   22.86784791
_cell_angle_alpha   90.03739163
_cell_angle_beta   90.14920264
_cell_angle_gamma   119.97220230
_symmetry_Int_Tables_number   1
_chemical_formula_structural   Cu2Ni2C35
_chemical_formula_sum   'Cu6 Ni6 C105'
_cell_volume   1624.66084320
_cell_formula_units_Z   3
loop_
 _symmetry_equiv_pos_site_id
 _symmetry_equiv_pos_as_xyz
  1  'x, y, z'
loop_
 _atom_site_type_symbol
 _atom_site_label
 _atom_site_symmetry_multiplicity
 _atom_site_fract_x
 _atom_site_fract_y
 _atom_site_fract_z
 _atom_site_occupancy
  C  C0  1  0.64101485  0.00570671  0.25047076  1
  C  C1  1  0.36548647  0.36062910  0.24929983  1
  C  C2  1  0.99398915  0.63273034  0.24947161  1
  C  C3  1  0.99695133  0.36209813  0.74954514  1
  C  C4  1  0.03550018  0.69977677  0.58063485  1
  C  C5  1  0.66149761  0.96285031  0.58090211  1
  C  C6  1  0.97045857  0.66799246  0.91876557  1
  C  C7  1  0.70126591  0.03521824  0.91672381  1
  C  C8  1  0.32907897  0.29783805  0.91932432  1
  C  C9  1  0.00439073  0.00443673  0.49408478  1
  C  C10  1  0.00488170  0.00241423  0.00492939  1
  C  C11  1  0.65980429  0.33037292  0.83150870  1
  C  C12  1  0.66788902  0.33305589  0.33538372  1
  C  C13  1  0.33117005  0.66202609  0.16220748  1
  C  C14  1  0.34085629  0.66478377  0.66410116  1
  Ni  Ni15  1  0.99594755  0.99594948  0.35489348  1
  Ni  Ni16  1  0.00452828  0.00240219  0.84839049  1
  Ni  Ni17  1  0.66785974  0.33726700  0.18340757  1
  Ni  Ni18  1  0.66574942  0.33273100  0.98482916  1
  Ni  Ni19  1  0.32400842  0.66109565  0.02305686  1
  Ni  Ni20  1  0.33378414  0.66403405  0.51971550  1
  Cu  Cu21  1  0.00249571  0.00259494  0.64623297  1
  Cu  Cu22  1  0.00389062  0.00017062  0.14693460  1
  Cu  Cu23  1  0.66234633  0.33329315  0.68646015  1
  Cu  Cu24  1  0.66877648  0.33204485  0.47829754  1
  Cu  Cu25  1  0.33140082  0.66865014  0.31550741  1
  Cu  Cu26  1  0.33329155  0.67265914  0.81007807  1
  C  C27  1  0.28903694  0.99837292  0.25096743  1
  C  C28  1  0.70859616  0.71171112  0.24964481  1
  C  C29  1  0.00214005  0.28979101  0.25036841  1
  C  C30  1  0.29621284  0.29384926  0.74930360  1
  C  C31  1  0.99794279  0.70762717  0.74897888  1
  C  C32  1  0.70601296  0.99773007  0.74850683  1
  C  C33  1  0.95258618  0.33115235  0.58445826  1
  C  C34  1  0.37827062  0.05096167  0.58285888  1
  C  C35  1  0.66666971  0.61951303  0.58345826  1
  C  C36  1  0.96130621  0.63379233  0.08416898  1
  C  C37  1  0.36687394  0.33004870  0.08397658  1
  C  C38  1  0.04293208  0.37627621  0.91479180  1
  C  C39  1  0.33376696  0.95720335  0.91613613  1
  C  C40  1  0.62458884  0.96089860  0.41824591  1
  C  C41  1  0.03916596  0.66436860  0.41835089  1
  C  C42  1  0.67179307  0.03840637  0.08443838  1
  C  C43  1  0.61877254  0.66720153  0.91527731  1
  C  C44  1  0.33778961  0.37825060  0.41645399  1
  C  C45  1  0.20612662  0.03827532  0.30574774  1
  C  C46  1  0.83162485  0.79411574  0.30513101  1
  C  C47  1  0.96464136  0.16876071  0.30581316  1
  C  C48  1  0.21549585  0.18311036  0.80848443  1
  C  C49  1  0.96738039  0.78548214  0.80838241  1
  C  C50  1  0.82340535  0.03804155  0.80696771  1
  C  C51  1  0.80369926  0.97298786  0.69190526  1
  C  C52  1  0.16210322  0.19447260  0.69486982  1
  C  C53  1  0.02651327  0.83071530  0.69247365  1
  C  C54  1  0.80018359  0.83942898  0.19366692  1
  C  C55  1  0.03642755  0.19804165  0.19381349  1
  C  C56  1  0.16127259  0.96191173  0.19412624  1
  C  C57  1  0.86093242  0.35765771  0.64197408  1
  C  C58  1  0.50305631  0.14409033  0.63918019  1
  C  C59  1  0.64682194  0.50091826  0.64017311  1
  C  C60  1  0.87493639  0.51744088  0.14178219  1
  C  C61  1  0.64538896  0.12234342  0.13878625  1
  C  C62  1  0.48091803  0.35294367  0.14187173  1
  C  C63  1  0.45226485  0.29883614  0.02455043  1
  C  C64  1  0.84728740  0.54610584  0.02446101  1
  C  C65  1  0.69835440  0.14915427  0.02856603  1
  C  C66  1  0.47327712  0.17171030  0.52652635  1
  C  C67  1  0.70182244  0.52827372  0.52759795  1
  C  C68  1  0.82518912  0.29744469  0.52818371  1
  C  C69  1  0.54128844  0.69993913  0.96932298  1
  C  C70  1  0.16842560  0.46307412  0.96996167  1
  C  C71  1  0.30193645  0.83518545  0.97115892  1
  C  C72  1  0.53708787  0.84769340  0.47622503  1
  C  C73  1  0.31328253  0.46497855  0.47006680  1
  C  C74  1  0.15127448  0.68598889  0.47636189  1
  C  C75  1  0.13726449  0.63776621  0.35992612  1
  C  C76  1  0.50129442  0.85990504  0.35982147  1
  C  C77  1  0.36105221  0.49152495  0.36061152  1
  C  C78  1  0.13993465  0.49860403  0.85720713  1
  C  C79  1  0.36151033  0.85787158  0.85930804  1
  C  C80  1  0.50296558  0.64019751  0.86102331  1
  C  C81  1  0.02267190  0.83209814  0.41196180  1
  C  C82  1  0.81204889  0.98501821  0.41194964  1
  C  C83  1  0.18149141  0.20230092  0.41006980  1
  C  C84  1  0.01794160  0.18442121  0.91032165  1
  C  C85  1  0.16330338  0.97499984  0.91051055  1
  C  C86  1  0.79908972  0.82476304  0.90843472  1
  C  C87  1  0.96130367  0.15420543  0.59197330  1
  C  C88  1  0.18608198  0.02479405  0.59239967  1
  C  C89  1  0.84178066  0.80890515  0.59224196  1
  C  C90  1  0.97233019  0.81924920  0.09175952  1
  C  C91  1  0.83488196  0.02595103  0.09126254  1
  C  C92  1  0.17866321  0.15863395  0.09185629  1
  C  C93  1  0.69347507  0.17061949  0.73971230  1
  C  C94  1  0.48306885  0.31476341  0.74030900  1
  C  C95  1  0.83848789  0.51351745  0.74068607  1
  C  C96  1  0.68249449  0.52018294  0.24375355  1
  C  C97  1  0.83752879  0.31592389  0.24345811  1
  C  C98  1  0.48132945  0.15822240  0.24303078  1
  C  C99  1  0.63495863  0.50420033  0.91935419  1
  C  C100  1  0.85559217  0.36248233  0.91904483  1
  C  C101  1  0.50574759  0.14573054  0.91859058  1
  C  C102  1  0.63348710  0.14727216  0.42370048  1
  C  C103  1  0.50263611  0.36689234  0.42291194  1
  C  C104  1  0.85084408  0.49005164  0.42431531  1
  C  C105  1  0.35437753  0.50130867  0.07905454  1
  C  C106  1  0.14950362  0.65511292  0.07964390  1
  C  C107  1  0.51437079  0.86185484  0.07729974  1
  C  C108  1  0.35823081  0.86172711  0.57976159  1
  C  C109  1  0.50732940  0.65263285  0.58089470  1
  C  C110  1  0.13630957  0.50282314  0.58017044  1
  C  C111  1  0.30335334  0.82248146  0.25802349  1
  C  C112  1  0.51762692  0.69225299  0.25812218  1
  C  C113  1  0.17645962  0.47981638  0.25794913  1
  C  C114  1  0.30401794  0.47834690  0.75695317  1
  C  C115  1  0.16755648  0.68406302  0.75658225  1
  C  C116  1  0.51904628  0.82737881  0.75703121  1
