# generated using pymatgen
data_Cu3NiC
_symmetry_space_group_name_H-M   'P 1'
_cell_length_a   5.35218801
_cell_length_b   4.60834536
_cell_length_c   6.98036612
_cell_angle_alpha   72.21715075
_cell_angle_beta   90.00000000
_cell_angle_gamma   90.00000000
_symmetry_Int_Tables_number   1
_chemical_formula_structural   Cu3NiC
_chemical_formula_sum   'Cu6 Ni2 C2'
_cell_volume   163.94277067
_cell_formula_units_Z   2
loop_
 _symmetry_equiv_pos_site_id
 _symmetry_equiv_pos_as_xyz
  1  'x, y, z'
loop_
 _atom_site_type_symbol
 _atom_site_label
 _atom_site_symmetry_multiplicity
 _atom_site_fract_x
 _atom_site_fract_y
 _atom_site_fract_z
 _atom_site_occupancy
  C  C0  1  0.73103972  0.67498689  0.22916845  1
  C  C1  1  0.23103972  0.32501311  0.77083155  1
  Ni  Ni2  1  0.23123750  0.26337427  0.24161411  1
  Ni  Ni3  1  0.73123750  0.73662573  0.75838589  1
  Cu  Cu4  1  0.44159567  0.18970976  0.17536975  1
  Cu  Cu5  1  0.02054615  0.18896576  0.17637998  1
  Cu  Cu6  1  0.23158197  0.42800514  0.36394232  1
  Cu  Cu7  1  0.73158197  0.57199486  0.63605768  1
  Cu  Cu8  1  0.94159567  0.81029024  0.82463025  1
  Cu  Cu9  1  0.52054615  0.81103424  0.82362002  1
