# generated using pymatgen
data_Cu3Ni3C32
_symmetry_space_group_name_H-M   'P 1'
_cell_length_a   9.10321310
_cell_length_b   9.09991049
_cell_length_c   23.22803791
_cell_angle_alpha   90.17194270
_cell_angle_beta   89.15221774
_cell_angle_gamma   119.83954965
_symmetry_Int_Tables_number   1
_chemical_formula_structural   Cu3Ni3C32
_chemical_formula_sum   'Cu9 Ni9 C96'
_cell_volume   1668.86748992
_cell_formula_units_Z   3
loop_
 _symmetry_equiv_pos_site_id
 _symmetry_equiv_pos_as_xyz
  1  'x, y, z'
loop_
 _atom_site_type_symbol
 _atom_site_label
 _atom_site_symmetry_multiplicity
 _atom_site_fract_x
 _atom_site_fract_y
 _atom_site_fract_z
 _atom_site_occupancy
  C  C0  1  0.99164466  0.64458383  0.25436334  1
  C  C1  1  0.99341252  0.35274297  0.73835918  1
  C  C2  1  0.66071911  0.97868466  0.59210146  1
  C  C3  1  0.66895941  0.69765800  0.08023370  1
  C  C4  1  0.33741208  0.30916277  0.90068876  1
  C  C5  1  0.31799442  0.01920038  0.42242288  1
  C  C6  1  0.01304696  0.99420107  0.50338089  1
  C  C7  1  0.98294889  0.97446513  0.99330875  1
  C  C8  1  0.65203854  0.32190772  0.81763397  1
  C  C9  1  0.65977344  0.34865709  0.33095566  1
  C  C10  1  0.33095898  0.67873412  0.16984106  1
  C  C11  1  0.32434998  0.66846711  0.65721792  1
  C  C12  1  0.01417158  0.01665584  0.64689143  1
  C  C13  1  0.00023938  0.98306695  0.15108577  1
  C  C14  1  0.67866309  0.35033419  0.97994940  1
  C  C15  1  0.67972866  0.33785509  0.48495988  1
  C  C16  1  0.33323723  0.67177867  0.31285938  1
  C  C17  1  0.35538195  0.67273303  0.80937811  1
  C  C18  1  0.00163087  0.98628348  0.34855151  1
  C  C19  1  0.98588906  0.99044961  0.84565599  1
  C  C20  1  0.64876489  0.31631956  0.68289265  1
  C  C21  1  0.66894917  0.33661975  0.18669077  1
  C  C22  1  0.33294009  0.67577854  0.01605695  1
  C  C23  1  0.30236622  0.65426687  0.51944348  1
  Ni  Ni24  1  0.30415945  0.00591732  0.25260983  1
  Ni  Ni25  1  0.69836237  0.70089949  0.24916436  1
  Ni  Ni26  1  0.29671092  0.28965078  0.75522530  1
  Ni  Ni27  1  0.71100810  0.00720540  0.74820349  1
  Ni  Ni28  1  0.96330888  0.33501062  0.58876513  1
  Ni  Ni29  1  0.36983042  0.03390951  0.57865497  1
  Ni  Ni30  1  0.96950436  0.62777415  0.08547167  1
  Ni  Ni31  1  0.63226838  0.67646797  0.92052235  1
  Ni  Ni32  1  0.03037161  0.66615219  0.41431733  1
  Cu  Cu33  1  0.00372047  0.29026834  0.25085908  1
  Cu  Cu34  1  0.00154164  0.70295492  0.75133048  1
  Cu  Cu35  1  0.66734042  0.62897201  0.58361212  1
  Cu  Cu36  1  0.66996308  0.04253171  0.08302417  1
  Cu  Cu37  1  0.36958720  0.33129989  0.08191695  1
  Cu  Cu38  1  0.04064539  0.37315190  0.91764329  1
  Cu  Cu39  1  0.33227445  0.96556907  0.91768408  1
  Cu  Cu40  1  0.62873063  0.96006058  0.41661579  1
  Cu  Cu41  1  0.33257788  0.37351638  0.41628727  1
  C  C42  1  0.23373461  0.04104358  0.31232141  1
  C  C43  1  0.82251997  0.79338644  0.30195173  1
  C  C44  1  0.98438444  0.19392600  0.30354798  1
  C  C45  1  0.22028003  0.18661457  0.81609580  1
  C  C46  1  0.97964826  0.77447414  0.80625005  1
  C  C47  1  0.81995482  0.03717734  0.80585239  1
  C  C48  1  0.79534341  0.97249626  0.69069137  1
  C  C49  1  0.16777512  0.19090760  0.70189031  1
  C  C50  1  0.02604532  0.81158981  0.70112214  1
  C  C51  1  0.78526191  0.81448032  0.18857918  1
  C  C52  1  0.01974944  0.20505172  0.19824507  1
  C  C53  1  0.16925048  0.97319099  0.19894574  1
  C  C54  1  0.88330184  0.36503700  0.64706056  1
  C  C55  1  0.48949797  0.11979825  0.63329634  1
  C  C56  1  0.64267651  0.53152956  0.63615359  1
  C  C57  1  0.88428424  0.52039891  0.14369226  1
  C  C58  1  0.64786164  0.11913857  0.13529116  1
  C  C59  1  0.47589556  0.35369940  0.13198782  1
  C  C60  1  0.44955380  0.30672467  0.02823239  1
  C  C61  1  0.83748446  0.52701229  0.03087598  1
  C  C62  1  0.67596454  0.13990304  0.03054326  1
  C  C63  1  0.45497902  0.14856214  0.51880138  1
  C  C64  1  0.68709433  0.54113224  0.53153738  1
  C  C65  1  0.84005609  0.31459209  0.53328414  1
  C  C66  1  0.55155784  0.69425062  0.98210121  1
  C  C67  1  0.14246254  0.45802855  0.96892467  1
  C  C68  1  0.30643273  0.86741327  0.97131997  1
  C  C69  1  0.55783307  0.86079510  0.47001441  1
  C  C70  1  0.32466450  0.45790532  0.46943804  1
  C  C71  1  0.16343849  0.70888255  0.46588764  1
  C  C72  1  0.12209306  0.64449888  0.35458821  1
  C  C73  1  0.51613811  0.86602198  0.36653699  1
  C  C74  1  0.35006662  0.47886626  0.36452781  1
  C  C75  1  0.11315123  0.47492029  0.86499729  1
  C  C76  1  0.34873555  0.87744740  0.86679526  1
  C  C77  1  0.49798933  0.64025857  0.86812639  1
  C  C78  1  0.01897546  0.84169689  0.41475198  1
  C  C79  1  0.80263708  0.99561019  0.40760577  1
  C  C80  1  0.17646339  0.20443571  0.41326605  1
  C  C81  1  0.02969946  0.20520212  0.91526761  1
  C  C82  1  0.18776746  0.99707721  0.91433282  1
  C  C83  1  0.82407146  0.83303188  0.91351291  1
  C  C84  1  0.95941625  0.15047229  0.58860892  1
  C  C85  1  0.17826487  0.00624873  0.58714603  1
  C  C86  1  0.82477814  0.79848133  0.58613418  1
  C  C87  1  0.97138429  0.81284825  0.08630191  1
  C  C88  1  0.82892878  0.03164813  0.08390299  1
  C  C89  1  0.19732393  0.18207793  0.08722291  1
  C  C90  1  0.69635742  0.17751922  0.74649337  1
  C  C91  1  0.49007541  0.33480867  0.74653718  1
  C  C92  1  0.85372894  0.53157297  0.74603144  1
  C  C93  1  0.69657064  0.52096919  0.24569412  1
  C  C94  1  0.85682086  0.31805423  0.24703364  1
  C  C95  1  0.49375618  0.15682565  0.24083105  1
  C  C96  1  0.63240850  0.49080056  0.92501233  1
  C  C97  1  0.86476850  0.34683516  0.92502537  1
  C  C98  1  0.49085656  0.13594718  0.92222764  1
  C  C99  1  0.62612697  0.12445879  0.41888160  1
  C  C100  1  0.48330739  0.34887492  0.41701265  1
  C  C101  1  0.84261933  0.49431592  0.42107901  1
  C  C102  1  0.36114609  0.48995732  0.07760764  1
  C  C103  1  0.15845625  0.65395232  0.07716188  1
  C  C104  1  0.52380190  0.86447461  0.08060510  1
  C  C105  1  0.37378490  0.85555668  0.57539756  1
  C  C106  1  0.52210596  0.65683658  0.57554650  1
  C  C107  1  0.15700334  0.48548769  0.58246080  1
  C  C108  1  0.29770861  0.81962678  0.25454571  1
  C  C109  1  0.50908475  0.67756019  0.25500637  1
  C  C110  1  0.16066699  0.46225261  0.25295186  1
  C  C111  1  0.28920772  0.46968782  0.76036570  1
  C  C112  1  0.15589159  0.68387839  0.75640470  1
  C  C113  1  0.51974692  0.83784149  0.75569483  1
