# generated using pymatgen
data_Cu7Ni4C
_symmetry_space_group_name_H-M   'P 1'
_cell_length_a   4.41269391
_cell_length_b   4.41269391
_cell_length_c   24.67139900
_cell_angle_alpha   90.00000000
_cell_angle_beta   90.00000000
_cell_angle_gamma   119.99999866
_symmetry_Int_Tables_number   1
_chemical_formula_structural   Cu7Ni4C
_chemical_formula_sum   'Cu7 Ni4 C1'
_cell_volume   416.03706251
_cell_formula_units_Z   1
loop_
 _symmetry_equiv_pos_site_id
 _symmetry_equiv_pos_as_xyz
  1  'x, y, z'
loop_
 _atom_site_type_symbol
 _atom_site_label
 _atom_site_symmetry_multiplicity
 _atom_site_fract_x
 _atom_site_fract_y
 _atom_site_fract_z
 _atom_site_occupancy
  C  C0  1  0.00000000  0.00000000  0.00000000  1
  Ni  Ni1  1  0.33333300  0.66666700  0.84723400  1
  Ni  Ni2  1  0.66666700  0.33333300  0.41658600  1
  Ni  Ni3  1  0.33333300  0.66666700  0.58341400  1
  Ni  Ni4  1  0.66666700  0.33333300  0.15276600  1
  Cu  Cu5  1  0.66666700  0.33333300  0.93237800  1
  Cu  Cu6  1  0.00000000  0.00000000  0.50000000  1
  Cu  Cu7  1  0.00000000  0.00000000  0.77670700  1
  Cu  Cu8  1  0.00000000  0.00000000  0.22329300  1
  Cu  Cu9  1  0.33333300  0.66666700  0.06762200  1
  Cu  Cu10  1  0.33333300  0.66666700  0.34616400  1
  Cu  Cu11  1  0.66666700  0.33333300  0.65383600  1
