# generated using pymatgen
data_Cu2NiC14
_symmetry_space_group_name_H-M   'P 1'
_cell_length_a   5.26653321
_cell_length_b   5.33987010
_cell_length_c   7.46649100
_cell_angle_alpha   90.00000000
_cell_angle_beta   90.00000000
_cell_angle_gamma   90.12865131
_symmetry_Int_Tables_number   1
_chemical_formula_structural   Cu2NiC14
_chemical_formula_sum   'Cu2 Ni1 C14'
_cell_volume   209.97663470
_cell_formula_units_Z   1
loop_
 _symmetry_equiv_pos_site_id
 _symmetry_equiv_pos_as_xyz
  1  'x, y, z'
loop_
 _atom_site_type_symbol
 _atom_site_label
 _atom_site_symmetry_multiplicity
 _atom_site_fract_x
 _atom_site_fract_y
 _atom_site_fract_z
 _atom_site_occupancy
  Ni  Ni0  1  0.51817900  0.56631700  0.75000000  1
  Cu  Cu1  1  0.49891600  0.00728500  0.49542700  1
  Cu  Cu2  1  0.49891600  0.00728500  0.00457300  1
  C  C3  1  0.00274000  0.50372400  0.49464000  1
  C  C4  1  0.00274000  0.50372400  0.00536000  1
  C  C5  1  0.32193600  0.69806700  0.45490800  1
  C  C6  1  0.20623400  0.19047800  0.05166000  1
  C  C7  1  0.68466100  0.30876800  0.93462900  1
  C  C8  1  0.78450000  0.79606200  0.56422300  1
  C  C9  1  0.20623400  0.19047800  0.44834000  1
  C  C10  1  0.78450000  0.79606200  0.93577700  1
  C  C11  1  0.87980500  0.52151300  0.25000000  1
  C  C12  1  0.32193600  0.69806700  0.04509200  1
  C  C13  1  0.41265700  0.97273000  0.75000000  1
  C  C14  1  0.68466100  0.30876800  0.56537100  1
  C  C15  1  0.13672500  0.48279200  0.75000000  1
  C  C16  1  0.59216200  0.02288000  0.25000000  1
