# generated using pymatgen
data_Cu3NiC
_symmetry_space_group_name_H-M   'P 1'
_cell_length_a   4.54174614
_cell_length_b   4.54174669
_cell_length_c   4.54174614
_cell_angle_alpha   83.81649936
_cell_angle_beta   83.81651188
_cell_angle_gamma   83.81649936
_symmetry_Int_Tables_number   1
_chemical_formula_structural   Cu3NiC
_chemical_formula_sum   'Cu3 Ni1 C1'
_cell_volume   92.15893490
_cell_formula_units_Z   1
loop_
 _symmetry_equiv_pos_site_id
 _symmetry_equiv_pos_as_xyz
  1  'x, y, z'
loop_
 _atom_site_type_symbol
 _atom_site_label
 _atom_site_symmetry_multiplicity
 _atom_site_fract_x
 _atom_site_fract_y
 _atom_site_fract_z
 _atom_site_occupancy
  C  C0  1  0.00462500  0.00462500  0.00462500  1
  Ni  Ni1  1  0.50447300  0.50447300  0.50447300  1
  Cu  Cu2  1  0.13130400  0.57229900  0.57229900  1
  Cu  Cu3  1  0.57229900  0.13130400  0.57229900  1
  Cu  Cu4  1  0.57229900  0.57229900  0.13130400  1
