# generated using pymatgen
data_Cu2NiC8
_symmetry_space_group_name_H-M   'P 1'
_cell_length_a   5.56458951
_cell_length_b   7.02002750
_cell_length_c   5.77107555
_cell_angle_alpha   63.13246042
_cell_angle_beta   117.61251132
_cell_angle_gamma   114.96516471
_symmetry_Int_Tables_number   1
_chemical_formula_structural   Cu2NiC8
_chemical_formula_sum   'Cu2 Ni1 C8'
_cell_volume   171.63177267
_cell_formula_units_Z   1
loop_
 _symmetry_equiv_pos_site_id
 _symmetry_equiv_pos_as_xyz
  1  'x, y, z'
loop_
 _atom_site_type_symbol
 _atom_site_label
 _atom_site_symmetry_multiplicity
 _atom_site_fract_x
 _atom_site_fract_y
 _atom_site_fract_z
 _atom_site_occupancy
  Ni  Ni0  1  0.35442290  0.27169800  0.26333399  1
  Cu  Cu1  1  0.69541334  0.40984819  0.89785696  1
  Cu  Cu2  1  0.46226031  0.85399351  0.02104478  1
  C  C3  1  0.88365021  0.05057840  0.64708386  1
  C  C4  1  0.10231103  0.62540127  0.46597177  1
  C  C5  1  0.02010582  0.71863773  0.73008892  1
  C  C6  1  0.58556560  0.16771390  0.68571581  1
  C  C7  1  0.22398651  0.33695303  0.83690227  1
  C  C8  1  0.65476709  0.57640209  0.19490452  1
  C  C9  1  0.45449001  0.98176266  0.30821753  1
  C  C10  1  0.02135917  0.28826021  0.30304659  1
