# generated using pymatgen
data_Cu2NiC4
_symmetry_space_group_name_H-M   'P 1'
_cell_length_a   5.68341783
_cell_length_b   5.41690918
_cell_length_c   3.01170965
_cell_angle_alpha   90.00000000
_cell_angle_beta   90.00000000
_cell_angle_gamma   112.19644665
_symmetry_Int_Tables_number   1
_chemical_formula_structural   Cu2NiC4
_chemical_formula_sum   'Cu2 Ni1 C4'
_cell_volume   85.84905471
_cell_formula_units_Z   1
loop_
 _symmetry_equiv_pos_site_id
 _symmetry_equiv_pos_as_xyz
  1  'x, y, z'
loop_
 _atom_site_type_symbol
 _atom_site_label
 _atom_site_symmetry_multiplicity
 _atom_site_fract_x
 _atom_site_fract_y
 _atom_site_fract_z
 _atom_site_occupancy
  Ni  Ni0  1  0.00000000  0.50000000  0.46021301  1
  Cu  Cu1  1  0.00000000  0.00000000  0.96147550  1
  Cu  Cu2  1  0.50000000  0.50000000  0.46156392  1
  C  C3  1  0.22487519  0.41154890  0.96144203  1
  C  C4  1  0.77512481  0.58845110  0.96144203  1
  C  C5  1  0.20777210  0.89023963  0.46151526  1
  C  C6  1  0.79222790  0.10976037  0.46151526  1
