# generated using pymatgen
data_Cu2NiC17
_symmetry_space_group_name_H-M   'P 1'
_cell_length_a   9.46617698
_cell_length_b   9.50705009
_cell_length_c   23.24394909
_cell_angle_alpha   89.02516285
_cell_angle_beta   90.00000000
_cell_angle_gamma   119.85788382
_symmetry_Int_Tables_number   1
_chemical_formula_structural   Cu2NiC17
_chemical_formula_sum   'Cu12 Ni6 C102'
_cell_volume   1813.83393130
_cell_formula_units_Z   6
loop_
 _symmetry_equiv_pos_site_id
 _symmetry_equiv_pos_as_xyz
  1  'x, y, z'
loop_
 _atom_site_type_symbol
 _atom_site_label
 _atom_site_symmetry_multiplicity
 _atom_site_fract_x
 _atom_site_fract_y
 _atom_site_fract_z
 _atom_site_occupancy
  C  C0  1  0.62511531  0.01656595  0.25220225  1
  C  C1  1  0.00277918  0.64137074  0.23731433  1
  C  C2  1  0.63859156  0.64137074  0.73731433  1
  C  C3  1  0.39145065  0.01656595  0.75220225  1
  C  C4  1  0.31599098  0.35123257  0.58463256  1
  C  C5  1  0.64597602  0.94137763  0.57989199  1
  C  C6  1  0.29540261  0.94137763  0.07989199  1
  C  C7  1  0.03524259  0.35123257  0.08463256  1
  C  C8  1  0.98383674  0.69025593  0.92414929  1
  C  C9  1  0.69095807  0.02739421  0.90322016  1
  C  C10  1  0.33643515  0.02739421  0.40322016  1
  C  C11  1  0.70641820  0.69025593  0.42414929  1
  C  C12  1  0.97044219  0.98154489  0.48978322  1
  C  C13  1  0.01110270  0.98154489  0.98978322  1
  C  C14  1  0.65577094  0.30426819  0.82406626  1
  C  C15  1  0.64849825  0.30426819  0.32406626  1
  C  C16  1  0.33505570  0.66644482  0.15727770  1
  C  C17  1  0.33138812  0.66644482  0.65727770  1
  C  C18  1  0.98411299  0.98454499  0.65061540  1
  C  C19  1  0.00043199  0.98454499  0.15061540  1
  C  C20  1  0.65265154  0.33599357  0.98495450  1
  C  C21  1  0.68334303  0.33599357  0.48495450  1
  C  C22  1  0.33442821  0.67149923  0.31929106  1
  C  C23  1  0.33707002  0.67149923  0.81929106  1
  C  C24  1  0.01465692  0.01944333  0.34702027  1
  C  C25  1  0.00478641  0.01944333  0.84702027  1
  C  C26  1  0.68515195  0.34008339  0.68128967  1
  C  C27  1  0.65493245  0.34008339  0.18128967  1
  C  C28  1  0.27472064  0.67284957  0.01201969  1
  C  C29  1  0.39812793  0.67284957  0.51201969  1
  Ni  Ni30  1  0.31258454  0.01871186  0.25220900  1
  Ni  Ni31  1  0.70612733  0.01871186  0.75220900  1
  Ni  Ni32  1  0.65454850  0.62252278  0.58484522  1
  Ni  Ni33  1  0.96797528  0.62252278  0.08484522  1
  Ni  Ni34  1  0.31736157  0.97352539  0.91297729  1
  Ni  Ni35  1  0.65616283  0.97352539  0.41297729  1
  Cu  Cu36  1  0.70177595  0.68765481  0.25501115  1
  Cu  Cu37  1  0.98710725  0.29530761  0.24921534  1
  Cu  Cu38  1  0.30820037  0.29530761  0.74921534  1
  Cu  Cu39  1  0.98587886  0.68765481  0.75501115  1
  Cu  Cu40  1  0.98425264  0.34833210  0.58714686  1
  Cu  Cu41  1  0.37099708  0.02664436  0.58533400  1
  Cu  Cu42  1  0.65564828  0.02664436  0.08533400  1
  Cu  Cu43  1  0.36408046  0.34833210  0.08714686  1
  Cu  Cu44  1  0.64284344  0.68210346  0.91803642  1
  Cu  Cu45  1  0.03208010  0.35399871  0.92206679  1
  Cu  Cu46  1  0.32191761  0.35399871  0.42206679  1
  Cu  Cu47  1  0.03925901  0.68210346  0.41803642  1
  C  C48  1  0.21416459  0.02720639  0.31025664  1
  C  C49  1  0.79686781  0.77208770  0.30651891  1
  C  C50  1  0.97901747  0.19065402  0.29867547  1
  C  C51  1  0.21163655  0.19065402  0.79867547  1
  C  C52  1  0.97521988  0.77208770  0.80651891  1
  C  C53  1  0.81304180  0.02720639  0.81025664  1
  C  C54  1  0.78183972  0.98570849  0.69389097  1
  C  C55  1  0.22446198  0.22693787  0.69390094  1
  C  C56  1  0.01690273  0.79240007  0.70256777  1
  C  C57  1  0.77549734  0.79240007  0.20256777  1
  C  C58  1  0.00247590  0.22693787  0.19390094  1
  C  C59  1  0.20386877  0.98570849  0.19389097  1
  C  C60  1  0.89142444  0.35324675  0.63750330  1
  C  C61  1  0.47298810  0.11170704  0.63598332  1
  C  C62  1  0.64321008  0.50964595  0.64182711  1
  C  C63  1  0.86643687  0.50964595  0.14182711  1
  C  C64  1  0.63871994  0.11170704  0.13598332  1
  C  C65  1  0.46182331  0.35324675  0.13750330  1
  C  C66  1  0.42942200  0.31349275  0.03414047  1
  C  C67  1  0.88053767  0.54166636  0.02396460  1
  C  C68  1  0.67252387  0.12114864  0.03104537  1
  C  C69  1  0.44862577  0.12114864  0.53104537  1
  C  C70  1  0.66112969  0.54166636  0.52396460  1
  C  C71  1  0.88407175  0.31349275  0.53414047  1
  C  C72  1  0.53682831  0.67467450  0.96567991  1
  C  C73  1  0.12640620  0.43652183  0.97478547  1
  C  C74  1  0.28767501  0.85757393  0.97214284  1
  C  C75  1  0.56989792  0.85757393  0.47214284  1
  C  C76  1  0.31011463  0.43652183  0.47478547  1
  C  C77  1  0.13784519  0.67467450  0.46567991  1
  C  C78  1  0.10224746  0.66413789  0.36129854  1
  C  C79  1  0.54119553  0.88838299  0.35661252  1
  C  C80  1  0.33680067  0.45230413  0.37000021  1
  C  C81  1  0.11550246  0.45230413  0.87000021  1
  C  C82  1  0.34718646  0.88838299  0.85661252  1
  C  C83  1  0.56188943  0.66413789  0.86129854  1
  C  C84  1  0.03919337  0.84002445  0.41873540  1
  C  C85  1  0.83283516  0.97782810  0.40578816  1
  C  C86  1  0.17847232  0.18814912  0.41991530  1
  C  C87  1  0.00967680  0.18814912  0.91991530  1
  C  C88  1  0.14499294  0.97782810  0.90578816  1
  C  C89  1  0.80083108  0.84002445  0.91873540  1
  C  C90  1  0.01551821  0.20679421  0.59120647  1
  C  C91  1  0.20907743  0.01800278  0.58828975  1
  C  C92  1  0.80329653  0.81439713  0.58413463  1
  C  C93  1  0.01110060  0.81439713  0.08413463  1
  C  C94  1  0.80892534  0.01800278  0.08828975  1
  C  C95  1  0.19127599  0.20679421  0.09120647  1
  C  C96  1  0.67614836  0.17604449  0.74395006  1
  C  C97  1  0.47122286  0.30501431  0.75015016  1
  C  C98  1  0.82885067  0.53218638  0.74938640  1
  C  C99  1  0.70333671  0.53218638  0.24938640  1
  C  C100  1  0.83379245  0.30501431  0.25015016  1
  C  C101  1  0.49989714  0.17604449  0.24395006  1
  C  C102  1  0.68509357  0.54898539  0.92032509  1
  C  C103  1  0.86574786  0.33937949  0.92233937  1
  C  C104  1  0.49173312  0.14611085  0.91758746  1
  C  C105  1  0.65437873  0.14611085  0.41758746  1
  C  C106  1  0.47363263  0.33937949  0.42233937  1
  C  C107  1  0.86389282  0.54898539  0.42032509  1
  C  C108  1  0.35380504  0.49778550  0.08153534  1
  C  C109  1  0.15196547  0.63305682  0.08502902  1
  C  C110  1  0.50827236  0.86305992  0.08243859  1
  C  C111  1  0.35478656  0.86305992  0.58243859  1
  C  C112  1  0.48109035  0.63305682  0.58502902  1
  C  C113  1  0.14397946  0.49778550  0.58153534  1
  C  C114  1  0.33078576  0.85085079  0.25435599  1
  C  C115  1  0.53154887  0.65861578  0.25678638  1
  C  C116  1  0.12867017  0.46524710  0.25268166  1
  C  C117  1  0.33657592  0.46524710  0.75268166  1
  C  C118  1  0.12706590  0.65861578  0.75678638  1
  C  C119  1  0.52006403  0.85085079  0.75435599  1
