# generated using pymatgen
data_CuNiC16
_symmetry_space_group_name_H-M   'P 1'
_cell_length_a   6.94735936
_cell_length_b   6.94735981
_cell_length_c   5.93790238
_cell_angle_alpha   74.03768052
_cell_angle_beta   105.96231793
_cell_angle_gamma   95.04297130
_symmetry_Int_Tables_number   1
_chemical_formula_structural   CuNiC16
_chemical_formula_sum   'Cu1 Ni1 C16'
_cell_volume   264.89952796
_cell_formula_units_Z   1
loop_
 _symmetry_equiv_pos_site_id
 _symmetry_equiv_pos_as_xyz
  1  'x, y, z'
loop_
 _atom_site_type_symbol
 _atom_site_label
 _atom_site_symmetry_multiplicity
 _atom_site_fract_x
 _atom_site_fract_y
 _atom_site_fract_z
 _atom_site_occupancy
  Ni  Ni0  1  0.07743300  0.07743300  0.75000000  1
  C  C1  1  0.21317000  0.59231200  0.75498200  1
  C  C2  1  0.39188400  0.78881700  0.25392200  1
  C  C3  1  0.59231200  0.21317000  0.74501800  1
  C  C4  1  0.78881700  0.39188400  0.24607800  1
  Cu  Cu5  1  0.91557200  0.91557200  0.25000000  1
  C  C6  1  0.04139200  0.81338300  0.61580400  1
  C  C7  1  0.08507300  0.37450400  0.77000400  1
  C  C8  1  0.19152000  0.95729500  0.14156300  1
  C  C9  1  0.37156100  0.63669900  0.53509500  1
  C  C10  1  0.37450400  0.08507300  0.72999600  1
  C  C11  1  0.35964300  0.64109700  0.05187400  1
  C  C12  1  0.63669900  0.37156100  0.96490500  1
  C  C13  1  0.62345200  0.90662100  0.28839300  1
  C  C14  1  0.64109700  0.35964300  0.44812600  1
  C  C15  1  0.81338300  0.04139200  0.88419600  1
  C  C16  1  0.90662100  0.62345200  0.21160700  1
  C  C17  1  0.95729500  0.19152000  0.35843700  1
