# generated using pymatgen
data_Cu3(NiC)5
_symmetry_space_group_name_H-M   'P 1'
_cell_length_a   5.23666755
_cell_length_b   5.84485862
_cell_length_c   5.82362293
_cell_angle_alpha   117.61302034
_cell_angle_beta   99.72404048
_cell_angle_gamma   81.09644002
_symmetry_Int_Tables_number   1
_chemical_formula_structural   Cu3(NiC)5
_chemical_formula_sum   'Cu3 Ni5 C5'
_cell_volume   155.07701102
_cell_formula_units_Z   1
loop_
 _symmetry_equiv_pos_site_id
 _symmetry_equiv_pos_as_xyz
  1  'x, y, z'
loop_
 _atom_site_type_symbol
 _atom_site_label
 _atom_site_symmetry_multiplicity
 _atom_site_fract_x
 _atom_site_fract_y
 _atom_site_fract_z
 _atom_site_occupancy
  C  C0  1  0.02434100  0.75533100  0.28931400  1
  C  C1  1  0.54843500  0.03996400  0.46970400  1
  C  C2  1  0.50814300  0.49954400  0.99057600  1
  C  C3  1  0.95608400  0.46706500  0.54049700  1
  C  C4  1  0.99919900  0.04233500  0.01112400  1
  Ni  Ni5  1  0.82776500  0.10478500  0.32428600  1
  Ni  Ni6  1  0.70654100  0.15757800  0.84217500  1
  Ni  Ni7  1  0.70258500  0.65383000  0.35004300  1
  Ni  Ni8  1  0.29273000  0.85055900  0.15165000  1
  Ni  Ni9  1  0.31785600  0.35196900  0.64561200  1
  Cu  Cu10  1  0.81107500  0.65199900  0.90240600  1
  Cu  Cu11  1  0.18387900  0.37462000  0.14511600  1
  Cu  Cu12  1  0.14914900  0.84803800  0.66488100  1
