# generated using pymatgen
data_Cu3Ni2C35
_symmetry_space_group_name_H-M   'P 1'
_cell_length_a   8.96775561
_cell_length_b   8.97575695
_cell_length_c   22.09903878
_cell_angle_alpha   89.84228753
_cell_angle_beta   91.08107131
_cell_angle_gamma   119.46362537
_symmetry_Int_Tables_number   1
_chemical_formula_structural   Cu3Ni2C35
_chemical_formula_sum   'Cu9 Ni6 C105'
_cell_volume   1548.42923772
_cell_formula_units_Z   3
loop_
 _symmetry_equiv_pos_site_id
 _symmetry_equiv_pos_as_xyz
  1  'x, y, z'
loop_
 _atom_site_type_symbol
 _atom_site_label
 _atom_site_symmetry_multiplicity
 _atom_site_fract_x
 _atom_site_fract_y
 _atom_site_fract_z
 _atom_site_occupancy
  C  C0  1  0.37215350  0.35469080  0.24592491  1
  C  C1  1  0.99583903  0.63273882  0.24177772  1
  C  C2  1  0.98677621  0.35521824  0.74588998  1
  C  C3  1  0.38010298  0.02364409  0.74654260  1
  C  C4  1  0.29861883  0.33739085  0.58065837  1
  C  C5  1  0.65669043  0.97220052  0.58895599  1
  C  C6  1  0.30537603  0.95739091  0.07436397  1
  C  C7  1  0.65682841  0.68763040  0.08230240  1
  C  C8  1  0.98226166  0.68103660  0.91699352  1
  C  C9  1  0.31999491  0.28638882  0.90906963  1
  C  C10  1  0.98171178  0.30139975  0.42297655  1
  C  C11  1  0.32480684  0.03838975  0.41394249  1
  C  C12  1  0.00368010  0.99288244  0.50214205  1
  C  C13  1  -0.00003620  0.00996720  0.99266427  1
  C  C14  1  0.65765503  0.32035371  0.82521831  1
  C  C15  1  0.65386432  0.32613874  0.33056451  1
  C  C16  1  0.32193331  0.65739193  0.15833595  1
  C  C17  1  0.32193708  0.66434299  0.66084780  1
  C  C18  1  0.00598518  0.02762964  0.64790495  1
  C  C19  1  0.02254137  0.99535366  0.14156161  1
  C  C20  1  0.64915264  0.32436960  0.98331022  1
  C  C21  1  0.64600182  0.32805661  0.48909240  1
  C  C22  1  0.34337618  0.67019924  0.31538552  1
  C  C23  1  0.35626182  0.68884536  0.80772115  1
  Ni  Ni24  1  0.02094888  0.01406218  0.34787570  1
  Ni  Ni25  1  0.01861154  0.01226611  0.84416299  1
  Ni  Ni26  1  0.65806135  0.31377494  0.68443782  1
  Ni  Ni27  1  0.65647295  0.32672010  0.17814368  1
  Ni  Ni28  1  0.30456313  0.65519382  0.01811060  1
  Ni  Ni29  1  0.30589210  0.64861650  0.52201696  1
  Cu  Cu30  1  0.30771718  0.00096542  0.25230375  1
  Cu  Cu31  1  0.30605451  0.30681121  0.75348770  1
  Cu  Cu32  1  0.71734208  0.00098020  0.75161380  1
  Cu  Cu33  1  0.95491087  0.33800359  0.58649841  1
  Cu  Cu34  1  0.35893277  0.02362069  0.58575615  1
  Cu  Cu35  1  0.95385024  0.61406135  0.08737047  1
  Cu  Cu36  1  0.37012691  0.34133771  0.08504264  1
  Cu  Cu37  1  0.33477862  0.95924207  0.91845997  1
  Cu  Cu38  1  0.33866416  0.37536883  0.41896590  1
  C  C39  1  0.70909064  0.71688567  0.25169008  1
  C  C40  1  0.99912106  0.29123303  0.25144271  1
  C  C41  1  0.00089046  0.70960677  0.75166508  1
  C  C42  1  0.67442412  0.62894514  0.58460811  1
  C  C43  1  0.67488651  0.04452634  0.08406720  1
  C  C44  1  0.62542871  0.66597819  0.91846171  1
  C  C45  1  0.03424398  0.37228902  0.91655548  1
  C  C46  1  0.62918270  0.95927898  0.41706662  1
  C  C47  1  0.03688293  0.66451738  0.41431913  1
  C  C48  1  0.22125739  0.03125581  0.31064571  1
  C  C49  1  0.81380660  0.80561926  0.30518668  1
  C  C50  1  0.97754466  0.19730041  0.30854116  1
  C  C51  1  0.23487083  0.18850722  0.81243498  1
  C  C52  1  0.98191001  0.78001781  0.80933852  1
  C  C53  1  0.83187105  0.02561249  0.81009398  1
  C  C54  1  0.80286853  0.96988366  0.68903694  1
  C  C55  1  0.16568999  0.20634417  0.69329003  1
  C  C56  1  0.02961172  0.82511993  0.69969566  1
  C  C57  1  0.78347761  0.81362237  0.19521207  1
  C  C58  1  0.02273074  0.20114035  0.19933511  1
  C  C59  1  0.17010693  0.96582930  0.19187063  1
  C  C60  1  0.87267408  0.36164257  0.64612316  1
  C  C61  1  0.47733077  0.10518778  0.64455565  1
  C  C62  1  0.64715821  0.52242888  0.63800478  1
  C  C63  1  0.87192263  0.51676061  0.14907032  1
  C  C64  1  0.64358830  0.11752970  0.13852717  1
  C  C65  1  0.47707539  0.37161134  0.14711098  1
  C  C66  1  0.46355127  0.29464140  0.02714339  1
  C  C67  1  0.82562393  0.52150883  0.02709788  1
  C  C68  1  0.69646791  0.15430023  0.02993970  1
  C  C69  1  0.45984142  0.16716875  0.52624172  1
  C  C70  1  0.69039160  0.53496653  0.52892671  1
  C  C71  1  0.82793705  0.30783403  0.52386698  1
  C  C72  1  0.55071191  0.68592454  0.97373965  1
  C  C73  1  0.14513210  0.44978231  0.97056323  1
  C  C74  1  0.30838370  0.84957828  0.97882324  1
  C  C75  1  0.55452003  0.86397965  0.47169448  1
  C  C76  1  0.30670293  0.46550240  0.47543173  1
  C  C77  1  0.14846444  0.69998905  0.46778049  1
  C  C78  1  0.12523103  0.64080046  0.35932043  1
  C  C79  1  0.50885233  0.86770722  0.36263282  1
  C  C80  1  0.35728786  0.50135986  0.35778619  1
  C  C81  1  0.11351073  0.47865020  0.86193563  1
  C  C82  1  0.35757887  0.85819438  0.85849089  1
  C  C83  1  0.51093957  0.63879009  0.86428932  1
  C  C84  1  0.01049174  0.81331331  0.40739270  1
  C  C85  1  0.80131585  0.98354231  0.40771693  1
  C  C86  1  0.16754895  0.18459511  0.41377831  1
  C  C87  1  0.01287113  0.19919435  0.91287087  1
  C  C88  1  0.16540807  0.98418718  0.91379474  1
  C  C89  1  0.80024356  0.80832606  0.91190857  1
  C  C90  1  0.95838592  0.14910145  0.58623560  1
  C  C91  1  0.17504786  0.02256949  0.58823424  1
  C  C92  1  0.83168436  0.79700028  0.58508220  1
  C  C93  1  0.95900109  0.81116172  0.09057508  1
  C  C94  1  0.83309078  0.02915871  0.08910146  1
  C  C95  1  0.18212355  0.15608013  0.08968385  1
  C  C96  1  0.68621055  0.16339286  0.74918937  1
  C  C97  1  0.49104716  0.32874410  0.74207839  1
  C  C98  1  0.85626299  0.53631476  0.74492763  1
  C  C99  1  0.68963246  0.54269971  0.25033976  1
  C  C100  1  0.85536975  0.32450516  0.24579730  1
  C  C101  1  0.49120167  0.16999131  0.24444276  1
  C  C102  1  0.63438389  0.49833965  0.92028403  1
  C  C103  1  0.86471172  0.36779708  0.92277748  1
  C  C104  1  0.51070806  0.15553725  0.92418402  1
  C  C105  1  0.63840769  0.13244112  0.41708275  1
  C  C106  1  0.51246021  0.35281615  0.42044081  1
  C  C107  1  0.87176882  0.50123635  0.41783857  1
  C  C108  1  0.36265156  0.51355198  0.07344851  1
  C  C109  1  0.15271030  0.66895068  0.08402377  1
  C  C110  1  0.52681863  0.87058020  0.07676629  1
  C  C111  1  0.36360112  0.85048791  0.57153280  1
  C  C112  1  0.52325840  0.65152119  0.57614721  1
  C  C113  1  0.15262703  0.48344170  0.58276691  1
  C  C114  1  0.30370404  0.81286828  0.25816444  1
  C  C115  1  0.52899421  0.69409677  0.25528436  1
  C  C116  1  0.16513556  0.46586745  0.25445859  1
  C  C117  1  0.29524208  0.48595715  0.75995811  1
  C  C118  1  0.16579183  0.69584687  0.75460466  1
  C  C119  1  0.51827157  0.82545646  0.75503944  1
