# generated using pymatgen
data_Cu2NiC71
_symmetry_space_group_name_H-M   'P 1'
_cell_length_a   18.08764373
_cell_length_b   9.01686333
_cell_length_c   23.81171950
_cell_angle_alpha   89.99892558
_cell_angle_beta   90.15712138
_cell_angle_gamma   119.70553450
_symmetry_Int_Tables_number   1
_chemical_formula_structural   Cu2NiC71
_chemical_formula_sum   'Cu6 Ni3 C213'
_cell_volume   3373.16620747
_cell_formula_units_Z   3
loop_
 _symmetry_equiv_pos_site_id
 _symmetry_equiv_pos_as_xyz
  1  'x, y, z'
loop_
 _atom_site_type_symbol
 _atom_site_label
 _atom_site_symmetry_multiplicity
 _atom_site_fract_x
 _atom_site_fract_y
 _atom_site_fract_z
 _atom_site_occupancy
  C  C0  1  0.68707038  0.37123764  0.24706427  1
  C  C1  1  0.99173236  0.63722234  0.25288602  1
  C  C2  1  0.33480503  0.96390495  0.59182588  1
  C  C3  1  0.83566076  0.96485612  0.59181643  1
  C  C4  1  0.33407125  0.69569379  0.08211952  1
  C  C5  1  0.34603736  0.66477258  0.41430415  1
  C  C6  1  0.00888762  0.99611376  0.49566266  1
  C  C7  1  0.51138426  0.01404412  0.50073766  1
  C  C8  1  0.00108947  -0.00021662  0.99863474  1
  C  C9  1  0.50965106  0.01494416  0.99661633  1
  C  C10  1  0.33310708  0.33118562  0.83333528  1
  C  C11  1  0.83257097  0.33206537  0.83367563  1
  C  C12  1  0.33115383  0.32275881  0.32974092  1
  C  C13  1  0.83678000  0.33888495  0.33449505  1
  C  C14  1  0.16848698  0.67012544  0.16501293  1
  C  C15  1  0.66573304  0.67374117  0.16179226  1
  C  C16  1  0.16695134  0.66563953  0.67491820  1
  C  C17  1  0.66639416  0.66465816  0.67519224  1
  C  C18  1  0.00164423  -0.00011475  0.35112837  1
  C  C19  1  0.49870492  0.00091319  0.34773794  1
  C  C20  1  0.00267352  0.99626394  0.65183035  1
  C  C21  1  0.50217148  0.99595374  0.65196438  1
  C  C22  1  0.50497861  0.00937356  0.15327316  1
  C  C23  1  0.33429252  0.33210975  0.18167333  1
  C  C24  1  0.83180874  0.33161946  0.17951963  1
  C  C25  1  0.32845100  0.32432418  0.98361818  1
  C  C26  1  0.83456422  0.33323791  0.98512459  1
  C  C27  1  0.33494215  0.33173340  0.48274018  1
  C  C28  1  0.83266712  0.33941985  0.47928406  1
  C  C29  1  0.16001258  0.66769917  0.01006575  1
  C  C30  1  0.66668769  0.66692407  0.01065912  1
  C  C31  1  0.15981957  0.65752824  0.51913887  1
  C  C32  1  0.66068026  0.65574880  0.52108206  1
  C  C33  1  0.16800844  0.66780114  0.31567907  1
  C  C34  1  0.16907686  0.67216227  0.81545904  1
  C  C35  1  0.66811617  0.67044336  0.81570910  1
  Ni  Ni36  1  0.84945480  0.70696111  0.25271746  1
  Ni  Ni37  1  0.35382934  0.00724799  0.74492185  1
  Ni  Ni38  1  0.85532181  0.01381270  0.74541497  1
  Cu  Cu39  1  0.98579372  0.00852988  0.84872138  1
  Cu  Cu40  1  0.48775829  0.01008621  0.84805746  1
  Cu  Cu41  1  0.98076888  0.98110807  0.15615613  1
  Cu  Cu42  1  0.33524560  0.31969296  0.69264065  1
  Cu  Cu43  1  0.83703628  0.32564263  0.69088169  1
  Cu  Cu44  1  0.68307918  0.68579665  0.31616390  1
  C  C45  1  0.14036094  0.99799662  0.24478105  1
  C  C46  1  0.65128882  0.98645580  0.25530197  1
  C  C47  1  0.34833447  0.69610969  0.25001286  1
  C  C48  1  0.00095359  0.28924240  0.24500001  1
  C  C49  1  0.50763280  0.31916762  0.25533549  1
  C  C50  1  0.15067114  0.28947175  0.75058255  1
  C  C51  1  0.65187997  0.29090662  0.74990346  1
  C  C52  1  0.99280647  0.69610645  0.75065104  1
  C  C53  1  0.49361532  0.69734302  0.75118741  1
  C  C54  1  0.47687436  0.33216927  0.58780500  1
  C  C55  1  0.97472725  0.33182652  0.58763093  1
  C  C56  1  0.19195472  0.04610668  0.58675809  1
  C  C57  1  0.69331095  0.04949889  0.58604594  1
  C  C58  1  0.33338188  0.62649661  0.58464259  1
  C  C59  1  0.83298530  0.62189094  0.58725985  1
  C  C60  1  0.48291338  0.63398688  0.08327393  1
  C  C61  1  0.98634746  0.65744261  0.08988199  1
  C  C62  1  0.33210059  0.02479354  0.08338700  1
  C  C63  1  0.84174162  0.02751853  0.08770969  1
  C  C64  1  0.17361618  0.31861741  0.08714879  1
  C  C65  1  0.68151544  0.33497563  0.08416864  1
  C  C66  1  0.32657665  0.68250053  0.91396906  1
  C  C67  1  0.82663237  0.68283977  0.91185313  1
  C  C68  1  0.01457102  0.34780545  0.91201080  1
  C  C69  1  0.51482071  0.34847114  0.91189451  1
  C  C70  1  0.15701835  0.97118155  0.91119157  1
  C  C71  1  0.65811031  0.97091804  0.91188701  1
  C  C72  1  0.31708489  0.96382106  0.41858182  1
  C  C73  1  0.80901078  0.95399256  0.41533973  1
  C  C74  1  0.16872913  0.36994121  0.41776616  1
  C  C75  1  0.66702243  0.38202043  0.41121617  1
  C  C76  1  0.01588256  0.66643624  0.41514424  1
  C  C77  1  0.52236148  0.66654114  0.41220821  1
  C  C78  1  0.10544182  0.02064663  0.29700718  1
  C  C79  1  0.60957788  0.01292892  0.30360797  1
  C  C80  1  0.39577061  0.78169734  0.30204713  1
  C  C81  1  0.91117508  0.79137031  0.30372722  1
  C  C82  1  0.49734687  0.21420439  0.30451669  1
  C  C83  1  0.99447150  0.19596463  0.29603365  1
  C  C84  1  0.11141055  0.18121208  0.80180967  1
  C  C85  1  0.61274387  0.18288795  0.80134917  1
  C  C86  1  0.48105411  0.78062305  0.80203121  1
  C  C87  1  0.97996717  0.77742961  0.80160086  1
  C  C88  1  0.41891823  0.04496241  0.80343633  1
  C  C89  1  0.91864999  0.04736711  0.80380920  1
  C  C90  1  0.39053104  0.98679149  0.68678373  1
  C  C91  1  0.88953491  0.98354787  0.68633991  1
  C  C92  1  0.10306726  0.21227135  0.69943286  1
  C  C93  1  0.60386041  0.21341801  0.69893650  1
  C  C94  1  0.00418425  0.79201408  0.69951327  1
  C  C95  1  0.50465977  0.79257873  0.69979797  1
  C  C96  1  0.39321411  0.79642868  0.19950514  1
  C  C97  1  0.89167422  0.82561934  0.19398574  1
  C  C98  1  0.00951152  0.19738698  0.19318130  1
  C  C99  1  0.52205349  0.24243297  0.20422933  1
  C  C100  1  0.08275183  0.97645052  0.19439787  1
  C  C101  1  0.60218875  0.95712156  0.20319585  1
  C  C102  1  0.43320718  0.34731950  0.63949426  1
  C  C103  1  0.93108913  0.34857511  0.64044403  1
  C  C104  1  0.24540166  0.13248092  0.63856410  1
  C  C105  1  0.74646143  0.13559379  0.63833937  1
  C  C106  1  0.32625297  0.52242833  0.63445299  1
  C  C107  1  0.82474360  0.51995055  0.63930309  1
  C  C108  1  0.44243334  0.53575854  0.13444824  1
  C  C109  1  0.94755406  0.55917449  0.14132575  1
  C  C110  1  0.32526509  0.10869143  0.13422980  1
  C  C111  1  0.83277796  0.10823910  0.13815177  1
  C  C112  1  0.22831762  0.34455060  0.13640304  1
  C  C113  1  0.72545365  0.34386190  0.13799378  1
  C  C114  1  0.21211247  0.29461288  0.03549470  1
  C  C115  1  0.72972131  0.32315739  0.03610614  1
  C  C116  1  0.43000440  0.54643108  0.03338334  1
  C  C117  1  0.93499127  0.57743044  0.03916465  1
  C  C118  1  0.33817989  0.12338400  0.03286610  1
  C  C119  1  0.85577779  0.12893786  0.03632498  1
  C  C120  1  0.23151011  0.14189034  0.53555623  1
  C  C121  1  0.73265938  0.14454737  0.53471872  1
  C  C122  1  0.33913419  0.54779482  0.53163778  1
  C  C123  1  0.83813327  0.53760670  0.53624434  1
  C  C124  1  0.42816538  0.31582259  0.53668766  1
  C  C125  1  0.92508313  0.31368349  0.53687635  1
  C  C126  1  0.29215395  0.70762996  0.96746540  1
  C  C127  1  0.79159531  0.71234525  0.96353479  1
  C  C128  1  0.06409286  0.41791540  0.96390359  1
  C  C129  1  0.56455674  0.41882383  0.96358089  1
  C  C130  1  0.14589841  0.87277920  0.96349803  1
  C  C131  1  0.64707084  0.87140556  0.96395889  1
  C  C132  1  0.27623543  0.86829524  0.47074813  1
  C  C133  1  0.76839366  0.85938569  0.46656356  1
  C  C134  1  0.16364759  0.45655295  0.46875065  1
  C  C135  1  0.66011866  0.46620895  0.46156984  1
  C  C136  1  0.06636562  0.67255291  0.46462202  1
  C  C137  1  0.56947908  0.68148390  0.46401914  1
  C  C138  1  0.05627793  0.65729105  0.36195145  1
  C  C139  1  0.56726103  0.65190055  0.36112129  1
  C  C140  1  0.26652261  0.87526338  0.36853563  1
  C  C141  1  0.75462990  0.86068393  0.36253920  1
  C  C142  1  0.17576509  0.47045942  0.36720542  1
  C  C143  1  0.67502710  0.48597072  0.35701836  1
  C  C144  1  0.05640047  0.44801011  0.86234181  1
  C  C145  1  0.55683038  0.44761990  0.86198076  1
  C  C146  1  0.16778530  0.88491316  0.86268601  1
  C  C147  1  0.66814485  0.88554666  0.86280730  1
  C  C148  1  0.27317872  0.66656773  0.86584418  1
  C  C149  1  0.77571546  0.66476895  0.86222614  1
  C  C150  1  0.00791369  0.82205872  0.41651964  1
  C  C151  1  0.50935645  0.81787406  0.40920034  1
  C  C152  1  0.40135835  0.96889460  0.41512797  1
  C  C153  1  0.89274449  0.96912621  0.40928666  1
  C  C154  1  0.09431440  0.19666211  0.41504315  1
  C  C155  1  0.59046412  0.21256128  0.40697939  1
  C  C156  1  0.00942190  0.17050624  0.90619359  1
  C  C157  1  0.51038142  0.17074320  0.90599277  1
  C  C158  1  0.07553392  0.98161960  0.90530152  1
  C  C159  1  0.57651844  0.98199760  0.90598128  1
  C  C160  1  0.41435740  0.84683935  0.90599079  1
  C  C161  1  0.91506127  0.84835847  0.90460547  1
  C  C162  1  0.48342142  0.17451894  0.59056644  1
  C  C163  1  0.98120747  0.17460011  0.59182578  1
  C  C164  1  0.10615331  0.02384878  0.59082085  1
  C  C165  1  0.60714485  0.02628688  0.59016348  1
  C  C166  1  0.41035810  0.80075902  0.58710957  1
  C  C167  1  0.90935724  0.79580972  0.58911780  1
  C  C168  1  0.48636032  0.80330340  0.08727821  1
  C  C169  1  0.99175471  0.83333573  0.09626225  1
  C  C170  1  0.40831185  0.00111445  0.08726747  1
  C  C171  1  0.92574429  0.02006027  0.09448615  1
  C  C172  1  0.08729147  0.16457620  0.09452745  1
  C  C173  1  0.59603900  0.17958209  0.08531728  1
  C  C174  1  0.34633393  0.18902349  0.74533525  1
  C  C175  1  0.84769487  0.19471847  0.74400560  1
  C  C176  1  0.23904975  0.30489979  0.74676470  1
  C  C177  1  0.74056331  0.30594616  0.74579813  1
  C  C178  1  0.41151079  0.52323233  0.74691470  1
  C  C179  1  0.91006963  0.52055641  0.74558106  1
  C  C180  1  0.33980501  0.52430033  0.24782491  1
  C  C181  1  0.82973571  0.51337339  0.24138127  1
  C  C182  1  0.43279522  0.34077471  0.24921164  1
  C  C183  1  0.92529890  0.31141692  0.23962158  1
  C  C184  1  0.22674593  0.14295935  0.23806608  1
  C  C185  1  0.73656043  0.13955948  0.24942274  1
  C  C186  1  0.33990033  0.53456188  0.91828174  1
  C  C187  1  0.84162098  0.53708117  0.91808495  1
  C  C188  1  0.42732492  0.31801162  0.91716983  1
  C  C189  1  0.92732350  0.31887569  0.91799225  1
  C  C190  1  0.23198347  0.14477232  0.91649754  1
  C  C191  1  0.73308039  0.14512177  0.91782295  1
  C  C192  1  0.33002628  0.13845816  0.42003792  1
  C  C193  1  0.81301923  0.12098528  0.41302729  1
  C  C194  1  0.24980365  0.36256015  0.42008560  1
  C  C195  1  0.74398845  0.36490997  0.41233709  1
  C  C196  1  0.43464554  0.51452542  0.41411304  1
  C  C197  1  0.93040837  0.51082503  0.41738439  1
  C  C198  1  0.16856501  0.47984689  0.08076877  1
  C  C199  1  0.67361069  0.49054753  0.07946585  1
  C  C200  1  0.07262534  0.68021263  0.08303698  1
  C  C201  1  0.56986186  0.65792355  0.07802273  1
  C  C202  1  0.25654815  0.84718398  0.07905618  1
  C  C203  1  0.76945679  0.85294617  0.08117929  1
  C  C204  1  0.18862871  0.87696743  0.58464534  1
  C  C205  1  0.68967768  0.87980108  0.58385736  1
  C  C206  1  0.25760976  0.65266953  0.58293762  1
  C  C207  1  0.75727362  0.64846712  0.58468379  1
  C  C208  1  0.06012372  0.48467317  0.58579906  1
  C  C209  1  0.56210991  0.48528184  0.58529156  1
  C  C210  1  0.14286986  0.83400976  0.24676393  1
  C  C211  1  0.65922955  0.82563151  0.26386317  1
  C  C212  1  0.26309408  0.68252825  0.25174571  1
  C  C213  1  0.75099095  0.68209485  0.26187310  1
  C  C214  1  0.07674976  0.46366499  0.24538243  1
  C  C215  1  0.59054510  0.49110457  0.26129557  1
  C  C216  1  0.16077294  0.46136744  0.75647870  1
  C  C217  1  0.66173252  0.46247889  0.75608555  1
  C  C218  1  0.06571998  0.66712038  0.75712677  1
  C  C219  1  0.56668612  0.66920444  0.75746287  1
  C  C220  1  0.26068361  0.84940560  0.75386317  1
  C  C221  1  0.75961701  0.84785047  0.75256998  1
