# generated using pymatgen
data_Cu(NiC3)3
_symmetry_space_group_name_H-M   'P 1'
_cell_length_a   5.69763784
_cell_length_b   6.70308641
_cell_length_c   5.48219715
_cell_angle_alpha   91.79457252
_cell_angle_beta   92.67836884
_cell_angle_gamma   87.61545498
_symmetry_Int_Tables_number   1
_chemical_formula_structural   Cu(NiC3)3
_chemical_formula_sum   'Cu1 Ni3 C9'
_cell_volume   208.87441439
_cell_formula_units_Z   1
loop_
 _symmetry_equiv_pos_site_id
 _symmetry_equiv_pos_as_xyz
  1  'x, y, z'
loop_
 _atom_site_type_symbol
 _atom_site_label
 _atom_site_symmetry_multiplicity
 _atom_site_fract_x
 _atom_site_fract_y
 _atom_site_fract_z
 _atom_site_occupancy
  C  C0  1  0.08215800  0.61907600  0.98893400  1
  Ni  Ni1  1  0.08550500  0.12023600  0.01668500  1
  Ni  Ni2  1  0.40731000  0.62772800  0.50172700  1
  Ni  Ni3  1  0.58442100  0.35416000  0.99922800  1
  Cu  Cu4  1  0.90715200  0.90676800  0.50683200  1
  C  C5  1  0.00869300  0.12356700  0.31885700  1
  C  C6  1  0.12908000  0.67769100  0.35318700  1
  C  C7  1  0.39159500  0.13936200  0.94343500  1
  C  C8  1  0.38962900  0.56156600  0.82063300  1
  C  C9  1  0.54080300  0.43595800  0.33339600  1
  C  C10  1  0.57345400  0.82896600  0.48093700  1
  C  C11  1  0.91154300  0.36237600  0.92231300  1
  C  C12  1  0.98865600  0.88421100  0.86223500  1
