# generated using pymatgen
data_Cu5Ni7C62
_symmetry_space_group_name_H-M   'P 1'
_cell_length_a   18.26396618
_cell_length_b   9.09286407
_cell_length_c   23.35621141
_cell_angle_alpha   90.17632297
_cell_angle_beta   89.67020867
_cell_angle_gamma   119.89267411
_symmetry_Int_Tables_number   1
_chemical_formula_structural   Cu5Ni7C62
_chemical_formula_sum   'Cu15 Ni21 C186'
_cell_volume   3362.71672761
_cell_formula_units_Z   3
loop_
 _symmetry_equiv_pos_site_id
 _symmetry_equiv_pos_as_xyz
  1  'x, y, z'
loop_
 _atom_site_type_symbol
 _atom_site_label
 _atom_site_symmetry_multiplicity
 _atom_site_fract_x
 _atom_site_fract_y
 _atom_site_fract_z
 _atom_site_occupancy
  C  C0  1  0.00181989  0.61466785  0.25537451  1
  C  C1  1  0.49901472  0.63589843  0.26235879  1
  C  C2  1  0.99855678  0.36629333  0.75355550  1
  C  C3  1  0.50231412  0.38933029  0.75099487  1
  C  C4  1  0.33130647  0.98217417  0.57592213  1
  C  C5  1  0.82994741  0.67804097  0.07916377  1
  C  C6  1  0.00139997  0.97654533  0.50262688  1
  C  C7  1  0.50215778  0.01558554  0.49516463  1
  C  C8  1  0.99557067  0.98527654  0.99711695  1
  C  C9  1  0.50319941  0.02822963  0.00567140  1
  C  C10  1  0.32577725  0.35850647  0.82639367  1
  C  C11  1  0.83124072  0.33237561  0.83631070  1
  C  C12  1  0.33265710  0.33278945  0.33907509  1
  C  C13  1  0.82321914  0.29334329  0.32879868  1
  C  C14  1  0.17198362  0.65347813  0.17668029  1
  C  C15  1  0.66656662  0.66540603  0.16884013  1
  C  C16  1  0.16575228  0.66969168  0.66207049  1
  C  C17  1  0.67190480  0.69117888  0.66730882  1
  C  C18  1  0.50601810  0.99596476  0.64234345  1
  C  C19  1  0.00479358  0.01320333  0.14436127  1
  C  C20  1  0.33520693  0.34603422  0.68752705  1
  C  C21  1  0.82504534  0.32996125  0.68520177  1
  C  C22  1  0.32604403  0.32205283  0.18783132  1
  C  C23  1  0.83524422  0.32597536  0.18882170  1
  C  C24  1  0.66630239  0.64889414  0.01083397  1
  C  C25  1  0.16375546  0.68129542  0.51043468  1
  C  C26  1  0.17331095  0.66812879  0.31644640  1
  C  C27  1  0.66797183  0.68085957  0.32061291  1
  C  C28  1  0.16622300  0.64708760  0.81742074  1
  C  C29  1  0.67279482  0.67695117  0.81527569  1
  C  C30  1  0.99132778  0.00856783  0.35770635  1
  C  C31  1  0.50162438  0.98203924  0.35955313  1
  C  C32  1  0.99485709  0.01667715  0.85442406  1
  C  C33  1  0.49234946  0.97534652  0.85738151  1
  C  C34  1  0.99939464  0.00158632  0.64290755  1
  C  C35  1  0.50000806  0.00197006  0.14590033  1
  C  C36  1  0.34194220  0.32865269  0.97846908  1
  C  C37  1  0.83453074  0.34915639  0.98345659  1
  C  C38  1  0.33530852  0.31895834  0.48397989  1
  C  C39  1  0.83521894  0.35543472  0.47487464  1
  C  C40  1  0.16771257  0.66671499  0.01825135  1
  C  C41  1  0.66585625  0.65068429  0.51441656  1
  Ni  Ni42  1  0.64250381  0.99967888  0.24972902  1
  Ni  Ni43  1  0.35861388  0.71761360  0.24998191  1
  Ni  Ni44  1  0.00242179  0.29979477  0.25096038  1
  Ni  Ni45  1  0.14236861  0.28001244  0.74922093  1
  Ni  Ni46  1  0.50241173  0.70514579  0.75044365  1
  Ni  Ni47  1  0.85548821  0.00119766  0.74717215  1
  Ni  Ni48  1  0.48494835  0.34037045  0.58613756  1
  Ni  Ni49  1  0.18672210  0.04110937  0.58618770  1
  Ni  Ni50  1  0.83093320  0.62863899  0.58377990  1
  Ni  Ni51  1  0.98398596  0.63083379  0.08477756  1
  Ni  Ni52  1  0.33242061  0.03497083  0.08378134  1
  Ni  Ni53  1  0.68618850  0.33045862  0.08590451  1
  Ni  Ni54  1  0.31137314  0.65389032  0.91904182  1
  Ni  Ni55  1  0.82167720  0.67091342  0.91742613  1
  Ni  Ni56  1  0.01569595  0.37337042  0.91767013  1
  Ni  Ni57  1  0.51832006  0.36136188  0.91014042  1
  Ni  Ni58  1  0.31939915  0.96823263  0.41743718  1
  Ni  Ni59  1  0.81065819  0.96835599  0.42031138  1
  Ni  Ni60  1  0.66492719  0.36905986  0.41327446  1
  Ni  Ni61  1  0.01711768  0.67334077  0.40988618  1
  Ni  Ni62  1  0.51543870  0.65481193  0.41841935  1
  Cu  Cu63  1  0.14204798  0.00085031  0.25384860  1
  Cu  Cu64  1  0.85662952  0.71742275  0.25135667  1
  Cu  Cu65  1  0.50104046  0.28289115  0.24874186  1
  Cu  Cu66  1  0.64156284  0.28078758  0.75453820  1
  Cu  Cu67  1  0.00120994  0.72192518  0.74909524  1
  Cu  Cu68  1  0.35737583  0.99751898  0.75218599  1
  Cu  Cu69  1  0.97949851  0.32950622  0.58409711  1
  Cu  Cu70  1  0.69099190  0.03757580  0.57755419  1
  Cu  Cu71  1  0.32972750  0.62591217  0.57986028  1
  Cu  Cu72  1  0.47798338  0.62745079  0.08259286  1
  Cu  Cu73  1  0.83075695  0.03566937  0.07975944  1
  Cu  Cu74  1  0.19005782  0.34131718  0.07789590  1
  Cu  Cu75  1  0.16820472  0.96510302  0.91978209  1
  Cu  Cu76  1  0.66630400  0.97692219  0.91709176  1
  Cu  Cu77  1  0.16654093  0.35518637  0.41728816  1
  C  C78  1  0.09335492  0.00758413  0.30368287  1
  C  C79  1  0.58877261  0.00098353  0.30721615  1
  C  C80  1  0.41670148  0.81897688  0.30661536  1
  C  C81  1  0.90808670  0.81945599  0.30197373  1
  C  C82  1  0.49459536  0.18509979  0.29939787  1
  C  C83  1  0.00014520  0.17972635  0.30802080  1
  C  C84  1  0.08830475  0.16905521  0.80726847  1
  C  C85  1  0.59307203  0.17698625  0.80459262  1
  C  C86  1  0.49988979  0.81962946  0.80850841  1
  C  C87  1  0.99468321  0.80872604  0.80098161  1
  C  C88  1  0.40871804  0.99774661  0.80304281  1
  C  C89  1  0.91262473  0.01456594  0.80707231  1
  C  C90  1  0.39588639  0.98452199  0.69835581  1
  C  C91  1  0.91165378  0.99326990  0.69230141  1
  C  C92  1  0.08326043  0.17049421  0.69333972  1
  C  C93  1  0.59691448  0.20360456  0.70041315  1
  C  C94  1  0.00498345  0.81368195  0.69536997  1
  C  C95  1  0.50367103  0.81078448  0.69489416  1
  C  C96  1  0.41120558  0.83237820  0.19158362  1
  C  C97  1  0.89749359  0.80592606  0.19716533  1
  C  C98  1  0.00452031  0.19970083  0.19422241  1
  C  C99  1  0.50399390  0.19630528  0.19366716  1
  C  C100  1  0.09812650  0.99082996  0.19938881  1
  C  C101  1  0.58348713  0.99741018  0.19295773  1
  C  C102  1  0.45041882  0.36443982  0.64705684  1
  C  C103  1  0.94148255  0.34621478  0.63860778  1
  C  C104  1  0.24830420  0.12873958  0.63948881  1
  C  C105  1  0.73352929  0.10680016  0.63338969  1
  C  C106  1  0.32527118  0.53819330  0.63372544  1
  C  C107  1  0.81440663  0.51854050  0.64099339  1
  C  C108  1  0.43824776  0.52974316  0.13518812  1
  C  C109  1  0.95322181  0.53696801  0.14536404  1
  C  C110  1  0.31257125  0.11167428  0.13947459  1
  C  C111  1  0.82670697  0.11528491  0.13321779  1
  C  C112  1  0.23378086  0.36230973  0.13249182  1
  C  C113  1  0.75010002  0.36976700  0.13798114  1
  C  C114  1  0.23905358  0.32948557  0.02924428  1
  C  C115  1  0.73625713  0.31084461  0.02730154  1
  C  C116  1  0.42470704  0.53280449  0.03124086  1
  C  C117  1  0.91430965  0.50871002  0.03347758  1
  C  C118  1  0.34341445  0.16534485  0.02889315  1
  C  C119  1  0.83613069  0.13812927  0.02886883  1
  C  C120  1  0.23575376  0.16049264  0.52825006  1
  C  C121  1  0.74087819  0.15099258  0.53062471  1
  C  C122  1  0.33531649  0.53336671  0.52942417  1
  C  C123  1  0.84493551  0.52494402  0.52960674  1
  C  C124  1  0.41437057  0.32040693  0.53482579  1
  C  C125  1  0.92759024  0.31415120  0.53421354  1
  C  C126  1  0.26334742  0.69098986  0.97171908  1
  C  C127  1  0.79044295  0.71356011  0.97710397  1
  C  C128  1  0.08581541  0.48562170  0.96777356  1
  C  C129  1  0.57169953  0.43500129  0.96762200  1
  C  C130  1  0.15781505  0.85572056  0.97000597  1
  C  C131  1  0.64888566  0.87065275  0.96832146  1
  C  C132  1  0.28687042  0.86500226  0.47730578  1
  C  C133  1  0.76302102  0.83204007  0.47167827  1
  C  C134  1  0.14944111  0.42767257  0.46847933  1
  C  C135  1  0.65298779  0.46521922  0.47024878  1
  C  C136  1  0.07236007  0.71323904  0.46695714  1
  C  C137  1  0.58401194  0.68319742  0.46867588  1
  C  C138  1  0.05171394  0.62986545  0.35313416  1
  C  C139  1  0.54269364  0.61398888  0.35702404  1
  C  C140  1  0.25719123  0.88926523  0.36435568  1
  C  C141  1  0.76062100  0.90949349  0.36109567  1
  C  C142  1  0.17943002  0.45723912  0.36559896  1
  C  C143  1  0.68834758  0.48702953  0.35834669  1
  C  C144  1  0.04459580  0.47216740  0.85711095  1
  C  C145  1  0.55072864  0.47311467  0.85344975  1
  C  C146  1  0.18566144  0.89758117  0.86729837  1
  C  C147  1  0.67913192  0.90027993  0.86546873  1
  C  C148  1  0.25926824  0.61655624  0.86095459  1
  C  C149  1  0.76077727  0.63355524  0.86411368  1
  C  C150  1  0.00004444  0.83434251  0.39967841  1
  C  C151  1  0.50838031  0.83065063  0.41412065  1
  C  C152  1  0.41441736  0.99833142  0.40388617  1
  C  C153  1  0.90791104  0.99125827  0.41012339  1
  C  C154  1  0.09007265  0.17921619  0.40961020  1
  C  C155  1  0.58248892  0.18109997  0.40756992  1
  C  C156  1  0.01014691  0.18336170  0.91217587  1
  C  C157  1  0.49949854  0.16552656  0.90107575  1
  C  C158  1  0.09265039  0.98309576  0.91536728  1
  C  C159  1  0.59028003  0.00131504  0.90956668  1
  C  C160  1  0.40802851  0.82234221  0.91008952  1
  C  C161  1  0.91984454  0.82840058  0.90420647  1
  C  C162  1  0.48308760  0.15962321  0.58024489  1
  C  C163  1  0.98449625  0.16713082  0.58681496  1
  C  C164  1  0.09184015  0.02468329  0.59192213  1
  C  C165  1  0.60633773  0.02483197  0.57756694  1
  C  C166  1  0.40621311  0.79996202  0.57981722  1
  C  C167  1  0.91880277  0.81614144  0.59101364  1
  C  C168  1  0.48042689  0.79489302  0.08407628  1
  C  C169  1  0.98329297  0.80834074  0.07867930  1
  C  C170  1  0.41838617  0.02075358  0.08906607  1
  C  C171  1  0.90717596  0.01396207  0.07915290  1
  C  C172  1  0.10532760  0.18826056  0.07746785  1
  C  C173  1  0.59178777  0.15690610  0.09072068  1
  C  C174  1  0.35774525  0.16083496  0.75540760  1
  C  C175  1  0.85810125  0.18278582  0.74866143  1
  C  C176  1  0.23389209  0.29895380  0.75093883  1
  C  C177  1  0.72640129  0.29368962  0.75504277  1
  C  C178  1  0.41772188  0.52093048  0.75724768  1
  C  C179  1  0.92615991  0.54686331  0.74724528  1
  C  C180  1  0.35925435  0.53784626  0.24758801  1
  C  C181  1  0.85649105  0.55427388  0.25424039  1
  C  C182  1  0.42535156  0.30589624  0.24526428  1
  C  C183  1  0.91780162  0.31511856  0.25742322  1
  C  C184  1  0.22679911  0.15779987  0.25449922  1
  C  C185  1  0.73370002  0.16619160  0.24943284  1
  C  C186  1  0.32781331  0.49683489  0.93521079  1
  C  C187  1  0.83288489  0.49965177  0.92743592  1
  C  C188  1  0.42045603  0.33433965  0.92685090  1
  C  C189  1  0.91990051  0.32904001  0.93500611  1
  C  C190  1  0.24332183  0.14004580  0.93036242  1
  C  C191  1  0.74116925  0.14853880  0.92375346  1
  C  C192  1  0.33266175  0.16396900  0.42823440  1
  C  C193  1  0.83194507  0.16003880  0.43745457  1
  C  C194  1  0.24109017  0.33266850  0.42386704  1
  C  C195  1  0.74486144  0.33886809  0.43148498  1
  C  C196  1  0.41905788  0.50560957  0.43556782  1
  C  C197  1  0.92047180  0.50864844  0.42522707  1
  C  C198  1  0.17960132  0.49499383  0.07203313  1
  C  C199  1  0.67730480  0.49953562  0.07846110  1
  C  C200  1  0.07696409  0.65323979  0.06558447  1
  C  C201  1  0.56347811  0.65405427  0.07586722  1
  C  C202  1  0.25057209  0.84927124  0.06640061  1
  C  C203  1  0.75464240  0.86381558  0.07700475  1
  C  C204  1  0.17694443  0.85348540  0.57944074  1
  C  C205  1  0.68018957  0.86527651  0.57210215  1
  C  C206  1  0.25384732  0.64582333  0.57737720  1
  C  C207  1  0.75054148  0.65521099  0.56967954  1
  C  C208  1  0.06670387  0.47348094  0.57925847  1
  C  C209  1  0.57702545  0.50625412  0.57057628  1
  C  C210  1  0.15011555  0.84750371  0.25540418  1
  C  C211  1  0.63952412  0.81713903  0.24649686  1
  C  C212  1  0.26694799  0.69915979  0.24900956  1
  C  C213  1  0.77133886  0.69532366  0.25388575  1
  C  C214  1  0.08524459  0.48702041  0.25128002  1
  C  C215  1  0.57779723  0.45440010  0.24776046  1
  C  C216  1  0.13967303  0.45825710  0.74882207  1
  C  C217  1  0.64971730  0.45023196  0.75701589  1
  C  C218  1  0.07865020  0.70590209  0.75096881  1
  C  C219  1  0.58518275  0.68361171  0.75119274  1
  C  C220  1  0.27072743  0.85142544  0.75721225  1
  C  C221  1  0.76540070  0.83432679  0.74831475  1
