# generated using pymatgen
data_Cu2NiC12
_symmetry_space_group_name_H-M   'P 1'
_cell_length_a   6.22272619
_cell_length_b   6.95181226
_cell_length_c   6.22272607
_cell_angle_alpha   53.54855820
_cell_angle_beta   60.10086201
_cell_angle_gamma   53.54855207
_symmetry_Int_Tables_number   1
_chemical_formula_structural   Cu2NiC12
_chemical_formula_sum   'Cu2 Ni1 C12'
_cell_volume   169.70567970
_cell_formula_units_Z   1
loop_
 _symmetry_equiv_pos_site_id
 _symmetry_equiv_pos_as_xyz
  1  'x, y, z'
loop_
 _atom_site_type_symbol
 _atom_site_label
 _atom_site_symmetry_multiplicity
 _atom_site_fract_x
 _atom_site_fract_y
 _atom_site_fract_z
 _atom_site_occupancy
  Ni  Ni0  1  0.12500000  0.12500000  0.12500000  1
  C  C1  1  0.94528388  0.00476263  0.94528388  1
  C  C2  1  0.30471612  0.24523737  0.30471612  1
  C  C3  1  0.12500000  0.62500000  0.62500000  1
  C  C4  1  0.62500000  0.62500000  0.12500000  1
  Cu  Cu5  1  0.62500000  0.12500000  0.62500000  1
  Cu  Cu6  1  0.62500000  0.62500000  0.62500000  1
  C  C7  1  0.38269314  0.43882614  0.38269314  1
  C  C8  1  0.36461192  0.34267157  0.89005659  1
  C  C9  1  0.38467665  0.86286449  0.38467665  1
  C  C10  1  0.35994341  0.90732843  0.88538808  1
  C  C11  1  0.89005659  0.34267157  0.36461192  1
  C  C12  1  0.88538808  0.90732843  0.35994341  1
  C  C13  1  0.86532335  0.38713551  0.86532335  1
  C  C14  1  0.86730686  0.81117386  0.86730686  1
