# generated using pymatgen
data_Cu6NiC7
_symmetry_space_group_name_H-M   'P 1'
_cell_length_a   7.22974352
_cell_length_b   7.22974352
_cell_length_c   6.06861000
_cell_angle_alpha   90.00000000
_cell_angle_beta   90.00000000
_cell_angle_gamma   122.64220213
_symmetry_Int_Tables_number   1
_chemical_formula_structural   Cu6NiC7
_chemical_formula_sum   'Cu12 Ni2 C14'
_cell_volume   267.10107611
_cell_formula_units_Z   2
loop_
 _symmetry_equiv_pos_site_id
 _symmetry_equiv_pos_as_xyz
  1  'x, y, z'
loop_
 _atom_site_type_symbol
 _atom_site_label
 _atom_site_symmetry_multiplicity
 _atom_site_fract_x
 _atom_site_fract_y
 _atom_site_fract_z
 _atom_site_occupancy
  C  C0  1  0.00000000  0.00000000  0.50000000  1
  C  C1  1  0.00000000  0.00000000  0.00000000  1
  C  C2  1  0.31932400  0.68067600  0.62057600  1
  C  C3  1  0.36982500  0.20094400  0.75000000  1
  C  C4  1  0.68067600  0.31932400  0.12057600  1
  C  C5  1  0.68067600  0.31932400  0.37942400  1
  C  C6  1  0.31932400  0.68067600  0.87942400  1
  C  C7  1  0.26694500  0.34315600  0.75000000  1
  C  C8  1  0.63017500  0.79905600  0.25000000  1
  C  C9  1  0.73305500  0.65684400  0.25000000  1
  C  C10  1  0.65684400  0.73305500  0.75000000  1
  C  C11  1  0.79905600  0.63017500  0.75000000  1
  C  C12  1  0.20094400  0.36982500  0.25000000  1
  C  C13  1  0.34315600  0.26694500  0.25000000  1
  Ni  Ni14  1  0.77991900  0.22008100  0.75000000  1
  Ni  Ni15  1  0.22008100  0.77991900  0.25000000  1
  Cu  Cu16  1  0.82775300  0.17224700  0.56786200  1
  Cu  Cu17  1  0.77190200  0.81093800  0.25000000  1
  Cu  Cu18  1  0.22809800  0.18906200  0.75000000  1
  Cu  Cu19  1  0.32139700  0.67860300  0.25000000  1
  Cu  Cu20  1  0.67860300  0.32139700  0.75000000  1
  Cu  Cu21  1  0.18906200  0.22809800  0.25000000  1
  Cu  Cu22  1  0.17224700  0.82775300  0.06786200  1
  Cu  Cu23  1  0.17224700  0.82775300  0.43213800  1
  Cu  Cu24  1  0.82775300  0.17224700  0.93213800  1
  Cu  Cu25  1  0.81093800  0.77190200  0.75000000  1
  Cu  Cu26  1  0.63401200  0.36598800  0.25000000  1
  Cu  Cu27  1  0.36598800  0.63401200  0.75000000  1
