# generated using pymatgen
data_Cu8Ni4C111
_symmetry_space_group_name_H-M   'P 1'
_cell_length_a   18.24114632
_cell_length_b   9.12695850
_cell_length_c   22.41317169
_cell_angle_alpha   89.90223224
_cell_angle_beta   90.24187480
_cell_angle_gamma   120.04739418
_symmetry_Int_Tables_number   1
_chemical_formula_structural   Cu8Ni4C111
_chemical_formula_sum   'Cu16 Ni8 C222'
_cell_volume   3229.98591032
_cell_formula_units_Z   2
loop_
 _symmetry_equiv_pos_site_id
 _symmetry_equiv_pos_as_xyz
  1  'x, y, z'
loop_
 _atom_site_type_symbol
 _atom_site_label
 _atom_site_symmetry_multiplicity
 _atom_site_fract_x
 _atom_site_fract_y
 _atom_site_fract_z
 _atom_site_occupancy
  C  C0  1  0.31521250  0.98187855  0.25399399  1
  C  C1  1  0.81678567  0.98330931  0.25465938  1
  C  C2  1  0.17918415  0.38436544  0.25361163  1
  C  C3  1  0.68008886  0.38594072  0.25371611  1
  C  C4  1  0.00593064  0.63537768  0.26040474  1
  C  C5  1  0.50514462  0.63320384  0.25871022  1
  C  C6  1  0.31685688  0.65170769  0.75550297  1
  C  C7  1  0.80901479  0.63972518  0.75414111  1
  C  C8  1  0.00416723  0.38091657  0.75707315  1
  C  C9  1  0.51264705  0.37845567  0.75721456  1
  C  C10  1  0.17947177  0.97392148  0.75404322  1
  C  C11  1  0.67932619  0.97787252  0.75402432  1
  C  C12  1  0.14269731  0.32058296  0.58429873  1
  C  C13  1  0.64199668  0.31600345  0.59204697  1
  C  C14  1  0.01616155  0.71542196  0.59010779  1
  C  C15  1  0.51926024  0.72329826  0.59071689  1
  C  C16  1  0.34196336  0.96146264  0.59030217  1
  C  C17  1  0.84208744  0.96700865  0.59101472  1
  C  C18  1  0.34055506  0.71948696  0.09003287  1
  C  C19  1  0.84065235  0.71953498  0.09053124  1
  C  C20  1  0.01864484  0.31734883  0.08988331  1
  C  C21  1  0.51715997  0.31479174  0.08909075  1
  C  C22  1  0.48585500  0.66324267  0.91371014  1
  C  C23  1  0.98931554  0.65924733  0.91376304  1
  C  C24  1  0.34615437  0.02639105  0.91484816  1
  C  C25  1  0.84273977  0.02639407  0.91350552  1
  C  C26  1  0.66544607  0.30644673  0.91295959  1
  C  C27  1  0.48843248  0.31779811  0.41411347  1
  C  C28  1  0.34165045  0.65942773  0.41339762  1
  C  C29  1  0.84449470  0.65842222  0.41419747  1
  C  C30  1  0.00412335  0.00667723  0.50524912  1
  C  C31  1  0.50586097  0.00001055  0.50743085  1
  C  C32  1  0.01149861  0.00971076  0.00987093  1
  C  C33  1  0.50462641  0.99859488  0.00872393  1
  C  C34  1  0.33063023  0.33360332  0.83687821  1
  C  C35  1  0.83268423  0.33276232  0.83251622  1
  C  C36  1  0.32850424  0.32539299  0.33468199  1
  C  C37  1  0.83620035  0.32685497  0.33772235  1
  C  C38  1  0.16641630  0.66402957  0.17115289  1
  C  C39  1  0.66726731  0.66382377  0.17157007  1
  C  C40  1  0.16741796  0.67974637  0.67228462  1
  C  C41  1  0.66651310  0.66561861  0.67696733  1
  Ni  Ni42  1  0.99665668  0.98992530  0.64484865  1
  Ni  Ni43  1  0.49957639  0.99959423  0.64782474  1
  Ni  Ni44  1  0.99910873  0.00244910  0.14464911  1
  Ni  Ni45  1  0.49895889  0.00224893  0.14413298  1
  Ni  Ni46  1  0.16592601  0.65865105  0.31760123  1
  Ni  Ni47  1  0.66705122  0.65908977  0.31740982  1
  Ni  Ni48  1  0.16722080  0.67519013  0.81834347  1
  Ni  Ni49  1  0.66638569  0.66676025  0.81471799  1
  Cu  Cu50  1  0.99238725  0.99952594  0.35802021  1
  Cu  Cu51  1  0.49338402  0.99667337  0.35665670  1
  Cu  Cu52  1  0.99438470  0.99117808  0.85656111  1
  Cu  Cu53  1  0.49821043  0.99899053  0.85149952  1
  Cu  Cu54  1  0.33950502  0.33544889  0.68537440  1
  Cu  Cu55  1  0.83266220  0.33353086  0.68886076  1
  Cu  Cu56  1  0.33785074  0.33988845  0.18480853  1
  Cu  Cu57  1  0.83883690  0.34209044  0.18527119  1
  Cu  Cu58  1  0.33005108  0.33415766  0.98036971  1
  Cu  Cu59  1  0.83347181  0.33308462  0.98122443  1
  Cu  Cu60  1  0.33036242  0.33035456  0.47895772  1
  Cu  Cu61  1  0.83504169  0.32961752  0.47862314  1
  Cu  Cu62  1  0.16715187  0.66889868  0.01959218  1
  Cu  Cu63  1  0.66619559  0.66862278  0.02125334  1
  Cu  Cu64  1  0.16427502  0.66411587  0.51790038  1
  Cu  Cu65  1  0.66671164  0.66696440  0.51871128  1
  C  C66  1  0.35225046  0.70735929  0.24589897  1
  C  C67  1  0.85306379  0.70922211  0.24652056  1
  C  C68  1  0.00136691  0.29350473  0.24612004  1
  C  C69  1  0.50114184  0.29413736  0.24629116  1
  C  C70  1  0.64502205  0.29190463  0.74603429  1
  C  C71  1  0.00272937  0.71063798  0.74612179  1
  C  C72  1  0.49975497  0.70763132  0.74617831  1
  C  C73  1  0.35112973  0.99584299  0.74562325  1
  C  C74  1  0.85428010  -0.00091656  0.74577542  1
  C  C75  1  0.48173717  0.33461261  0.58050754  1
  C  C76  1  0.98040815  0.33631709  0.58514575  1
  C  C77  1  0.18761980  0.04017346  0.58431879  1
  C  C78  1  0.68905568  0.04218463  0.58274897  1
  C  C79  1  0.33198278  0.62423231  0.58303296  1
  C  C80  1  0.83246951  0.62276026  0.58171736  1
  C  C81  1  0.48227358  0.63090003  0.08177379  1
  C  C82  1  0.98369982  0.63276243  0.08214108  1
  C  C83  1  0.33073798  0.03989753  0.08271736  1
  C  C84  1  0.83065788  0.03853491  0.08415375  1
  C  C85  1  0.18612216  0.33156854  0.08440936  1
  C  C86  1  0.68630417  0.33035570  0.08338470  1
  C  C87  1  0.31016871  0.66295928  0.91261132  1
  C  C88  1  0.80932812  0.66175384  0.91525798  1
  C  C89  1  0.02286335  0.37515982  0.91459183  1
  C  C90  1  0.52040152  0.37555281  0.91511275  1
  C  C91  1  0.16732606  0.96109953  0.91397218  1
  C  C92  1  0.66669931  0.95799093  0.91386564  1
  C  C93  1  0.30755766  0.95762028  0.41303700  1
  C  C94  1  0.80751179  0.95763854  0.41255699  1
  C  C95  1  0.16459456  0.37179756  0.41380261  1
  C  C96  1  0.66717781  0.37200298  0.41445978  1
  C  C97  1  0.02123131  0.66811532  0.41243720  1
  C  C98  1  0.52184513  0.66972535  0.41395010  1
  C  C99  1  0.14381288  0.00314345  0.24891252  1
  C  C100  1  0.64329646  0.00272908  0.24901405  1
  C  C101  1  0.14473471  0.28694023  0.74858950  1
  C  C102  1  0.10453156  0.02765075  0.30378474  1
  C  C103  1  0.60273012  0.02635225  0.30398536  1
  C  C104  1  0.41483635  0.80216917  0.30746816  1
  C  C105  1  0.91484263  0.80031610  0.30768311  1
  C  C106  1  0.48712859  0.16692856  0.30674239  1
  C  C107  1  0.98687097  0.16139844  0.30464856  1
  C  C108  1  0.10215879  0.17874601  0.80202844  1
  C  C109  1  0.59730604  0.16611884  0.80678884  1
  C  C110  1  0.48306882  0.80073398  0.80649472  1
  C  C111  1  0.98949860  0.81069317  0.80640332  1
  C  C112  1  0.41439716  0.02979835  0.80643630  1
  C  C113  1  0.91628856  0.02648821  0.80723101  1
  C  C114  1  0.39517702  0.97584118  0.68739177  1
  C  C115  1  0.90010588  0.97998879  0.68838158  1
  C  C116  1  0.09716760  0.21063478  0.69343954  1
  C  C117  1  0.58950139  0.20694227  0.68782478  1
  C  C118  1  0.01924563  0.82684357  0.68861616  1
  C  C119  1  0.51076736  0.81553783  0.68765037  1
  C  C120  1  0.39969337  0.81823119  0.18896748  1
  C  C121  1  0.89904305  0.81816818  0.18871516  1
  C  C122  1  0.01559910  0.21017904  0.18815569  1
  C  C123  1  0.51582572  0.20860016  0.18919164  1
  C  C124  1  0.09399255  0.98262297  0.19567356  1
  C  C125  1  0.59348268  0.98209976  0.19591598  1
  C  C126  1  0.43393536  0.36488770  0.64055564  1
  C  C127  1  0.93473107  0.36923073  0.64386239  1
  C  C128  1  0.24961827  0.13448845  0.64354567  1
  C  C129  1  0.75061242  0.13354501  0.64252251  1
  C  C130  1  0.31678553  0.49672429  0.64147741  1
  C  C131  1  0.81704717  0.49892472  0.64105102  1
  C  C132  1  0.43379234  0.50119782  0.14122524  1
  C  C133  1  0.93398179  0.50241965  0.14110423  1
  C  C134  1  0.31961952  0.13760702  0.14227237  1
  C  C135  1  0.81970506  0.13730529  0.14277639  1
  C  C136  1  0.24962443  0.36285211  0.14327808  1
  C  C137  1  0.75030887  0.36096643  0.14173791  1
  C  C138  1  0.24127606  0.32146447  0.02808859  1
  C  C139  1  0.73976847  0.32226132  0.02515094  1
  C  C140  1  0.42208632  0.52598349  0.02471158  1
  C  C141  1  0.92233665  0.52491286  0.02507196  1
  C  C142  1  0.34043547  0.16202351  0.02595676  1
  C  C143  1  0.83860265  0.15866707  0.02636960  1
  C  C144  1  0.24158819  0.16473318  0.52845891  1
  C  C145  1  0.74242956  0.16783874  0.52774136  1
  C  C146  1  0.34071816  0.52116584  0.52577876  1
  C  C147  1  0.84264851  0.52349289  0.52474756  1
  C  C148  1  0.42100062  0.31990495  0.52454662  1
  C  C149  1  0.91846658  0.31457179  0.52860070  1
  C  C150  1  0.26398576  0.69523856  0.97182026  1
  C  C151  1  0.76710237  0.69794727  0.97459015  1
  C  C152  1  0.08089089  0.46890470  0.97474792  1
  C  C153  1  0.58327578  0.46811291  0.97439832  1
  C  C154  1  0.15012465  0.82878617  0.97085072  1
  C  C155  1  0.65251275  0.82958803  0.97169844  1
  C  C156  1  0.26438303  0.83427996  0.47266069  1
  C  C157  1  0.76325472  0.83210375  0.47171487  1
  C  C158  1  0.15322955  0.46777736  0.47414033  1
  C  C159  1  0.64972775  0.46585633  0.47313739  1
  C  C160  1  0.08155720  0.69056869  0.47292803  1
  C  C161  1  0.58084421  0.69139422  0.47411750  1
  C  C162  1  0.06050871  0.64067920  0.35370055  1
  C  C163  1  0.55795689  0.62630451  0.35625377  1
  C  C164  1  0.25856422  0.88089584  0.35259206  1
  C  C165  1  0.75791226  0.88047367  0.35229947  1
  C  C166  1  0.19042959  0.48944051  0.35631171  1
  C  C167  1  0.68696993  0.48522928  0.35608534  1
  C  C168  1  0.05763399  0.49027965  0.85640765  1
  C  C169  1  0.55758226  0.49075243  0.85727070  1
  C  C170  1  0.18861127  0.89289146  0.85502628  1
  C  C171  1  0.68972011  0.88851646  0.85604478  1
  C  C172  1  0.25840755  0.63509436  0.85253381  1
  C  C173  1  0.75392042  0.62385499  0.85668268  1
  C  C174  1  0.00850552  0.83642276  0.41126463  1
  C  C175  1  0.50853319  0.83598884  0.41069476  1
  C  C176  1  0.40439928  0.97306247  0.41167161  1
  C  C177  1  0.90229844  0.96733173  0.41197022  1
  C  C178  1  0.08099685  0.18236471  0.40931003  1
  C  C179  1  0.57888834  0.18604707  0.40997679  1
  C  C180  1  0.00901123  0.18164185  0.91007272  1
  C  C181  1  0.51210473  0.18558638  0.91193817  1
  C  C182  1  0.07994971  0.97282636  0.90981757  1
  C  C183  1  0.58031677  0.97341160  0.91190675  1
  C  C184  1  0.40591860  0.83847179  0.91138780  1
  C  C185  1  0.90572301  0.83592500  0.91162847  1
  C  C186  1  0.48928933  0.16819959  0.58225510  1
  C  C187  1  0.99322662  0.17493673  0.58749453  1
  C  C188  1  0.09706153  0.02789618  0.58554219  1
  C  C189  1  0.59685670  0.02188046  0.58382921  1
  C  C190  1  0.41500208  0.80753866  0.58341321  1
  C  C191  1  0.91495929  0.80829553  0.58323089  1
  C  C192  1  0.48600341  0.80735521  0.08643636  1
  C  C193  1  0.98593862  0.80796612  0.08564725  1
  C  C194  1  0.41415791  0.02377076  0.08368413  1
  C  C195  1  0.91464834  0.02503164  0.08327169  1
  C  C196  1  0.09356559  0.17306520  0.08608650  1
  C  C197  1  0.59328047  0.17242035  0.08452186  1
  C  C198  1  0.34523526  0.17592273  0.74565178  1
  C  C199  1  0.85170981  0.18096967  0.74671399  1
  C  C200  1  0.23099777  0.30008967  0.74747691  1
  C  C201  1  0.73886152  0.29781259  0.74609718  1
  C  C202  1  0.40747444  0.51760599  0.74561782  1
  C  C203  1  0.91071593  0.52611922  0.74628727  1
  C  C204  1  0.34636137  0.51529055  0.24636856  1
  C  C205  1  0.84590779  0.51494131  0.24547672  1
  C  C206  1  0.40840945  0.29625409  0.24663357  1
  C  C207  1  0.90865352  0.29624207  0.24617684  1
  C  C208  1  0.23109612  0.16299574  0.24653071  1
  C  C209  1  0.73006327  0.16205084  0.24720011  1
  C  C210  1  0.33078826  0.50765310  0.92322328  1
  C  C211  1  0.82843156  0.50422409  0.92389494  1
  C  C212  1  0.42386600  0.34432026  0.92496333  1
  C  C213  1  0.92505591  0.34453500  0.92481265  1
  C  C214  1  0.25005702  0.14873244  0.92587508  1
  C  C215  1  0.74799813  0.15207935  0.92471093  1
  C  C216  1  0.33062824  0.15448639  0.42330935  1
  C  C217  1  0.82574586  0.14911893  0.42425294  1
  C  C218  1  0.24890573  0.35128082  0.42622776  1
  C  C219  1  0.75039366  0.35235064  0.42613438  1
  C  C220  1  0.42483256  0.50538575  0.42437090  1
  C  C221  1  0.92442479  0.50757912  0.42420831  1
  C  C222  1  0.18591378  0.51238420  0.07808447  1
  C  C223  1  0.68599339  0.51173260  0.07814006  1
  C  C224  1  0.07184329  0.62719798  0.07878961  1
  C  C225  1  0.57122229  0.62607069  0.07856369  1
  C  C226  1  0.24540432  0.85161461  0.07756448  1
  C  C227  1  0.74533662  0.85073802  0.07900948  1
  C  C228  1  0.18386028  0.85672606  0.57815322  1
  C  C229  1  0.68527964  0.85747478  0.57694823  1
  C  C230  1  0.24354241  0.63197049  0.57879891  1
  C  C231  1  0.74413155  0.63186539  0.57722492  1
  C  C232  1  0.07293191  0.51388888  0.57899130  1
  C  C233  1  0.57270825  0.51262962  0.57882937  1
  C  C234  1  0.15740962  0.85642631  0.25401786  1
  C  C235  1  0.65558727  0.85469815  0.25519917  1
  C  C236  1  0.25860030  0.68386782  0.25182946  1
  C  C237  1  0.75873498  0.68387689  0.25191073  1
  C  C238  1  0.07902496  0.48528172  0.25368170  1
  C  C239  1  0.57870796  0.48637906  0.25342877  1
  C  C240  1  0.15598221  0.45782941  0.75455962  1
  C  C241  1  0.66020847  0.47982619  0.75469322  1
  C  C242  1  0.08040021  0.67433031  0.75384124  1
  C  C243  1  0.57833002  0.67652152  0.75442191  1
  C  C244  1  0.25775375  0.83272142  0.75272100  1
  C  C245  1  0.76040985  0.83979920  0.75306795  1
