# generated using pymatgen
data_Cu6Ni6C7
_symmetry_space_group_name_H-M   'P 1'
_cell_length_a   5.13412466
_cell_length_b   14.77138632
_cell_length_c   3.06339400
_cell_angle_alpha   90.00000000
_cell_angle_beta   90.00000000
_cell_angle_gamma   94.99743997
_symmetry_Int_Tables_number   1
_chemical_formula_structural   Cu6Ni6C7
_chemical_formula_sum   'Cu6 Ni6 C7'
_cell_volume   231.43894820
_cell_formula_units_Z   1
loop_
 _symmetry_equiv_pos_site_id
 _symmetry_equiv_pos_as_xyz
  1  'x, y, z'
loop_
 _atom_site_type_symbol
 _atom_site_label
 _atom_site_symmetry_multiplicity
 _atom_site_fract_x
 _atom_site_fract_y
 _atom_site_fract_z
 _atom_site_occupancy
  C  C0  1  0.57409400  0.00397900  0.00000000  1
  C  C1  1  0.09750700  0.99023200  0.00000000  1
  C  C2  1  0.96873600  0.34383500  0.00000000  1
  C  C3  1  0.02175400  0.66272000  0.00000000  1
  C  C4  1  0.47191000  0.19565000  0.50000000  1
  C  C5  1  0.39612000  0.50653600  0.50000000  1
  C  C6  1  0.46987700  0.81525900  0.50000000  1
  Ni  Ni7  1  0.14301500  0.59311500  0.50000000  1
  Ni  Ni8  1  0.33634200  0.94756600  0.50000000  1
  Ni  Ni9  1  0.35343200  0.11159900  0.00000000  1
  Ni  Ni10  1  0.29089100  0.75807700  0.00000000  1
  Ni  Ni11  1  0.27578200  0.43060300  0.00000000  1
  Ni  Ni12  1  0.67560800  0.25090100  0.00000000  1
  Cu  Cu13  1  0.15404300  0.27118300  0.50000000  1
  Cu  Cu14  1  0.63630600  0.56211800  0.00000000  1
  Cu  Cu15  1  0.76454400  0.89292300  0.00000000  1
  Cu  Cu16  1  0.82773700  0.04885400  0.50000000  1
  Cu  Cu17  1  0.80843800  0.40555900  0.50000000  1
  Cu  Cu18  1  0.80330700  0.71700900  0.50000000  1
