# generated using pymatgen
data_Cu(NiC6)2
_symmetry_space_group_name_H-M   'P 1'
_cell_length_a   4.01709725
_cell_length_b   3.85892932
_cell_length_c   14.13171904
_cell_angle_alpha   90.00001177
_cell_angle_beta   90.00003120
_cell_angle_gamma   90.00001442
_symmetry_Int_Tables_number   1
_chemical_formula_structural   Cu(NiC6)2
_chemical_formula_sum   'Cu1 Ni2 C12'
_cell_volume   219.06558933
_cell_formula_units_Z   1
loop_
 _symmetry_equiv_pos_site_id
 _symmetry_equiv_pos_as_xyz
  1  'x, y, z'
loop_
 _atom_site_type_symbol
 _atom_site_label
 _atom_site_symmetry_multiplicity
 _atom_site_fract_x
 _atom_site_fract_y
 _atom_site_fract_z
 _atom_site_occupancy
  Ni  Ni0  1  0.50000000  0.50000000  0.07434638  1
  Ni  Ni1  1  0.50000000  0.50000000  0.79547617  1
  Cu  Cu2  1  0.50000000  0.50000000  0.52477709  1
  C  C3  1  1.00000000  0.50000000  0.27537848  1
  C  C4  1  0.00000100  0.00000100  0.40070324  1
  C  C5  1  0.99999900  0.00000000  0.93339153  1
  C  C6  1  0.00000000  0.99999800  0.65332903  1
  C  C7  1  1.00000000  0.50000000  0.41190926  1
  C  C8  1  0.50000000  1.00000000  0.43184565  1
  C  C9  1  0.49999900  1.00000000  0.95915469  1
  C  C10  1  1.00000000  1.00000000  0.23900760  1
  C  C11  1  0.00000000  0.49999900  0.61111385  1
  C  C12  1  0.50000000  0.00000000  0.63286390  1
  C  C13  1  0.99999900  0.00000000  0.79339127  1
  C  C14  1  0.00000000  0.50000000  0.96886786  1
