# generated using pymatgen
data_Cu5Ni3C13
_symmetry_space_group_name_H-M   'P 1'
_cell_length_a   10.02957324
_cell_length_b   10.02957324
_cell_length_c   7.48452100
_cell_angle_alpha   90.00000000
_cell_angle_beta   90.00000000
_cell_angle_gamma   119.99999501
_symmetry_Int_Tables_number   1
_chemical_formula_structural   Cu5Ni3C13
_chemical_formula_sum   'Cu10 Ni6 C26'
_cell_volume   652.01798206
_cell_formula_units_Z   2
loop_
 _symmetry_equiv_pos_site_id
 _symmetry_equiv_pos_as_xyz
  1  'x, y, z'
loop_
 _atom_site_type_symbol
 _atom_site_label
 _atom_site_symmetry_multiplicity
 _atom_site_fract_x
 _atom_site_fract_y
 _atom_site_fract_z
 _atom_site_occupancy
  Ni  Ni0  1  0.62904500  0.02997500  0.25000000  1
  Ni  Ni1  1  0.97002500  0.59907100  0.25000000  1
  Ni  Ni2  1  0.37095500  0.97002500  0.75000000  1
  Ni  Ni3  1  0.02997500  0.40092900  0.75000000  1
  Ni  Ni4  1  0.40092900  0.37095500  0.25000000  1
  Ni  Ni5  1  0.59907100  0.62904500  0.75000000  1
  Cu  Cu6  1  0.66666700  0.33333300  0.50232800  1
  Cu  Cu7  1  0.66666700  0.33333300  0.99767200  1
  Cu  Cu8  1  0.99538200  0.24562200  0.25000000  1
  Cu  Cu9  1  0.75437800  0.74976100  0.25000000  1
  Cu  Cu10  1  0.33333300  0.66666700  0.00232800  1
  Cu  Cu11  1  0.25023900  0.00461800  0.25000000  1
  Cu  Cu12  1  0.24562200  0.25023900  0.75000000  1
  Cu  Cu13  1  0.74976100  0.99538200  0.75000000  1
  Cu  Cu14  1  0.00461800  0.75437800  0.75000000  1
  Cu  Cu15  1  0.33333300  0.66666700  0.49767200  1
  C  C16  1  0.58210300  0.46356500  0.25000000  1
  C  C17  1  0.41789700  0.53643500  0.75000000  1
  C  C18  1  0.08341300  0.34697400  0.58239700  1
  C  C19  1  0.91658700  0.65302600  0.08239700  1
  C  C20  1  0.26356100  0.91658700  0.58239700  1
  C  C21  1  0.73643900  0.08341300  0.41760300  1
  C  C22  1  0.65302600  0.73643900  0.91760300  1
  C  C23  1  0.66299700  0.51665000  0.75000000  1
  C  C24  1  0.48335000  0.14634700  0.75000000  1
  C  C25  1  0.53643500  0.11853800  0.25000000  1
  C  C26  1  0.33700300  0.48335000  0.25000000  1
  C  C27  1  0.51665000  0.85365300  0.25000000  1
  C  C28  1  0.34697400  0.26356100  0.41760300  1
  C  C29  1  0.88146200  0.41789700  0.25000000  1
  C  C30  1  0.65302600  0.73643900  0.58239700  1
  C  C31  1  0.26356100  0.91658700  0.91760300  1
  C  C32  1  0.11853800  0.58210300  0.75000000  1
  C  C33  1  0.08341300  0.34697400  0.91760300  1
  C  C34  1  0.46356500  0.88146200  0.75000000  1
  C  C35  1  0.91658700  0.65302600  0.41760300  1
  C  C36  1  0.73643900  0.08341300  0.08239700  1
  C  C37  1  0.14634700  0.66299700  0.25000000  1
  C  C38  1  0.34697400  0.26356100  0.08239700  1
  C  C39  1  0.85365300  0.33700300  0.75000000  1
  C  C40  1  0.00000000  0.00000000  0.25000000  1
  C  C41  1  0.00000000  0.00000000  0.75000000  1
