# generated using pymatgen
data_CuNi7C33
_symmetry_space_group_name_H-M   'P 1'
_cell_length_a   9.18612687
_cell_length_b   9.18612655
_cell_length_c   22.55119543
_cell_angle_alpha   90.00000000
_cell_angle_beta   90.00000000
_cell_angle_gamma   120.00000119
_symmetry_Int_Tables_number   1
_chemical_formula_structural   CuNi7C33
_chemical_formula_sum   'Cu3 Ni21 C99'
_cell_volume   1648.02979218
_cell_formula_units_Z   3
loop_
 _symmetry_equiv_pos_site_id
 _symmetry_equiv_pos_as_xyz
  1  'x, y, z'
loop_
 _atom_site_type_symbol
 _atom_site_label
 _atom_site_symmetry_multiplicity
 _atom_site_fract_x
 _atom_site_fract_y
 _atom_site_fract_z
 _atom_site_occupancy
  Ni  Ni0  1  0.64877568  0.02371283  0.24165763  1
  Ni  Ni1  1  0.37493716  0.35122432  0.24165763  1
  Ni  Ni2  1  0.97628717  0.62506284  0.24165763  1
  Ni  Ni3  1  0.62769940  0.60988663  0.74649805  1
  Ni  Ni4  1  0.98218724  0.37230060  0.74649805  1
  Ni  Ni5  1  0.39011337  0.01781276  0.74649805  1
  Ni  Ni6  1  0.31745801  0.33738408  0.58648927  1
  Ni  Ni7  1  0.01992708  0.68254199  0.58648927  1
  Ni  Ni8  1  0.66261592  0.98007292  0.58648927  1
  Ni  Ni9  1  0.32017281  0.98075070  0.08674709  1
  Ni  Ni10  1  0.66057890  0.67982719  0.08674709  1
  Ni  Ni11  1  0.01924930  0.33942110  0.08674709  1
  Ni  Ni12  1  0.96526295  0.28402969  0.40710354  1
  Ni  Ni13  1  0.31876574  0.03473705  0.40710354  1
  Ni  Ni14  1  0.71597031  0.68123426  0.40710354  1
  Ni  Ni15  1  0.00000000  0.00000000  0.49480276  1
  Ni  Ni16  1  0.00000000  0.00000000  0.99944375  1
  Ni  Ni17  1  0.66666700  0.33333300  0.83310532  1
  Ni  Ni18  1  0.66666700  0.33333300  0.31738434  1
  Ni  Ni19  1  0.33333300  0.66666700  0.16565873  1
  Ni  Ni20  1  0.33333300  0.66666700  0.66910663  1
  Cu  Cu21  1  0.00000000  0.00000000  0.35309061  1
  Cu  Cu22  1  0.66666700  0.33333300  0.68516171  1
  Cu  Cu23  1  0.66666700  0.33333300  0.17563619  1
  C  C24  1  0.00000000  0.00000000  0.85892915  1
  C  C25  1  0.00000000  0.00000000  0.64792099  1
  C  C26  1  0.00000000  0.00000000  0.14973366  1
  C  C27  1  0.66666700  0.33333300  0.97874036  1
  C  C28  1  0.66666700  0.33333300  0.48085139  1
  C  C29  1  0.33333300  0.66666700  0.01372295  1
  C  C30  1  0.33333300  0.66666700  0.51927159  1
  C  C31  1  0.33333300  0.66666700  0.30998324  1
  C  C32  1  0.33333300  0.66666700  0.81383680  1
  C  C33  1  0.29571398  0.99545766  0.25311543  1
  C  C34  1  0.69974368  0.70428602  0.25311543  1
  C  C35  1  0.00454234  0.30025632  0.25311543  1
  C  C36  1  0.28008208  0.29139417  0.75350227  1
  C  C37  1  0.01131209  0.71991792  0.75350227  1
  C  C38  1  0.70860583  0.98868791  0.75350227  1
  C  C39  1  0.96757638  0.33439433  0.58516057  1
  C  C40  1  0.36681896  0.03242362  0.58516057  1
  C  C41  1  0.66560567  0.63318104  0.58516057  1
  C  C42  1  0.97012225  0.63504802  0.08232526  1
  C  C43  1  0.66492677  0.02987775  0.08232526  1
  C  C44  1  0.36495198  0.33507323  0.08232526  1
  C  C45  1  0.62512557  0.66022668  0.91474422  1
  C  C46  1  0.03510011  0.37487443  0.91474422  1
  C  C47  1  0.33977332  0.96489989  0.91474422  1
  C  C48  1  0.61433576  0.96164446  0.41769940  1
  C  C49  1  0.34730770  0.38566424  0.41769940  1
  C  C50  1  0.03835554  0.65269230  0.41769940  1
  C  C51  1  0.22371728  0.02186355  0.31359382  1
  C  C52  1  0.79814627  0.77628272  0.31359382  1
  C  C53  1  0.97813645  0.20185373  0.31359382  1
  C  C54  1  0.16931587  0.17597630  0.80848920  1
  C  C55  1  0.00666043  0.83068413  0.80848920  1
  C  C56  1  0.82402370  0.99333957  0.80848920  1
  C  C57  1  0.80658913  0.97420727  0.69205065  1
  C  C58  1  0.16761814  0.19341087  0.69205065  1
  C  C59  1  0.02579273  0.83238186  0.69205065  1
  C  C60  1  0.80882913  0.83210913  0.19471086  1
  C  C61  1  0.02327999  0.19117087  0.19471086  1
  C  C62  1  0.16789087  0.97672001  0.19471086  1
  C  C63  1  0.91412077  0.39238863  0.64371215  1
  C  C64  1  0.47826886  0.08587923  0.64371215  1
  C  C65  1  0.60761137  0.52173114  0.64371215  1
  C  C66  1  0.92406455  0.52923516  0.14189028  1
  C  C67  1  0.60517161  0.07593545  0.14189028  1
  C  C68  1  0.47076484  0.39482839  0.14189028  1
  C  C69  1  0.47434169  0.30524611  0.02927377  1
  C  C70  1  0.83090542  0.52565831  0.02927377  1
  C  C71  1  0.69475389  0.16909458  0.02927377  1
  C  C72  1  0.47308155  0.16588573  0.52953777  1
  C  C73  1  0.69280518  0.52691845  0.52953777  1
  C  C74  1  0.83411427  0.30719482  0.52953777  1
  C  C75  1  0.52174352  0.67723014  0.97046785  1
  C  C76  1  0.15548563  0.47825648  0.97046785  1
  C  C77  1  0.32276986  0.84451437  0.97046785  1
  C  C78  1  0.50137009  0.85358084  0.47512098  1
  C  C79  1  0.35220975  0.49862991  0.47512098  1
  C  C80  1  0.14641916  0.64779025  0.47512098  1
  C  C81  1  0.13688844  0.63410346  0.35888668  1
  C  C82  1  0.49721402  0.86311156  0.35888668  1
  C  C83  1  0.36589654  0.50278598  0.35888668  1
  C  C84  1  0.13555529  0.49509405  0.85584253  1
  C  C85  1  0.35953776  0.86444471  0.85584253  1
  C  C86  1  0.50490595  0.64046224  0.85584253  1
  C  C87  1  0.01949070  0.81515558  0.42349731  1
  C  C88  1  0.79566487  0.98050930  0.42349731  1
  C  C89  1  0.18484442  0.20433513  0.42349731  1
  C  C90  1  0.01420216  0.18719949  0.91072090  1
  C  C91  1  0.17299732  0.98579784  0.91072090  1
  C  C92  1  0.81280051  0.82700268  0.91072090  1
  C  C93  1  0.96771869  0.15418427  0.58901356  1
  C  C94  1  0.18646558  0.03228131  0.58901356  1
  C  C95  1  0.84581573  0.81353442  0.58901356  1
  C  C96  1  0.97547403  0.81787212  0.08881923  1
  C  C97  1  0.84239809  0.02452597  0.08881923  1
  C  C98  1  0.18212788  0.15760191  0.08881923  1
  C  C99  1  0.69183348  0.15393758  0.75367656  1
  C  C100  1  0.46210510  0.30816652  0.75367656  1
  C  C101  1  0.84606242  0.53789490  0.75367656  1
  C  C102  1  0.66832711  0.51824383  0.24439968  1
  C  C103  1  0.84991772  0.33167289  0.24439968  1
  C  C104  1  0.48175617  0.15008228  0.24439968  1
  C  C105  1  0.64100154  0.49185703  0.92362140  1
  C  C106  1  0.85085648  0.35899846  0.92362140  1
  C  C107  1  0.50814297  0.14914352  0.92362140  1
  C  C108  1  0.62360569  0.14665956  0.42353602  1
  C  C109  1  0.52305487  0.37639431  0.42353602  1
  C  C110  1  0.85334044  0.47694513  0.42353602  1
  C  C111  1  0.32358235  0.48797009  0.06807740  1
  C  C112  1  0.16438673  0.67641765  0.06807740  1
  C  C113  1  0.51202991  0.83561327  0.06807740  1
  C  C114  1  0.31898071  0.83555958  0.57366641  1
  C  C115  1  0.51657787  0.68101929  0.57366641  1
  C  C116  1  0.16444042  0.48342213  0.57366641  1
  C  C117  1  0.28769698  0.80851385  0.25331263  1
  C  C118  1  0.52081586  0.71230302  0.25331263  1
  C  C119  1  0.19148615  0.47918414  0.25331263  1
  C  C120  1  0.29097893  0.47786698  0.75357925  1
  C  C121  1  0.18688705  0.70902107  0.75357925  1
  C  C122  1  0.52213302  0.81311295  0.75357925  1
