# generated using pymatgen
data_Cu5NiC29
_symmetry_space_group_name_H-M   'P 1'
_cell_length_a   8.67849929
_cell_length_b   8.71064504
_cell_length_c   22.65698476
_cell_angle_alpha   89.93750619
_cell_angle_beta   89.80338651
_cell_angle_gamma   120.08097483
_symmetry_Int_Tables_number   1
_chemical_formula_structural   Cu5NiC29
_chemical_formula_sum   'Cu15 Ni3 C87'
_cell_volume   1482.06721758
_cell_formula_units_Z   3
loop_
 _symmetry_equiv_pos_site_id
 _symmetry_equiv_pos_as_xyz
  1  'x, y, z'
loop_
 _atom_site_type_symbol
 _atom_site_label
 _atom_site_symmetry_multiplicity
 _atom_site_fract_x
 _atom_site_fract_y
 _atom_site_fract_z
 _atom_site_occupancy
  C  C0  1  0.67528483  0.33447317  0.82765869  1
  C  C1  1  0.65735059  0.33481710  0.33275802  1
  C  C2  1  0.34043037  0.67475967  0.16324582  1
  C  C3  1  0.00073656  0.00600153  0.85571178  1
  C  C4  1  0.66590035  0.33311454  0.68143415  1
  C  C5  1  0.66030753  0.33400414  0.18820283  1
  C  C6  1  0.66767278  0.33460709  0.48810749  1
  C  C7  1  0.32820864  0.66055134  0.01563354  1
  C  C8  1  0.33439094  0.66733579  0.52737675  1
  C  C9  1  0.00161850  0.99423212  0.35454983  1
  C  C10  1  0.99855082  0.99992261  0.64629351  1
  C  C11  1  0.99894724  0.99354120  0.14751666  1
  C  C12  1  0.67160882  0.33280416  0.98083392  1
  C  C13  1  0.33978529  0.67446310  0.31684388  1
  C  C14  1  0.32594390  0.66158114  0.81446084  1
  Ni  Ni15  1  0.29577013  0.00045101  0.25047404  1
  Ni  Ni16  1  0.70571429  0.70466224  0.25057676  1
  Ni  Ni17  1  0.04092527  0.37232618  0.91770728  1
  Cu  Cu18  1  0.00050625  0.29415446  0.25019937  1
  Cu  Cu19  1  0.29548156  0.29110755  0.75107015  1
  Cu  Cu20  1  0.99729055  0.70823038  0.75177198  1
  Cu  Cu21  1  0.70528426  -0.00003613  0.75205231  1
  Cu  Cu22  1  0.95785517  0.33294876  0.58381912  1
  Cu  Cu23  1  0.37533918  0.04193984  0.58363035  1
  Cu  Cu24  1  0.66698790  0.62482904  0.58369317  1
  Cu  Cu25  1  0.96111506  0.62425922  0.08532397  1
  Cu  Cu26  1  0.66555583  0.03844933  0.08586966  1
  Cu  Cu27  1  0.37444613  0.33526143  0.08459570  1
  Cu  Cu28  1  0.62608300  0.66715009  0.91748081  1
  Cu  Cu29  1  0.33276052  0.95887882  0.91751098  1
  Cu  Cu30  1  0.62907696  0.96656660  0.41852300  1
  Cu  Cu31  1  0.33458429  0.37480218  0.41717967  1
  Cu  Cu32  1  0.03883836  0.66009730  0.41843077  1
  C  C33  1  0.21247681  0.03364888  0.30641172  1
  C  C34  1  0.81586210  0.79241042  0.30698522  1
  C  C35  1  0.97251859  0.18546158  0.30430081  1
  C  C36  1  0.20850571  0.18186302  0.80292032  1
  C  C37  1  0.97597247  0.79503694  0.80370063  1
  C  C38  1  0.81503357  0.02136493  0.80344213  1
  C  C39  1  0.77868481  0.96474108  0.69662151  1
  C  C40  1  0.18479585  0.21627077  0.69629335  1
  C  C41  1  0.02967444  0.81657729  0.69650629  1
  C  C42  1  0.78256144  0.82674984  0.19507095  1
  C  C43  1  0.03660445  0.21652504  0.19667521  1
  C  C44  1  0.17789550  0.96388919  0.19468072  1
  C  C45  1  0.87617916  0.35480982  0.63756248  1
  C  C46  1  0.47895846  0.12290303  0.63718945  1
  C  C47  1  0.64378604  0.52090283  0.63733137  1
  C  C48  1  0.87253379  0.51529767  0.13708371  1
  C  C49  1  0.64380980  0.12641230  0.13741186  1
  C  C50  1  0.48288532  0.35507246  0.13621045  1
  C  C51  1  0.45056818  0.30151246  0.02927616  1
  C  C52  1  0.85197130  0.54890235  0.03028677  1
  C  C53  1  0.69779646  0.14555315  0.03019696  1
  C  C54  1  0.45275572  0.15278077  0.53066933  1
  C  C55  1  0.70183754  0.54879807  0.53077682  1
  C  C56  1  0.84716661  0.29894474  0.53106662  1
  C  C57  1  0.54191177  0.68861946  0.96990304  1
  C  C58  1  0.14693823  0.46355693  0.97209702  1
  C  C59  1  0.31876008  0.85789789  0.97037724  1
  C  C60  1  0.53801611  0.84744091  0.46704679  1
  C  C61  1  0.30932441  0.46433304  0.46637494  1
  C  C62  1  0.15563268  0.68479591  0.46685725  1
  C  C63  1  0.11071396  0.63098828  0.35965715  1
  C  C64  1  0.52715907  0.89692532  0.36003147  1
  C  C65  1  0.36505344  0.47785593  0.35878008  1
  C  C66  1  0.11236840  0.49415806  0.86039497  1
  C  C67  1  0.38061565  0.88979550  0.86311963  1
  C  C68  1  0.51305494  0.62824820  0.86271335  1
  C  C69  1  0.03030046  0.82847715  0.41237968  1
  C  C70  1  0.80704998  0.97737353  0.41076435  1
  C  C71  1  0.16467799  0.19898402  0.41000778  1
  C  C72  1  0.02054868  0.19357142  0.90732157  1
  C  C73  1  0.17527747  0.97178706  0.90800943  1
  C  C74  1  0.80175079  0.81746480  0.90797647  1
  C  C75  1  0.97432126  0.16688568  0.58945653  1
  C  C76  1  0.19212050  0.02515253  0.58932632  1
  C  C77  1  0.83332725  0.80759647  0.58917299  1
  C  C78  1  0.97493763  0.80379432  0.08831201  1
  C  C79  1  0.83279702  0.02664151  0.09003647  1
  C  C80  1  0.19252719  0.17224677  0.08953407  1
  C  C81  1  0.68417010  0.15526768  0.74451592  1
  C  C82  1  0.47233028  0.31172239  0.74336531  1
  C  C83  1  0.84194031  0.53071158  0.74473177  1
  C  C84  1  0.69364043  0.52684682  0.24438572  1
  C  C85  1  0.84340377  0.31146061  0.24320740  1
  C  C86  1  0.47952452  0.15945936  0.24451549  1
  C  C87  1  0.63747136  0.49822970  0.92211158  1
  C  C88  1  0.84817410  0.35532012  0.92025279  1
  C  C89  1  0.49498264  0.14520415  0.92152761  1
  C  C90  1  0.65329273  0.14432496  0.42354856  1
  C  C91  1  0.48843788  0.34878040  0.42117167  1
  C  C92  1  0.85890685  0.50692347  0.42267344  1
  C  C93  1  0.35670274  0.49270482  0.07797097  1
  C  C94  1  0.13914070  0.64719739  0.07879096  1
  C  C95  1  0.50980338  0.86120091  0.07876985  1
  C  C96  1  0.35121126  0.86518697  0.57571302  1
  C  C97  1  0.51359854  0.64849773  0.57579222  1
  C  C98  1  0.13544792  0.48553581  0.57577706  1
  C  C99  1  0.29930155  0.82330731  0.25587309  1
  C  C100  1  0.51765602  0.68715943  0.25534946  1
  C  C101  1  0.16464332  0.47102259  0.25563351  1
  C  C102  1  0.31326038  0.47232627  0.75580990  1
  C  C103  1  0.16516350  0.69671572  0.75520736  1
  C  C104  1  0.52409180  0.83492054  0.75778007  1
