# generated using pymatgen
data_Cu24Ni6C5
_symmetry_space_group_name_H-M   'P 1'
_cell_length_a   8.36017780
_cell_length_b   8.36017756
_cell_length_c   21.82730585
_cell_angle_alpha   90.00000000
_cell_angle_beta   90.00000000
_cell_angle_gamma   120.00000094
_symmetry_Int_Tables_number   1
_chemical_formula_structural   Cu24Ni6C5
_chemical_formula_sum   'Cu72 Ni18 C15'
_cell_volume   1321.17934958
_cell_formula_units_Z   3
loop_
 _symmetry_equiv_pos_site_id
 _symmetry_equiv_pos_as_xyz
  1  'x, y, z'
loop_
 _atom_site_type_symbol
 _atom_site_label
 _atom_site_symmetry_multiplicity
 _atom_site_fract_x
 _atom_site_fract_y
 _atom_site_fract_z
 _atom_site_occupancy
  C  C0  1  0.00000000  -0.00000000  0.99839265  1
  C  C1  1  0.66666700  0.33333300  0.83476014  1
  C  C2  1  0.66666700  0.33333300  0.33316495  1
  C  C3  1  0.00000000  -0.00000000  0.64619772  1
  C  C4  1  0.00000000  -0.00000000  0.15098215  1
  C  C5  1  0.66666700  0.33333300  0.68291343  1
  C  C6  1  0.66666700  0.33333300  0.18239325  1
  C  C7  1  0.66666700  0.33333300  0.48147816  1
  C  C8  1  0.33333300  0.66666700  0.02238348  1
  C  C9  1  0.33333300  0.66666700  0.52219186  1
  C  C10  1  0.33333300  0.66666700  0.31244033  1
  C  C11  1  0.33333300  0.66666700  0.81052476  1
  C  C12  1  0.00000000  -0.00000000  0.35485960  1
  C  C13  1  0.00000000  -0.00000000  0.85093560  1
  C  C14  1  0.66666700  0.33333300  0.98196351  1
  Ni  Ni15  1  0.29635130  0.00094907  0.24932931  1
  Ni  Ni16  1  0.70459777  0.70364870  0.24932931  1
  Ni  Ni17  1  0.99905093  0.29540223  0.24932931  1
  Ni  Ni18  1  0.29560548  0.29454936  0.74805824  1
  Ni  Ni19  1  0.99894388  0.70439452  0.74805824  1
  Ni  Ni20  1  0.70545064  0.00105612  0.74805824  1
  Ni  Ni21  1  0.95568932  0.33225478  0.58303706  1
  Ni  Ni22  1  0.37656646  0.04431068  0.58303706  1
  Ni  Ni23  1  0.66774522  0.62343354  0.58303706  1
  Ni  Ni24  1  0.96248628  0.63065475  0.08450972  1
  Ni  Ni25  1  0.66816947  0.03751372  0.08450972  1
  Ni  Ni26  1  0.36934525  0.33183053  0.08450972  1
  Ni  Ni27  1  0.61366043  0.66678233  0.91661827  1
  Ni  Ni28  1  0.05312090  0.38633957  0.91661827  1
  Ni  Ni29  1  0.33321767  0.94687910  0.91661827  1
  Ni  Ni30  1  0.61385528  0.95348769  0.41853616  1
  Ni  Ni31  1  0.33963141  0.38614472  0.41853616  1
  Ni  Ni32  1  0.04651231  0.66036859  0.41853616  1
  Cu  Cu33  1  0.22813515  0.04597786  0.30462491  1
  Cu  Cu34  1  0.81784271  0.77186485  0.30462491  1
  Cu  Cu35  1  0.95402214  0.18215729  0.30462491  1
  Cu  Cu36  1  0.22919181  0.18301302  0.80388622  1
  Cu  Cu37  1  0.95382121  0.77080819  0.80388622  1
  Cu  Cu38  1  0.81698698  0.04617879  0.80388622  1
  Cu  Cu39  1  0.79380064  0.96807065  0.69423273  1
  Cu  Cu40  1  0.17427001  0.20619936  0.69423273  1
  Cu  Cu41  1  0.03192935  0.82572999  0.69423273  1
  Cu  Cu42  1  0.79207080  0.82416671  0.19528067  1
  Cu  Cu43  1  0.03209591  0.20792920  0.19528067  1
  Cu  Cu44  1  0.17583329  0.96790409  0.19528067  1
  Cu  Cu45  1  0.87294309  0.36954232  0.63735609  1
  Cu  Cu46  1  0.49660023  0.12705691  0.63735609  1
  Cu  Cu47  1  0.63045768  0.50339977  0.63735609  1
  Cu  Cu48  1  0.87379264  0.50891679  0.13817179  1
  Cu  Cu49  1  0.63512516  0.12620736  0.13817179  1
  Cu  Cu50  1  0.49108321  0.36487484  0.13817179  1
  Cu  Cu51  1  0.43680891  0.28687919  0.02889193  1
  Cu  Cu52  1  0.85007128  0.56319109  0.02889193  1
  Cu  Cu53  1  0.71312081  0.14992872  0.02889193  1
  Cu  Cu54  1  0.45938423  0.16407842  0.52846783  1
  Cu  Cu55  1  0.70469519  0.54061577  0.52846783  1
  Cu  Cu56  1  0.83592158  0.29530481  0.52846783  1
  Cu  Cu57  1  0.52602674  0.68620883  0.97312995  1
  Cu  Cu58  1  0.16018109  0.47397326  0.97312995  1
  Cu  Cu59  1  0.31379117  0.83981891  0.97312995  1
  Cu  Cu60  1  0.52557486  0.84097427  0.47346321  1
  Cu  Cu61  1  0.31539841  0.47442514  0.47346321  1
  Cu  Cu62  1  0.15902573  0.68460159  0.47346321  1
  Cu  Cu63  1  0.12668459  0.62626407  0.36225683  1
  Cu  Cu64  1  0.49957847  0.87331541  0.36225683  1
  Cu  Cu65  1  0.37373593  0.50042152  0.36225683  1
  Cu  Cu66  1  0.14083058  0.49367517  0.86016948  1
  Cu  Cu67  1  0.35284359  0.85916942  0.86016948  1
  Cu  Cu68  1  0.50632483  0.64715641  0.86016948  1
  Cu  Cu69  1  0.02703855  0.82259160  0.41302884  1
  Cu  Cu70  1  0.79555306  0.97296145  0.41302884  1
  Cu  Cu71  1  0.17740840  0.20444694  0.41302884  1
  Cu  Cu72  1  0.03869576  0.20373817  0.91425667  1
  Cu  Cu73  1  0.16504241  0.96130424  0.91425667  1
  Cu  Cu74  1  0.79626183  0.83495759  0.91425667  1
  Cu  Cu75  1  0.97357669  0.16780767  0.59312707  1
  Cu  Cu76  1  0.19423098  0.02642331  0.59312707  1
  Cu  Cu77  1  0.83219233  0.80576902  0.59312707  1
  Cu  Cu78  1  0.98648256  0.81719149  0.09581597  1
  Cu  Cu79  1  0.83070892  0.01351744  0.09581597  1
  Cu  Cu80  1  0.18280851  0.16929108  0.09581597  1
  Cu  Cu81  1  0.68099607  0.16390935  0.73717369  1
  Cu  Cu82  1  0.48291429  0.31900393  0.73717369  1
  Cu  Cu83  1  0.83609064  0.51708571  0.73717369  1
  Cu  Cu84  1  0.67977670  0.51648995  0.23793395  1
  Cu  Cu85  1  0.83671426  0.32022330  0.23793395  1
  Cu  Cu86  1  0.48351005  0.16328574  0.23793395  1
  Cu  Cu87  1  0.62795397  0.49840530  0.91902891  1
  Cu  Cu88  1  0.87045233  0.37204603  0.91902891  1
  Cu  Cu89  1  0.50159470  0.12954767  0.91902891  1
  Cu  Cu90  1  0.62765487  0.13876213  0.42547990  1
  Cu  Cu91  1  0.51110827  0.37234513  0.42547990  1
  Cu  Cu92  1  0.86123787  0.48889173  0.42547990  1
  Cu  Cu93  1  0.35314249  0.49819688  0.07690948  1
  Cu  Cu94  1  0.14505339  0.64685751  0.07690948  1
  Cu  Cu95  1  0.50180312  0.85494661  0.07690948  1
  Cu  Cu96  1  0.35781007  0.86139032  0.57399483  1
  Cu  Cu97  1  0.50357925  0.64218993  0.57399483  1
  Cu  Cu98  1  0.13860968  0.49642075  0.57399483  1
  Cu  Cu99  1  0.31185465  0.83392340  0.25755296  1
  Cu  Cu100  1  0.52206775  0.68814535  0.25755296  1
  Cu  Cu101  1  0.16607660  0.47793225  0.25755296  1
  Cu  Cu102  1  0.31267548  0.47769326  0.75603882  1
  Cu  Cu103  1  0.16501679  0.68732452  0.75603882  1
  Cu  Cu104  1  0.52230674  0.83498321  0.75603882  1
