# generated using pymatgen
data_Cu2NiC10
_symmetry_space_group_name_H-M   'P 1'
_cell_length_a   8.79341516
_cell_length_b   8.78391353
_cell_length_c   22.11762967
_cell_angle_alpha   89.89823905
_cell_angle_beta   90.03962015
_cell_angle_gamma   119.99217363
_symmetry_Int_Tables_number   1
_chemical_formula_structural   Cu2NiC10
_chemical_formula_sum   'Cu18 Ni9 C90'
_cell_volume   1479.61386443
_cell_formula_units_Z   9
loop_
 _symmetry_equiv_pos_site_id
 _symmetry_equiv_pos_as_xyz
  1  'x, y, z'
loop_
 _atom_site_type_symbol
 _atom_site_label
 _atom_site_symmetry_multiplicity
 _atom_site_fract_x
 _atom_site_fract_y
 _atom_site_fract_z
 _atom_site_occupancy
  C  C0  1  0.63354493  0.99959588  0.25315924  1
  C  C1  1  0.36603900  0.36708349  0.25365786  1
  C  C2  1  0.00049830  0.63454119  0.25321792  1
  C  C3  1  0.63895306  0.63269579  0.74745811  1
  C  C4  1  0.99808920  0.36200294  0.74766830  1
  C  C5  1  0.03091938  0.69985881  0.58138175  1
  C  C6  1  0.66546196  0.96796094  0.58099084  1
  C  C7  1  0.66551306  0.69829599  0.08191896  1
  C  C8  1  0.03160948  0.33136045  0.08213599  1
  C  C9  1  0.01213139  0.01335942  0.49530270  1
  C  C10  1  0.01103425  0.99866210  0.99552840  1
  C  C11  1  0.65376754  0.31925116  0.83176400  1
  C  C12  1  0.66650930  0.33344922  0.33513088  1
  C  C13  1  0.33206441  0.67747864  0.16537420  1
  C  C14  1  0.33287903  0.66464302  0.66112903  1
  C  C15  1  0.66536388  0.33306221  0.97859208  1
  C  C16  1  0.66389773  0.33232515  0.47728015  1
  C  C17  1  0.33405793  0.67345399  0.81405195  1
  Ni  Ni18  1  0.00022402  -0.00045300  0.35465552  1
  Ni  Ni19  1  0.00246665  0.00144794  0.85320274  1
  Ni  Ni20  1  0.00764594  0.00634778  0.64823096  1
  Ni  Ni21  1  0.00520943  0.99912430  0.15011933  1
  Ni  Ni22  1  0.65893376  0.32704442  0.68314545  1
  Ni  Ni23  1  0.66538754  0.33113897  0.18286402  1
  Ni  Ni24  1  0.33265576  0.67304337  0.01548109  1
  Ni  Ni25  1  0.33250619  0.65976675  0.51416904  1
  Ni  Ni26  1  0.33322909  0.66661109  0.31963905  1
  Cu  Cu27  1  0.28973470  0.00032573  0.25046369  1
  Cu  Cu28  1  0.71061727  0.70995309  0.24935809  1
  Cu  Cu29  1  -0.00075878  0.28965979  0.24938188  1
  Cu  Cu30  1  0.29073812  0.28100802  0.74980830  1
  Cu  Cu31  1  0.99526112  0.71141518  0.74781950  1
  Cu  Cu32  1  0.71690580  0.00680651  0.74788130  1
  Cu  Cu33  1  0.96384010  0.33456146  0.58570642  1
  Cu  Cu34  1  0.37135018  0.03966177  0.58483474  1
  Cu  Cu35  1  0.66285794  0.62653030  0.58606571  1
  Cu  Cu36  1  0.96531166  0.63138801  0.08606407  1
  Cu  Cu37  1  0.66325114  0.03530427  0.08650579  1
  Cu  Cu38  1  0.36925230  0.33063519  0.08610285  1
  Cu  Cu39  1  0.63203646  0.67753654  0.91782761  1
  Cu  Cu40  1  0.04521645  0.36855380  0.91819422  1
  Cu  Cu41  1  0.32254801  0.95545322  0.91853682  1
  Cu  Cu42  1  0.62641246  0.95062290  0.41557321  1
  Cu  Cu43  1  0.32436816  0.37410942  0.41434285  1
  Cu  Cu44  1  0.04926363  0.67510627  0.41578952  1
  C  C45  1  0.20877171  0.04088682  0.30539957  1
  C  C46  1  0.83426596  0.79449186  0.30338141  1
  C  C47  1  0.96071302  0.16574199  0.30340864  1
  C  C48  1  0.20787161  0.17357395  0.80722041  1
  C  C49  1  0.96269104  0.79659859  0.80319264  1
  C  C50  1  0.83424902  0.03954076  0.80360082  1
  C  C51  1  0.79218184  0.96863193  0.69017439  1
  C  C52  1  0.17226036  0.20703365  0.69381830  1
  C  C53  1  0.02456216  0.81650415  0.68903207  1
  C  C54  1  0.78618223  0.82211639  0.19088470  1
  C  C55  1  0.03534009  0.21406697  0.19091688  1
  C  C56  1  0.17238086  0.95964547  0.19389213  1
  C  C57  1  0.88317050  0.37019362  0.64324572  1
  C  C58  1  0.49261686  0.12115331  0.64007429  1
  C  C59  1  0.63643132  0.51874728  0.64457548  1
  C  C60  1  0.88296933  0.51317553  0.14340802  1
  C  C61  1  0.63574250  0.11705378  0.14478368  1
  C  C62  1  0.48677153  0.36726212  0.14328007  1
  C  C63  1  0.46129875  0.30595816  0.03080111  1
  C  C64  1  0.84086215  0.54025007  0.03164681  1
  C  C65  1  0.69800969  0.16010879  0.03224557  1
  C  C66  1  0.45880600  0.15376200  0.52844972  1
  C  C67  1  0.69665990  0.53600526  0.53197288  1
  C  C68  1  0.83898016  0.30129422  0.53146771  1
  C  C69  1  0.54312001  0.69635811  0.97540334  1
  C  C70  1  0.15389481  0.45714240  0.97559427  1
  C  C71  1  0.29986099  0.84472901  0.97465478  1
  C  C72  1  0.54071611  0.84488901  0.47387592  1
  C  C73  1  0.30106388  0.46135865  0.47044170  1
  C  C74  1  0.15589768  0.69658279  0.47387451  1
  C  C75  1  0.12692648  0.64327480  0.35741542  1
  C  C76  1  0.51689714  0.87239071  0.35730520  1
  C  C77  1  0.35680316  0.48107858  0.35501209  1
  C  C78  1  0.12937732  0.48117916  0.86047696  1
  C  C79  1  0.35322498  0.87228773  0.86152190  1
  C  C80  1  0.51980439  0.64953903  0.86024212  1
  C  C81  1  0.02979628  0.84011659  0.41056439  1
  C  C82  1  0.81053537  0.96973076  0.41039572  1
  C  C83  1  0.15989067  0.18931092  0.40960212  1
  C  C84  1  0.02651456  0.18597360  0.91213826  1
  C  C85  1  0.15837160  0.97318533  0.91142454  1
  C  C86  1  0.81431446  0.84181123  0.91141335  1
  C  C87  1  0.97509046  0.16445489  0.59053403  1
  C  C88  1  0.18477935  0.01611494  0.59003656  1
  C  C89  1  0.83191502  0.81273969  0.58938598  1
  C  C90  1  0.97539287  0.81140185  0.09119023  1
  C  C91  1  0.83251841  0.01959469  0.09052993  1
  C  C92  1  0.18363712  0.16826247  0.09080714  1
  C  C93  1  0.69705163  0.17184724  0.74245255  1
  C  C94  1  0.47934397  0.31070632  0.74369305  1
  C  C95  1  0.83049473  0.52198664  0.74418065  1
  C  C96  1  0.68909237  0.52153631  0.24348621  1
  C  C97  1  0.83233725  0.31112079  0.24385696  1
  C  C98  1  0.47768268  0.16729998  0.24363785  1
  C  C99  1  0.64802648  0.50891729  0.92184393  1
  C  C100  1  0.86084098  0.35278155  0.92249207  1
  C  C101  1  0.49101338  0.13978866  0.92262035  1
  C  C102  1  0.64588797  0.13743232  0.42078178  1
  C  C103  1  0.49231306  0.35616681  0.42055754  1
  C  C104  1  0.86293265  0.50775967  0.42150745  1
  C  C105  1  0.35257474  0.49875485  0.07926018  1
  C  C106  1  0.14490386  0.64221366  0.07821455  1
  C  C107  1  0.50251995  0.84978146  0.07871237  1
  C  C108  1  0.35216334  0.85349773  0.57812528  1
  C  C109  1  0.50183073  0.65171155  0.57814939  1
  C  C110  1  0.14442904  0.50265303  0.57745181  1
  C  C111  1  0.31330846  0.83569559  0.25663330  1
  C  C112  1  0.52363464  0.68850806  0.25544003  1
  C  C113  1  0.16400883  0.47730865  0.25542067  1
  C  C114  1  0.31352744  0.47225502  0.75508534  1
  C  C115  1  0.15692627  0.68249076  0.75346577  1
  C  C116  1  0.53219292  0.83733095  0.75404329  1
