# generated using pymatgen
data_Cu3NiC35
_symmetry_space_group_name_H-M   'P 1'
_cell_length_a   9.05719352
_cell_length_b   9.03604907
_cell_length_c   22.73670042
_cell_angle_alpha   89.98286664
_cell_angle_beta   89.91863694
_cell_angle_gamma   120.01303582
_symmetry_Int_Tables_number   1
_chemical_formula_structural   Cu3NiC35
_chemical_formula_sum   'Cu9 Ni3 C105'
_cell_volume   1611.28551498
_cell_formula_units_Z   3
loop_
 _symmetry_equiv_pos_site_id
 _symmetry_equiv_pos_as_xyz
  1  'x, y, z'
loop_
 _atom_site_type_symbol
 _atom_site_label
 _atom_site_symmetry_multiplicity
 _atom_site_fract_x
 _atom_site_fract_y
 _atom_site_fract_z
 _atom_site_occupancy
  C  C0  1  0.64500982  0.01227044  0.24299250  1
  C  C1  1  0.36811718  0.35558635  0.24309102  1
  C  C2  1  0.98866712  0.63422585  0.24365556  1
  C  C3  1  0.63142305  0.62196471  0.74930042  1
  C  C4  1  0.99060816  0.36782212  0.74949799  1
  C  C5  1  0.37960604  0.01054525  0.74373069  1
  C  C6  1  0.65869796  0.97670213  0.58308768  1
  C  C7  1  0.33160932  0.30603780  0.92482286  1
  C  C8  1  0.32449241  0.03279171  0.41597348  1
  C  C9  1  0.00165026  0.00065385  0.49686987  1
  C  C10  1  0.98126810  0.98823289  0.00229683  1
  C  C11  1  0.68161662  0.33892326  0.84161556  1
  C  C12  1  0.67914617  0.34510267  0.33218102  1
  C  C13  1  0.33360357  0.66737645  0.15726299  1
  C  C14  1  0.32152237  0.66265979  0.65964593  1
  C  C15  1  0.99176481  0.99956488  0.35647275  1
  C  C16  1  0.66488430  0.33364298  0.67910297  1
  C  C17  1  0.66937824  0.33407001  0.17339931  1
  Ni  Ni18  1  0.36300019  0.02830552  0.58270770  1
  Ni  Ni19  1  0.62783282  0.66383029  0.91706568  1
  Ni  Ni20  1  0.03455559  0.37355272  0.91581165  1
  Cu  Cu21  1  0.99466583  0.99645082  0.85816752  1
  Cu  Cu22  1  0.00622892  0.99956381  0.64507432  1
  Cu  Cu23  1  0.99918761  0.00087374  0.14563973  1
  Cu  Cu24  1  0.67505339  0.33787816  0.98451182  1
  Cu  Cu25  1  0.66749308  0.33763718  0.48448578  1
  Cu  Cu26  1  0.33462116  0.66610786  0.01580504  1
  Cu  Cu27  1  0.32899368  0.66118435  0.51836844  1
  Cu  Cu28  1  0.33200046  0.66369894  0.31794864  1
  Cu  Cu29  1  0.33193444  0.66434093  0.82151802  1
  C  C30  1  0.29253714  0.99290463  0.25300905  1
  C  C31  1  0.70075173  0.70765570  0.25066327  1
  C  C32  1  0.00741376  0.29992931  0.25035776  1
  C  C33  1  0.28160247  0.29086290  0.75307911  1
  C  C34  1  0.01063067  0.71819510  0.75298021  1
  C  C35  1  0.70880140  0.99197941  0.75108425  1
  C  C36  1  0.96874163  0.33314810  0.58459362  1
  C  C37  1  0.66668696  0.63689026  0.58411436  1
  C  C38  1  0.97679548  0.64257097  0.08349631  1
  C  C39  1  0.66447957  0.02564816  0.08331939  1
  C  C40  1  0.35938054  0.33251813  0.08253029  1
  C  C41  1  0.33670671  0.96268117  0.91607951  1
  C  C42  1  0.62037888  0.96404084  0.42007968  1
  C  C43  1  0.34678942  0.38037623  0.41852259  1
  C  C44  1  0.03555675  0.65386982  0.41843254  1
  C  C45  1  0.22172771  0.01943808  0.31005624  1
  C  C46  1  0.80800840  0.78285138  0.30472585  1
  C  C47  1  0.97727914  0.19333742  0.30456240  1
  C  C48  1  0.19958183  0.18105344  0.80844765  1
  C  C49  1  0.98430526  0.80531782  0.80664682  1
  C  C50  1  0.82569043  0.01734543  0.80353576  1
  C  C51  1  0.78443180  0.96097855  0.69313461  1
  C  C52  1  0.16659335  0.20816589  0.69803445  1
  C  C53  1  0.04074854  0.82801631  0.69650314  1
  C  C54  1  0.78210168  0.82569640  0.19493945  1
  C  C55  1  0.04288787  0.21819217  0.19452822  1
  C  C56  1  0.17076901  0.95963957  0.19897761  1
  C  C57  1  0.90887475  0.36608535  0.64306481  1
  C  C58  1  0.46950955  0.09016400  0.64307204  1
  C  C59  1  0.63950213  0.54711254  0.64284539  1
  C  C60  1  0.91488206  0.55254529  0.14235778  1
  C  C61  1  0.64057575  0.08878584  0.14255191  1
  C  C62  1  0.45122588  0.35504606  0.14043000  1
  C  C63  1  0.45142203  0.30798511  0.02766071  1
  C  C64  1  0.85365039  0.54780933  0.03131551  1
  C  C65  1  0.69045372  0.14877613  0.03114207  1
  C  C66  1  0.45857032  0.15147090  0.52470803  1
  C  C67  1  0.70051136  0.54912812  0.53147396  1
  C  C68  1  0.84343389  0.30075010  0.53264463  1
  C  C69  1  0.53595921  0.70143326  0.97037725  1
  C  C70  1  0.17081553  0.46566075  0.96791661  1
  C  C71  1  0.30239605  0.84272275  0.96752012  1
  C  C72  1  0.52666167  0.85624940  0.47460694  1
  C  C73  1  0.32788055  0.47396830  0.47144269  1
  C  C74  1  0.15341534  0.67575486  0.47011757  1
  C  C75  1  0.11118976  0.62783215  0.35917931  1
  C  C76  1  0.50857681  0.88200598  0.36283011  1
  C  C77  1  0.36634655  0.48007777  0.35947438  1
  C  C78  1  0.10612640  0.48074163  0.85253094  1
  C  C79  1  0.36765137  0.89202683  0.85668453  1
  C  C80  1  0.51536990  0.62458514  0.85445819  1
  C  C81  1  0.02668352  0.81706477  0.41770779  1
  C  C82  1  0.79566595  0.98567412  0.41967928  1
  C  C83  1  0.19580250  0.19941978  0.41862638  1
  C  C84  1  0.03408592  0.19037594  0.91136697  1
  C  C85  1  0.17990152  0.98854027  0.91027294  1
  C  C86  1  0.81928200  0.82893535  0.91287218  1
  C  C87  1  0.96878701  0.15932327  0.58694808  1
  C  C88  1  0.17477109  0.01449716  0.58478971  1
  C  C89  1  0.82358817  0.82361644  0.58608351  1
  C  C90  1  0.99036746  0.82252951  0.08555305  1
  C  C91  1  0.82988135  0.01047636  0.08454170  1
  C  C92  1  0.17942849  0.16625416  0.08439476  1
  C  C93  1  0.68879124  0.15042354  0.74928478  1
  C  C94  1  0.46047888  0.31356922  0.74870615  1
  C  C95  1  0.85407136  0.53869670  0.74966579  1
  C  C96  1  0.66849005  0.52481911  0.24322353  1
  C  C97  1  0.85676516  0.33170569  0.24353772  1
  C  C98  1  0.47363699  0.14496626  0.24450413  1
  C  C99  1  0.63094284  0.48333801  0.92408113  1
  C  C100  1  0.84409263  0.34638016  0.92364275  1
  C  C101  1  0.49303899  0.14394081  0.92334334  1
  C  C102  1  0.62458957  0.14039880  0.42212190  1
  C  C103  1  0.51527179  0.37094275  0.42152735  1
  C  C104  1  0.85810277  0.48891943  0.42412342  1
  C  C105  1  0.33845449  0.49193761  0.07489186  1
  C  C106  1  0.15604864  0.66486453  0.07261844  1
  C  C107  1  0.50402919  0.84779382  0.07367760  1
  C  C108  1  0.34629737  0.83808870  0.57495413  1
  C  C109  1  0.51017112  0.66183796  0.57423417  1
  C  C110  1  0.15154009  0.48166452  0.57413197  1
  C  C111  1  0.30264793  0.82137008  0.25513732  1
  C  C112  1  0.52066829  0.69924716  0.25526777  1
  C  C113  1  0.17915249  0.48019082  0.25418233  1
  C  C114  1  0.29535363  0.47184735  0.75526598  1
  C  C115  1  0.17941866  0.70810084  0.75644242  1
  C  C116  1  0.52802204  0.82599770  0.75632130  1
