# generated using pymatgen
data_CuNiC16
_symmetry_space_group_name_H-M   'P 1'
_cell_length_a   8.80011216
_cell_length_b   8.79830425
_cell_length_c   23.15016993
_cell_angle_alpha   89.96971828
_cell_angle_beta   90.00000000
_cell_angle_gamma   120.00679759
_symmetry_Int_Tables_number   1
_chemical_formula_structural   CuNiC16
_chemical_formula_sum   'Cu6 Ni6 C96'
_cell_volume   1552.18029452
_cell_formula_units_Z   6
loop_
 _symmetry_equiv_pos_site_id
 _symmetry_equiv_pos_as_xyz
  1  'x, y, z'
loop_
 _atom_site_type_symbol
 _atom_site_label
 _atom_site_symmetry_multiplicity
 _atom_site_fract_x
 _atom_site_fract_y
 _atom_site_fract_z
 _atom_site_occupancy
  C  C0  1  0.99079212  0.99330976  0.50385300  1
  C  C1  1  0.00251764  0.99330976  0.00385300  1
  C  C2  1  0.66218441  0.32393826  0.83721143  1
  C  C3  1  0.66175484  0.32393826  0.33721143  1
  C  C4  1  0.32867014  0.67111934  0.17060937  1
  C  C5  1  0.34244820  0.67111934  0.67060937  1
  Ni  Ni6  1  0.98491766  0.99137920  0.64802850  1
  Ni  Ni7  1  0.00646154  0.99137920  0.14802850  1
  Ni  Ni8  1  0.66604573  0.33468165  0.98157209  1
  Ni  Ni9  1  0.66863692  0.33468165  0.48157209  1
  Ni  Ni10  1  0.33824503  0.68167622  0.31488645  1
  Ni  Ni11  1  0.34343019  0.68167622  0.81488645  1
  Cu  Cu12  1  0.00337963  0.00057936  0.35292438  1
  Cu  Cu13  1  0.99719973  0.00057936  0.85292438  1
  Cu  Cu14  1  0.66633977  0.33372551  0.68626148  1
  Cu  Cu15  1  0.66738673  0.33372551  0.18626148  1
  Cu  Cu16  1  0.32331266  0.67374792  0.01967546  1
  Cu  Cu17  1  0.35043426  0.67374792  0.51967546  1
  C  C18  1  0.28817558  0.99308769  0.24809619  1
  C  C19  1  0.70491211  0.99308769  0.74809619  1
  C  C20  1  0.67637523  0.62612715  0.58129824  1
  C  C21  1  0.94975292  0.62612715  0.08129824  1
  C  C22  1  0.34131157  0.96540574  0.91417475  1
  C  C23  1  0.62409317  0.96540574  0.41417475  1
  C  C24  1  0.70548190  0.71206551  0.24878048  1
  C  C25  1  0.00704347  0.29369345  0.24856472  1
  C  C26  1  0.28664999  0.29369345  0.74856472  1
  C  C27  1  0.00658361  0.71206551  0.74878048  1
  C  C28  1  0.95678988  0.32936031  0.58186043  1
  C  C29  1  0.37100440  0.04549941  0.58229255  1
  C  C30  1  0.67449602  0.04549941  0.08229255  1
  C  C31  1  0.37257142  0.32936031  0.08186043  1
  C  C32  1  0.61928884  0.65972645  0.91587775  1
  C  C33  1  0.04061017  0.37985029  0.91503252  1
  C  C34  1  0.33923912  0.37985029  0.41503252  1
  C  C35  1  0.04043660  0.65972645  0.41587775  1
  C  C36  1  0.20478223  0.02768781  0.30366319  1
  C  C37  1  0.81643314  0.78947100  0.30182080  1
  C  C38  1  0.97201607  0.18269734  0.30197078  1
  C  C39  1  0.21068127  0.18269734  0.80197078  1
  C  C40  1  0.97303786  0.78947100  0.80182080  1
  C  C41  1  0.82290558  0.02768781  0.80366319  1
  C  C42  1  0.79583587  0.97482769  0.69582135  1
  C  C43  1  0.18423534  0.20936365  0.69714399  1
  C  C44  1  0.02996622  0.81777381  0.69754013  1
  C  C45  1  0.78780759  0.81777381  0.19754013  1
  C  C46  1  0.02512831  0.20936365  0.19714399  1
  C  C47  1  0.17899182  0.97482769  0.19582135  1
  C  C48  1  0.87694828  0.36003284  0.63516864  1
  C  C49  1  0.48322316  0.12122461  0.63534450  1
  C  C50  1  0.63989979  0.50946344  0.63694327  1
  C  C51  1  0.86956465  0.50946344  0.13694327  1
  C  C52  1  0.63800245  0.12122461  0.13534450  1
  C  C53  1  0.48308556  0.36003284  0.13516864  1
  C  C54  1  0.45531187  0.30501272  0.03100078  1
  C  C55  1  0.84352717  0.53567123  0.02830469  1
  C  C56  1  0.69367956  0.14892442  0.03088347  1
  C  C57  1  0.45524586  0.14892442  0.53088347  1
  C  C58  1  0.69214506  0.53567123  0.52830469  1
  C  C59  1  0.84970185  0.30501272  0.53100078  1
  C  C60  1  0.54257108  0.69256025  0.96889476  1
  C  C61  1  0.15116872  0.45524241  0.96844153  1
  C  C62  1  0.30540840  0.84629151  0.97000616  1
  C  C63  1  0.54088211  0.84629151  0.47000616  1
  C  C64  1  0.30407269  0.45524241  0.46844153  1
  C  C65  1  0.14998817  0.69256025  0.46889476  1
  C  C66  1  0.12188113  0.63761751  0.36428603  1
  C  C67  1  0.51311613  0.87313856  0.36257105  1
  C  C68  1  0.35799488  0.48298150  0.36370685  1
  C  C69  1  0.12498563  0.48298150  0.86370685  1
  C  C70  1  0.36002144  0.87313856  0.86257105  1
  C  C71  1  0.51573539  0.63761751  0.86428603  1
  C  C72  1  0.02457319  0.82349091  0.41033953  1
  C  C73  1  0.80869289  0.97754720  0.40920887  1
  C  C74  1  0.17552902  0.20064691  0.41067003  1
  C  C75  1  0.02511789  0.20064691  0.91067003  1
  C  C76  1  0.16885431  0.97754720  0.90920887  1
  C  C77  1  0.79891772  0.82349091  0.91033953  1
  C  C78  1  0.98047923  0.17779053  0.59031113  1
  C  C79  1  0.19807450  0.02536536  0.59131822  1
  C  C80  1  0.83251654  0.80941981  0.58955475  1
  C  C81  1  0.97690327  0.80941981  0.08955475  1
  C  C82  1  0.82729087  0.02536536  0.09131822  1
  C  C83  1  0.19731130  0.17779053  0.09031113  1
  C  C84  1  0.68999203  0.16467373  0.74272221  1
  C  C85  1  0.46577950  0.30917603  0.74393346  1
  C  C86  1  0.84210336  0.53409860  0.74376819  1
  C  C87  1  0.69199624  0.53409860  0.24376819  1
  C  C88  1  0.84339753  0.30917603  0.24393346  1
  C  C89  1  0.47468270  0.16467373  0.24272221  1
  C  C90  1  0.64433568  0.50869059  0.92333568  1
  C  C91  1  0.86609340  0.35704870  0.92337313  1
  C  C92  1  0.49976110  0.14622069  0.92481577  1
  C  C93  1  0.64646059  0.14622069  0.42481577  1
  C  C94  1  0.49095631  0.35704870  0.42337313  1
  C  C95  1  0.86435591  0.50869059  0.42333568  1
  C  C96  1  0.35989778  0.49312824  0.07647441  1
  C  C97  1  0.13736095  0.64008068  0.07730175  1
  C  C98  1  0.51201860  0.86579535  0.07718348  1
  C  C99  1  0.35377575  0.86579535  0.57718348  1
  C  C100  1  0.50271873  0.64008068  0.57730175  1
  C  C101  1  0.13322947  0.49312824  0.57647441  1
  C  C102  1  0.31104858  0.83425127  0.25655202  1
  C  C103  1  0.52998684  0.68607791  0.25700096  1
  C  C104  1  0.15965700  0.46754197  0.25762461  1
  C  C105  1  0.30788397  0.46754197  0.75762461  1
  C  C106  1  0.15609007  0.68607791  0.75700096  1
  C  C107  1  0.52320169  0.83425127  0.75655202  1
