# generated using pymatgen
data_Cu11NiC58
_symmetry_space_group_name_H-M   'P 1'
_cell_length_a   17.56563930
_cell_length_b   8.77821166
_cell_length_c   22.71784559
_cell_angle_alpha   90.17592879
_cell_angle_beta   89.83952558
_cell_angle_gamma   119.99454986
_symmetry_Int_Tables_number   1
_chemical_formula_structural   Cu11NiC58
_chemical_formula_sum   'Cu33 Ni3 C174'
_cell_volume   3033.81518898
_cell_formula_units_Z   3
loop_
 _symmetry_equiv_pos_site_id
 _symmetry_equiv_pos_as_xyz
  1  'x, y, z'
loop_
 _atom_site_type_symbol
 _atom_site_label
 _atom_site_symmetry_multiplicity
 _atom_site_fract_x
 _atom_site_fract_y
 _atom_site_fract_z
 _atom_site_occupancy
  C  C0  1  0.00087332  0.99239070  0.49107688  1
  C  C1  1  0.49292970  0.00210104  0.99901277  1
  C  C2  1  0.33327728  0.33355534  0.83892421  1
  C  C3  1  0.84132207  0.34672824  0.82909746  1
  C  C4  1  0.33460784  0.33792371  0.33341266  1
  C  C5  1  0.83552526  0.33712649  0.33880442  1
  C  C6  1  0.00137171  0.99173988  0.64566906  1
  C  C7  1  0.49949750  0.99984939  0.64020655  1
  C  C8  1  0.00320887  0.00159946  0.14336984  1
  C  C9  1  0.66050823  0.64994789  0.02259263  1
  C  C10  1  0.16413027  0.66576602  0.31595745  1
  C  C11  1  0.66499176  0.66536075  0.31293743  1
  C  C12  1  0.16219103  0.66761908  0.81144004  1
  C  C13  1  0.66273204  0.65837407  0.81045950  1
  C  C14  1  0.00053619  0.99000399  0.35523949  1
  C  C15  1  0.49823980  0.99672246  0.35233349  1
  C  C16  1  0.00137736  0.99478850  0.85325699  1
  C  C17  1  0.49603573  0.00438318  0.85627257  1
  C  C18  1  0.49182632  0.99723098  0.15120415  1
  C  C19  1  0.33135245  0.33129758  0.68154410  1
  C  C20  1  0.84170060  0.34637804  0.68271912  1
  C  C21  1  0.33712996  0.33279545  0.18074121  1
  C  C22  1  0.83034845  0.33082350  0.18401316  1
  C  C23  1  0.33563248  0.32317203  0.97983271  1
  C  C24  1  0.83921438  0.34077894  0.98214508  1
  C  C25  1  0.33174081  0.32936542  0.48085619  1
  C  C26  1  0.84450170  0.34891790  0.47861127  1
  C  C27  1  0.17309605  0.67884343  0.02082665  1
  C  C28  1  0.15962964  0.66636883  0.51813308  1
  C  C29  1  0.66758557  0.66689874  0.51935953  1
  Ni  Ni30  1  0.99145080  0.70064321  0.75397607  1
  Ni  Ni31  1  0.51404263  0.36193261  0.91583990  1
  Ni  Ni32  1  0.01524769  0.66707287  0.42128173  1
  Cu  Cu33  1  0.14720384  0.00470425  0.25057170  1
  Cu  Cu34  1  0.64651506  0.00575467  0.25060092  1
  Cu  Cu35  1  0.35470973  0.70380587  0.25087382  1
  Cu  Cu36  1  0.85550834  0.70795776  0.25041084  1
  Cu  Cu37  1  0.99829339  0.28597212  0.25140506  1
  Cu  Cu38  1  0.49769025  0.28841933  0.25113282  1
  Cu  Cu39  1  0.14766599  0.29018107  0.75122533  1
  Cu  Cu40  1  0.64407588  0.28194618  0.75052443  1
  Cu  Cu41  1  0.49751903  0.71132768  0.75100805  1
  Cu  Cu42  1  0.35631018  0.00439682  0.75035650  1
  Cu  Cu43  1  0.85577406  0.00310795  0.75190876  1
  Cu  Cu44  1  0.47923489  0.34144126  0.58341573  1
  Cu  Cu45  1  0.98038988  0.33361842  0.58336341  1
  Cu  Cu46  1  0.19075238  0.04279227  0.58343012  1
  Cu  Cu47  1  0.69327623  0.04508920  0.58344137  1
  Cu  Cu48  1  0.32860033  0.61731364  0.58297094  1
  Cu  Cu49  1  0.82939873  0.62163212  0.58315423  1
  Cu  Cu50  1  0.47710732  0.63044712  0.08287663  1
  Cu  Cu51  1  0.97910120  0.61784507  0.08417088  1
  Cu  Cu52  1  0.33407685  0.04039174  0.08341879  1
  Cu  Cu53  1  0.83327501  0.04418966  0.08347007  1
  Cu  Cu54  1  0.19209460  0.34290203  0.08316067  1
  Cu  Cu55  1  0.68770710  0.32505015  0.08273572  1
  Cu  Cu56  1  0.31098626  0.66410917  0.91702737  1
  Cu  Cu57  1  0.81135372  0.66715656  0.91712213  1
  Cu  Cu58  1  0.02079507  0.37271798  0.91798976  1
  Cu  Cu59  1  0.16484493  0.95700923  0.91830514  1
  Cu  Cu60  1  0.66883536  0.95701038  0.91731259  1
  Cu  Cu61  1  0.31449326  0.96011738  0.41790788  1
  Cu  Cu62  1  0.81053865  0.95617358  0.41781591  1
  Cu  Cu63  1  0.16829395  0.37615396  0.41805881  1
  Cu  Cu64  1  0.66384580  0.37173672  0.41727459  1
  Cu  Cu65  1  0.52048789  0.66808782  0.41813732  1
  C  C66  1  0.10575602  0.03152084  0.30153775  1
  C  C67  1  0.60719736  0.03098519  0.30374351  1
  C  C68  1  0.40906919  0.78419585  0.30338643  1
  C  C69  1  0.90823012  0.78927625  0.30214698  1
  C  C70  1  0.48567550  0.18489891  0.30391711  1
  C  C71  1  0.98576563  0.17866152  0.30295378  1
  C  C72  1  0.10806556  0.18702535  0.80357962  1
  C  C73  1  0.60328375  0.17970098  0.80315111  1
  C  C74  1  0.48736638  0.79305665  0.80373656  1
  C  C75  1  0.98209679  0.79559618  0.80978503  1
  C  C76  1  0.41005379  0.03297455  0.80235022  1
  C  C77  1  0.90828002  0.03277916  0.80427607  1
  C  C78  1  0.39870991  0.97540673  0.69668241  1
  C  C79  1  0.89706415  0.97282348  0.69819835  1
  C  C80  1  0.09129876  0.21027147  0.69725272  1
  C  C81  1  0.58708241  0.20339399  0.69723568  1
  C  C82  1  0.01213450  0.83321179  0.69424540  1
  C  C83  1  0.51239597  0.82222112  0.69738979  1
  C  C84  1  0.39065114  0.81000930  0.19739590  1
  C  C85  1  0.89703755  0.82041973  0.19643792  1
  C  C86  1  0.01056077  0.19726689  0.19684311  1
  C  C87  1  0.51887229  0.22387576  0.19776737  1
  C  C88  1  0.08890098  0.97549186  0.19646381  1
  C  C89  1  0.59417940  0.96816989  0.19711656  1
  C  C90  1  0.44010700  0.36336186  0.63741598  1
  C  C91  1  0.94033481  0.35640685  0.63666798  1
  C  C92  1  0.23934931  0.12513476  0.63757719  1
  C  C93  1  0.74208985  0.12409334  0.63746257  1
  C  C94  1  0.31919855  0.51982469  0.63725783  1
  C  C95  1  0.81831783  0.52214448  0.63690203  1
  C  C96  1  0.44624311  0.52548627  0.13626898  1
  C  C97  1  0.93839969  0.51465700  0.13714399  1
  C  C98  1  0.32093236  0.11971864  0.13737335  1
  C  C99  1  0.81661116  0.11560850  0.13654170  1
  C  C100  1  0.24160418  0.36347092  0.13695257  1
  C  C101  1  0.74066730  0.36442426  0.13582771  1
  C  C102  1  0.22329837  0.29505546  0.03090719  1
  C  C103  1  0.72846354  0.30406486  0.02913482  1
  C  C104  1  0.42537124  0.54940269  0.03005696  1
  C  C105  1  0.92348445  0.55578829  0.03164865  1
  C  C106  1  0.34989951  0.15118331  0.03056415  1
  C  C107  1  0.85324257  0.15240617  0.03087533  1
  C  C108  1  0.22537572  0.15371163  0.53083954  1
  C  C109  1  0.72425442  0.15473446  0.53124824  1
  C  C110  1  0.35397651  0.55297366  0.53141829  1
  C  C111  1  0.85206208  0.55629931  0.53074594  1
  C  C112  1  0.42357154  0.29401800  0.53137817  1
  C  C113  1  0.92410533  0.28823347  0.53099982  1
  C  C114  1  0.27187079  0.69300386  0.96971269  1
  C  C115  1  0.76423961  0.68439437  0.97019466  1
  C  C116  1  0.07360478  0.45666010  0.96981937  1
  C  C117  1  0.58188802  0.47978764  0.97250731  1
  C  C118  1  0.15303526  0.84866570  0.96959441  1
  C  C119  1  0.66031426  0.84696343  0.97017982  1
  C  C120  1  0.27523045  0.85490673  0.47007854  1
  C  C121  1  0.77026228  0.84729046  0.46973171  1
  C  C122  1  0.15859851  0.45811241  0.47082738  1
  C  C123  1  0.65200780  0.45628834  0.46910409  1
  C  C124  1  0.07906460  0.69968381  0.47465976  1
  C  C125  1  0.57407456  0.69121333  0.46987838  1
  C  C126  1  0.07341122  0.64572247  0.36029274  1
  C  C127  1  0.56837667  0.64331558  0.36338109  1
  C  C128  1  0.25429697  0.86415436  0.36302489  1
  C  C129  1  0.75401803  0.85838414  0.36289254  1
  C  C130  1  0.18080380  0.49113422  0.36271018  1
  C  C131  1  0.67641150  0.49458074  0.36277833  1
  C  C132  1  0.06749929  0.49222021  0.86308985  1
  C  C133  1  0.57450822  0.50116038  0.85960819  1
  C  C134  1  0.17708009  0.86086936  0.86352328  1
  C  C135  1  0.68086662  0.86923186  0.86274961  1
  C  C136  1  0.25621272  0.64771427  0.86266093  1
  C  C137  1  0.75366082  0.64322972  0.86347749  1
  C  C138  1  0.01028623  0.84260533  0.41162397  1
  C  C139  1  0.51365700  0.82299232  0.40685235  1
  C  C140  1  0.39981532  0.97767755  0.40600813  1
  C  C141  1  0.89750427  0.97692726  0.40880177  1
  C  C142  1  0.08867716  0.20663262  0.40840596  1
  C  C143  1  0.58554900  0.20408862  0.40578096  1
  C  C144  1  0.01251214  0.20253895  0.90588211  1
  C  C145  1  0.51876496  0.18593711  0.91461491  1
  C  C146  1  0.08801588  0.97437988  0.90938301  1
  C  C147  1  0.58780032  0.96261770  0.91245109  1
  C  C148  1  0.39953486  0.81962972  0.90979334  1
  C  C149  1  0.89450202  0.82663561  0.91285255  1
  C  C150  1  0.48825411  0.17296901  0.59519830  1
  C  C151  1  0.98916070  0.16769141  0.59380110  1
  C  C152  1  0.09807736  0.02926096  0.59119417  1
  C  C153  1  0.59767600  0.02390164  0.59640580  1
  C  C154  1  0.41384369  0.80483609  0.59527109  1
  C  C155  1  0.91307947  0.81087034  0.59234875  1
  C  C156  1  0.49478121  0.81163870  0.08896934  1
  C  C157  1  0.98807136  0.80369945  0.09632595  1
  C  C158  1  0.41467962  0.02308410  0.08869007  1
  C  C159  1  0.91223174  0.01945467  0.09437574  1
  C  C160  1  0.09737056  0.17102223  0.09625681  1
  C  C161  1  0.59777292  0.17842403  0.08851594  1
  C  C162  1  0.34353369  0.15556159  0.74160005  1
  C  C163  1  0.83781037  0.14599010  0.74228226  1
  C  C164  1  0.23613273  0.31517138  0.74214154  1
  C  C165  1  0.73162746  0.30903359  0.74168744  1
  C  C166  1  0.42339501  0.53336732  0.74270612  1
  C  C167  1  0.91279929  0.50547189  0.74459956  1
  C  C168  1  0.34209369  0.52449767  0.24388541  1
  C  C169  1  0.84252776  0.53089066  0.24162152  1
  C  C170  1  0.42289755  0.31912554  0.24505997  1
  C  C171  1  0.92305771  0.31170686  0.24181159  1
  C  C172  1  0.23452679  0.15675717  0.24106319  1
  C  C173  1  0.73747757  0.15536947  0.24456139  1
  C  C174  1  0.31421405  0.50017121  0.91950058  1
  C  C175  1  0.81501083  0.50378270  0.92122183  1
  C  C176  1  0.42534713  0.36752682  0.91763074  1
  C  C177  1  0.93371695  0.36358881  0.91936546  1
  C  C178  1  0.24685501  0.12773194  0.91816098  1
  C  C179  1  0.74829385  0.12982259  0.92200309  1
  C  C180  1  0.31793741  0.13255179  0.41856156  1
  C  C181  1  0.81048486  0.12268820  0.41859351  1
  C  C182  1  0.24926988  0.36295831  0.41857414  1
  C  C183  1  0.74485057  0.36340122  0.41809782  1
  C  C184  1  0.43462563  0.50346110  0.41927123  1
  C  C185  1  0.92339461  0.48420275  0.41592593  1
  C  C186  1  0.17199346  0.48286233  0.07594299  1
  C  C187  1  0.68064171  0.49464994  0.07384719  1
  C  C188  1  0.06763253  0.65030324  0.07612522  1
  C  C189  1  0.57040924  0.64981345  0.07246131  1
  C  C190  1  0.25541542  0.86554120  0.07693025  1
  C  C191  1  0.75743024  0.86417081  0.07322292  1
  C  C192  1  0.17697433  0.86704310  0.57866875  1
  C  C193  1  0.67362899  0.86428077  0.57634312  1
  C  C194  1  0.25735592  0.65223137  0.57507158  1
  C  C195  1  0.75588163  0.65284337  0.57604485  1
  C  C196  1  0.06929869  0.48056612  0.57701472  1
  C  C197  1  0.56855707  0.48542867  0.57607193  1
  C  C198  1  0.15278317  0.83992853  0.25498977  1
  C  C199  1  0.65607458  0.84119784  0.26174110  1
  C  C200  1  0.26532665  0.68713301  0.26095543  1
  C  C201  1  0.76662284  0.69462614  0.25666103  1
  C  C202  1  0.08184022  0.46025569  0.25555648  1
  C  C203  1  0.57982997  0.47272395  0.26153056  1
  C  C204  1  0.15530023  0.46874578  0.75793688  1
  C  C205  1  0.65172086  0.46417321  0.75682901  1
  C  C206  1  0.08618022  0.69326288  0.76158970  1
  C  C207  1  0.58194001  0.70073166  0.75683285  1
  C  C208  1  0.26894809  0.83910641  0.75672328  1
  C  C209  1  0.76741177  0.83418387  0.75950589  1
