# generated using pymatgen
data_CuNiC11
_symmetry_space_group_name_H-M   'P 1'
_cell_length_a   6.04646003
_cell_length_b   6.04646003
_cell_length_c   9.88389100
_cell_angle_alpha   90.00000000
_cell_angle_beta   90.00000000
_cell_angle_gamma   120.00000035
_symmetry_Int_Tables_number   1
_chemical_formula_structural   CuNiC11
_chemical_formula_sum   'Cu2 Ni2 C22'
_cell_volume   312.93990792
_cell_formula_units_Z   2
loop_
 _symmetry_equiv_pos_site_id
 _symmetry_equiv_pos_as_xyz
  1  'x, y, z'
loop_
 _atom_site_type_symbol
 _atom_site_label
 _atom_site_symmetry_multiplicity
 _atom_site_fract_x
 _atom_site_fract_y
 _atom_site_fract_z
 _atom_site_occupancy
  Ni  Ni0  1  0.33333300  0.66666700  0.08713900  1
  Ni  Ni1  1  0.66666700  0.33333300  0.58713900  1
  Cu  Cu2  1  0.33333300  0.66666700  0.45242600  1
  Cu  Cu3  1  0.66666700  0.33333300  0.95242600  1
  C  C4  1  0.17362200  0.34724400  0.76122900  1
  C  C5  1  0.82637800  0.17362200  0.26122900  1
  C  C6  1  0.34724400  0.17362200  0.26122900  1
  C  C7  1  0.65275600  0.82637800  0.76122900  1
  C  C8  1  0.17362200  0.82637800  0.76122900  1
  C  C9  1  0.82637800  0.65275600  0.26122900  1
  C  C10  1  0.00000000  0.00000000  0.02817400  1
  C  C11  1  0.00000000  0.00000000  0.52817400  1
  C  C12  1  0.00000000  0.00000000  0.83774500  1
  C  C13  1  0.00000000  0.00000000  0.33774500  1
  C  C14  1  0.84704900  0.69409700  0.08856800  1
  C  C15  1  0.15295100  0.84704900  0.58856800  1
  C  C16  1  0.69409700  0.84704900  0.58856800  1
  C  C17  1  0.30590300  0.15295100  0.08856800  1
  C  C18  1  0.84704900  0.15295100  0.08856800  1
  C  C19  1  0.15295100  0.30590300  0.58856800  1
  C  C20  1  0.48904800  0.51095200  0.81227400  1
  C  C21  1  0.97809700  0.48904800  0.31227400  1
  C  C22  1  0.51095200  0.02190300  0.31227400  1
  C  C23  1  0.48904800  0.97809700  0.81227400  1
  C  C24  1  0.51095200  0.48904800  0.31227400  1
  C  C25  1  0.02190300  0.51095200  0.81227400  1
