# generated using pymatgen
data_Cu(Ni4C)3
_symmetry_space_group_name_H-M   'P 1'
_cell_length_a   9.80142600
_cell_length_b   9.80142600
_cell_length_c   19.42155200
_cell_angle_alpha   90.00000000
_cell_angle_beta   90.00000000
_cell_angle_gamma   90.00000000
_symmetry_Int_Tables_number   1
_chemical_formula_structural   Cu(Ni4C)3
_chemical_formula_sum   'Cu4 Ni48 C12'
_cell_volume   1865.78871818
_cell_formula_units_Z   4
loop_
 _symmetry_equiv_pos_site_id
 _symmetry_equiv_pos_as_xyz
  1  'x, y, z'
loop_
 _atom_site_type_symbol
 _atom_site_label
 _atom_site_symmetry_multiplicity
 _atom_site_fract_x
 _atom_site_fract_y
 _atom_site_fract_z
 _atom_site_occupancy
  C  C0  1  0.50000000  0.00000000  0.75000000  1
  C  C1  1  0.00000000  0.50000000  0.75000000  1
  C  C2  1  0.50000000  0.00000000  0.25000000  1
  C  C3  1  0.00000000  0.50000000  0.25000000  1
  C  C4  1  0.00000000  0.50000000  0.58060500  1
  C  C5  1  0.50000000  0.00000000  0.58060500  1
  C  C6  1  0.50000000  0.00000000  0.91939500  1
  C  C7  1  0.00000000  0.50000000  0.91939500  1
  C  C8  1  0.00000000  0.50000000  0.41939500  1
  C  C9  1  0.50000000  0.00000000  0.41939500  1
  C  C10  1  0.50000000  0.00000000  0.08060500  1
  C  C11  1  0.00000000  0.50000000  0.08060500  1
  Ni  Ni12  1  0.95290300  0.28990000  0.67160100  1
  Ni  Ni13  1  0.04709700  0.71010000  0.67160100  1
  Ni  Ni14  1  0.78990000  0.45290300  0.82839900  1
  Ni  Ni15  1  0.28990000  0.04709700  0.67160100  1
  Ni  Ni16  1  0.71010000  0.95290300  0.67160100  1
  Ni  Ni17  1  0.54709700  0.78990000  0.82839900  1
  Ni  Ni18  1  0.45290300  0.21010000  0.82839900  1
  Ni  Ni19  1  0.21010000  0.54709700  0.82839900  1
  Ni  Ni20  1  0.04709700  0.71010000  0.32839900  1
  Ni  Ni21  1  0.95290300  0.28990000  0.32839900  1
  Ni  Ni22  1  0.21010000  0.54709700  0.17160100  1
  Ni  Ni23  1  0.71010000  0.95290300  0.32839900  1
  Ni  Ni24  1  0.28990000  0.04709700  0.32839900  1
  Ni  Ni25  1  0.45290300  0.21010000  0.17160100  1
  Ni  Ni26  1  0.54709700  0.78990000  0.17160100  1
  Ni  Ni27  1  0.19501800  0.60524800  0.50000000  1
  Ni  Ni28  1  0.78990000  0.45290300  0.17160100  1
  Ni  Ni29  1  0.68207800  0.12374300  0.16055400  1
  Ni  Ni30  1  0.31792200  0.87625700  0.16055400  1
  Ni  Ni31  1  0.62374300  0.18207800  0.33944600  1
  Ni  Ni32  1  0.37625700  0.81792200  0.33944600  1
  Ni  Ni33  1  0.87625700  0.68207800  0.16055400  1
  Ni  Ni34  1  0.81792200  0.62374300  0.33944600  1
  Ni  Ni35  1  0.18207800  0.37625700  0.33944600  1
  Ni  Ni36  1  0.87625700  0.68207800  0.83944600  1
  Ni  Ni37  1  0.31792200  0.87625700  0.83944600  1
  Ni  Ni38  1  0.68207800  0.12374300  0.83944600  1
  Ni  Ni39  1  0.37625700  0.81792200  0.66055400  1
  Ni  Ni40  1  0.62374300  0.18207800  0.66055400  1
  Ni  Ni41  1  0.12374300  0.31792200  0.83944600  1
  Ni  Ni42  1  0.18207800  0.37625700  0.66055400  1
  Ni  Ni43  1  0.81792200  0.62374300  0.66055400  1
  Ni  Ni44  1  0.21873000  0.48211200  0.00000000  1
  Ni  Ni45  1  0.51788800  0.21873000  0.00000000  1
  Ni  Ni46  1  0.48211200  0.78127000  0.00000000  1
  Ni  Ni47  1  0.71873000  0.01788800  0.50000000  1
  Ni  Ni48  1  0.28127000  0.98211200  0.50000000  1
  Ni  Ni49  1  0.78127000  0.51788800  0.00000000  1
  Ni  Ni50  1  0.98211200  0.71873000  0.50000000  1
  Ni  Ni51  1  0.01788800  0.28127000  0.50000000  1
  Ni  Ni52  1  0.89475200  0.30498200  0.00000000  1
  Ni  Ni53  1  0.69501800  0.89475200  0.00000000  1
  Ni  Ni54  1  0.30498200  0.10524800  0.00000000  1
  Ni  Ni55  1  0.39475200  0.19501800  0.50000000  1
  Ni  Ni56  1  0.60524800  0.80498200  0.50000000  1
  Ni  Ni57  1  0.10524800  0.69501800  0.00000000  1
  Ni  Ni58  1  0.80498200  0.39475200  0.50000000  1
  Ni  Ni59  1  0.12374300  0.31792200  0.16055400  1
  Cu  Cu60  1  0.50000000  0.50000000  0.63118500  1
  Cu  Cu61  1  0.00000000  0.00000000  0.86881500  1
  Cu  Cu62  1  0.50000000  0.50000000  0.36881500  1
  Cu  Cu63  1  0.00000000  0.00000000  0.13118500  1
