# generated using pymatgen
data_Cu2NiC6
_symmetry_space_group_name_H-M   'P 1'
_cell_length_a   6.84407623
_cell_length_b   6.84407623
_cell_length_c   7.17355467
_cell_angle_alpha   70.10832417
_cell_angle_beta   109.89167694
_cell_angle_gamma   154.26460112
_symmetry_Int_Tables_number   1
_chemical_formula_structural   Cu2NiC6
_chemical_formula_sum   'Cu2 Ni1 C6'
_cell_volume   136.73030358
_cell_formula_units_Z   1
loop_
 _symmetry_equiv_pos_site_id
 _symmetry_equiv_pos_as_xyz
  1  'x, y, z'
loop_
 _atom_site_type_symbol
 _atom_site_label
 _atom_site_symmetry_multiplicity
 _atom_site_fract_x
 _atom_site_fract_y
 _atom_site_fract_z
 _atom_site_occupancy
  C  C0  1  0.24354607  0.75645393  0.76761151  1
  C  C1  1  0.75645393  0.24354607  0.23238849  1
  Ni  Ni2  1  -0.00000000  -0.00000000  0.50000000  1
  Cu  Cu3  1  0.03689286  0.96310714  0.17710050  1
  Cu  Cu4  1  0.96310714  0.03689286  0.82289950  1
  C  C5  1  0.11021748  0.88978252  -0.01016251  1
  C  C6  1  0.42446550  0.57553450  0.59837229  1
  C  C7  1  0.57553450  0.42446550  0.40162771  1
  C  C8  1  0.88978252  0.11021748  0.01016251  1
