# generated using pymatgen
data_Cu2Ni2C33
_symmetry_space_group_name_H-M   'P 1'
_cell_length_a   8.76432186
_cell_length_b   8.72266763
_cell_length_c   22.59416883
_cell_angle_alpha   90.14779301
_cell_angle_beta   89.87595483
_cell_angle_gamma   119.87938945
_symmetry_Int_Tables_number   1
_chemical_formula_structural   Cu2Ni2C33
_chemical_formula_sum   'Cu6 Ni6 C99'
_cell_volume   1497.68166797
_cell_formula_units_Z   3
loop_
 _symmetry_equiv_pos_site_id
 _symmetry_equiv_pos_as_xyz
  1  'x, y, z'
loop_
 _atom_site_type_symbol
 _atom_site_label
 _atom_site_symmetry_multiplicity
 _atom_site_fract_x
 _atom_site_fract_y
 _atom_site_fract_z
 _atom_site_occupancy
  C  C0  1  0.01074479  0.36943018  0.75199278  1
  C  C1  1  0.67807424  0.97759745  0.58516464  1
  C  C2  1  0.67937445  0.70331103  0.08534117  1
  C  C3  1  0.00917701  0.00357621  0.50552301  1
  C  C4  1  0.00589308  0.00748954  0.00509119  1
  C  C5  1  0.66412448  0.33907359  0.83996120  1
  C  C6  1  0.65794719  0.32774597  0.33906313  1
  C  C7  1  0.33111338  0.67357103  0.17343909  1
  C  C8  1  0.33309433  0.66834183  0.67294889  1
  Ni  Ni9  1  0.00642974  0.00007393  0.64777565  1
  Ni  Ni10  1  0.00432246  0.99871801  0.14767169  1
  Ni  Ni11  1  0.67262934  0.33760456  0.98085555  1
  Ni  Ni12  1  0.66047132  0.32753993  0.48069178  1
  Ni  Ni13  1  0.34582062  0.67370941  0.31358486  1
  Ni  Ni14  1  0.33806585  0.66620797  0.81426082  1
  Cu  Cu15  1  0.00089755  0.99847500  0.35403876  1
  Cu  Cu16  1  0.99418371  0.99840430  0.85345046  1
  Cu  Cu17  1  0.66186170  0.33390440  0.68687510  1
  Cu  Cu18  1  0.66102484  0.33250591  0.18683773  1
  Cu  Cu19  1  0.33102626  0.66073834  0.02066159  1
  Cu  Cu20  1  0.33602190  0.65978393  0.52057782  1
  C  C21  1  0.28619056  0.99252823  0.24813207  1
  C  C22  1  0.70781916  0.71288243  0.24720925  1
  C  C23  1  0.28716201  0.28940246  0.74882065  1
  C  C24  1  0.00518618  0.71332581  0.74825694  1
  C  C25  1  0.70368400  0.99231320  0.74708208  1
  C  C26  1  0.95478742  0.33183873  0.58167749  1
  C  C27  1  0.37052833  0.04483253  0.58090652  1
  C  C28  1  0.67439244  0.62472213  0.58064973  1
  C  C29  1  0.95527569  0.62354247  0.08204567  1
  C  C30  1  0.67146579  0.04764513  0.08101857  1
  C  C31  1  0.37127854  0.32251829  0.08067953  1
  C  C32  1  0.62037450  0.65962689  0.91488735  1
  C  C33  1  0.03886953  0.37832271  0.91348702  1
  C  C34  1  0.62219855  0.96140861  0.41488055  1
  C  C35  1  0.33931070  0.37858659  0.41308540  1
  C  C36  1  0.00247181  0.29134606  0.24897405  1
  C  C37  1  0.33581923  0.95760942  0.91546400  1
  C  C38  1  0.04338124  0.66191144  0.41525198  1
  C  C39  1  0.19939765  0.03018076  0.30517751  1
  C  C40  1  0.83177393  0.80406147  0.30346256  1
  C  C41  1  0.96963138  0.17636504  0.30371885  1
  C  C42  1  0.20064914  0.16834665  0.80554984  1
  C  C43  1  0.97034513  0.79952368  0.80527265  1
  C  C44  1  0.83239904  0.03396274  0.80330781  1
  C  C45  1  0.78961513  0.97497472  0.69182154  1
  C  C46  1  0.17373450  0.20625034  0.69532347  1
  C  C47  1  0.02603229  0.82076924  0.69427660  1
  C  C48  1  0.79173897  0.81725732  0.19206457  1
  C  C49  1  0.02483579  0.20929936  0.19662809  1
  C  C50  1  0.18043308  0.97751563  0.19456280  1
  C  C51  1  0.87162382  0.36618112  0.64014381  1
  C  C52  1  0.49819253  0.12993564  0.63777955  1
  C  C53  1  0.63529542  0.50407232  0.63781784  1
  C  C54  1  0.86851298  0.50181451  0.13882887  1
  C  C55  1  0.63650639  0.13333398  0.13831076  1
  C  C56  1  0.49832092  0.36904436  0.13770042  1
  C  C57  1  0.46144319  0.30655324  0.02701353  1
  C  C58  1  0.84135744  0.54018368  0.02874725  1
  C  C59  1  0.69181291  0.15491189  0.02704985  1
  C  C60  1  0.46149298  0.15277653  0.52773795  1
  C  C61  1  0.69470073  0.53783863  0.52662064  1
  C  C62  1  0.84081761  0.30426543  0.52868615  1
  C  C63  1  0.53713820  0.69773013  0.97312816  1
  C  C64  1  0.16407305  0.47023663  0.96997270  1
  C  C65  1  0.30306777  0.84315697  0.97008110  1
  C  C66  1  0.53590335  0.83922413  0.47284793  1
  C  C67  1  0.30184794  0.46498155  0.47099799  1
  C  C68  1  0.15675763  0.69768308  0.46986556  1
  C  C69  1  0.12512158  0.64166984  0.36254384  1
  C  C70  1  0.51081116  0.87115943  0.36210291  1
  C  C71  1  0.35273949  0.48668561  0.36031098  1
  C  C72  1  0.12447104  0.48348762  0.85865901  1
  C  C73  1  0.35671425  0.87465746  0.86298665  1
  C  C74  1  0.51259906  0.64485255  0.86182041  1
  C  C75  1  0.03039223  0.83139180  0.41062186  1
  C  C76  1  0.80895959  0.97008243  0.40836227  1
  C  C77  1  0.16221556  0.19076826  0.40847190  1
  C  C78  1  0.03157666  0.19175727  0.90962050  1
  C  C79  1  0.16869470  0.96978242  0.91118808  1
  C  C80  1  0.80859546  0.83677226  0.90929002  1
  C  C81  1  0.97686273  0.17214583  0.59090253  1
  C  C82  1  0.18947057  0.01663221  0.59034935  1
  C  C83  1  0.82001471  0.81240763  0.58996122  1
  C  C84  1  0.97745952  0.80547791  0.09102106  1
  C  C85  1  0.82085354  0.01074569  0.09090547  1
  C  C86  1  0.18855480  0.17452708  0.09127261  1
  C  C87  1  0.70060773  0.17414488  0.74366500  1
  C  C88  1  0.47365432  0.30332191  0.74312649  1
  C  C89  1  0.83083175  0.52263955  0.74320814  1
  C  C90  1  0.69896173  0.52524193  0.24300323  1
  C  C91  1  0.83531754  0.30273364  0.24478362  1
  C  C92  1  0.47504461  0.16911088  0.24262873  1
  C  C93  1  0.64745422  0.50457049  0.92386704  1
  C  C94  1  0.85632616  0.34790662  0.92340937  1
  C  C95  1  0.48635653  0.13285965  0.92399421  1
  C  C96  1  0.65475507  0.14546567  0.42406420  1
  C  C97  1  0.49381431  0.35253438  0.42330238  1
  C  C98  1  0.86761284  0.51371071  0.42388710  1
  C  C99  1  0.36667035  0.50560848  0.07638153  1
  C  C100  1  0.14228287  0.63898732  0.07554792  1
  C  C101  1  0.49676664  0.85643060  0.07550195  1
  C  C102  1  0.36478117  0.85818942  0.57582554  1
  C  C103  1  0.49766470  0.63995313  0.57617082  1
  C  C104  1  0.14078642  0.50533135  0.57553382  1
  C  C105  1  0.31133484  0.83624895  0.25809877  1
  C  C106  1  0.52405368  0.68075586  0.25626480  1
  C  C107  1  0.15228206  0.46686075  0.25829553  1
  C  C108  1  0.31028533  0.47191828  0.75751509  1
  C  C109  1  0.15531895  0.67733872  0.75768330  1
  C  C110  1  0.52231870  0.84050312  0.75770468  1
