# generated using pymatgen
data_Cu2Ni4C9
_symmetry_space_group_name_H-M   'P 1'
_cell_length_a   7.09777854
_cell_length_b   7.19042251
_cell_length_c   6.29852662
_cell_angle_alpha   52.50766365
_cell_angle_beta   102.24067750
_cell_angle_gamma   129.99702653
_symmetry_Int_Tables_number   1
_chemical_formula_structural   Cu2Ni4C9
_chemical_formula_sum   'Cu2 Ni4 C9'
_cell_volume   186.70522339
_cell_formula_units_Z   1
loop_
 _symmetry_equiv_pos_site_id
 _symmetry_equiv_pos_as_xyz
  1  'x, y, z'
loop_
 _atom_site_type_symbol
 _atom_site_label
 _atom_site_symmetry_multiplicity
 _atom_site_fract_x
 _atom_site_fract_y
 _atom_site_fract_z
 _atom_site_occupancy
  C  C0  1  0.16295535  0.89077305  0.95954316  1
  Ni  Ni1  1  0.63163309  0.27721029  0.09087081  1
  Ni  Ni2  1  0.65384449  0.24160984  0.57173465  1
  Ni  Ni3  1  0.62682028  0.75631878  0.62062495  1
  Ni  Ni4  1  0.15115579  0.75880868  0.59182611  1
  Cu  Cu5  1  0.88084596  -0.00210872  0.08605581  1
  Cu  Cu6  1  0.26147414  0.42704289  0.34337725  1
  C  C7  1  0.82123144  0.18289470  0.43464024  1
  C  C8  1  0.81274482  0.29180436  0.85088860  1
  C  C9  1  0.96727593  0.71986647  0.30136524  1
  C  C10  1  0.44412594  0.25660990  0.33257238  1
  C  C11  1  0.40581481  0.78734804  0.41090950  1
  C  C12  1  0.43154380  0.34306230  0.78598624  1
  C  C13  1  0.88975203  0.76709573  0.77153516  1
  C  C14  1  0.33447614  0.80166368  0.87237589  1
