# generated using pymatgen
data_Cu6Ni2C7
_symmetry_space_group_name_H-M   'P 1'
_cell_length_a   4.14767900
_cell_length_b   4.14768300
_cell_length_c   14.70291000
_cell_angle_alpha   90.00000000
_cell_angle_beta   90.00000000
_cell_angle_gamma   90.00000000
_symmetry_Int_Tables_number   1
_chemical_formula_structural   Cu6Ni2C7
_chemical_formula_sum   'Cu6 Ni2 C7'
_cell_volume   252.93794934
_cell_formula_units_Z   1
loop_
 _symmetry_equiv_pos_site_id
 _symmetry_equiv_pos_as_xyz
  1  'x, y, z'
loop_
 _atom_site_type_symbol
 _atom_site_label
 _atom_site_symmetry_multiplicity
 _atom_site_fract_x
 _atom_site_fract_y
 _atom_site_fract_z
 _atom_site_occupancy
  C  C0  1  0.25000000  0.25000000  0.13455200  1
  C  C1  1  0.75000000  0.75000000  0.86544800  1
  C  C2  1  0.25000000  0.25000000  0.35243100  1
  C  C3  1  0.75000000  0.75000000  0.64756900  1
  C  C4  1  0.25000000  0.75000000  0.00000000  1
  C  C5  1  0.75000000  0.75000000  0.21578500  1
  C  C6  1  0.25000000  0.25000000  0.78421500  1
  Ni  Ni7  1  0.75000000  0.75000000  0.42753800  1
  Ni  Ni8  1  0.25000000  0.25000000  0.57246200  1
  Cu  Cu9  1  0.75000000  0.25000000  0.24242700  1
  Cu  Cu10  1  0.25000000  0.75000000  0.22562200  1
  Cu  Cu11  1  0.25000000  0.75000000  0.77437600  1
  Cu  Cu12  1  0.75000000  0.25000000  0.75757500  1
  Cu  Cu13  1  0.75000000  0.75000000  0.04879900  1
  Cu  Cu14  1  0.25000000  0.25000000  0.95120100  1
