# generated using pymatgen
data_Cu3Ni6C31
_symmetry_space_group_name_H-M   'P 1'
_cell_length_a   9.29393959
_cell_length_b   9.30481358
_cell_length_c   23.16554405
_cell_angle_alpha   90.24839101
_cell_angle_beta   89.87449142
_cell_angle_gamma   119.92314418
_symmetry_Int_Tables_number   1
_chemical_formula_structural   Cu3Ni6C31
_chemical_formula_sum   'Cu9 Ni18 C93'
_cell_volume   1736.25054617
_cell_formula_units_Z   3
loop_
 _symmetry_equiv_pos_site_id
 _symmetry_equiv_pos_as_xyz
  1  'x, y, z'
loop_
 _atom_site_type_symbol
 _atom_site_label
 _atom_site_symmetry_multiplicity
 _atom_site_fract_x
 _atom_site_fract_y
 _atom_site_fract_z
 _atom_site_occupancy
  Ni  Ni0  1  0.36416882  0.36448500  0.25445513  1
  Ni  Ni1  1  0.64005027  0.64467989  0.74764032  1
  Ni  Ni2  1  0.99402308  0.34526283  0.75135800  1
  Ni  Ni3  1  0.29594869  0.34671312  0.58238918  1
  Ni  Ni4  1  0.02524781  0.68923723  0.57765706  1
  Ni  Ni5  1  0.67444322  0.95892676  0.57970474  1
  Ni  Ni6  1  0.28753097  0.96118078  0.07735239  1
  Ni  Ni7  1  0.66183430  0.68665571  0.07939655  1
  Ni  Ni8  1  0.04850928  0.34639130  0.08070768  1
  Ni  Ni9  1  0.32183560  0.29751732  0.91106378  1
  Ni  Ni10  1  0.98203242  0.30763159  0.41394095  1
  Ni  Ni11  1  0.68839573  0.67244245  0.41421260  1
  Ni  Ni12  1  0.00366867  0.99929432  0.49205677  1
  Ni  Ni13  1  0.99418469  0.98309215  0.98957862  1
  Ni  Ni14  1  0.65405889  0.30619783  0.83280778  1
  Ni  Ni15  1  0.66521828  0.31716971  0.33480193  1
  Ni  Ni16  1  0.32207726  0.66963700  0.17244532  1
  Ni  Ni17  1  0.33984603  0.66740432  0.66959730  1
  Cu  Cu18  1  0.00405828  0.99428046  0.35070589  1
  Cu  Cu19  1  0.99726844  0.99776702  0.85122395  1
  Cu  Cu20  1  0.99524603  0.00570792  0.65551317  1
  Cu  Cu21  1  0.99963249  0.99406640  0.15035356  1
  Cu  Cu22  1  0.65753514  0.32656728  0.68651370  1
  Cu  Cu23  1  0.67551269  0.33874955  0.18496520  1
  Cu  Cu24  1  0.33337906  0.66894383  0.01235834  1
  Cu  Cu25  1  0.33266670  0.66831413  0.50950570  1
  Cu  Cu26  1  0.33415906  0.67971532  0.32407046  1
  C  C27  1  0.67148135  0.34038327  0.97791310  1
  C  C28  1  0.66735404  0.33364860  0.48331409  1
  C  C29  1  0.33850522  0.67416819  0.82504428  1
  C  C30  1  0.30478617  0.32039543  0.75504667  1
  C  C31  1  0.68532468  0.98797979  0.75221398  1
  C  C32  1  0.96035761  0.33290018  0.58314968  1
  C  C33  1  0.66813042  0.62871521  0.58298481  1
  C  C34  1  0.95758941  0.62450368  0.08004508  1
  C  C35  1  0.37493620  0.33158499  0.08144960  1
  C  C36  1  0.63206645  0.65795482  0.91942535  1
  C  C37  1  0.02940098  0.37280357  0.91801985  1
  C  C38  1  0.34480347  0.97623249  0.92058707  1
  C  C39  1  0.64223843  0.98212437  0.42214374  1
  C  C40  1  0.34238219  0.36136211  0.41930894  1
  C  C41  1  0.01678594  0.65714578  0.42264016  1
  C  C42  1  0.30521817  0.00041776  0.24696062  1
  C  C43  1  0.68801873  0.69330908  0.24968844  1
  C  C44  1  0.00545644  0.30479114  0.25020109  1
  C  C45  1  0.01173985  0.69822017  0.75079393  1
  C  C46  1  0.37116314  0.03989668  0.58132473  1
  C  C47  1  0.66914358  0.04455477  0.08073613  1
  C  C48  1  0.21235451  0.01489663  0.29630550  1
  C  C49  1  0.78389380  0.78133448  0.30160071  1
  C  C50  1  0.99636668  0.20786979  0.30206705  1
  C  C51  1  0.21987421  0.21498503  0.80746184  1
  C  C52  1  0.98998157  0.78477986  0.79920520  1
  C  C53  1  0.80407292  0.00884877  0.80032726  1
  C  C54  1  0.74264248  0.94688104  0.69405155  1
  C  C55  1  0.20353041  0.24816757  0.69845821  1
  C  C56  1  0.03397223  0.78754839  0.69563059  1
  C  C57  1  0.77176722  0.78362777  0.19627663  1
  C  C58  1  0.01567445  0.21974210  0.19672894  1
  C  C59  1  0.21658174  0.98771847  0.19197439  1
  C  C60  1  0.87735965  0.34952021  0.63756056  1
  C  C61  1  0.47015072  0.11740340  0.63264267  1
  C  C62  1  0.64708089  0.52666140  0.63684781  1
  C  C63  1  0.87788998  0.51628581  0.13229178  1
  C  C64  1  0.64711520  0.12093633  0.13261856  1
  C  C65  1  0.47451869  0.34912015  0.13584444  1
  C  C66  1  0.46539466  0.30836348  0.02613050  1
  C  C67  1  0.84526483  0.53614351  0.02493557  1
  C  C68  1  0.69212948  0.14937855  0.02832519  1
  C  C69  1  0.45349873  0.14462731  0.52876987  1
  C  C70  1  0.68452043  0.53508358  0.52751508  1
  C  C71  1  0.84736723  0.31045362  0.52825166  1
  C  C72  1  0.55456812  0.67401728  0.97512504  1
  C  C73  1  0.12628493  0.45075153  0.97308244  1
  C  C74  1  0.32860950  0.88760081  0.97697875  1
  C  C75  1  0.57086803  0.88648686  0.47845354  1
  C  C76  1  0.32052039  0.44199809  0.47415356  1
  C  C77  1  0.10753706  0.67938252  0.47978947  1
  C  C78  1  0.10232573  0.62461035  0.37185826  1
  C  C79  1  0.53343426  0.89847268  0.36990313  1
  C  C80  1  0.37798890  0.47171906  0.36538860  1
  C  C81  1  0.11853989  0.48709185  0.86290903  1
  C  C82  1  0.36691661  0.88259500  0.86695459  1
  C  C83  1  0.51298007  0.62895746  0.86525888  1
  C  C84  1  0.97810980  0.79888958  0.41501892  1
  C  C85  1  0.82018442  0.00805952  0.41514144  1
  C  C86  1  0.18619777  0.19017160  0.41325089  1
  C  C87  1  0.01800109  0.20451812  0.91037114  1
  C  C88  1  0.19944665  0.00715300  0.91240131  1
  C  C89  1  0.80569732  0.80146682  0.91163587  1
  C  C90  1  0.97755412  0.17475104  0.58257617  1
  C  C91  1  0.20425875  0.02562734  0.58448213  1
  C  C92  1  0.83149610  0.79924530  0.58295231  1
  C  C93  1  0.96536119  0.79558855  0.08179738  1
  C  C94  1  0.82124118  0.02894289  0.08360789  1
  C  C95  1  0.19920954  0.17405846  0.08121286  1
  C  C96  1  0.67200699  0.14612658  0.74908493  1
  C  C97  1  0.48673830  0.36026653  0.75085258  1
  C  C98  1  0.86316380  0.52789326  0.74784442  1
  C  C99  1  0.66751519  0.52323227  0.25006007  1
  C  C100  1  0.85860073  0.32553828  0.24952654  1
  C  C101  1  0.46919944  0.15757414  0.24738756  1
  C  C102  1  0.62771320  0.48376220  0.91907342  1
  C  C103  1  0.85146148  0.35589666  0.91958596  1
  C  C104  1  0.50902337  0.15460989  0.92054056  1
  C  C105  1  0.66511267  0.16381780  0.42562512  1
  C  C106  1  0.50745270  0.34991475  0.42518400  1
  C  C107  1  0.83943041  0.48966868  0.42417767  1
  C  C108  1  0.35814862  0.48911947  0.07734220  1
  C  C109  1  0.13589569  0.65212133  0.07603102  1
  C  C110  1  0.52134013  0.87611148  0.07600247  1
  C  C111  1  0.35217436  0.87243419  0.57588061  1
  C  C112  1  0.51435837  0.65142183  0.57807165  1
  C  C113  1  0.13376701  0.49030537  0.57789240  1
  C  C114  1  0.32539024  0.85348157  0.25097052  1
  C  C115  1  0.51771859  0.67196634  0.25076620  1
  C  C116  1  0.16344289  0.46856520  0.25175321  1
  C  C117  1  0.30972686  0.49693591  0.76087398  1
  C  C118  1  0.16244165  0.67662620  0.75804141  1
  C  C119  1  0.50842978  0.82365283  0.76193795  1
