# generated using pymatgen
data_Cu3Ni3C31
_symmetry_space_group_name_H-M   'P 1'
_cell_length_a   8.73547374
_cell_length_b   8.72466435
_cell_length_c   22.32541699
_cell_angle_alpha   90.17775070
_cell_angle_beta   89.82354731
_cell_angle_gamma   119.97056443
_symmetry_Int_Tables_number   1
_chemical_formula_structural   Cu3Ni3C31
_chemical_formula_sum   'Cu9 Ni9 C93'
_cell_volume   1473.97926740
_cell_formula_units_Z   3
loop_
 _symmetry_equiv_pos_site_id
 _symmetry_equiv_pos_as_xyz
  1  'x, y, z'
loop_
 _atom_site_type_symbol
 _atom_site_label
 _atom_site_symmetry_multiplicity
 _atom_site_fract_x
 _atom_site_fract_y
 _atom_site_fract_z
 _atom_site_occupancy
  C  C0  1  0.66484216  0.69402037  0.08143230  1
  C  C1  1  0.33229541  0.29643924  0.91716318  1
  C  C2  1  0.33122557  0.03553610  0.41694020  1
  C  C3  1  0.98795162  0.99974913  0.49913080  1
  C  C4  1  0.00190137  0.99683666  0.99835533  1
  C  C5  1  0.68249670  0.33600890  0.83326639  1
  C  C6  1  0.68092795  0.34490369  0.33275834  1
  C  C7  1  0.31709963  0.66107182  0.16379251  1
  C  C8  1  0.33419534  0.67060639  0.66242602  1
  C  C9  1  0.00789129  0.99981379  0.65200197  1
  C  C10  1  0.01408119  0.00570113  0.15229106  1
  C  C11  1  0.65843403  0.32352666  0.68656971  1
  C  C12  1  0.66911582  0.34186449  0.18640727  1
  C  C13  1  0.33213715  0.66208294  0.30877746  1
  C  C14  1  0.33296578  0.67129260  0.80831903  1
  C  C15  1  0.99485344  0.00065110  0.34387235  1
  C  C16  1  0.99311808  0.99396894  0.84335783  1
  C  C17  1  0.67244086  0.33849280  0.98696211  1
  C  C18  1  0.66642775  0.33404624  0.48593474  1
  C  C19  1  0.31689653  0.65949650  0.02165563  1
  C  C20  1  0.33478452  0.67310432  0.52129158  1
  Ni  Ni21  1  0.29847088  0.00344220  0.25312602  1
  Ni  Ni22  1  0.70900363  0.70898786  0.24995853  1
  Ni  Ni23  1  0.99561401  0.29060596  0.25102918  1
  Ni  Ni24  1  0.29411095  0.29298394  0.75239718  1
  Ni  Ni25  1  0.99494653  0.70304539  0.75060505  1
  Ni  Ni26  1  0.71064455  0.00159677  0.75018194  1
  Ni  Ni27  1  0.37081131  0.04059110  0.58199728  1
  Ni  Ni28  1  0.95939048  0.62885583  0.08456417  1
  Ni  Ni29  1  0.37147367  0.32701971  0.08206689  1
  Cu  Cu30  1  0.95684711  0.32803992  0.58459060  1
  Cu  Cu31  1  0.67164289  0.62803642  0.58477051  1
  Cu  Cu32  1  0.67239753  0.04454575  0.08446289  1
  Cu  Cu33  1  0.62584193  0.67174958  0.91674300  1
  Cu  Cu34  1  0.04049468  0.37579227  0.91512315  1
  Cu  Cu35  1  0.33368116  0.95581858  0.91625665  1
  Cu  Cu36  1  0.62619056  0.95483880  0.41611869  1
  Cu  Cu37  1  0.33275195  0.37903254  0.41683005  1
  Cu  Cu38  1  0.04059166  0.66334913  0.41628273  1
  C  C39  1  0.23019833  0.03960354  0.31090585  1
  C  C40  1  0.81951461  0.77951045  0.30560622  1
  C  C41  1  0.95898345  0.18491816  0.30769296  1
  C  C42  1  0.22874435  0.18984965  0.81028730  1
  C  C43  1  0.95650094  0.77256470  0.80710563  1
  C  C44  1  0.81733722  0.04353108  0.80689834  1
  C  C45  1  0.80054851  0.96886989  0.69562814  1
  C  C46  1  0.16849402  0.19693722  0.69858228  1
  C  C47  1  0.02947588  0.82834477  0.69588379  1
  C  C48  1  0.79250800  0.82433231  0.19334618  1
  C  C49  1  0.02859612  0.19853423  0.19638673  1
  C  C50  1  0.17062766  0.97212474  0.19913197  1
  C  C51  1  0.86379988  0.34887164  0.63751287  1
  C  C52  1  0.49579309  0.14979478  0.63549170  1
  C  C53  1  0.65475287  0.51616878  0.63753036  1
  C  C54  1  0.85811731  0.50881463  0.13928403  1
  C  C55  1  0.65246582  0.13449785  0.13760538  1
  C  C56  1  0.49857575  0.34839850  0.13468893  1
  C  C57  1  0.43765167  0.29295891  0.02250617  1
  C  C58  1  0.84401399  0.55916125  0.02835023  1
  C  C59  1  0.69969843  0.14482524  0.02892364  1
  C  C60  1  0.43936561  0.14245794  0.52301820  1
  C  C61  1  0.70289885  0.55675466  0.52914837  1
  C  C62  1  0.85515890  0.29984379  0.52915917  1
  C  C63  1  0.54509046  0.68630764  0.97339569  1
  C  C64  1  0.14856449  0.45495492  0.96941658  1
  C  C65  1  0.31679993  0.85528863  0.97068984  1
  C  C66  1  0.54381477  0.85526614  0.47120556  1
  C  C67  1  0.31548959  0.46300121  0.47138945  1
  C  C68  1  0.14869108  0.69083226  0.47031741  1
  C  C69  1  0.13548001  0.64843984  0.36152688  1
  C  C70  1  0.51034812  0.85993780  0.36239369  1
  C  C71  1  0.34508901  0.48621998  0.36194072  1
  C  C72  1  0.13591296  0.48628447  0.86084244  1
  C  C73  1  0.34475492  0.85959334  0.86122923  1
  C  C74  1  0.50841009  0.65371171  0.86410336  1
  C  C75  1  0.02557061  0.82536621  0.41074544  1
  C  C76  1  0.80242860  0.97564635  0.41032209  1
  C  C77  1  0.17655931  0.19852872  0.41227254  1
  C  C78  1  0.02604506  0.19894813  0.90955382  1
  C  C79  1  0.17701168  0.97939021  0.91182826  1
  C  C80  1  0.80204897  0.82781773  0.91099002  1
  C  C81  1  0.97366095  0.16650292  0.59298982  1
  C  C82  1  0.18607843  0.02439483  0.59489825  1
  C  C83  1  0.83090450  0.80815754  0.59310349  1
  C  C84  1  0.97459202  0.81410583  0.09569667  1
  C  C85  1  0.83102464  0.02120461  0.09142268  1
  C  C86  1  0.18578771  0.16383039  0.09462586  1
  C  C87  1  0.67920545  0.15953827  0.73765385  1
  C  C88  1  0.48074009  0.32064970  0.73870188  1
  C  C89  1  0.83913093  0.51697701  0.73703267  1
  C  C90  1  0.67712348  0.51829877  0.23929926  1
  C  C91  1  0.83859941  0.31966389  0.23821302  1
  C  C92  1  0.48230782  0.16061821  0.23870613  1
  C  C93  1  0.63260382  0.50384096  0.91606079  1
  C  C94  1  0.86698488  0.36360334  0.91819736  1
  C  C95  1  0.49635240  0.13269123  0.91599837  1
  C  C96  1  0.63345755  0.13010769  0.41718309  1
  C  C97  1  0.49569829  0.36436750  0.41659735  1
  C  C98  1  0.86671483  0.50160089  0.41901855  1
  C  C99  1  0.36352573  0.49936498  0.08197046  1
  C  C100  1  0.14110539  0.64713190  0.08238664  1
  C  C101  1  0.51528887  0.86444792  0.08207339  1
  C  C102  1  0.35446076  0.85827828  0.58267812  1
  C  C103  1  0.51102921  0.64235315  0.58269216  1
  C  C104  1  0.13379176  0.48611385  0.58247356  1
  C  C105  1  0.31213169  0.83183903  0.25740244  1
  C  C106  1  0.52035655  0.68809119  0.25760962  1
  C  C107  1  0.16666618  0.47811917  0.25648642  1
  C  C108  1  0.31241641  0.48006162  0.75726785  1
  C  C109  1  0.16674915  0.68825727  0.75648214  1
  C  C110  1  0.52192548  0.83300552  0.75709733  1
