# generated using pymatgen
data_Cu2NiC14
_symmetry_space_group_name_H-M   'P 1'
_cell_length_a   5.93691384
_cell_length_b   7.40431396
_cell_length_c   12.84268654
_cell_angle_alpha   86.50509596
_cell_angle_beta   81.22329722
_cell_angle_gamma   66.33191251
_symmetry_Int_Tables_number   1
_chemical_formula_structural   Cu2NiC14
_chemical_formula_sum   'Cu2 Ni1 C14'
_cell_volume   511.00791938
_cell_formula_units_Z   1
loop_
 _symmetry_equiv_pos_site_id
 _symmetry_equiv_pos_as_xyz
  1  'x, y, z'
loop_
 _atom_site_type_symbol
 _atom_site_label
 _atom_site_symmetry_multiplicity
 _atom_site_fract_x
 _atom_site_fract_y
 _atom_site_fract_z
 _atom_site_occupancy
  C  C0  1  0.33199160  0.28206633  0.55744075  1
  C  C1  1  0.80373563  0.74759348  0.39044925  1
  C  C2  1  0.38607865  0.28164533  0.94245073  1
  C  C3  1  0.44913505  0.74644516  0.10923022  1
  Ni  Ni4  1  0.89769385  0.20500709  0.74968398  1
  C  C5  1  0.36368757  0.27277507  0.24994534  1
  C  C6  1  0.62394835  0.75068152  0.75006361  1
  Cu  Cu7  1  0.87423723  0.25167932  0.25011616  1
  Cu  Cu8  1  0.15428595  0.69006031  0.75030558  1
  C  C9  1  0.89618983  0.49814108  0.84911474  1
  C  C10  1  0.80216881  0.94629183  0.64832497  1
  C  C11  1  0.60505363  0.49817828  0.65078162  1
  C  C12  1  0.25031284  0.94616091  0.85214166  1
  C  C13  1  0.06644231  0.48317082  0.15077826  1
  C  C14  1  0.70753531  0.06989499  0.13834125  1
  C  C15  1  0.44987292  0.48328266  0.34921543  1
  C  C16  1  0.22304747  0.07013981  0.36161645  1
