# generated using pymatgen
data_Cu(NiC8)2
_symmetry_space_group_name_H-M   'P 1'
_cell_length_a   7.67078300
_cell_length_b   8.17604300
_cell_length_c   10.56227700
_cell_angle_alpha   90.00000000
_cell_angle_beta   90.00000000
_cell_angle_gamma   90.00000000
_symmetry_Int_Tables_number   1
_chemical_formula_structural   Cu(NiC8)2
_chemical_formula_sum   'Cu4 Ni8 C64'
_cell_volume   662.43064726
_cell_formula_units_Z   4
loop_
 _symmetry_equiv_pos_site_id
 _symmetry_equiv_pos_as_xyz
  1  'x, y, z'
loop_
 _atom_site_type_symbol
 _atom_site_label
 _atom_site_symmetry_multiplicity
 _atom_site_fract_x
 _atom_site_fract_y
 _atom_site_fract_z
 _atom_site_occupancy
  C  C0  1  0.75000000  0.30357500  0.50000000  1
  C  C1  1  0.25000000  0.19642500  0.00000000  1
  C  C2  1  0.25000000  0.69642500  0.50000000  1
  C  C3  1  0.75000000  0.80357500  0.00000000  1
  C  C4  1  0.89765500  0.51034200  0.11875400  1
  C  C5  1  0.39765500  0.98965800  0.38124600  1
  C  C6  1  0.60234500  0.51034200  0.88124600  1
  C  C7  1  0.10234500  0.98965800  0.61875400  1
  C  C8  1  0.10234500  0.48965800  0.88124600  1
  C  C9  1  0.60234500  0.01034200  0.61875400  1
  C  C10  1  0.39765500  0.48965800  0.11875400  1
  C  C11  1  0.89765500  0.01034200  0.38124600  1
  C  C12  1  0.04405900  0.37149300  0.17767700  1
  C  C13  1  0.54405900  0.12850700  0.32232300  1
  C  C14  1  0.45594100  0.37149300  0.82232300  1
  C  C15  1  0.95594100  0.12850700  0.67767700  1
  C  C16  1  0.95594100  0.62850700  0.82232300  1
  C  C17  1  0.45594100  0.87149300  0.67767700  1
  C  C18  1  0.54405900  0.62850700  0.17767700  1
  C  C19  1  0.04405900  0.87149300  0.32232300  1
  C  C20  1  0.86298400  0.41500000  0.25923300  1
  C  C21  1  0.36298400  0.08500000  0.24076700  1
  C  C22  1  0.63701600  0.41500000  0.74076700  1
  C  C23  1  0.86298400  0.91500000  0.24076700  1
  C  C24  1  0.13701600  0.58500000  0.74076700  1
  C  C25  1  0.63701600  0.91500000  0.75923300  1
  C  C26  1  0.36298400  0.58500000  0.25923300  1
  C  C27  1  0.02403100  0.05639100  0.25301900  1
  C  C28  1  0.02403100  0.55639200  0.24698100  1
  C  C29  1  0.52403100  0.94360800  0.25301900  1
  C  C30  1  0.47596900  0.55639200  0.75301900  1
  C  C31  1  0.97596900  0.94360800  0.74698100  1
  C  C32  1  0.64412700  0.10643400  0.01879700  1
  C  C33  1  0.14412700  0.39356600  0.48120300  1
  C  C34  1  0.85587300  0.10643400  0.98120300  1
  C  C35  1  0.35587300  0.39356600  0.51879700  1
  C  C36  1  0.35587300  0.89356600  0.98120300  1
  C  C37  1  0.85587300  0.60643400  0.51879700  1
  C  C38  1  0.14412700  0.89356600  0.01879700  1
  C  C39  1  0.64412700  0.60643400  0.48120300  1
  C  C40  1  0.47596900  0.05639100  0.74698100  1
  C  C41  1  0.52403100  0.44360900  0.24698100  1
  C  C42  1  0.97596900  0.44360900  0.75301900  1
  C  C43  1  0.13701600  0.08500000  0.75923300  1
  Ni  Ni44  1  0.04306900  0.03545600  0.70003600  1
  Ni  Ni45  1  0.54306900  0.46454400  0.79996400  1
  Ni  Ni46  1  0.45693100  0.03545600  0.29996400  1
  Ni  Ni47  1  0.95693100  0.46454400  0.20003600  1
  Ni  Ni48  1  0.04306900  0.53545600  0.79996400  1
  Ni  Ni49  1  0.45693100  0.53545600  0.20003600  1
  Ni  Ni50  1  0.95693100  0.96454400  0.29996400  1
  Ni  Ni51  1  0.54306900  0.96454400  0.70003600  1
  Cu  Cu52  1  0.75000000  0.53840700  0.50000000  1
  Cu  Cu53  1  0.25000000  0.96159300  0.00000000  1
  Cu  Cu54  1  0.25000000  0.46159300  0.50000000  1
  Cu  Cu55  1  0.75000000  0.03840700  0.00000000  1
  C  C56  1  0.67630800  0.80626100  0.16768100  1
  C  C57  1  0.17630800  0.19373900  0.16768100  1
  C  C58  1  0.82369200  0.30626100  0.66768100  1
  C  C59  1  0.32369200  0.19373900  0.83231900  1
  C  C60  1  0.32369200  0.69373900  0.66768100  1
  C  C61  1  0.82369200  0.80626100  0.83231900  1
  C  C62  1  0.17630800  0.69373900  0.33231900  1
  C  C63  1  0.67630800  0.30626100  0.33231900  1
  C  C64  1  0.97459500  0.30208900  0.44713600  1
  C  C65  1  0.47459500  0.19791100  0.05286400  1
  C  C66  1  0.75000000  0.57955300  0.00000000  1
  C  C67  1  0.02540500  0.19791100  0.94713600  1
  C  C68  1  0.02540500  0.69791100  0.55286400  1
  C  C69  1  0.52540500  0.80208900  0.94713600  1
  C  C70  1  0.47459500  0.69791100  0.44713600  1
  C  C71  1  0.97459500  0.80208900  0.05286400  1
  C  C72  1  0.75000000  0.07955300  0.50000000  1
  C  C73  1  0.25000000  0.42044700  0.00000000  1
  C  C74  1  0.25000000  0.92044700  0.50000000  1
  C  C75  1  0.52540500  0.30208900  0.55286400  1
