# generated using pymatgen
data_Cu(NiC3)3
_symmetry_space_group_name_H-M   'P 1'
_cell_length_a   3.33505400
_cell_length_b   3.33479204
_cell_length_c   37.98222300
_cell_angle_alpha   90.00024127
_cell_angle_beta   89.99838097
_cell_angle_gamma   119.99875003
_symmetry_Int_Tables_number   1
_chemical_formula_structural   Cu(NiC3)3
_chemical_formula_sum   'Cu1 Ni3 C9'
_cell_volume   365.83740440
_cell_formula_units_Z   1
loop_
 _symmetry_equiv_pos_site_id
 _symmetry_equiv_pos_as_xyz
  1  'x, y, z'
loop_
 _atom_site_type_symbol
 _atom_site_label
 _atom_site_symmetry_multiplicity
 _atom_site_fract_x
 _atom_site_fract_y
 _atom_site_fract_z
 _atom_site_occupancy
  C  C0  1  0.63962500  0.23331000  0.88213300  1
  C  C1  1  0.33329200  0.66668000  0.70765000  1
  C  C2  1  0.33333000  0.66669500  0.60765000  1
  Ni  Ni3  1  0.33330900  0.66665400  0.09382700  1
  Ni  Ni4  1  0.66666800  0.33336600  0.28184700  1
  Ni  Ni5  1  0.66668400  0.33337500  0.65767600  1
  Cu  Cu6  1  0.33334400  0.66666800  0.46954900  1
  C  C7  1  0.33329600  0.66668200  0.32583000  1
  C  C8  1  0.66667600  0.33333900  0.04989400  1
  C  C9  1  0.66663100  0.33330100  0.13779100  1
  C  C10  1  0.33333700  0.66669900  0.23788100  1
  C  C11  1  0.66674900  0.33334800  0.42944300  1
  C  C12  1  0.66670600  0.33334700  0.50970200  1
