# generated using pymatgen
data_Cu2Ni4C9
_symmetry_space_group_name_H-M   'P 1'
_cell_length_a   6.65429851
_cell_length_b   6.65528710
_cell_length_c   6.48001511
_cell_angle_alpha   53.08470805
_cell_angle_beta   103.54453728
_cell_angle_gamma   130.02328155
_symmetry_Int_Tables_number   1
_chemical_formula_structural   Cu2Ni4C9
_chemical_formula_sum   'Cu2 Ni4 C9'
_cell_volume   170.19888592
_cell_formula_units_Z   1
loop_
 _symmetry_equiv_pos_site_id
 _symmetry_equiv_pos_as_xyz
  1  'x, y, z'
loop_
 _atom_site_type_symbol
 _atom_site_label
 _atom_site_symmetry_multiplicity
 _atom_site_fract_x
 _atom_site_fract_y
 _atom_site_fract_z
 _atom_site_occupancy
  C  C0  1  0.03406900  0.54339800  0.42250700  1
  Ni  Ni1  1  0.00126200  0.02207200  0.97659000  1
  Ni  Ni2  1  0.57097700  0.23936300  0.67531600  1
  Ni  Ni3  1  0.27930800  0.48581100  0.23494500  1
  Ni  Ni4  1  0.08530900  0.75375600  0.67524600  1
  Cu  Cu5  1  0.63268900  0.24081300  0.12650200  1
  Cu  Cu6  1  0.63599200  0.74897800  0.61512400  1
  C  C7  1  0.87916900  0.22836600  0.36056400  1
  C  C8  1  0.36109400  0.20374300  0.43506800  1
  C  C9  1  0.89153100  0.29768200  0.81082900  1
  C  C10  1  0.87960200  0.72980100  0.39044100  1
  C  C11  1  0.86797800  0.72776700  0.87132800  1
  C  C12  1  0.40102600  0.26082900  0.87116500  1
  C  C13  1  0.41110000  0.76029500  0.36055300  1
  C  C14  1  0.34493700  0.78857700  0.86653200  1
