# generated using pymatgen
data_Cu2NiC17
_symmetry_space_group_name_H-M   'P 1'
_cell_length_a   14.94180688
_cell_length_b   8.68320709
_cell_length_c   8.76326462
_cell_angle_alpha   90.00000000
_cell_angle_beta   125.20370906
_cell_angle_gamma   90.00000000
_symmetry_Int_Tables_number   1
_chemical_formula_structural   Cu2NiC17
_chemical_formula_sum   'Cu8 Ni4 C68'
_cell_volume   929.02723081
_cell_formula_units_Z   4
loop_
 _symmetry_equiv_pos_site_id
 _symmetry_equiv_pos_as_xyz
  1  'x, y, z'
loop_
 _atom_site_type_symbol
 _atom_site_label
 _atom_site_symmetry_multiplicity
 _atom_site_fract_x
 _atom_site_fract_y
 _atom_site_fract_z
 _atom_site_occupancy
  C  C0  1  0.25095786  0.72652915  0.99657531  1
  C  C1  1  0.75095786  0.77347085  0.49657531  1
  C  C2  1  0.75095786  0.22652915  0.99657531  1
  C  C3  1  0.25095786  0.27347085  0.49657531  1
  C  C4  1  0.50391602  0.11583458  0.75869180  1
  C  C5  1  0.50391602  0.88416542  0.25869180  1
  C  C6  1  0.00391602  0.61583458  0.75869180  1
  C  C7  1  0.00391602  0.38416542  0.25869180  1
  C  C8  1  0.18787364  0.93571453  0.27532072  1
  C  C9  1  0.18787364  0.06428547  0.77532072  1
  C  C10  1  0.68787364  0.43571453  0.27532072  1
  C  C11  1  0.68787364  0.56428547  0.77532072  1
  C  C12  1  0.10588845  0.74182446  0.56483662  1
  C  C13  1  0.10588845  0.25817554  0.06483662  1
  C  C14  1  0.60588845  0.24182446  0.56483662  1
  C  C15  1  0.60588845  0.75817554  0.06483662  1
  Ni  Ni16  1  0.64541417  0.89357962  0.75111737  1
  Ni  Ni17  1  0.64541417  0.10642038  0.25111737  1
  Ni  Ni18  1  0.14541417  0.39357962  0.75111737  1
  Ni  Ni19  1  0.14541417  0.60642038  0.25111737  1
  C  C20  1  0.89733009  0.75863596  0.94142806  1
  C  C21  1  0.89733009  0.24136404  0.44142806  1
  C  C22  1  0.39733009  0.25863596  0.94142806  1
  C  C23  1  0.39733009  0.74136404  0.44142806  1
  Cu  Cu24  1  0.99801597  0.96336397  0.75564203  1
  Cu  Cu25  1  0.99801597  0.03663603  0.25564203  1
  Cu  Cu26  1  0.49801597  0.46336397  0.75564203  1
  Cu  Cu27  1  0.49801597  0.53663603  0.25564203  1
  Cu  Cu28  1  0.35604618  0.88955542  0.75765378  1
  Cu  Cu29  1  0.35604618  0.11044458  0.25765378  1
  Cu  Cu30  1  0.85604618  0.38955542  0.75765378  1
  Cu  Cu31  1  0.85604618  0.61044458  0.25765378  1
  C  C32  1  0.14661188  0.57927985  0.73259679  1
  C  C33  1  0.85092267  0.57087286  0.76450363  1
  C  C34  1  0.85092267  0.42912714  0.26450363  1
  C  C35  1  0.14661188  0.42072015  0.23259679  1
  C  C36  1  0.64661188  0.07927985  0.73259679  1
  C  C37  1  0.35092267  0.07087286  0.76450363  1
  C  C38  1  0.35092267  0.92912714  0.26450363  1
  C  C39  1  0.64661188  0.92072015  0.23259679  1
  C  C40  1  0.42468432  0.56075190  0.57507575  1
  C  C41  1  0.56694478  0.56123951  0.93204750  1
  C  C42  1  0.56694478  0.43876049  0.43204750  1
  C  C43  1  0.42468432  0.43924810  0.07507575  1
  C  C44  1  0.92468432  0.06075190  0.57507575  1
  C  C45  1  0.06694478  0.06123951  0.93204750  1
  C  C46  1  0.06694478  0.93876049  0.43204750  1
  C  C47  1  0.92468432  0.93924810  0.07507575  1
  C  C48  1  0.25219898  0.82816412  0.73503176  1
  C  C49  1  0.74994817  0.80637677  0.76847010  1
  C  C50  1  0.74994817  0.19362323  0.26847010  1
  C  C51  1  0.25219898  0.17183588  0.23503176  1
  C  C52  1  0.75219898  0.32816412  0.73503176  1
  C  C53  1  0.24994817  0.30637677  0.76847010  1
  C  C54  1  0.24994817  0.69362323  0.26847010  1
  C  C55  1  0.75219898  0.67183588  0.23503176  1
  C  C56  1  0.35799462  0.86536851  0.58175690  1
  C  C57  1  0.63605492  0.85215953  0.91903659  1
  C  C58  1  0.63605492  0.14784047  0.41903659  1
  C  C59  1  0.35799462  0.13463149  0.08175690  1
  C  C60  1  0.85799462  0.36536851  0.58175690  1
  C  C61  1  0.13605492  0.35215953  0.91903659  1
  C  C62  1  0.13605492  0.64784047  0.41903659  1
  C  C63  1  0.85799462  0.63463149  0.08175690  1
  C  C64  1  0.45651659  0.82317605  0.93584501  1
  C  C65  1  0.53919669  0.81077545  0.55641935  1
  C  C66  1  0.53919669  0.18922455  0.05641935  1
  C  C67  1  0.45651659  0.17682395  0.43584501  1
  C  C68  1  0.95651659  0.32317605  0.93584501  1
  C  C69  1  0.03919669  0.31077545  0.55641935  1
  C  C70  1  0.03919669  0.68922455  0.05641935  1
  C  C71  1  0.95651659  0.67682395  0.43584501  1
  C  C72  1  0.07807567  0.86050091  0.74087091  1
  C  C73  1  0.91540833  0.85385673  0.75708002  1
  C  C74  1  0.91540833  0.14614327  0.25708002  1
  C  C75  1  0.07807567  0.13949909  0.24087091  1
  C  C76  1  0.57807567  0.36050091  0.74087091  1
  C  C77  1  0.41540833  0.35385673  0.75708002  1
  C  C78  1  0.41540833  0.64614327  0.25708002  1
  C  C79  1  0.57807567  0.63949909  0.24087091  1
