# generated using pymatgen
data_Cu(NiC)2
_symmetry_space_group_name_H-M   'P 1'
_cell_length_a   6.03520837
_cell_length_b   6.03520837
_cell_length_c   7.74659249
_cell_angle_alpha   70.76380115
_cell_angle_beta   70.76380115
_cell_angle_gamma   85.15093543
_symmetry_Int_Tables_number   1
_chemical_formula_structural   Cu(NiC)2
_chemical_formula_sum   'Cu2 Ni4 C4'
_cell_volume   251.44125404
_cell_formula_units_Z   2
loop_
 _symmetry_equiv_pos_site_id
 _symmetry_equiv_pos_as_xyz
  1  'x, y, z'
loop_
 _atom_site_type_symbol
 _atom_site_label
 _atom_site_symmetry_multiplicity
 _atom_site_fract_x
 _atom_site_fract_y
 _atom_site_fract_z
 _atom_site_occupancy
  Ni  Ni0  1  0.50000000  0.00000000  0.00000000  1
  Ni  Ni1  1  0.00000000  0.50000000  0.00000000  1
  Ni  Ni2  1  0.70665700  0.70665700  0.57162600  1
  Ni  Ni3  1  0.29334300  0.29334300  0.42837400  1
  Cu  Cu4  1  0.63814100  0.63814100  0.91574500  1
  Cu  Cu5  1  0.36185900  0.36185900  0.08425500  1
  C  C6  1  0.72261600  0.27738400  0.50000000  1
  C  C7  1  0.27738400  0.72261600  0.50000000  1
  C  C8  1  0.10755000  0.10755000  0.77883100  1
  C  C9  1  0.89245000  0.89245000  0.22116900  1
