# generated using pymatgen
data_Cu3(Ni2C13)5
_symmetry_space_group_name_H-M   'P 1'
_cell_length_a   18.37744939
_cell_length_b   9.19675187
_cell_length_c   23.11262716
_cell_angle_alpha   89.97950975
_cell_angle_beta   90.04450336
_cell_angle_gamma   120.13422220
_symmetry_Int_Tables_number   1
_chemical_formula_structural   Cu3(Ni2C13)5
_chemical_formula_sum   'Cu9 Ni30 C195'
_cell_volume   3378.39588776
_cell_formula_units_Z   3
loop_
 _symmetry_equiv_pos_site_id
 _symmetry_equiv_pos_as_xyz
  1  'x, y, z'
loop_
 _atom_site_type_symbol
 _atom_site_label
 _atom_site_symmetry_multiplicity
 _atom_site_fract_x
 _atom_site_fract_y
 _atom_site_fract_z
 _atom_site_occupancy
  Ni  Ni0  1  0.32194971  0.01325053  0.24897043  1
  Ni  Ni1  1  0.68602863  0.35725974  0.24854754  1
  Ni  Ni2  1  0.31706918  0.62469029  0.74941481  1
  Ni  Ni3  1  0.81690268  0.62395622  0.74923924  1
  Ni  Ni4  1  0.15634213  0.34731088  0.57798875  1
  Ni  Ni5  1  0.65608734  0.34704945  0.57711446  1
  Ni  Ni6  1  0.01634106  0.68793335  0.57856790  1
  Ni  Ni7  1  0.51672224  0.68770522  0.57813532  1
  Ni  Ni8  1  0.32563262  0.96259414  0.57836578  1
  Ni  Ni9  1  0.82695745  0.96673267  0.57838791  1
  Ni  Ni10  1  0.15593147  0.96506034  0.07783125  1
  Ni  Ni11  1  0.65700941  0.96700223  0.07820943  1
  Ni  Ni12  1  0.32601182  0.68687653  0.07840689  1
  Ni  Ni13  1  0.82649768  0.68834395  0.07801008  1
  Ni  Ni14  1  0.01651807  0.34675248  0.07774376  1
  Ni  Ni15  1  0.51728478  0.34634834  0.07917975  1
  Ni  Ni16  1  0.66192205  0.02411944  0.41087196  1
  Ni  Ni17  1  0.35112223  0.67804693  0.40961415  1
  Ni  Ni18  1  0.00017654  0.99903582  0.49364625  1
  Ni  Ni19  1  0.49967044  0.01687479  0.48964501  1
  Ni  Ni20  1  0.99985415  0.99962868  0.99556306  1
  Ni  Ni21  1  0.49988087  0.99950119  0.99593397  1
  Ni  Ni22  1  0.33342590  0.31806587  0.83136896  1
  Ni  Ni23  1  0.83334049  0.31827572  0.83142801  1
  Ni  Ni24  1  0.33454534  0.34036324  0.32552127  1
  Ni  Ni25  1  0.84562928  0.34250050  0.32707149  1
  Ni  Ni26  1  0.16192370  0.65306486  0.16658839  1
  Ni  Ni27  1  0.66561647  0.67971333  0.16665676  1
  Ni  Ni28  1  0.16053586  0.66733062  0.66766241  1
  Ni  Ni29  1  0.66042200  0.66710777  0.66784515  1
  Cu  Cu30  1  0.49999112  0.00570076  0.34992630  1
  Cu  Cu31  1  0.33366311  0.32511232  0.68937458  1
  Cu  Cu32  1  0.83350476  0.32476003  0.68969067  1
  Cu  Cu33  1  0.33142095  0.33973698  0.18588329  1
  Cu  Cu34  1  0.83916245  0.33438648  0.18763202  1
  Cu  Cu35  1  0.16658938  0.66756249  0.00854235  1
  Cu  Cu36  1  0.66651725  0.66653745  0.00886151  1
  Cu  Cu37  1  0.16173950  0.66046666  0.51060986  1
  Cu  Cu38  1  0.66946676  0.66811659  0.51131058  1
  C  C39  1  0.00031658  0.99906627  0.35137703  1
  C  C40  1  0.00126945  0.00290406  0.85339492  1
  C  C41  1  0.50128630  0.00291933  0.85336404  1
  C  C42  1  0.00177565  0.00362099  0.65164969  1
  C  C43  1  0.50161633  0.00283521  0.65095522  1
  C  C44  1  0.99977855  -0.00007854  0.15152731  1
  C  C45  1  0.50007504  0.99641250  0.15255017  1
  C  C46  1  0.33308225  0.33483785  0.97853877  1
  C  C47  1  0.83365582  0.33455523  0.97860779  1
  C  C48  1  0.33234562  0.32374824  0.47950797  1
  C  C49  1  0.83674641  0.34112751  0.47897006  1
  C  C50  1  0.16335336  0.66156245  0.31606448  1
  C  C51  1  0.66479323  0.66755949  0.31662997  1
  C  C52  1  0.16356057  0.66708510  0.81842995  1
  C  C53  1  0.66351100  0.66688301  0.81849468  1
  C  C54  1  0.14457687  0.99007418  0.25135864  1
  C  C55  1  0.64853801  0.99327067  0.25246521  1
  C  C56  1  0.34643368  0.70342705  0.25321191  1
  C  C57  1  0.85056944  0.70961093  0.25166959  1
  C  C58  1  0.00415580  0.29489775  0.25182130  1
  C  C59  1  0.50372252  0.30335547  0.24897965  1
  C  C60  1  0.14498707  0.30063462  0.75172367  1
  C  C61  1  0.64477449  0.30013501  0.75161210  1
  C  C62  1  0.00451019  0.71421404  0.75131616  1
  C  C63  1  0.50451220  0.71432187  0.75126758  1
  C  C64  1  0.35160476  0.98991343  0.75193944  1
  C  C65  1  0.85147721  0.98970830  0.75202516  1
  C  C66  1  0.48011779  0.32910980  0.58408760  1
  C  C67  1  0.97953183  0.32815206  0.58417545  1
  C  C68  1  0.18372983  0.03870524  0.58399639  1
  C  C69  1  0.68446145  0.04111977  0.58198050  1
  C  C70  1  0.33573581  0.63094717  0.58471938  1
  C  C71  1  0.83661160  0.63213009  0.58698529  1
  C  C72  1  0.48008113  0.63127955  0.08283714  1
  C  C73  1  0.98071285  0.63293958  0.08281446  1
  C  C74  1  0.33560819  0.03924569  0.08535735  1
  C  C75  1  0.83574451  0.04023475  0.08286827  1
  C  C76  1  0.18301906  0.32805474  0.08219383  1
  C  C77  1  0.68478622  0.32874493  0.08568729  1
  C  C78  1  0.31752986  0.66458403  0.91608575  1
  C  C79  1  0.81747787  0.66425786  0.91608421  1
  C  C80  1  0.01449062  0.36487552  0.91815590  1
  C  C81  1  0.51443440  0.36460388  0.91831081  1
  C  C82  1  0.16793296  0.97104298  0.91798866  1
  C  C83  1  0.66783392  0.97085600  0.91803785  1
  C  C84  1  0.31384974  0.96508394  0.41815336  1
  C  C85  1  0.81793267  0.97060708  0.41784755  1
  C  C86  1  0.16733158  0.36478541  0.41803227  1
  C  C87  1  0.67028800  0.36872701  0.41829536  1
  C  C88  1  0.01582381  0.66773752  0.41766071  1
  C  C89  1  0.51499931  0.66105391  0.41952308  1
  C  C90  1  0.09450022  0.00280285  0.30245896  1
  C  C91  1  0.60864753  0.01239463  0.30755230  1
  C  C92  1  0.39368165  0.78329164  0.30895996  1
  C  C93  1  0.90732381  0.81084962  0.30273288  1
  C  C94  1  0.49198099  0.19466071  0.30118404  1
  C  C95  1  0.00033714  0.18273929  0.30258039  1
  C  C96  1  0.09454880  0.18703471  0.80250274  1
  C  C97  1  0.59445348  0.18697632  0.80252040  1
  C  C98  1  0.49882906  0.81711569  0.80180391  1
  C  C99  1  0.99877993  0.81716471  0.80179949  1
  C  C100  1  0.40783696  -0.00144049  0.80276272  1
  C  C101  1  0.90780605  -0.00150705  0.80278666  1
  C  C102  1  0.39508169  0.97096265  0.69497932  1
  C  C103  1  0.89498570  0.97098473  0.69501319  1
  C  C104  1  0.09446180  0.21406528  0.69427736  1
  C  C105  1  0.59429575  0.21345036  0.69421327  1
  C  C106  1  0.01398162  0.81726583  0.69395706  1
  C  C107  1  0.51402677  0.81719136  0.69385679  1
  C  C108  1  0.39632675  0.82210167  0.19903819  1
  C  C109  1  0.89399601  0.81171253  0.19463588  1
  C  C110  1  0.01182986  0.20884326  0.19455063  1
  C  C111  1  0.51647629  0.21437686  0.19333235  1
  C  C112  1  0.09410213  0.97719811  0.19432828  1
  C  C113  1  0.59066264  0.97302507  0.19769059  1
  C  C114  1  0.44205844  0.36079997  0.63713960  1
  C  C115  1  0.94120982  0.35924883  0.63718304  1
  C  C116  1  0.23760361  0.11682050  0.63701586  1
  C  C117  1  0.73984597  0.12270678  0.63417099  1
  C  C118  1  0.32242860  0.52945201  0.63981768  1
  C  C119  1  0.82353018  0.53351708  0.64260031  1
  C  C120  1  0.44224803  0.52400202  0.13606722  1
  C  C121  1  0.94348673  0.52746604  0.13654516  1
  C  C122  1  0.32129653  0.10747402  0.14174067  1
  C  C123  1  0.81991520  0.11552617  0.13614295  1
  C  C124  1  0.23577502  0.35845234  0.13581185  1
  C  C125  1  0.73397390  0.35713461  0.14171570  1
  C  C126  1  0.22858992  0.30351735  0.02848081  1
  C  C127  1  0.73302998  0.30605393  0.03308278  1
  C  C128  1  0.42225399  0.54189920  0.02872995  1
  C  C129  1  0.92270097  0.54209699  0.02902868  1
  C  C130  1  0.34719775  0.15993461  0.03327148  1
  C  C131  1  0.84906765  0.15630378  0.02898977  1
  C  C132  1  0.22887494  0.15278579  0.52964958  1
  C  C133  1  0.72688176  0.14951422  0.52593413  1
  C  C134  1  0.34730570  0.53981536  0.53051011  1
  C  C135  1  0.84787158  0.53593768  0.53413482  1
  C  C136  1  0.42179427  0.30176838  0.53002536  1
  C  C137  1  0.92300782  0.30429143  0.52959513  1
  C  C138  1  0.28621920  0.69533436  0.97320966  1
  C  C139  1  0.78615843  0.69516381  0.97317314  1
  C  C140  1  0.05955113  0.42394432  0.97597134  1
  C  C141  1  0.55956909  0.42337016  0.97613888  1
  C  C142  1  0.15192246  0.88072588  0.97578003  1
  C  C143  1  0.65197344  0.88015604  0.97576221  1
  C  C144  1  0.27529900  0.86902503  0.47438738  1
  C  C145  1  0.78934710  0.88377355  0.47642550  1
  C  C146  1  0.15165018  0.42206684  0.47626866  1
  C  C147  1  0.66170569  0.44197188  0.47542549  1
  C  C148  1  0.05890577  0.69744302  0.47636108  1
  C  C149  1  0.56309625  0.68599828  0.47610035  1
  C  C150  1  0.06660806  0.64517347  0.36793611  1
  C  C151  1  0.56549785  0.64491591  0.36737210  1
  C  C152  1  0.25728642  0.87038776  0.36410298  1
  C  C153  1  0.75297471  0.86702814  0.36903835  1
  C  C154  1  0.18031207  0.49275316  0.36872071  1
  C  C155  1  0.67685618  0.48027205  0.36456373  1
  C  C156  1  0.06646365  0.48870572  0.86795846  1
  C  C157  1  0.56630032  0.48870383  0.86811218  1
  C  C158  1  0.17762125  0.86728061  0.86767374  1
  C  C159  1  0.67783496  0.86765098  0.86765827  1
  C  C160  1  0.25804340  0.64389308  0.86390860  1
  C  C161  1  0.75801353  0.64383449  0.86391535  1
  C  C162  1  0.00189048  0.81809459  0.40587173  1
  C  C163  1  0.50283343  0.81367433  0.41286209  1
  C  C164  1  0.40083832  0.98196515  0.41362475  1
  C  C165  1  0.90686754  0.99930272  0.40526062  1
  C  C166  1  0.09302735  0.18599726  0.40586733  1
  C  C167  1  0.59774569  0.18689635  0.41401009  1
  C  C168  1  0.00191662  0.18762487  0.90586893  1
  C  C169  1  0.50198334  0.18751800  0.90591746  1
  C  C170  1  0.09200873  0.99682313  0.90584914  1
  C  C171  1  0.59184660  0.99643179  0.90590753  1
  C  C172  1  0.40721386  0.81714175  0.90542480  1
  C  C173  1  0.90720526  0.81693173  0.90539338  1
  C  C174  1  0.48364929  0.16062584  0.58848287  1
  C  C175  1  0.98322936  0.15961905  0.58851935  1
  C  C176  1  0.09611448  0.03303809  0.58790332  1
  C  C177  1  0.59643911  0.03358753  0.58756673  1
  C  C178  1  0.41963410  0.80867448  0.58840464  1
  C  C179  1  0.92080081  0.80885148  0.58861467  1
  C  C180  1  0.48347791  0.80718466  0.08807366  1
  C  C181  1  0.98436259  0.80902415  0.08765891  1
  C  C182  1  0.41969644  0.03053248  0.08814946  1
  C  C183  1  0.92000420  0.03189274  0.08812177  1
  C  C184  1  0.09483497  0.15896880  0.08714764  1
  C  C185  1  0.59661682  0.15921959  0.08828272  1
  C  C186  1  0.34130953  0.14217085  0.75180217  1
  C  C187  1  0.84104029  0.14175901  0.75190830  1
  C  C188  1  0.23372400  0.32753660  0.75113163  1
  C  C189  1  0.73347622  0.32672961  0.75107713  1
  C  C190  1  0.42273069  0.54605736  0.75018364  1
  C  C191  1  0.92286740  0.54588586  0.75022970  1
  C  C192  1  0.33171712  0.52719114  0.24724930  1
  C  C193  1  0.83721859  0.53230478  0.25131003  1
  C  C194  1  0.42581637  0.32064077  0.24347190  1
  C  C195  1  0.92692694  0.31287193  0.25243726  1
  C  C196  1  0.23428637  0.13873475  0.25146900  1
  C  C197  1  0.73346424  0.15339776  0.24557603  1
  C  C198  1  0.32344255  0.50149620  0.91957543  1
  C  C199  1  0.82318260  0.50102169  0.91964918  1
  C  C200  1  0.42686848  0.35186490  0.92017779  1
  C  C201  1  0.92713401  0.35300079  0.91984417  1
  C  C202  1  0.24992699  0.14529152  0.91986932  1
  C  C203  1  0.74938642  0.14590777  0.92009619  1
  C  C204  1  0.32046365  0.14156216  0.42084054  1
  C  C205  1  0.81920758  0.14239148  0.42012511  1
  C  C206  1  0.25265138  0.36484368  0.42069354  1
  C  C207  1  0.75373662  0.35838028  0.42004694  1
  C  C208  1  0.42574330  0.49939496  0.42121512  1
  C  C209  1  0.92847377  0.50285966  0.42003056  1
  C  C210  1  0.16756781  0.47722706  0.07569812  1
  C  C211  1  0.66994237  0.47829920  0.07741739  1
  C  C212  1  0.07085812  0.66425230  0.07605399  1
  C  C213  1  0.57065774  0.66456362  0.07618645  1
  C  C214  1  0.26062899  0.85959427  0.07696449  1
  C  C215  1  0.76133243  0.85935899  0.07594610  1
  C  C216  1  0.16725777  0.85774971  0.57806355  1
  C  C217  1  0.66814550  0.85967437  0.57751125  1
  C  C218  1  0.26045545  0.66016359  0.57788203  1
  C  C219  1  0.76164516  0.66154079  0.57960193  1
  C  C220  1  0.07012806  0.47694546  0.57833861  1
  C  C221  1  0.57049309  0.47748244  0.57717486  1
  C  C222  1  0.14986427  0.82588199  0.25599893  1
  C  C223  1  0.65502828  0.83027758  0.25480564  1
  C  C224  1  0.26134364  0.70791353  0.25336285  1
  C  C225  1  0.76224928  0.69455540  0.25716572  1
  C  C226  1  0.08624408  0.46929996  0.25677173  1
  C  C227  1  0.58870502  0.47567640  0.25348963  1
  C  C228  1  0.15186995  0.47709213  0.75595110  1
  C  C229  1  0.65185425  0.47687195  0.75592667  1
  C  C230  1  0.08406273  0.69677322  0.75646937  1
  C  C231  1  0.58400008  0.69663748  0.75653233  1
  C  C232  1  0.26537575  0.82048025  0.75579980  1
  C  C233  1  0.76532628  0.82039497  0.75586631  1
