# generated using pymatgen
data_Cu(NiC11)3
_symmetry_space_group_name_H-M   'P 1'
_cell_length_a   8.82545612
_cell_length_b   8.77146527
_cell_length_c   22.53892489
_cell_angle_alpha   89.98730558
_cell_angle_beta   90.29528798
_cell_angle_gamma   119.91743523
_symmetry_Int_Tables_number   1
_chemical_formula_structural   Cu(NiC11)3
_chemical_formula_sum   'Cu3 Ni9 C99'
_cell_volume   1512.26010787
_cell_formula_units_Z   3
loop_
 _symmetry_equiv_pos_site_id
 _symmetry_equiv_pos_as_xyz
  1  'x, y, z'
loop_
 _atom_site_type_symbol
 _atom_site_label
 _atom_site_symmetry_multiplicity
 _atom_site_fract_x
 _atom_site_fract_y
 _atom_site_fract_z
 _atom_site_occupancy
  Ni  Ni0  1  0.99134606  0.37062159  0.74688053  1
  Ni  Ni1  1  0.31972438  0.97850991  0.08389408  1
  Ni  Ni2  1  0.32461682  0.03789427  0.41346318  1
  Ni  Ni3  1  0.98586833  0.00061377  0.49989659  1
  Ni  Ni4  1  0.98662533  0.00195958  0.99762693  1
  Ni  Ni5  1  0.65185596  0.33310524  0.83267794  1
  Ni  Ni6  1  0.66935996  0.33631882  0.32752462  1
  Ni  Ni7  1  0.33401016  0.65281955  0.16754951  1
  Ni  Ni8  1  0.34605887  0.67335417  0.66547600  1
  Cu  Cu9  1  0.99007164  0.00036854  0.35872610  1
  Cu  Cu10  1  0.65877777  0.33693311  0.68658200  1
  Cu  Cu11  1  0.66606978  0.33248891  0.17805562  1
  C  C12  1  0.00236477  0.99881828  0.85648037  1
  C  C13  1  0.98951732  0.99518474  0.64921716  1
  C  C14  1  0.00502868  0.99711330  0.14710293  1
  C  C15  1  0.67179931  0.33428007  0.98079967  1
  C  C16  1  0.68516617  0.34917979  0.48155871  1
  C  C17  1  0.33456750  0.66217211  0.01426397  1
  C  C18  1  0.33379314  0.65919492  0.51956633  1
  C  C19  1  0.33192191  0.67238884  0.31616498  1
  C  C20  1  0.33881640  0.67190910  0.81492372  1
  C  C21  1  0.29217725  0.98988068  0.25372550  1
  C  C22  1  0.27649474  0.28511528  0.75419148  1
  C  C23  1  0.01357242  0.72485319  0.75360503  1
  C  C24  1  0.71111941  0.98557526  0.75402313  1
  C  C25  1  0.96753330  0.33287269  0.58465049  1
  C  C26  1  0.66967770  0.63555500  0.58231760  1
  C  C27  1  0.96903267  0.63178983  0.08020944  1
  C  C28  1  0.66792637  0.03073822  0.07932423  1
  C  C29  1  0.36700379  0.33562293  0.08017728  1
  C  C30  1  0.62140183  0.66384065  0.91605018  1
  C  C31  1  0.04189720  0.37898167  0.91459980  1
  C  C32  1  0.33735740  0.95895448  0.91693818  1
  C  C33  1  0.61075686  0.95774559  0.42131811  1
  C  C34  1  0.35069751  0.39055084  0.41848805  1
  C  C35  1  0.04525092  0.65320931  0.41937957  1
  C  C36  1  0.69825086  0.71128858  0.24963339  1
  C  C37  1  0.01415126  0.30219185  0.24941327  1
  C  C38  1  0.36317695  0.03127715  0.57999311  1
  C  C39  1  0.21034474  0.00390029  0.31046917  1
  C  C40  1  0.79271559  0.79051531  0.30385253  1
  C  C41  1  0.99526997  0.20680413  0.30366334  1
  C  C42  1  0.17498632  0.17757468  0.80934615  1
  C  C43  1  0.00197553  0.82284889  0.80870644  1
  C  C44  1  0.82397099  0.99871620  0.80814305  1
  C  C45  1  0.79970520  0.96753650  0.69530190  1
  C  C46  1  0.16308642  0.19485849  0.69699303  1
  C  C47  1  0.02460912  0.83006306  0.69591882  1
  C  C48  1  0.79614916  0.82166601  0.19588964  1
  C  C49  1  0.02261041  0.20074768  0.19593789  1
  C  C50  1  0.17142863  0.97628490  0.19607535  1
  C  C51  1  0.90999401  0.37164635  0.64305613  1
  C  C52  1  0.46687801  0.09912777  0.63382725  1
  C  C53  1  0.62219569  0.53163230  0.63859515  1
  C  C54  1  0.91465451  0.53179102  0.13740525  1
  C  C55  1  0.60603476  0.08287729  0.13418933  1
  C  C56  1  0.46579051  0.38112671  0.13796145  1
  C  C57  1  0.46518624  0.29865122  0.02915086  1
  C  C58  1  0.83922328  0.53181002  0.02783993  1
  C  C59  1  0.69653306  0.16232932  0.02701396  1
  C  C60  1  0.45249254  0.14358497  0.52710551  1
  C  C61  1  0.69501975  0.53169650  0.52897227  1
  C  C62  1  0.83724876  0.31130867  0.53190889  1
  C  C63  1  0.53050253  0.69088547  0.96971103  1
  C  C64  1  0.16181944  0.47400697  0.96791590  1
  C  C65  1  0.31007619  0.84780314  0.97256319  1
  C  C66  1  0.50528303  0.84642041  0.47372213  1
  C  C67  1  0.33717878  0.48801465  0.47303892  1
  C  C68  1  0.15675115  0.66472667  0.47269306  1
  C  C69  1  0.13348040  0.63462077  0.36131084  1
  C  C70  1  0.49846523  0.86786715  0.36283891  1
  C  C71  1  0.36432251  0.49783445  0.36133510  1
  C  C72  1  0.12650747  0.49027650  0.85789174  1
  C  C73  1  0.36107728  0.86197483  0.86248995  1
  C  C74  1  0.50292683  0.63769762  0.86072876  1
  C  C75  1  0.03161047  0.81866429  0.42024718  1
  C  C76  1  0.78914947  0.97560603  0.42253489  1
  C  C77  1  0.19348324  0.20566298  0.42008274  1
  C  C78  1  0.02186082  0.19348000  0.91063126  1
  C  C79  1  0.17274786  0.97812184  0.90990498  1
  C  C80  1  0.80480786  0.82841579  0.91044730  1
  C  C81  1  0.98005965  0.16192818  0.58758980  1
  C  C82  1  0.18803066  0.01730571  0.58473991  1
  C  C83  1  0.84082848  0.81718222  0.58726251  1
  C  C84  1  0.98613764  0.81956479  0.08700977  1
  C  C85  1  0.83474206  0.01791843  0.08807830  1
  C  C86  1  0.18479779  0.16057908  0.08703933  1
  C  C87  1  0.70166462  0.15359260  0.75213553  1
  C  C88  1  0.45417430  0.30075483  0.75438862  1
  C  C89  1  0.85655228  0.53960465  0.75369814  1
  C  C90  1  0.67036956  0.53275731  0.24401832  1
  C  C91  1  0.86842385  0.33630386  0.24331419  1
  C  C92  1  0.47655892  0.14118974  0.24621118  1
  C  C93  1  0.63641665  0.49683383  0.92427798  1
  C  C94  1  0.85986411  0.36240694  0.92385786  1
  C  C95  1  0.50325028  0.14194884  0.92323373  1
  C  C96  1  0.61811454  0.13892695  0.42554207  1
  C  C97  1  0.52001637  0.37718814  0.42387651  1
  C  C98  1  0.86389949  0.48204293  0.42419582  1
  C  C99  1  0.33139661  0.48645903  0.06498708  1
  C  C100  1  0.15731830  0.67161670  0.06585204  1
  C  C101  1  0.51115237  0.84644078  0.06364188  1
  C  C102  1  0.33214105  0.84868718  0.57151632  1
  C  C103  1  0.51909942  0.67286653  0.56839832  1
  C  C104  1  0.15270175  0.48750285  0.57048583  1
  C  C105  1  0.29252559  0.80929082  0.25519600  1
  C  C106  1  0.52557644  0.70648123  0.25079449  1
  C  C107  1  0.18453229  0.47297529  0.25087206  1
  C  C108  1  0.28361437  0.46713793  0.75807149  1
  C  C109  1  0.18524902  0.71468167  0.75747347  1
  C  C110  1  0.53049915  0.81668132  0.75836148  1
