# generated using pymatgen
data_Cu5NiC5
_symmetry_space_group_name_H-M   'P 1'
_cell_length_a   6.35236083
_cell_length_b   8.53665000
_cell_length_c   6.35236022
_cell_angle_alpha   89.99980848
_cell_angle_beta   99.26346311
_cell_angle_gamma   89.99980170
_symmetry_Int_Tables_number   1
_chemical_formula_structural   Cu5NiC5
_chemical_formula_sum   'Cu10 Ni2 C10'
_cell_volume   339.98258694
_cell_formula_units_Z   2
loop_
 _symmetry_equiv_pos_site_id
 _symmetry_equiv_pos_as_xyz
  1  'x, y, z'
loop_
 _atom_site_type_symbol
 _atom_site_label
 _atom_site_symmetry_multiplicity
 _atom_site_fract_x
 _atom_site_fract_y
 _atom_site_fract_z
 _atom_site_occupancy
  C  C0  1  0.50178700  0.75000100  0.92042100  1
  C  C1  1  0.49821300  0.24999800  0.07957900  1
  C  C2  1  0.92042100  0.75000100  0.50178700  1
  C  C3  1  0.07957900  0.24999800  0.49821300  1
  C  C4  1  0.00000000  0.00000600  0.00000200  1
  C  C5  1  0.00000100  0.50000000  0.00000100  1
  C  C6  1  0.36902000  0.84223800  0.36902000  1
  C  C7  1  0.63097900  0.34223800  0.63097900  1
  C  C8  1  0.36902100  0.65776200  0.36902100  1
  C  C9  1  0.63098000  0.15776100  0.63098000  1
  Ni  Ni10  1  0.44143600  0.74999800  0.44143600  1
  Ni  Ni11  1  0.55856400  0.25000100  0.55856400  1
  Cu  Cu12  1  0.01081800  0.25000500  0.01081800  1
  Cu  Cu13  1  0.98918200  0.74999500  0.98918100  1
  Cu  Cu14  1  0.80509600  0.00000000  0.19490400  1
  Cu  Cu15  1  0.19491000  0.50000000  0.80509000  1
  Cu  Cu16  1  0.19490400  0.00000000  0.80509500  1
  Cu  Cu17  1  0.80509000  0.50000000  0.19491000  1
  Cu  Cu18  1  0.23266600  0.99597300  0.23266600  1
  Cu  Cu19  1  0.76732900  0.49597400  0.76732900  1
  Cu  Cu20  1  0.23267100  0.50402500  0.23267100  1
  Cu  Cu21  1  0.76733400  0.00402600  0.76733400  1
