# generated using pymatgen
data_Cu2Ni4C15
_symmetry_space_group_name_H-M   'P 1'
_cell_length_a   5.74125607
_cell_length_b   6.06480045
_cell_length_c   8.61369505
_cell_angle_alpha   85.77123268
_cell_angle_beta   90.99874356
_cell_angle_gamma   89.88978071
_symmetry_Int_Tables_number   1
_chemical_formula_structural   Cu2Ni4C15
_chemical_formula_sum   'Cu2 Ni4 C15'
_cell_volume   299.06166599
_cell_formula_units_Z   1
loop_
 _symmetry_equiv_pos_site_id
 _symmetry_equiv_pos_as_xyz
  1  'x, y, z'
loop_
 _atom_site_type_symbol
 _atom_site_label
 _atom_site_symmetry_multiplicity
 _atom_site_fract_x
 _atom_site_fract_y
 _atom_site_fract_z
 _atom_site_occupancy
  Ni  Ni0  1  0.49702900  0.36901700  0.16886000  1
  Ni  Ni1  1  0.00251700  0.92108300  0.21864700  1
  Ni  Ni2  1  0.01724600  0.98956000  0.76088700  1
  Ni  Ni3  1  0.48408900  0.54453800  0.76010600  1
  Cu  Cu4  1  0.50079900  0.08111000  0.52343800  1
  Cu  Cu5  1  0.99869900  0.47555700  0.98408800  1
  C  C6  1  0.47303500  0.67857600  0.38464500  1
  C  C7  1  0.50790600  0.96577200  0.99872800  1
  C  C8  1  0.99601500  0.54842600  0.51108500  1
  C  C9  1  0.91223400  0.54333800  0.74050600  1
  C  C10  1  0.57558600  0.98621500  0.76916200  1
  C  C11  1  0.15008200  0.54021600  0.29024400  1
  C  C12  1  0.44041500  0.97423700  0.24993600  1
  C  C13  1  0.78779100  0.82038000  0.46866500  1
  C  C14  1  0.78114700  0.17423000  0.02433400  1
  C  C15  1  0.19101700  0.28530000  0.57069300  1
  C  C16  1  0.24668400  0.75459900  0.96862000  1
  C  C17  1  0.28253900  0.22908200  0.95440000  1
  C  C18  1  0.26501000  0.76375000  0.55415900  1
  C  C19  1  0.71538900  0.69688800  0.05081400  1
  C  C20  1  0.67476800  0.39770900  0.44642100  1
