# generated using pymatgen
data_Cu5NiC13
_symmetry_space_group_name_H-M   'P 1'
_cell_length_a   5.21340894
_cell_length_b   5.10505065
_cell_length_c   9.78005912
_cell_angle_alpha   93.17465393
_cell_angle_beta   96.22640465
_cell_angle_gamma   59.29535239
_symmetry_Int_Tables_number   1
_chemical_formula_structural   Cu5NiC13
_chemical_formula_sum   'Cu5 Ni1 C13'
_cell_volume   222.48298369
_cell_formula_units_Z   1
loop_
 _symmetry_equiv_pos_site_id
 _symmetry_equiv_pos_as_xyz
  1  'x, y, z'
loop_
 _atom_site_type_symbol
 _atom_site_label
 _atom_site_symmetry_multiplicity
 _atom_site_fract_x
 _atom_site_fract_y
 _atom_site_fract_z
 _atom_site_occupancy
  Ni  Ni0  1  0.89867000  0.00000000  0.74844900  1
  Cu  Cu1  1  0.18641400  0.66763900  0.49595100  1
  Cu  Cu2  1  0.63656000  0.66618500  0.98198200  1
  Cu  Cu3  1  0.30274500  0.33381500  0.98198200  1
  Cu  Cu4  1  0.85405300  0.33236100  0.49595100  1
  Cu  Cu5  1  0.51465800  0.00000000  0.48433100  1
  C  C6  1  0.99018900  0.00000000  0.05665400  1
  C  C7  1  0.02911600  0.59079400  0.10846600  1
  C  C8  1  0.24909000  0.68250100  0.89096500  1
  C  C9  1  0.15288600  0.34653900  0.40546300  1
  C  C10  1  0.49942500  0.65346100  0.40546300  1
  C  C11  1  0.56159100  0.32353800  0.59506000  1
  C  C12  1  0.17664800  0.00000000  0.59988100  1
  C  C13  1  0.88512900  0.67646200  0.59506000  1
  C  C14  1  0.61991100  0.40920600  0.10846600  1
  C  C15  1  0.40064200  0.00000000  0.09850200  1
  C  C16  1  0.93159100  0.31749900  0.89096500  1
  C  C17  1  0.63073600  0.00000000  0.89151400  1
  C  C18  1  0.86119700  0.00000000  0.39614500  1
