# generated using pymatgen
data_CuNi11C7
_symmetry_space_group_name_H-M   'P 1'
_cell_length_a   4.99617463
_cell_length_b   5.10977928
_cell_length_c   8.68250243
_cell_angle_alpha   90.78156956
_cell_angle_beta   89.16074667
_cell_angle_gamma   101.10829741
_symmetry_Int_Tables_number   1
_chemical_formula_structural   CuNi11C7
_chemical_formula_sum   'Cu1 Ni11 C7'
_cell_volume   217.46926086
_cell_formula_units_Z   1
loop_
 _symmetry_equiv_pos_site_id
 _symmetry_equiv_pos_as_xyz
  1  'x, y, z'
loop_
 _atom_site_type_symbol
 _atom_site_label
 _atom_site_symmetry_multiplicity
 _atom_site_fract_x
 _atom_site_fract_y
 _atom_site_fract_z
 _atom_site_occupancy
  C  C0  1  0.51640777  0.04026089  0.66547967  1
  C  C1  1  0.00824918  0.99175140  0.01335785  1
  C  C2  1  0.99834546  -0.00154578  0.33561573  1
  C  C3  1  0.00704511  0.98038431  0.66460427  1
  C  C4  1  0.44222308  0.54806877  0.85076014  1
  C  C5  1  0.55353854  0.44583154  0.17062662  1
  C  C6  1  0.45560205  0.53706620  0.49515721  1
  Ni  Ni7  1  0.17376594  0.85785843  0.17000699  1
  Ni  Ni8  1  0.20808577  0.84749602  0.51132914  1
  Ni  Ni9  1  0.20672490  0.85632115  0.82819398  1
  Ni  Ni10  1  0.28621323  0.31761715  0.01110975  1
  Ni  Ni11  1  0.29422668  0.31341822  0.33393419  1
  Ni  Ni12  1  0.29392267  0.31579883  0.67242756  1
  Ni  Ni13  1  0.72161801  0.66646365  0.00108925  1
  Ni  Ni14  1  0.72398596  0.66473464  0.34029061  1
  Ni  Ni15  1  0.67494022  0.70666952  0.67330250  1
  Ni  Ni16  1  0.81592847  0.14009082  0.17354134  1
  Ni  Ni17  1  0.82637248  0.13677970  0.51409046  1
  Cu  Cu18  1  0.80668948  0.14882355  0.83222174  1
