# generated using pymatgen
data_Cu2Ni2C9
_symmetry_space_group_name_H-M   'P 1'
_cell_length_a   3.18921500
_cell_length_b   3.18922288
_cell_length_c   43.95679401
_cell_angle_alpha   90.00645251
_cell_angle_beta   90.00000000
_cell_angle_gamma   119.99992865
_symmetry_Int_Tables_number   1
_chemical_formula_structural   Cu2Ni2C9
_chemical_formula_sum   'Cu2 Ni2 C9'
_cell_volume   387.19132542
_cell_formula_units_Z   1
loop_
 _symmetry_equiv_pos_site_id
 _symmetry_equiv_pos_as_xyz
  1  'x, y, z'
loop_
 _atom_site_type_symbol
 _atom_site_label
 _atom_site_symmetry_multiplicity
 _atom_site_fract_x
 _atom_site_fract_y
 _atom_site_fract_z
 _atom_site_occupancy
  C  C0  1  0.99998500  0.99997000  0.37550100  1
  Ni  Ni1  1  0.33344400  0.66688800  0.09439900  1
  Ni  Ni2  1  0.66664600  0.33329200  0.65694700  1
  Cu  Cu3  1  0.33321700  0.66643500  0.47897700  1
  Cu  Cu4  1  0.66669000  0.33337900  0.27272600  1
  C  C5  1  0.33340400  0.66680800  0.30876600  1
  C  C6  1  0.33335700  0.66671700  0.69256300  1
  C  C7  1  0.66674100  0.33347900  0.05882100  1
  C  C8  1  0.66651700  0.33303400  0.44292700  1
  C  C9  1  0.66682100  0.33364100  0.12998400  1
  C  C10  1  0.66659700  0.33319100  0.51469100  1
  C  C11  1  0.33331500  0.66663100  0.23702600  1
  C  C12  1  0.33326700  0.66653500  0.62134700  1
