# generated using pymatgen
data_Cu8NiC5
_symmetry_space_group_name_H-M   'P 1'
_cell_length_a   5.52436600
_cell_length_b   5.58979400
_cell_length_c   29.42567400
_cell_angle_alpha   90.00000000
_cell_angle_beta   90.00000000
_cell_angle_gamma   90.00000000
_symmetry_Int_Tables_number   1
_chemical_formula_structural   Cu8NiC5
_chemical_formula_sum   'Cu32 Ni4 C20'
_cell_volume   908.66681173
_cell_formula_units_Z   4
loop_
 _symmetry_equiv_pos_site_id
 _symmetry_equiv_pos_as_xyz
  1  'x, y, z'
loop_
 _atom_site_type_symbol
 _atom_site_label
 _atom_site_symmetry_multiplicity
 _atom_site_fract_x
 _atom_site_fract_y
 _atom_site_fract_z
 _atom_site_occupancy
  C  C0  1  0.00000000  0.98863800  0.75000000  1
  C  C1  1  0.50000000  0.48863800  0.75000000  1
  C  C2  1  0.00000000  0.01136200  0.25000000  1
  C  C3  1  0.50000000  0.51136200  0.25000000  1
  C  C4  1  0.48965200  0.47726900  0.06873300  1
  C  C5  1  0.47680600  0.06342400  0.84284300  1
  C  C6  1  0.97680600  0.56342400  0.65715700  1
  C  C7  1  0.47680600  0.93657600  0.34284300  1
  C  C8  1  0.97680600  0.43657600  0.15715700  1
  C  C9  1  0.51034800  0.52273100  0.93126700  1
  C  C10  1  0.01034800  0.02273100  0.56873300  1
  C  C11  1  0.51034800  0.47726900  0.43126700  1
  C  C12  1  0.02319400  0.43657600  0.34284300  1
  C  C13  1  0.52319400  0.06342400  0.65715700  1
  C  C14  1  0.02319400  0.56342400  0.84284300  1
  C  C15  1  0.52319400  0.93657600  0.15715700  1
  C  C16  1  0.98965200  0.02273100  0.93126700  1
  C  C17  1  0.48965200  0.52273100  0.56873300  1
  C  C18  1  0.98965200  0.97726900  0.43126700  1
  C  C19  1  0.01034800  0.97726900  0.06873300  1
  Ni  Ni20  1  0.50000000  0.00000000  0.50000000  1
  Ni  Ni21  1  0.00000000  0.50000000  0.50000000  1
  Ni  Ni22  1  0.50000000  0.00000000  0.00000000  1
  Ni  Ni23  1  0.00000000  0.50000000  0.00000000  1
  Cu  Cu24  1  0.24646000  0.29091900  0.23491300  1
  Cu  Cu25  1  0.74646000  0.20908100  0.76508700  1
  Cu  Cu26  1  0.24646000  0.70908100  0.73491300  1
  Cu  Cu27  1  0.74646000  0.79091900  0.26508700  1
  Cu  Cu28  1  0.75354000  0.29091900  0.26508700  1
  Cu  Cu29  1  0.25354000  0.20908100  0.73491300  1
  Cu  Cu30  1  0.75354000  0.70908100  0.76508700  1
  Cu  Cu31  1  0.25354000  0.79091900  0.23491300  1
  Cu  Cu32  1  0.39981400  0.56146100  0.31471100  1
  Cu  Cu33  1  0.89981400  0.93853900  0.68528900  1
  Cu  Cu34  1  0.39981400  0.43853900  0.81471100  1
  Cu  Cu35  1  0.89981400  0.06146100  0.18528900  1
  Cu  Cu36  1  0.60018600  0.56146100  0.18528900  1
  Cu  Cu37  1  0.10018600  0.93853900  0.81471100  1
  Cu  Cu38  1  0.60018600  0.43853900  0.68528900  1
  Cu  Cu39  1  0.10018600  0.06146100  0.31471100  1
  Cu  Cu40  1  0.74719200  0.23782000  0.10553000  1
  Cu  Cu41  1  0.24719200  0.26218000  0.89447000  1
  Cu  Cu42  1  0.74719200  0.76218000  0.60553000  1
  Cu  Cu43  1  0.24719200  0.73782000  0.39447000  1
  Cu  Cu44  1  0.24418000  0.23091100  0.10682100  1
  Cu  Cu45  1  0.74418000  0.26908900  0.89317900  1
  Cu  Cu46  1  0.24418000  0.76908900  0.60682100  1
  Cu  Cu47  1  0.74418000  0.73091100  0.39317900  1
  Cu  Cu48  1  0.75582000  0.23091100  0.39317900  1
  Cu  Cu49  1  0.25582000  0.26908900  0.60682100  1
  Cu  Cu50  1  0.75582000  0.76908900  0.89317900  1
  Cu  Cu51  1  0.25582000  0.73091100  0.10682100  1
  Cu  Cu52  1  0.25280800  0.23782000  0.39447000  1
  Cu  Cu53  1  0.75280800  0.26218000  0.60553000  1
  Cu  Cu54  1  0.25280800  0.76218000  0.89447000  1
  Cu  Cu55  1  0.75280800  0.73782000  0.10553000  1
