# generated using pymatgen
data_CuNi3C17
_symmetry_space_group_name_H-M   'P 1'
_cell_length_a   9.07355459
_cell_length_b   9.07355428
_cell_length_c   21.81079688
_cell_angle_alpha   90.00000000
_cell_angle_beta   90.00000000
_cell_angle_gamma   120.00000116
_symmetry_Int_Tables_number   1
_chemical_formula_structural   CuNi3C17
_chemical_formula_sum   'Cu6 Ni18 C102'
_cell_volume   1555.09547658
_cell_formula_units_Z   6
loop_
 _symmetry_equiv_pos_site_id
 _symmetry_equiv_pos_as_xyz
  1  'x, y, z'
loop_
 _atom_site_type_symbol
 _atom_site_label
 _atom_site_symmetry_multiplicity
 _atom_site_fract_x
 _atom_site_fract_y
 _atom_site_fract_z
 _atom_site_occupancy
  Ni  Ni0  1  0.64693195  -0.00000000  0.25000000  1
  Ni  Ni1  1  0.35306805  0.35306805  0.25000000  1
  Ni  Ni2  1  1.00000000  0.64693195  0.25000000  1
  Ni  Ni3  1  0.64693195  0.64693195  0.75000000  1
  Ni  Ni4  1  0.00000000  0.35306805  0.75000000  1
  Ni  Ni5  1  0.35306805  -0.00000000  0.75000000  1
  Ni  Ni6  1  0.31359895  0.33333300  0.58333300  1
  Ni  Ni7  1  0.01973505  0.68640105  0.58333300  1
  Ni  Ni8  1  0.66666700  0.98026495  0.58333300  1
  Ni  Ni9  1  0.31359895  0.98026495  0.08333300  1
  Ni  Ni10  1  0.66666700  0.68640105  0.08333300  1
  Ni  Ni11  1  0.01973505  0.33333300  0.08333300  1
  Ni  Ni12  1  0.98026495  0.66666700  0.91666700  1
  Ni  Ni13  1  0.68640105  0.01973505  0.91666700  1
  Ni  Ni14  1  0.33333300  0.31359895  0.91666700  1
  Ni  Ni15  1  0.98026495  0.31359895  0.41666700  1
  Ni  Ni16  1  0.33333300  0.01973505  0.41666700  1
  Ni  Ni17  1  0.68640105  0.66666700  0.41666700  1
  Cu  Cu18  1  -0.00000000  -0.00000000  0.50000000  1
  Cu  Cu19  1  -0.00000000  -0.00000000  -0.00000000  1
  Cu  Cu20  1  0.66666700  0.33333300  0.83333300  1
  Cu  Cu21  1  0.66666700  0.33333300  0.33333300  1
  Cu  Cu22  1  0.33333300  0.66666700  0.16666700  1
  Cu  Cu23  1  0.33333300  0.66666700  0.66666700  1
  C  C24  1  0.29089758  -0.00000000  0.25000000  1
  C  C25  1  0.70910242  0.70910242  0.25000000  1
  C  C26  1  0.00000000  0.29089758  0.25000000  1
  C  C27  1  0.29089758  0.29089758  0.75000000  1
  C  C28  1  1.00000000  0.70910242  0.75000000  1
  C  C29  1  0.70910242  -0.00000000  0.75000000  1
  C  C30  1  0.95756458  0.33333300  0.58333300  1
  C  C31  1  0.37576942  0.04243542  0.58333300  1
  C  C32  1  0.66666700  0.62423058  0.58333300  1
  C  C33  1  0.95756458  0.62423058  0.08333300  1
  C  C34  1  0.66666700  0.04243542  0.08333300  1
  C  C35  1  0.37576942  0.33333300  0.08333300  1
  C  C36  1  0.62423058  0.66666700  0.91666700  1
  C  C37  1  0.04243542  0.37576942  0.91666700  1
  C  C38  1  0.33333300  0.95756458  0.91666700  1
  C  C39  1  0.62423058  0.95756458  0.41666700  1
  C  C40  1  0.33333300  0.37576942  0.41666700  1
  C  C41  1  0.04243542  0.66666700  0.41666700  1
  C  C42  1  -0.00000000  -0.00000000  0.35135084  1
  C  C43  1  -0.00000000  -0.00000000  0.85135084  1
  C  C44  1  -0.00000000  -0.00000000  0.64864916  1
  C  C45  1  -0.00000000  -0.00000000  0.14864916  1
  C  C46  1  0.66666700  0.33333300  0.68468384  1
  C  C47  1  0.66666700  0.33333300  0.18468384  1
  C  C48  1  0.66666700  0.33333300  0.98198216  1
  C  C49  1  0.66666700  0.33333300  0.48198216  1
  C  C50  1  0.33333300  0.66666700  0.01801784  1
  C  C51  1  0.33333300  0.66666700  0.51801784  1
  C  C52  1  0.33333300  0.66666700  0.31531616  1
  C  C53  1  0.33333300  0.66666700  0.81531616  1
  C  C54  1  0.19820544  0.03411534  0.30915456  1
  C  C55  1  0.83590990  0.80179456  0.30915456  1
  C  C56  1  0.96588466  0.16409010  0.30915456  1
  C  C57  1  0.19820544  0.16409010  0.80915456  1
  C  C58  1  0.96588466  0.80179456  0.80915456  1
  C  C59  1  0.83590990  0.03411534  0.80915456  1
  C  C60  1  0.80179456  0.96588466  0.69084544  1
  C  C61  1  0.16409010  0.19820544  0.69084544  1
  C  C62  1  0.03411534  0.83590990  0.69084544  1
  C  C63  1  0.80179456  0.83590990  0.19084544  1
  C  C64  1  0.03411534  0.19820544  0.19084544  1
  C  C65  1  0.16409010  0.96588466  0.19084544  1
  C  C66  1  0.86487244  0.36744834  0.64248756  1
  C  C67  1  0.50257690  0.13512756  0.64248756  1
  C  C68  1  0.63255166  0.49742310  0.64248756  1
  C  C69  1  0.86487244  0.49742310  0.14248756  1
  C  C70  1  0.63255166  0.13512756  0.14248756  1
  C  C71  1  0.50257690  0.36744834  0.14248756  1
  C  C72  1  0.46846156  0.29921766  0.02417844  1
  C  C73  1  0.83075710  0.53153844  0.02417844  1
  C  C74  1  0.70078234  0.16924290  0.02417844  1
  C  C75  1  0.46846156  0.16924290  0.52417844  1
  C  C76  1  0.70078234  0.53153844  0.52417844  1
  C  C77  1  0.83075710  0.29921766  0.52417844  1
  C  C78  1  0.53153844  0.70078234  0.97582156  1
  C  C79  1  0.16924290  0.46846156  0.97582156  1
  C  C80  1  0.29921766  0.83075710  0.97582156  1
  C  C81  1  0.53153844  0.83075710  0.47582156  1
  C  C82  1  0.29921766  0.46846156  0.47582156  1
  C  C83  1  0.16924290  0.70078234  0.47582156  1
  C  C84  1  0.13512756  0.63255166  0.35751244  1
  C  C85  1  0.49742310  0.86487244  0.35751244  1
  C  C86  1  0.36744834  0.50257690  0.35751244  1
  C  C87  1  0.13512756  0.50257690  0.85751244  1
  C  C88  1  0.36744834  0.86487244  0.85751244  1
  C  C89  1  0.49742310  0.63255166  0.85751244  1
  C  C90  1  0.01744362  0.83570616  0.40980640  1
  C  C91  1  0.81826254  0.98255638  0.40980640  1
  C  C92  1  0.16429384  0.18173746  0.40980640  1
  C  C93  1  0.01744362  0.18173746  0.90980640  1
  C  C94  1  0.16429384  0.98255638  0.90980640  1
  C  C95  1  0.81826254  0.83570616  0.90980640  1
  C  C96  1  0.98255638  0.16429384  0.59019360  1
  C  C97  1  0.18173746  0.01744362  0.59019360  1
  C  C98  1  0.83570616  0.81826254  0.59019360  1
  C  C99  1  0.98255638  0.81826254  0.09019360  1
  C  C100  1  0.83570616  0.01744362  0.09019360  1
  C  C101  1  0.18173746  0.16429384  0.09019360  1
  C  C102  1  0.68411062  0.16903916  0.74313940  1
  C  C103  1  0.48492954  0.31588938  0.74313940  1
  C  C104  1  0.83096084  0.51507046  0.74313940  1
  C  C105  1  0.68411062  0.51507046  0.24313940  1
  C  C106  1  0.83096084  0.31588938  0.24313940  1
  C  C107  1  0.48492954  0.16903916  0.24313940  1
  C  C108  1  0.64922338  0.49762684  0.92352660  1
  C  C109  1  0.84840446  0.35077662  0.92352660  1
  C  C110  1  0.50237316  0.15159554  0.92352660  1
  C  C111  1  0.64922338  0.15159554  0.42352660  1
  C  C112  1  0.50237316  0.35077662  0.42352660  1
  C  C113  1  0.84840446  0.49762684  0.42352660  1
  C  C114  1  0.35077662  0.50237316  0.07647340  1
  C  C115  1  0.15159554  0.64922338  0.07647340  1
  C  C116  1  0.49762684  0.84840446  0.07647340  1
  C  C117  1  0.35077662  0.84840446  0.57647340  1
  C  C118  1  0.49762684  0.64922338  0.57647340  1
  C  C119  1  0.15159554  0.50237316  0.57647340  1
  C  C120  1  0.31588938  0.83096084  0.25686060  1
  C  C121  1  0.51507046  0.68411062  0.25686060  1
  C  C122  1  0.16903916  0.48492954  0.25686060  1
  C  C123  1  0.31588938  0.48492954  0.75686060  1
  C  C124  1  0.16903916  0.68411062  0.75686060  1
  C  C125  1  0.51507046  0.83096084  0.75686060  1
