# generated using pymatgen
data_Cu2NiC15
_symmetry_space_group_name_H-M   'P 1'
_cell_length_a   8.96844215
_cell_length_b   8.94829092
_cell_length_c   23.43641892
_cell_angle_alpha   89.76779233
_cell_angle_beta   89.98653836
_cell_angle_gamma   119.99614638
_symmetry_Int_Tables_number   1
_chemical_formula_structural   Cu2NiC15
_chemical_formula_sum   'Cu12 Ni6 C90'
_cell_volume   1628.88643376
_cell_formula_units_Z   6
loop_
 _symmetry_equiv_pos_site_id
 _symmetry_equiv_pos_as_xyz
  1  'x, y, z'
loop_
 _atom_site_type_symbol
 _atom_site_label
 _atom_site_symmetry_multiplicity
 _atom_site_fract_x
 _atom_site_fract_y
 _atom_site_fract_z
 _atom_site_occupancy
  C  C0  1  0.98438687  0.98776620  0.50759636  1
  C  C1  1  0.01938049  0.01506768  0.00111715  1
  C  C2  1  0.67071484  0.31966355  0.83506640  1
  C  C3  1  0.66482148  0.32176104  0.33490539  1
  C  C4  1  0.33461199  0.66049120  0.16538835  1
  C  C5  1  0.35025043  0.67336121  0.67012002  1
  C  C6  1  0.97746694  0.98350865  0.64812561  1
  C  C7  1  0.01002489  0.00849803  0.14592014  1
  C  C8  1  0.33997058  0.67797073  0.31595886  1
  C  C9  1  0.99010642  0.99909373  0.35352242  1
  C  C10  1  0.99929991  0.01443160  0.85431725  1
  C  C11  1  0.66517077  0.33456522  0.68840163  1
  C  C12  1  0.65686464  0.33461091  0.18340695  1
  C  C13  1  0.65293787  0.31948706  0.97797424  1
  C  C14  1  0.67035294  0.33624888  0.48223752  1
  C  C15  1  0.32111721  0.65390586  0.01789547  1
  C  C16  1  0.35558980  0.67579100  0.52096050  1
  C  C17  1  0.33404415  0.68008021  0.81485984  1
  Ni  Ni18  1  0.70915456  0.99669347  0.74720245  1
  Ni  Ni19  1  0.67865796  0.63313247  0.58419726  1
  Ni  Ni20  1  0.36360440  0.32976056  0.08264488  1
  Ni  Ni21  1  0.03927284  0.37750798  0.91549096  1
  Ni  Ni22  1  0.32618586  0.95480038  0.91779973  1
  Ni  Ni23  1  0.61925380  0.95962496  0.41300800  1
  Cu  Cu24  1  0.28705760  0.99427753  0.24931549  1
  Cu  Cu25  1  0.70836442  0.71163401  0.24842796  1
  Cu  Cu26  1  0.00480035  0.29518786  0.24921350  1
  Cu  Cu27  1  0.28641671  0.28838383  0.74749146  1
  Cu  Cu28  1  0.00086352  0.71384133  0.74841596  1
  Cu  Cu29  1  0.95986854  0.33232951  0.58370402  1
  Cu  Cu30  1  0.37127066  0.04332246  0.58407938  1
  Cu  Cu31  1  0.95588602  0.62790647  0.08424005  1
  Cu  Cu32  1  0.66999558  0.04092130  0.08473495  1
  Cu  Cu33  1  0.62380138  0.66709579  0.91660249  1
  Cu  Cu34  1  0.33321681  0.37801298  0.41479760  1
  Cu  Cu35  1  0.04657925  0.66646064  0.41501647  1
  C  C36  1  0.21016696  0.02539974  0.30165366  1
  C  C37  1  0.81714567  0.79195980  0.30116384  1
  C  C38  1  0.97649051  0.18360234  0.30201865  1
  C  C39  1  0.21260782  0.18402843  0.80055232  1
  C  C40  1  0.97516075  0.78793894  0.80085969  1
  C  C41  1  0.82360812  0.02559178  0.80586881  1
  C  C42  1  0.79630026  0.97276376  0.69215805  1
  C  C43  1  0.18579077  0.20634977  0.69669396  1
  C  C44  1  0.02896986  0.81737959  0.69720246  1
  C  C45  1  0.79343435  0.81704013  0.19820914  1
  C  C46  1  0.02525539  0.20990416  0.19915937  1
  C  C47  1  0.18360234  0.97613810  0.19879646  1
  C  C48  1  0.87658689  0.35879439  0.63407781  1
  C  C49  1  0.48329652  0.11942137  0.63443573  1
  C  C50  1  0.64134562  0.50313928  0.63839190  1
  C  C51  1  0.87425440  0.51408358  0.13626541  1
  C  C52  1  0.64513896  0.12889152  0.13590605  1
  C  C53  1  0.49362384  0.35937474  0.13945010  1
  C  C54  1  0.47124468  0.31192350  0.02906974  1
  C  C55  1  0.85384255  0.54491117  0.03313851  1
  C  C56  1  0.69758136  0.14920329  0.03320332  1
  C  C57  1  0.45773078  0.14750164  0.53165432  1
  C  C58  1  0.68753420  0.52749055  0.52712283  1
  C  C59  1  0.85015639  0.30613446  0.53166077  1
  C  C60  1  0.54567114  0.69415105  0.96836169  1
  C  C61  1  0.15965395  0.46088041  0.97261721  1
  C  C62  1  0.30938100  0.84162198  0.97456167  1
  C  C63  1  0.53745264  0.84183649  0.47188638  1
  C  C64  1  0.30236426  0.45202124  0.46730048  1
  C  C65  1  0.14676435  0.69132342  0.46748627  1
  C  C66  1  0.12206344  0.63799561  0.36393016  1
  C  C67  1  0.50674582  0.87088254  0.35847883  1
  C  C68  1  0.35714148  0.48182536  0.36379837  1
  C  C69  1  0.13390433  0.49151546  0.85931505  1
  C  C70  1  0.36488592  0.87206335  0.86143920  1
  C  C71  1  0.51828580  0.63863271  0.86526360  1
  C  C72  1  0.02638036  0.82319895  0.40798770  1
  C  C73  1  0.81644440  0.98006991  0.40756230  1
  C  C74  1  0.17952850  0.20013859  0.40872673  1
  C  C75  1  0.01936506  0.18570254  0.91159714  1
  C  C76  1  0.15601556  0.97053467  0.90874956  1
  C  C77  1  0.79676449  0.81980985  0.91030200  1
  C  C78  1  0.98251505  0.18243733  0.58893128  1
  C  C79  1  0.20368693  0.02985052  0.59048824  1
  C  C80  1  0.84614475  0.81928140  0.58570187  1
  C  C81  1  0.97089152  0.79660935  0.09303630  1
  C  C82  1  0.82128964  0.02179955  0.09297396  1
  C  C83  1  0.18003979  0.16003466  0.09024355  1
  C  C84  1  0.68505046  0.17043164  0.74203631  1
  C  C85  1  0.46369601  0.30774904  0.74343276  1
  C  C86  1  0.84453177  0.53594189  0.74281375  1
  C  C87  1  0.69664173  0.53646714  0.24466356  1
  C  C88  1  0.84552356  0.30980487  0.24491932  1
  C  C89  1  0.46570600  0.15380405  0.24383597  1
  C  C90  1  0.64345216  0.51287011  0.92338295  1
  C  C91  1  0.85283993  0.36210441  0.92532312  1
  C  C92  1  0.49907696  0.14697935  0.92254968  1
  C  C93  1  0.65007327  0.15426206  0.42465786  1
  C  C94  1  0.48698230  0.35675418  0.42275503  1
  C  C95  1  0.86855801  0.51387718  0.42209199  1
  C  C96  1  0.36090109  0.51194627  0.07969573  1
  C  C97  1  0.12983096  0.64396838  0.08039278  1
  C  C98  1  0.51129622  0.87225592  0.07960380  1
  C  C99  1  0.35162648  0.86732538  0.57640376  1
  C  C100  1  0.49527823  0.64005492  0.57693865  1
  C  C101  1  0.12841867  0.49306075  0.57503741  1
  C  C102  1  0.30711250  0.84173284  0.25618981  1
  C  C103  1  0.53464053  0.68609396  0.25644480  1
  C  C104  1  0.15699583  0.46619861  0.25834366  1
  C  C105  1  0.30924214  0.46298314  0.75483358  1
  C  C106  1  0.15237007  0.68682168  0.75427412  1
  C  C107  1  0.51454349  0.82613299  0.75577045  1
