# generated using pymatgen
data_Cu3Ni2C15
_symmetry_space_group_name_H-M   'P 1'
_cell_length_a   8.90902600
_cell_length_b   8.77270500
_cell_length_c   15.61539647
_cell_angle_alpha   57.40950034
_cell_angle_beta   90.00000000
_cell_angle_gamma   90.00000000
_symmetry_Int_Tables_number   1
_chemical_formula_structural   Cu3Ni2C15
_chemical_formula_sum   'Cu12 Ni8 C60'
_cell_volume   1028.27240759
_cell_formula_units_Z   4
loop_
 _symmetry_equiv_pos_site_id
 _symmetry_equiv_pos_as_xyz
  1  'x, y, z'
loop_
 _atom_site_type_symbol
 _atom_site_label
 _atom_site_symmetry_multiplicity
 _atom_site_fract_x
 _atom_site_fract_y
 _atom_site_fract_z
 _atom_site_occupancy
  C  C0  1  0.88976200  0.39674300  0.68933200  1
  C  C1  1  0.27443400  0.39940100  0.74612700  1
  C  C2  1  0.22325900  0.02276700  0.16331500  1
  C  C3  1  0.72325900  0.97723300  0.33668500  1
  C  C4  1  0.77443400  0.60059900  0.75387300  1
  C  C5  1  0.38976200  0.60325700  0.81066800  1
  C  C6  1  0.61023800  0.39674300  0.18933200  1
  C  C7  1  0.22556600  0.39940100  0.24612700  1
  C  C8  1  0.27674100  0.02276700  0.66331500  1
  C  C9  1  0.77674100  0.97723300  0.83668500  1
  C  C10  1  0.72556600  0.60059900  0.25387300  1
  C  C11  1  0.11023800  0.60325700  0.31066800  1
  Ni  Ni12  1  0.97012500  0.30095100  0.92839400  1
  Ni  Ni13  1  0.05599600  0.84837100  0.40287600  1
  Ni  Ni14  1  0.55599600  0.15162900  0.09712400  1
  Ni  Ni15  1  0.47012500  0.69904900  0.57160600  1
  Ni  Ni16  1  0.52987500  0.30095100  0.42839400  1
  Ni  Ni17  1  0.44400400  0.84837100  0.90287600  1
  Ni  Ni18  1  0.94400400  0.15162900  0.59712400  1
  Ni  Ni19  1  0.02987500  0.69904900  0.07160600  1
  Cu  Cu20  1  0.76135300  0.56142100  0.48404800  1
  Cu  Cu21  1  0.59173700  0.25437200  0.85302700  1
  Cu  Cu22  1  0.90081800  0.94079200  0.17299000  1
  Cu  Cu23  1  0.09173700  0.74562800  0.64697300  1
  Cu  Cu24  1  0.40081800  0.05920800  0.32701000  1
  Cu  Cu25  1  0.26135300  0.43857900  0.01595200  1
  Cu  Cu26  1  0.73864700  0.56142100  0.98404800  1
  Cu  Cu27  1  0.59918200  0.94079200  0.67299000  1
  Cu  Cu28  1  0.90826300  0.25437200  0.35302700  1
  Cu  Cu29  1  0.09918200  0.05920800  0.82701000  1
  Cu  Cu30  1  0.40826300  0.74562800  0.14697300  1
  Cu  Cu31  1  0.23864700  0.43857900  0.51595200  1
  C  C32  1  0.12792900  0.59495300  0.44142300  1
  C  C33  1  0.14985200  0.20189300  0.84882700  1
  C  C34  1  0.27944700  0.44625900  0.60802700  1
  C  C35  1  0.44098600  0.91139700  0.15853600  1
  C  C36  1  0.62734900  0.53906700  0.55166100  1
  C  C37  1  0.99552600  0.84299900  0.27375800  1
  C  C38  1  0.73360300  0.34242600  0.78979700  1
  C  C39  1  0.63259800  0.16904100  0.96933900  1
  C  C40  1  0.01337100  0.07959600  0.09338700  1
  C  C41  1  0.45955300  0.38448100  0.81883400  1
  C  C42  1  0.83867300  0.74726900  0.45052400  1
  C  C43  1  0.75736100  0.03284300  0.18572600  1
  C  C44  1  0.25736100  0.96715700  0.31427400  1
  C  C45  1  0.95955300  0.61551900  0.68116600  1
  C  C46  1  0.33867300  0.25273100  0.04947600  1
  C  C47  1  0.51337100  0.92040400  0.40661300  1
  C  C48  1  0.13259800  0.83095900  0.53066100  1
  C  C49  1  0.23360300  0.65757400  0.71020300  1
  C  C50  1  0.49552600  0.15700100  0.22624200  1
  C  C51  1  0.12734900  0.46093300  0.94833900  1
  C  C52  1  0.77944700  0.55374100  0.89197300  1
  C  C53  1  0.94098600  0.08860300  0.34146400  1
  C  C54  1  0.64985200  0.79810700  0.65117300  1
  C  C55  1  0.62792900  0.40504700  0.05857700  1
  C  C56  1  0.37207100  0.59495300  0.94142300  1
  C  C57  1  0.35014800  0.20189300  0.34882700  1
  C  C58  1  0.05901400  0.91139700  0.65853600  1
  C  C59  1  0.22055300  0.44625900  0.10802700  1
  C  C60  1  0.87265100  0.53906700  0.05166100  1
  C  C61  1  0.50447400  0.84299900  0.77375800  1
  C  C62  1  0.76639700  0.34242600  0.28979700  1
  C  C63  1  0.86740200  0.16904100  0.46933900  1
  C  C64  1  0.48662900  0.07959600  0.59338700  1
  C  C65  1  0.66132700  0.74726900  0.95052400  1
  C  C66  1  0.04044700  0.38448100  0.31883400  1
  C  C67  1  0.74263900  0.03284300  0.68572600  1
  C  C68  1  0.24263900  0.96715700  0.81427400  1
  C  C69  1  0.16132700  0.25273100  0.54947600  1
  C  C70  1  0.54044700  0.61551900  0.18116600  1
  C  C71  1  0.98662900  0.92040400  0.90661300  1
  C  C72  1  0.36740200  0.83095900  0.03066100  1
  C  C73  1  0.26639700  0.65757400  0.21020300  1
  C  C74  1  0.00447400  0.15700100  0.72624200  1
  C  C75  1  0.37265100  0.46093300  0.44833900  1
  C  C76  1  0.55901400  0.08860300  0.84146400  1
  C  C77  1  0.72055300  0.55374100  0.39197300  1
  C  C78  1  0.85014800  0.79810700  0.15117300  1
  C  C79  1  0.87207100  0.40504700  0.55857700  1
