# generated using pymatgen
data_CuNiC6
_symmetry_space_group_name_H-M   'P 1'
_cell_length_a   11.20678510
_cell_length_b   11.20678543
_cell_length_c   11.20678455
_cell_angle_alpha   16.46852097
_cell_angle_beta   16.46851876
_cell_angle_gamma   16.46851628
_symmetry_Int_Tables_number   1
_chemical_formula_structural   CuNiC6
_chemical_formula_sum   'Cu1 Ni1 C6'
_cell_volume   98.63338168
_cell_formula_units_Z   1
loop_
 _symmetry_equiv_pos_site_id
 _symmetry_equiv_pos_as_xyz
  1  'x, y, z'
loop_
 _atom_site_type_symbol
 _atom_site_label
 _atom_site_symmetry_multiplicity
 _atom_site_fract_x
 _atom_site_fract_y
 _atom_site_fract_z
 _atom_site_occupancy
  Ni  Ni0  1  0.50001560  0.50001560  0.50001560  1
  Cu  Cu1  1  -0.00000561  -0.00000561  -0.00000561  1
  C  C2  1  0.76251997  0.76252097  0.76252197  1
  C  C3  1  0.23745055  0.23744955  0.23745055  1
  C  C4  1  0.70193081  0.70193081  0.70192981  1
  C  C5  1  0.29806793  0.29806693  0.29806893  1
  C  C6  1  0.86823941  0.86824141  0.86823941  1
  C  C7  1  0.13177733  0.13178133  0.13177933  1
