# generated using pymatgen
data_Cu3Ni3C
_symmetry_space_group_name_H-M   'P 1'
_cell_length_a   6.93714931
_cell_length_b   7.63892654
_cell_length_c   12.83889637
_cell_angle_alpha   90.00000000
_cell_angle_beta   90.00000000
_cell_angle_gamma   90.00000000
_symmetry_Int_Tables_number   1
_chemical_formula_structural   Cu3Ni3C
_chemical_formula_sum   'Cu12 Ni12 C4'
_cell_volume   680.36359788
_cell_formula_units_Z   4
loop_
 _symmetry_equiv_pos_site_id
 _symmetry_equiv_pos_as_xyz
  1  'x, y, z'
loop_
 _atom_site_type_symbol
 _atom_site_label
 _atom_site_symmetry_multiplicity
 _atom_site_fract_x
 _atom_site_fract_y
 _atom_site_fract_z
 _atom_site_occupancy
  C  C0  1  0.24417202  0.74991241  0.83858322  1
  C  C1  1  0.74417202  0.25008759  0.33858322  1
  C  C2  1  0.74417202  0.25008759  0.66141678  1
  C  C3  1  0.24417202  0.74991241  0.16141678  1
  Ni  Ni4  1  0.36736840  0.11797208  0.82577650  1
  Ni  Ni5  1  0.61616811  0.62179142  -0.00000000  1
  Ni  Ni6  1  0.86736840  0.88202792  0.67422350  1
  Ni  Ni7  1  0.62063687  0.61824185  0.67435327  1
  Ni  Ni8  1  0.87262008  0.87766148  -0.00000000  1
  Ni  Ni9  1  0.11616811  0.37820858  0.50000000  1
  Ni  Ni10  1  0.62063687  0.61824185  0.32564673  1
  Ni  Ni11  1  0.37262008  0.12233852  0.50000000  1
  Ni  Ni12  1  0.86736840  0.88202792  0.32577650  1
  Ni  Ni13  1  0.36736840  0.11797208  0.17422350  1
  Ni  Ni14  1  0.12063687  0.38175815  0.82564673  1
  Ni  Ni15  1  0.12063687  0.38175815  0.17435327  1
  Cu  Cu16  1  0.00852032  0.56658149  0.33685892  1
  Cu  Cu17  1  0.50852032  0.43341851  0.16314108  1
  Cu  Cu18  1  0.97964461  0.06635839  0.16312767  1
  Cu  Cu19  1  0.00852032  0.56658149  0.66314108  1
  Cu  Cu20  1  0.99623589  0.55113062  -0.00000000  1
  Cu  Cu21  1  0.50852032  0.43341851  0.83685892  1
  Cu  Cu22  1  0.47964461  0.93364161  0.33687233  1
  Cu  Cu23  1  0.47964461  0.93364161  0.66312767  1
  Cu  Cu24  1  0.99229149  0.05160287  0.50000000  1
  Cu  Cu25  1  0.49229149  0.94839713  -0.00000000  1
  Cu  Cu26  1  0.97964461  0.06635839  0.83687233  1
  Cu  Cu27  1  0.49623589  0.44886938  0.50000000  1
