# generated using pymatgen
data_CuNiC11
_symmetry_space_group_name_H-M   'P 1'
_cell_length_a   8.87107538
_cell_length_b   8.87886487
_cell_length_c   22.19487832
_cell_angle_alpha   89.29107440
_cell_angle_beta   90.66352975
_cell_angle_gamma   119.66621556
_symmetry_Int_Tables_number   1
_chemical_formula_structural   CuNiC11
_chemical_formula_sum   'Cu9 Ni9 C99'
_cell_volume   1518.88965021
_cell_formula_units_Z   9
loop_
 _symmetry_equiv_pos_site_id
 _symmetry_equiv_pos_as_xyz
  1  'x, y, z'
loop_
 _atom_site_type_symbol
 _atom_site_label
 _atom_site_symmetry_multiplicity
 _atom_site_fract_x
 _atom_site_fract_y
 _atom_site_fract_z
 _atom_site_occupancy
  C  C0  1  0.98995193  0.62552128  0.24517887  1
  C  C1  1  0.37271176  0.01010916  0.74556834  1
  C  C2  1  0.03867303  0.69750143  0.57835001  1
  C  C3  1  0.64904055  0.95704957  0.58066144  1
  C  C4  1  0.30090926  0.96049482  0.07808258  1
  C  C5  1  0.04052514  0.35016553  0.08195196  1
  C  C6  1  0.97380520  0.67517235  0.91558016  1
  C  C7  1  0.96982590  0.29440135  0.41007083  1
  C  C8  1  0.32876444  0.02735535  0.41492265  1
  C  C9  1  0.99437743  0.99084433  0.49275868  1
  C  C10  1  0.99375503  0.00197160  0.99108142  1
  C  C11  1  0.67070896  0.32993939  0.82584669  1
  C  C12  1  0.65960539  0.32944254  0.32459411  1
  C  C13  1  0.35216056  0.66051627  0.16044055  1
  C  C14  1  0.33750984  0.64559042  0.66014825  1
  C  C15  1  0.99684047  -0.00039579  0.64604873  1
  C  C16  1  0.99980158  0.00230592  0.14543682  1
  C  C17  1  0.65821943  0.32998245  0.97776298  1
  C  C18  1  0.66684405  0.33952587  0.47866206  1
  C  C19  1  0.33432042  0.66730157  0.31149369  1
  C  C20  1  0.33898819  0.66975119  0.81142206  1
  C  C21  1  0.98480371  0.99055578  0.35228958  1
  C  C22  1  0.00442009  0.00980913  0.85244348  1
  C  C23  1  0.66687073  0.33001796  0.68537068  1
  C  C24  1  0.67002542  0.33297073  0.18479748  1
  C  C25  1  0.33073660  0.66423399  0.01847049  1
  C  C26  1  0.34200713  0.67505539  0.51901674  1
  Ni  Ni27  1  0.99149864  0.28636186  0.25239360  1
  Ni  Ni28  1  0.71750216  0.01115117  0.75250500  1
  Ni  Ni29  1  0.37676603  0.04264047  0.58561150  1
  Ni  Ni30  1  0.65481729  0.61338677  0.58700898  1
  Ni  Ni31  1  0.95669721  0.62174519  0.08432672  1
  Ni  Ni32  1  0.38640629  0.34500986  0.08618598  1
  Ni  Ni33  1  0.32783869  0.95673416  0.91718781  1
  Ni  Ni34  1  0.62913629  0.95393632  0.41942452  1
  Ni  Ni35  1  0.04531912  0.67344098  0.41756340  1
  Cu  Cu36  1  0.29517589  0.00944314  0.25277635  1
  Cu  Cu37  1  0.71074497  0.70887741  0.25107152  1
  Cu  Cu38  1  0.28926349  0.28755062  0.75214000  1
  Cu  Cu39  1  0.99069369  0.70266708  0.75317637  1
  Cu  Cu40  1  0.95866846  0.33741610  0.58434297  1
  Cu  Cu41  1  0.66218933  0.04276238  0.08441847  1
  Cu  Cu42  1  0.62236924  0.67243351  0.91918548  1
  Cu  Cu43  1  0.04630635  0.37269303  0.91849213  1
  Cu  Cu44  1  0.33328044  0.38278516  0.41865947  1
  C  C45  1  0.20756941  0.02477540  0.30902699  1
  C  C46  1  0.82710404  0.79073860  0.30610755  1
  C  C47  1  0.97659970  0.17683702  0.31235389  1
  C  C48  1  0.20790050  0.17022983  0.80678876  1
  C  C49  1  0.97533848  0.78922681  0.80962738  1
  C  C50  1  0.83424073  0.02840258  0.80961414  1
  C  C51  1  0.80225667  0.97926725  0.69047327  1
  C  C52  1  0.17217355  0.19762864  0.69513288  1
  C  C53  1  0.02820893  0.82694219  0.69625466  1
  C  C54  1  0.80167387  0.82563056  0.19430723  1
  C  C55  1  0.01838001  0.19350551  0.19162755  1
  C  C56  1  0.17291386  0.97372226  0.19560775  1
  C  C57  1  0.87447646  0.36747371  0.63851371  1
  C  C58  1  0.49797573  0.12394714  0.64402838  1
  C  C59  1  0.64093756  0.50119960  0.64481499  1
  C  C60  1  0.87675196  0.50096202  0.14323052  1
  C  C61  1  0.63072332  0.12294041  0.13958972  1
  C  C62  1  0.49930188  0.36213828  0.14423750  1
  C  C63  1  0.47011664  0.29788300  0.02671942  1
  C  C64  1  0.83698643  0.52868494  0.02346936  1
  C  C65  1  0.69977275  0.16412582  0.02794107  1
  C  C66  1  0.47091340  0.16363143  0.52455684  1
  C  C67  1  0.70179444  0.53087530  0.52716573  1
  C  C68  1  0.84118379  0.30115131  0.52618777  1
  C  C69  1  0.53318757  0.69097693  0.97398187  1
  C  C70  1  0.14579993  0.45274123  0.97694644  1
  C  C71  1  0.29498111  0.83629587  0.97647720  1
  C  C72  1  0.54630440  0.84927349  0.48058997  1
  C  C73  1  0.30116042  0.46666381  0.47247940  1
  C  C74  1  0.16193206  0.70213503  0.47717832  1
  C  C75  1  0.13522403  0.63437349  0.35797429  1
  C  C76  1  0.49701430  0.85775005  0.36115288  1
  C  C77  1  0.36076583  0.49439899  0.36059765  1
  C  C78  1  0.13911958  0.49574678  0.86358002  1
  C  C79  1  0.35456827  0.85888162  0.85757731  1
  C  C80  1  0.50788169  0.64240353  0.86141949  1
  C  C81  1  0.03296855  0.84750797  0.40858227  1
  C  C82  1  0.82512274  0.99061814  0.41277346  1
  C  C83  1  0.18046282  0.19785327  0.41222106  1
  C  C84  1  0.02218563  0.19220192  0.91197955  1
  C  C85  1  0.15355652  0.97227023  0.90948957  1
  C  C86  1  0.80678006  0.82353818  0.91274411  1
  C  C87  1  0.96658050  0.16538624  0.58917046  1
  C  C88  1  0.18183700  0.02446945  0.58987833  1
  C  C89  1  0.83664025  0.81113111  0.59132223  1
  C  C90  1  0.97642709  0.81730656  0.08980374  1
  C  C91  1  0.83434377  0.03401416  0.08907642  1
  C  C92  1  0.18879598  0.16341461  0.09103905  1
  C  C93  1  0.68082470  0.17215683  0.74644670  1
  C  C94  1  0.46981382  0.30935057  0.74520648  1
  C  C95  1  0.83752498  0.52370364  0.74485398  1
  C  C96  1  0.69047875  0.52901972  0.24468147  1
  C  C97  1  0.82630387  0.31758669  0.24646914  1
  C  C98  1  0.47471028  0.16224103  0.24474795  1
  C  C99  1  0.63884035  0.50220977  0.92220761  1
  C  C100  1  0.86492760  0.36741525  0.92059734  1
  C  C101  1  0.50718399  0.14683454  0.92138284  1
  C  C102  1  0.63822635  0.14796805  0.42141055  1
  C  C103  1  0.50168213  0.36757716  0.42239633  1
  C  C104  1  0.85621997  0.49186308  0.42180840  1
  C  C105  1  0.34955801  0.50376464  0.07677047  1
  C  C106  1  0.15324076  0.65215480  0.07831944  1
  C  C107  1  0.50583458  0.86329802  0.07569714  1
  C  C108  1  0.34511001  0.84641874  0.57999007  1
  C  C109  1  0.49309196  0.64567162  0.57906479  1
  C  C110  1  0.13771633  0.49388388  0.57598875  1
  C  C111  1  0.30127493  0.83351652  0.25508943  1
  C  C112  1  0.53146273  0.69967387  0.25537159  1
  C  C113  1  0.17038716  0.48391348  0.25495934  1
  C  C114  1  0.29813397  0.46697101  0.75703149  1
  C  C115  1  0.16545185  0.69388349  0.75575547  1
  C  C116  1  0.51885791  0.83015957  0.75675252  1
