# generated using pymatgen
data_Cu2NiC14
_symmetry_space_group_name_H-M   'P 1'
_cell_length_a   9.12679696
_cell_length_b   9.14803190
_cell_length_c   22.93503669
_cell_angle_alpha   89.90657499
_cell_angle_beta   90.00000000
_cell_angle_gamma   119.92324306
_symmetry_Int_Tables_number   1
_chemical_formula_structural   Cu2NiC14
_chemical_formula_sum   'Cu12 Ni6 C84'
_cell_volume   1659.62798448
_cell_formula_units_Z   6
loop_
 _symmetry_equiv_pos_site_id
 _symmetry_equiv_pos_as_xyz
  1  'x, y, z'
loop_
 _atom_site_type_symbol
 _atom_site_label
 _atom_site_symmetry_multiplicity
 _atom_site_fract_x
 _atom_site_fract_y
 _atom_site_fract_z
 _atom_site_occupancy
  C  C0  1  0.99460980  0.00993129  0.36408356  1
  C  C1  1  0.01532149  0.00993129  0.86408356  1
  C  C2  1  0.67001952  0.33383736  0.69763631  1
  C  C3  1  0.66381884  0.33383736  0.19763631  1
  C  C4  1  0.32934215  0.66897689  0.03117376  1
  C  C5  1  0.33963374  0.66897689  0.53117376  1
  C  C6  1  0.00281689  0.01438811  0.64417914  1
  C  C7  1  0.01157122  0.01438811  0.14417914  1
  C  C8  1  0.65435433  0.32714679  0.97745932  1
  C  C9  1  0.67279346  0.32714679  0.47745932  1
  C  C10  1  0.33641627  0.66917667  0.31150770  1
  C  C11  1  0.33275940  0.66917667  0.81150770  1
  Ni  Ni12  1  0.02320309  0.29750304  0.25053333  1
  Ni  Ni13  1  0.27429995  0.29750304  0.75053333  1
  Ni  Ni14  1  0.94128373  0.31571822  0.58441482  1
  Ni  Ni15  1  0.37443549  0.31571822  0.08441482  1
  Ni  Ni16  1  0.35604732  0.95828493  0.91766981  1
  Ni  Ni17  1  0.60223662  0.95828493  0.41766981  1
  Cu  Cu18  1  0.26642863  0.96821946  0.24998671  1
  Cu  Cu19  1  0.70607934  0.72951624  0.25062743  1
  Cu  Cu20  1  0.02343690  0.72951624  0.75062743  1
  Cu  Cu21  1  0.70179083  0.96821946  0.74998671  1
  Cu  Cu22  1  0.36944138  0.06518935  0.58224075  1
  Cu  Cu23  1  0.69639384  0.62953800  0.58402340  1
  Cu  Cu24  1  0.93314516  0.62953800  0.08402340  1
  Cu  Cu25  1  0.69574897  0.06518935  0.08224075  1
  Cu  Cu26  1  0.60322866  0.64238977  0.91567236  1
  Cu  Cu27  1  0.03648664  0.40155613  0.91608419  1
  Cu  Cu28  1  0.36506850  0.40155613  0.41608419  1
  Cu  Cu29  1  0.03916010  0.64238977  0.41567236  1
  C  C30  1  0.19787191  0.99968088  0.30215760  1
  C  C31  1  0.80980551  0.79754340  0.30243612  1
  C  C32  1  0.99460564  0.17836094  0.30446087  1
  C  C33  1  0.18375529  0.17836094  0.80446087  1
  C  C34  1  0.98773789  0.79754340  0.80243612  1
  C  C35  1  0.80180897  0.99968088  0.80215760  1
  C  C36  1  0.78549907  0.93845726  0.69762171  1
  C  C37  1  0.14219398  0.19277794  0.69218623  1
  C  C38  1  0.05043732  0.83629982  0.69791463  1
  C  C39  1  0.78586249  0.83629982  0.19791463  1
  C  C40  1  0.05058395  0.19277794  0.19218623  1
  C  C41  1  0.15295820  0.93845726  0.19762171  1
  C  C42  1  0.85378567  0.33958351  0.63986863  1
  C  C43  1  0.47131506  0.13530888  0.63418064  1
  C  C44  1  0.65912099  0.52148282  0.63493221  1
  C  C45  1  0.86236283  0.52148282  0.13493221  1
  C  C46  1  0.66399482  0.13530888  0.13418064  1
  C  C47  1  0.48579884  0.33958351  0.13986863  1
  C  C48  1  0.47683684  0.28776459  0.02621625  1
  C  C49  1  0.82939526  0.54830040  0.03037907  1
  C  C50  1  0.72920917  0.17995348  0.03006482  1
  C  C51  1  0.45074531  0.17995348  0.53006482  1
  C  C52  1  0.71890614  0.54830040  0.53037907  1
  C  C53  1  0.81092875  0.28776459  0.52621625  1
  C  C54  1  0.53242502  0.66931804  0.96838301  1
  C  C55  1  0.14774704  0.46569407  0.96639122  1
  C  C56  1  0.33709350  0.85148410  0.97413194  1
  C  C57  1  0.51438960  0.85148410  0.47413194  1
  C  C58  1  0.31794603  0.46569407  0.46639122  1
  C  C59  1  0.13689202  0.66931804  0.46838301  1
  C  C60  1  0.12142916  0.60825615  0.36375716  1
  C  C61  1  0.47472873  0.86114491  0.35992159  1
  C  C62  1  0.38950659  0.51275887  0.36320255  1
  C  C63  1  0.12325128  0.51275887  0.86320255  1
  C  C64  1  0.38641517  0.86114491  0.85992159  1
  C  C65  1  0.48682599  0.60825615  0.86375716  1
  C  C66  1  0.01230838  0.78288158  0.40318376  1
  C  C67  1  0.79099189  0.99713370  0.40929561  1
  C  C68  1  0.23776404  0.22693650  0.40397723  1
  C  C69  1  0.98917246  0.22693650  0.90397723  1
  C  C70  1  0.20614181  0.99713370  0.90929561  1
  C  C71  1  0.77057320  0.78288158  0.90318376  1
  C  C72  1  0.93719336  0.12809735  0.59368257  1
  C  C73  1  0.19812666  0.05357407  0.59000588  1
  C  C74  1  0.85913588  0.79229976  0.59401499  1
  C  C75  1  0.93316388  0.79229976  0.09401499  1
  C  C76  1  0.85544741  0.05357407  0.09000588  1
  C  C77  1  0.19090399  0.12809735  0.09368257  1
  C  C78  1  0.66413268  0.10264355  0.73864391  1
  C  C79  1  0.45963344  0.33387184  0.73680759  1
  C  C80  1  0.88909472  0.55567737  0.74173210  1
  C  C81  1  0.66658365  0.55567737  0.24173210  1
  C  C82  1  0.87423940  0.33387184  0.23680759  1
  C  C83  1  0.43851187  0.10264355  0.23864391  1
  C  C84  1  0.61749440  0.48402354  0.92276810  1
  C  C85  1  0.87880375  0.41029186  0.92628567  1
  C  C86  1  0.53893224  0.14789192  0.92749321  1
  C  C87  1  0.60896067  0.14789192  0.42749321  1
  C  C88  1  0.53148911  0.41029186  0.42628567  1
  C  C89  1  0.86653014  0.48402354  0.42276810  1
  C  C90  1  0.32859595  0.45702154  0.07018006  1
  C  C91  1  0.10778637  0.66808645  0.07516153  1
  C  C92  1  0.55884613  0.89445137  0.07172613  1
  C  C93  1  0.33560424  0.89445137  0.57172613  1
  C  C94  1  0.56029908  0.66808645  0.57516153  1
  C  C95  1  0.12842458  0.45702154  0.57018006  1
  C  C96  1  0.26990687  0.80410981  0.25708803  1
  C  C97  1  0.53807510  0.72532825  0.25973202  1
  C  C98  1  0.20238129  0.48013724  0.26272277  1
  C  C99  1  0.27775495  0.48013724  0.76272277  1
  C  C100  1  0.18725215  0.72532825  0.75973202  1
  C  C101  1  0.53420193  0.80410981  0.75708803  1
