# generated using pymatgen
data_Cu5NiC9
_symmetry_space_group_name_H-M   'P 1'
_cell_length_a   6.07454786
_cell_length_b   6.07454779
_cell_length_c   6.38679057
_cell_angle_alpha   62.72535159
_cell_angle_beta   89.36539679
_cell_angle_gamma   120.43400145
_symmetry_Int_Tables_number   1
_chemical_formula_structural   Cu5NiC9
_chemical_formula_sum   'Cu5 Ni1 C9'
_cell_volume   171.27282870
_cell_formula_units_Z   1
loop_
 _symmetry_equiv_pos_site_id
 _symmetry_equiv_pos_as_xyz
  1  'x, y, z'
loop_
 _atom_site_type_symbol
 _atom_site_label
 _atom_site_symmetry_multiplicity
 _atom_site_fract_x
 _atom_site_fract_y
 _atom_site_fract_z
 _atom_site_occupancy
  C  C0  1  0.62500000  0.75000000  0.62500000  1
  Ni  Ni1  1  0.12500000  0.25000000  0.62500000  1
  Cu  Cu2  1  0.62500000  0.25000000  0.12500000  1
  Cu  Cu3  1  0.99251100  0.90543100  0.10205900  1
  Cu  Cu4  1  0.62500000  0.25000000  0.62500000  1
  Cu  Cu5  1  0.25748900  0.59456900  0.14794100  1
  Cu  Cu6  1  0.12500000  0.75000000  0.62500000  1
  C  C7  1  0.86300000  0.26799200  0.36598800  1
  C  C8  1  0.36446400  0.23684200  0.39869200  1
  C  C9  1  0.88553600  0.26315800  0.85130800  1
  C  C10  1  0.86258400  0.68653000  0.45088600  1
  C  C11  1  0.88398000  0.72898700  0.88401200  1
  C  C12  1  0.38700000  0.23200800  0.88401200  1
  C  C13  1  0.36602000  0.77101300  0.36598800  1
  C  C14  1  0.38741600  0.81347000  0.79911400  1
