# generated using pymatgen
data_Cu5(NiC)7
_symmetry_space_group_name_H-M   'P 1'
_cell_length_a   4.90584283
_cell_length_b   5.03021443
_cell_length_c   9.19276402
_cell_angle_alpha   89.95125054
_cell_angle_beta   89.90754781
_cell_angle_gamma   96.73729025
_symmetry_Int_Tables_number   1
_chemical_formula_structural   Cu5(NiC)7
_chemical_formula_sum   'Cu5 Ni7 C7'
_cell_volume   225.28693972
_cell_formula_units_Z   1
loop_
 _symmetry_equiv_pos_site_id
 _symmetry_equiv_pos_as_xyz
  1  'x, y, z'
loop_
 _atom_site_type_symbol
 _atom_site_label
 _atom_site_symmetry_multiplicity
 _atom_site_fract_x
 _atom_site_fract_y
 _atom_site_fract_z
 _atom_site_occupancy
  C  C0  1  0.49574500  0.99133700  0.83506800  1
  C  C1  1  0.99935800  0.98793600  0.02097900  1
  C  C2  1  0.02582400  0.02259700  0.33772200  1
  C  C3  1  0.99437800  0.00062500  0.65109500  1
  C  C4  1  0.49883600  0.49288300  0.83722100  1
  C  C5  1  0.52586600  0.46322900  0.16631900  1
  C  C6  1  0.46180200  0.51669200  0.51202300  1
  Ni  Ni7  1  0.15358700  0.82364600  0.50367300  1
  Ni  Ni8  1  0.35271200  0.24076600  0.98468400  1
  Ni  Ni9  1  0.33009900  0.30647500  0.34500900  1
  Ni  Ni10  1  0.34002800  0.25606800  0.68416300  1
  Ni  Ni11  1  0.65238100  0.73490700  0.98702000  1
  Ni  Ni12  1  0.63933100  0.74058800  0.68242600  1
  Ni  Ni13  1  0.86138800  0.18433400  0.16953300  1
  Cu  Cu14  1  0.18488700  0.76670600  0.17392300  1
  Cu  Cu15  1  0.14239600  0.77500700  0.84764900  1
  Cu  Cu16  1  0.68904700  0.72865500  0.34130600  1
  Cu  Cu17  1  0.81918600  0.24383500  0.50617100  1
  Cu  Cu18  1  0.84704100  0.20982300  0.82115800  1
