# generated using pymatgen
data_CuNiC11
_symmetry_space_group_name_H-M   'P 1'
_cell_length_a   17.34539695
_cell_length_b   8.69278633
_cell_length_c   21.77633529
_cell_angle_alpha   89.78004185
_cell_angle_beta   89.26904428
_cell_angle_gamma   119.79293965
_symmetry_Int_Tables_number   1
_chemical_formula_structural   CuNiC11
_chemical_formula_sum   'Cu18 Ni18 C198'
_cell_volume   2849.02216205
_cell_formula_units_Z   18
loop_
 _symmetry_equiv_pos_site_id
 _symmetry_equiv_pos_as_xyz
  1  'x, y, z'
loop_
 _atom_site_type_symbol
 _atom_site_label
 _atom_site_symmetry_multiplicity
 _atom_site_fract_x
 _atom_site_fract_y
 _atom_site_fract_z
 _atom_site_occupancy
  C  C0  1  0.31891558  0.99855823  0.24964311  1
  C  C1  1  0.81993640  0.99947953  0.25133205  1
  C  C2  1  0.18208172  0.36392583  0.25069715  1
  C  C3  1  0.68328288  0.37002322  0.24295020  1
  C  C4  1  0.99859195  0.63471467  0.24773204  1
  C  C5  1  0.49736790  0.62392545  0.25239591  1
  C  C6  1  0.31541003  0.63004253  0.75023601  1
  C  C7  1  0.80914322  0.62200975  0.75024034  1
  C  C8  1  0.99760160  0.35389838  0.74931934  1
  C  C9  1  0.68168976  0.00658871  0.75419094  1
  C  C10  1  0.16158535  0.34619075  0.58097312  1
  C  C11  1  0.01346319  0.69627128  0.58022309  1
  C  C12  1  0.33326037  0.96549541  0.58488239  1
  C  C13  1  0.82995100  0.96530052  0.57867305  1
  C  C14  1  0.83402594  0.68961449  0.07638012  1
  C  C15  1  0.16991418  0.30794269  0.91242474  1
  C  C16  1  0.67064458  0.30888347  0.91644812  1
  C  C17  1  0.35522075  0.66537364  0.41787661  1
  C  C18  1  0.99863968  0.99555096  0.49314221  1
  C  C19  1  0.50936274  0.99473766  0.49894885  1
  C  C20  1  0.99325515  0.98195633  0.99500031  1
  C  C21  1  0.49421766  0.97615900  0.99648384  1
  C  C22  1  0.33630668  0.33094866  0.83423423  1
  C  C23  1  0.83115983  0.33277754  0.83637399  1
  C  C24  1  0.33911996  0.33266062  0.33532033  1
  C  C25  1  0.83697071  0.33854070  0.33485042  1
  C  C26  1  0.16177534  0.66398410  0.16362630  1
  C  C27  1  0.65516404  0.64740701  0.16071228  1
  C  C28  1  0.16916373  0.67371593  0.66511859  1
  C  C29  1  0.65859563  0.63695495  0.66724980  1
  C  C30  1  0.99784016  0.00697496  0.64342261  1
  C  C31  1  0.00117841  0.99296625  0.14835363  1
  C  C32  1  0.49534505  0.00149811  0.13988543  1
  C  C33  1  0.99780908  0.00045783  0.34518348  1
  C  C34  1  0.49691116  0.98411735  0.35296492  1
  C  C35  1  0.99234898  0.00380192  0.85219671  1
  C  C36  1  0.49847119  0.99213293  0.85315986  1
  C  C37  1  0.50247003  0.00300544  0.64733528  1
  C  C38  1  0.32061553  0.32235325  0.68331108  1
  C  C39  1  0.82581489  0.33095052  0.68508807  1
  C  C40  1  0.34285820  0.34358391  0.19231270  1
  C  C41  1  0.84442819  0.36194854  0.18341113  1
  C  C42  1  0.34198275  0.36421333  0.97939552  1
  C  C43  1  0.83528232  0.36164557  0.98199642  1
  C  C44  1  0.34401898  0.35799150  0.48459465  1
  C  C45  1  0.83578542  0.33875581  0.48231671  1
  C  C46  1  0.17128838  0.67605886  0.01767209  1
  C  C47  1  0.66670687  0.65703592  0.02186476  1
  C  C48  1  0.16916946  0.66734682  0.52468524  1
  C  C49  1  0.66284309  0.65868553  0.51630303  1
  C  C50  1  0.16279999  0.66291871  0.30985567  1
  C  C51  1  0.65972623  0.64651587  0.31590988  1
  C  C52  1  0.17101613  0.66020191  0.81830634  1
  C  C53  1  0.67041970  0.65180988  0.81366968  1
  Ni  Ni54  1  0.14902333  0.00539074  0.25515455  1
  Ni  Ni55  1  0.35262266  0.70538210  0.25452893  1
  Ni  Ni56  1  0.85036591  0.70299190  0.25682652  1
  Ni  Ni57  1  0.99577385  0.29014751  0.25261345  1
  Ni  Ni58  1  0.50131842  0.28535059  0.25605828  1
  Ni  Ni59  1  0.14825032  0.29109465  0.75654993  1
  Ni  Ni60  1  0.63741855  0.28182555  0.75025055  1
  Ni  Ni61  1  0.84882501  0.00199270  0.75358370  1
  Ni  Ni62  1  0.97298172  0.34226916  0.58127925  1
  Ni  Ni63  1  0.19731179  0.05191361  0.57882779  1
  Ni  Ni64  1  0.34151537  0.63472649  0.58437873  1
  Ni  Ni65  1  0.82236081  0.60618038  0.58149380  1
  Ni  Ni66  1  0.48010885  0.60970770  0.08298802  1
  Ni  Ni67  1  0.98635228  0.61994674  0.08022986  1
  Ni  Ni68  1  0.69377075  0.33659457  0.08205582  1
  Ni  Ni69  1  0.31538246  0.67352910  0.91677283  1
  Ni  Ni70  1  0.81544023  0.67469647  0.91682851  1
  Ni  Ni71  1  0.52398267  0.66863798  0.41756546  1
  Cu  Cu72  1  0.64515481  0.99922290  0.25169613  1
  Cu  Cu73  1  0.00475526  0.71421015  0.75420551  1
  Cu  Cu74  1  0.49924557  0.70791577  0.74978471  1
  Cu  Cu75  1  0.35639927  0.00675649  0.75077514  1
  Cu  Cu76  1  0.47821959  0.33808740  0.58465269  1
  Cu  Cu77  1  0.68637167  0.04507128  0.58232072  1
  Cu  Cu78  1  0.32742135  0.05092074  0.08026110  1
  Cu  Cu79  1  0.83184856  0.05576945  0.08141246  1
  Cu  Cu80  1  0.19307271  0.33987332  0.08110362  1
  Cu  Cu81  1  0.02023384  0.37994892  0.91778452  1
  Cu  Cu82  1  0.52102897  0.37929508  0.91591674  1
  Cu  Cu83  1  0.16728444  0.95062196  0.91632580  1
  Cu  Cu84  1  0.66691838  0.94842743  0.91575666  1
  Cu  Cu85  1  0.30856824  0.95621372  0.41697328  1
  Cu  Cu86  1  0.81245774  0.96008877  0.41689060  1
  Cu  Cu87  1  0.16250734  0.37544846  0.41673109  1
  Cu  Cu88  1  0.66868772  0.37393574  0.41777635  1
  Cu  Cu89  1  0.02216505  0.66648991  0.41731846  1
  C  C90  1  0.10342665  0.05450321  0.31075338  1
  C  C91  1  0.60480147  0.03384120  0.30612860  1
  C  C92  1  0.41749881  0.78811329  0.31255088  1
  C  C93  1  0.92226940  0.79545364  0.30987701  1
  C  C94  1  0.48578871  0.15330808  0.31285275  1
  C  C95  1  0.97340191  0.15530418  0.30965373  1
  C  C96  1  0.09842794  0.16744240  0.81543658  1
  C  C97  1  0.59499889  0.15214834  0.81127959  1
  C  C98  1  0.47821077  0.78603086  0.80391954  1
  C  C99  1  0.98899041  0.80320475  0.80534063  1
  C  C100  1  0.41065868  0.02606220  0.80435351  1
  C  C101  1  0.92020949  0.04688170  0.80649266  1
  C  C102  1  0.39205239  0.96491996  0.69406871  1
  C  C103  1  0.89302513  0.95608981  0.69125915  1
  C  C104  1  0.08408483  0.19948615  0.69437056  1
  C  C105  1  0.57806579  0.18144784  0.69125106  1
  C  C106  1  0.01917712  0.81269445  0.69445227  1
  C  C107  1  0.51485378  0.82033534  0.69432236  1
  C  C108  1  0.39693993  0.84214265  0.19512188  1
  C  C109  1  0.89289734  0.83074853  0.19231635  1
  C  C110  1  0.02125232  0.20481052  0.19198284  1
  C  C111  1  0.52272255  0.20127756  0.19407183  1
  C  C112  1  0.08093150  0.95410900  0.19425366  1
  C  C113  1  0.58882103  0.96122420  0.19657438  1
  C  C114  1  0.43664130  0.36518139  0.64002401  1
  C  C115  1  0.93146587  0.37384645  0.64392915  1
  C  C116  1  0.25616753  0.12614463  0.64032396  1
  C  C117  1  0.74232174  0.12155507  0.63790467  1
  C  C118  1  0.31705416  0.50359237  0.64464510  1
  C  C119  1  0.81347115  0.50400738  0.64595067  1
  C  C120  1  0.43623773  0.49856548  0.14639150  1
  C  C121  1  0.94596515  0.52081859  0.14613688  1
  C  C122  1  0.31841713  0.12609209  0.13860653  1
  C  C123  1  0.82310135  0.13462715  0.13978139  1
  C  C124  1  0.24231965  0.35565913  0.13733822  1
  C  C125  1  0.75265090  0.36365937  0.14356709  1
  C  C126  1  0.23293792  0.30871331  0.02489539  1
  C  C127  1  0.73189164  0.29654340  0.01996138  1
  C  C128  1  0.41812608  0.53072253  0.02450458  1
  C  C129  1  0.91780027  0.53409177  0.02519944  1
  C  C130  1  0.33825561  0.16009858  0.02583029  1
  C  C131  1  0.84498905  0.16391978  0.02722326  1
  C  C132  1  0.24282798  0.18785199  0.52195947  1
  C  C133  1  0.72787100  0.15539937  0.52701123  1
  C  C134  1  0.35612212  0.55204035  0.52191618  1
  C  C135  1  0.84838039  0.52502426  0.52366662  1
  C  C136  1  0.42190608  0.30191614  0.52956699  1
  C  C137  1  0.90718699  0.28401675  0.52398090  1
  C  C138  1  0.26345742  0.69765906  0.97499917  1
  C  C139  1  0.76642929  0.69932003  0.97789918  1
  C  C140  1  0.07923856  0.46789397  0.96995125  1
  C  C141  1  0.57667452  0.45813697  0.97028790  1
  C  C142  1  0.15245248  0.84141354  0.97169845  1
  C  C143  1  0.65315411  0.83752290  0.97042360  1
  C  C144  1  0.26506263  0.83780667  0.47172086  1
  C  C145  1  0.77106921  0.85254123  0.47373143  1
  C  C146  1  0.15331199  0.46239561  0.47336427  1
  C  C147  1  0.65653581  0.46183456  0.47180090  1
  C  C148  1  0.07500680  0.68591497  0.47279820  1
  C  C149  1  0.58584574  0.69324082  0.47603136  1
  C  C150  1  0.06573501  0.64486972  0.36164685  1
  C  C151  1  0.56941671  0.64366972  0.35507769  1
  C  C152  1  0.25579041  0.87162358  0.36153940  1
  C  C153  1  0.75954959  0.87544329  0.36196850  1
  C  C154  1  0.17568280  0.48986321  0.36187700  1
  C  C155  1  0.68580574  0.48400795  0.36102890  1
  C  C156  1  0.05996824  0.48787879  0.85981660  1
  C  C157  1  0.56043655  0.49243176  0.86068008  1
  C  C158  1  0.17812689  0.86311387  0.86071232  1
  C  C159  1  0.67366439  0.86311793  0.85828995  1
  C  C160  1  0.25230358  0.63035659  0.85548298  1
  C  C161  1  0.75064767  0.63001589  0.85700274  1
  C  C162  1  0.01349234  0.82792653  0.41307960  1
  C  C163  1  0.51038586  0.84555261  0.41193506  1
  C  C164  1  0.39773433  0.96931686  0.41383901  1
  C  C165  1  0.90260601  0.97741815  0.41266386  1
  C  C166  1  0.08131785  0.19948737  0.41317941  1
  C  C167  1  0.58845590  0.19884608  0.41236908  1
  C  C168  1  0.01721365  0.20475072  0.91295830  1
  C  C169  1  0.51486623  0.20211765  0.90892040  1
  C  C170  1  0.08941670  0.97728805  0.91202727  1
  C  C171  1  0.58764318  0.97669395  0.91249799  1
  C  C172  1  0.41360614  0.84896356  0.90721537  1
  C  C173  1  0.91488406  0.84958739  0.90835830  1
  C  C174  1  0.48614691  0.17463141  0.59034273  1
  C  C175  1  0.98764305  0.16581058  0.58660295  1
  C  C176  1  0.09573193  0.02579623  0.58773345  1
  C  C177  1  0.59752342  0.02673107  0.58961907  1
  C  C178  1  0.42435730  0.83712430  0.59453041  1
  C  C179  1  0.91591146  0.80862854  0.58844509  1
  C  C180  1  0.48719457  0.80973691  0.09210177  1
  C  C181  1  0.99045560  0.82066831  0.08549308  1
  C  C182  1  0.41109667  0.03510847  0.08147801  1
  C  C183  1  0.91320390  0.03098085  0.08438722  1
  C  C184  1  0.10159187  0.17785442  0.08424334  1
  C  C185  1  0.59238262  0.16148109  0.08782824  1
  C  C186  1  0.35120867  0.17056923  0.74383975  1
  C  C187  1  0.84231407  0.17974492  0.74082830  1
  C  C188  1  0.24745757  0.31666436  0.74722610  1
  C  C189  1  0.73936979  0.30830720  0.74378616  1
  C  C190  1  0.42098044  0.52801818  0.74315522  1
  C  C191  1  0.92437936  0.53541707  0.75008569  1
  C  C192  1  0.34069060  0.51037857  0.24388444  1
  C  C193  1  0.83850416  0.50763931  0.24641141  1
  C  C194  1  0.41206416  0.29993511  0.24742608  1
  C  C195  1  0.90624265  0.30277784  0.24197798  1
  C  C196  1  0.24389113  0.17403029  0.23801540  1
  C  C197  1  0.73411925  0.15713674  0.24413966  1
  C  C198  1  0.31913909  0.48559079  0.92184047  1
  C  C199  1  0.82221369  0.49023934  0.92070398  1
  C  C200  1  0.42919112  0.35028853  0.92288400  1
  C  C201  1  0.93034024  0.35199562  0.92389046  1
  C  C202  1  0.24866002  0.12914361  0.92081376  1
  C  C203  1  0.74796098  0.12591311  0.91850807  1
  C  C204  1  0.31777413  0.13254071  0.42323473  1
  C  C205  1  0.81905685  0.13853854  0.42159158  1
  C  C206  1  0.24399994  0.36091217  0.41893587  1
  C  C207  1  0.74920591  0.35261322  0.42368493  1
  C  C208  1  0.42235412  0.48920776  0.42280605  1
  C  C209  1  0.93269365  0.50259603  0.42098790  1
  C  C210  1  0.18345795  0.49896196  0.07547250  1
  C  C211  1  0.68448848  0.51455090  0.07762881  1
  C  C212  1  0.08502220  0.64699366  0.07168688  1
  C  C213  1  0.58062162  0.64778525  0.07275659  1
  C  C214  1  0.25077423  0.87001552  0.07635364  1
  C  C215  1  0.75369970  0.87424932  0.07894209  1
  C  C216  1  0.17818270  0.84977799  0.57125321  1
  C  C217  1  0.67866587  0.86700844  0.57709532  1
  C  C218  1  0.25067457  0.65191935  0.57530660  1
  C  C219  1  0.74150576  0.65039847  0.57196492  1
  C  C220  1  0.07423162  0.50733885  0.57346240  1
  C  C221  1  0.56754539  0.49489317  0.57668519  1
  C  C222  1  0.15612160  0.82802689  0.26172568  1
  C  C223  1  0.65690663  0.84199450  0.25817874  1
  C  C224  1  0.25506127  0.68647793  0.26219445  1
  C  C225  1  0.75541959  0.69532193  0.26433463  1
  C  C226  1  0.08276639  0.48452804  0.26049112  1
  C  C227  1  0.58838462  0.48451600  0.25851786  1
  C  C228  1  0.15397227  0.48861092  0.75813227  1
  C  C229  1  0.64919640  0.48018250  0.75679205  1
  C  C230  1  0.08431540  0.69258926  0.76085865  1
  C  C231  1  0.58057966  0.69797821  0.75803981  1
  C  C232  1  0.26463056  0.84713423  0.75786098  1
  C  C233  1  0.75069339  0.82779544  0.75905022  1
