# generated using pymatgen
data_Cu3Ni7C31
_symmetry_space_group_name_H-M   'P 1'
_cell_length_a   9.40931716
_cell_length_b   9.42209226
_cell_length_c   22.47815085
_cell_angle_alpha   90.11026900
_cell_angle_beta   89.96414934
_cell_angle_gamma   120.11368754
_symmetry_Int_Tables_number   1
_chemical_formula_structural   Cu3Ni7C31
_chemical_formula_sum   'Cu9 Ni21 C93'
_cell_volume   1723.84086061
_cell_formula_units_Z   3
loop_
 _symmetry_equiv_pos_site_id
 _symmetry_equiv_pos_as_xyz
  1  'x, y, z'
loop_
 _atom_site_type_symbol
 _atom_site_label
 _atom_site_symmetry_multiplicity
 _atom_site_fract_x
 _atom_site_fract_y
 _atom_site_fract_z
 _atom_site_occupancy
  Ni  Ni0  1  0.62115283  0.99622299  0.25055547  1
  Ni  Ni1  1  0.36676328  0.35127126  0.25401578  1
  Ni  Ni2  1  0.01397618  0.64997518  0.25039640  1
  Ni  Ni3  1  0.66100493  0.64974685  0.74736786  1
  Ni  Ni4  1  0.98698383  0.34385526  0.74691998  1
  Ni  Ni5  1  0.29582473  0.34705040  0.58628413  1
  Ni  Ni6  1  0.02544331  0.69156220  0.58921562  1
  Ni  Ni7  1  0.67417769  0.95434132  0.58525100  1
  Ni  Ni8  1  0.29343716  0.95998880  0.07604694  1
  Ni  Ni9  1  0.66293972  0.70170197  0.07101553  1
  Ni  Ni10  1  0.04377333  0.33930992  0.07178331  1
  Ni  Ni11  1  0.98222451  0.67740354  0.90239793  1
  Ni  Ni12  1  0.32073553  0.29696690  0.90332378  1
  Ni  Ni13  1  0.32505371  0.00830107  0.40959003  1
  Ni  Ni14  1  0.69036158  0.68006964  0.42041607  1
  Ni  Ni15  1  0.99337408  0.01981110  0.49534612  1
  Ni  Ni16  1  0.97970004  -0.00018358  0.99228926  1
  Ni  Ni17  1  0.64376700  0.29464867  0.82550865  1
  Ni  Ni18  1  0.66901166  0.31854323  0.33662887  1
  Ni  Ni19  1  0.33250377  0.67909898  0.15962507  1
  Ni  Ni20  1  0.33406028  0.67245407  0.67333885  1
  Cu  Cu21  1  0.00594395  0.00983053  0.35107517  1
  Cu  Cu22  1  0.99706666  0.00112891  0.84717521  1
  Cu  Cu23  1  0.99902767  0.99827996  0.65742414  1
  Cu  Cu24  1  0.00667638  0.00035902  0.14490096  1
  Cu  Cu25  1  0.66323500  0.33244560  0.68586288  1
  Cu  Cu26  1  0.66254644  0.32914390  0.17876581  1
  Cu  Cu27  1  0.33845131  0.67303535  0.01097703  1
  Cu  Cu28  1  0.32666885  0.65748370  0.51146645  1
  Cu  Cu29  1  0.32722558  0.66319690  0.32594448  1
  C  C30  1  0.66639043  0.32894019  0.98168371  1
  C  C31  1  0.67960324  0.34046343  0.48286335  1
  C  C32  1  0.33649269  0.67506194  0.82138830  1
  C  C33  1  0.30857587  0.99500464  0.25011469  1
  C  C34  1  0.31063022  0.32514384  0.75413001  1
  C  C35  1  0.00890594  0.68805562  0.75214794  1
  C  C36  1  0.68347233  0.98903345  0.74738230  1
  C  C37  1  0.96560622  0.33015894  0.58737371  1
  C  C38  1  0.66954606  0.63508825  0.58359721  1
  C  C39  1  0.96324549  0.63197419  0.08278219  1
  C  C40  1  0.66980511  0.03521885  0.08468844  1
  C  C41  1  0.36760126  0.33363807  0.08229216  1
  C  C42  1  0.63475970  0.65427248  0.92022857  1
  C  C43  1  0.02711870  0.36890274  0.92095247  1
  C  C44  1  0.33765079  0.97546754  0.92241985  1
  C  C45  1  0.64207896  0.98275318  0.41920281  1
  C  C46  1  0.34688967  0.35223238  0.41918725  1
  C  C47  1  0.01528129  0.66672358  0.41666652  1
  C  C48  1  0.68980437  0.69409773  0.25056637  1
  C  C49  1  0.00394023  0.31089944  0.24630017  1
  C  C50  1  0.36680740  0.03799810  0.57891108  1
  C  C51  1  0.21465066  -0.00172968  0.30589415  1
  C  C52  1  0.78059559  0.78500148  0.30435724  1
  C  C53  1  0.99184883  0.20556163  0.29660032  1
  C  C54  1  0.22375991  0.22382901  0.80901834  1
  C  C55  1  0.98984297  0.77959000  0.80492465  1
  C  C56  1  0.81078735  0.01215610  0.79376391  1
  C  C57  1  0.73575280  0.95065093  0.68634245  1
  C  C58  1  0.20985812  0.24713978  0.69650854  1
  C  C59  1  0.02602645  0.77726609  0.69253139  1
  C  C60  1  0.77594117  0.78826474  0.19602293  1
  C  C61  1  0.00649639  0.23185736  0.18917784  1
  C  C62  1  0.21413717  0.99068362  0.19285208  1
  C  C63  1  0.88912593  0.33372121  0.64680002  1
  C  C64  1  0.46474888  0.12272709  0.63189192  1
  C  C65  1  0.66051893  0.54647428  0.64149219  1
  C  C66  1  0.88715767  0.55002615  0.14246956  1
  C  C67  1  0.66586613  0.10652497  0.14576383  1
  C  C68  1  0.44810175  0.33987885  0.14241191  1
  C  C69  1  0.48455876  0.33446313  0.03045459  1
  C  C70  1  0.85088333  0.51571290  0.02998951  1
  C  C71  1  0.66525278  0.15249381  0.03430372  1
  C  C72  1  0.46116608  0.13242309  0.52413253  1
  C  C73  1  0.66649709  0.52178929  0.52973117  1
  C  C74  1  0.84818049  0.33068226  0.53603822  1
  C  C75  1  0.56782097  0.67341088  0.97937560  1
  C  C76  1  0.11299522  0.44125758  0.98007037  1
  C  C77  1  0.31871278  0.89312798  0.98222444  1
  C  C78  1  0.55147466  0.87728505  0.47358687  1
  C  C79  1  0.33808692  0.44200606  0.47461858  1
  C  C80  1  0.12627024  0.68845972  0.46981208  1
  C  C81  1  0.08700380  0.64713931  0.35761822  1
  C  C82  1  0.53719230  0.90953329  0.36193248  1
  C  C83  1  0.36668667  0.45185868  0.36180007  1
  C  C84  1  0.13368930  0.49621570  0.87024981  1
  C  C85  1  0.34894789  0.86230501  0.87270647  1
  C  C86  1  0.51136564  0.64145958  0.86948690  1
  C  C87  1  0.97984083  0.80973215  0.41598725  1
  C  C88  1  0.81079943  0.99708744  0.41536320  1
  C  C89  1  0.20241946  0.17525281  0.41795705  1
  C  C90  1  0.01115951  0.20266474  0.91155484  1
  C  C91  1  0.19137899  0.00087480  0.91200147  1
  C  C92  1  0.81107237  0.79151148  0.91128041  1
  C  C93  1  0.97880841  0.17369101  0.57962323  1
  C  C94  1  0.20730663  0.03398709  0.57892133  1
  C  C95  1  0.83266835  0.80141324  0.57799379  1
  C  C96  1  0.96579328  0.79691571  0.07488050  1
  C  C97  1  0.83027331  0.03003202  0.07483011  1
  C  C98  1  0.20049672  0.17277511  0.07402905  1
  C  C99  1  0.65947593  0.13785202  0.74758596  1
  C  C100  1  0.48960189  0.36215690  0.75190155  1
  C  C101  1  0.86042058  0.51023515  0.75241036  1
  C  C102  1  0.67873242  0.52995700  0.25154780  1
  C  C103  1  0.86038599  0.33796326  0.24996321  1
  C  C104  1  0.48377492  0.15281215  0.25324401  1
  C  C105  1  0.63256451  0.48389493  0.91891514  1
  C  C106  1  0.85517349  0.36262503  0.91978271  1
  C  C107  1  0.50018590  0.14883196  0.92011476  1
  C  C108  1  0.65995195  0.15873497  0.42600102  1
  C  C109  1  0.50998610  0.33961819  0.42245342  1
  C  C110  1  0.84038419  0.50489232  0.42417783  1
  C  C111  1  0.34621410  0.48519030  0.07828561  1
  C  C112  1  0.13808915  0.65658482  0.07972948  1
  C  C113  1  0.51781574  0.86166330  0.08051196  1
  C  C114  1  0.34024282  0.86900630  0.57776578  1
  C  C115  1  0.51901029  0.66000012  0.58019514  1
  C  C116  1  0.13739189  0.48700545  0.58248442  1
  C  C117  1  0.32611150  0.83811100  0.24915784  1
  C  C118  1  0.52070950  0.67087549  0.25042167  1
  C  C119  1  0.15912516  0.47330317  0.24963039  1
  C  C120  1  0.31825638  0.49805271  0.76028546  1
  C  C121  1  0.16927396  0.67392025  0.76035100  1
  C  C122  1  0.51381974  0.82802239  0.76258449  1
