# generated using pymatgen
data_Cu6NiC12
_symmetry_space_group_name_H-M   'P 1'
_cell_length_a   5.37961799
_cell_length_b   14.89835320
_cell_length_c   3.07580123
_cell_angle_alpha   90.00000000
_cell_angle_beta   90.00000000
_cell_angle_gamma   101.28967454
_symmetry_Int_Tables_number   1
_chemical_formula_structural   Cu6NiC12
_chemical_formula_sum   'Cu6 Ni1 C12'
_cell_volume   241.74749458
_cell_formula_units_Z   1
loop_
 _symmetry_equiv_pos_site_id
 _symmetry_equiv_pos_as_xyz
  1  'x, y, z'
loop_
 _atom_site_type_symbol
 _atom_site_label
 _atom_site_symmetry_multiplicity
 _atom_site_fract_x
 _atom_site_fract_y
 _atom_site_fract_z
 _atom_site_occupancy
  Ni  Ni0  1  0.00000000  0.50000000  0.98350633  1
  Cu  Cu1  1  0.00000000  0.00000000  0.01313833  1
  Cu  Cu2  1  0.19267631  0.29230170  0.98006188  1
  Cu  Cu3  1  0.80732369  0.70769830  0.98006188  1
  Cu  Cu4  1  0.67012412  0.15603711  0.49374543  1
  Cu  Cu5  1  0.50000000  0.50000000  0.48437261  1
  Cu  Cu6  1  0.32987588  0.84396289  0.49374543  1
  C  C7  1  0.10695295  0.93364715  0.51370773  1
  C  C8  1  0.15955764  0.77380322  0.95492776  1
  C  C9  1  0.30522700  0.43197781  0.98516499  1
  C  C10  1  0.84044236  0.22619678  0.95492776  1
  C  C11  1  0.69477300  0.56802219  0.98516499  1
  C  C12  1  0.89304705  0.06635285  0.51370773  1
  C  C13  1  0.39792061  0.25152328  0.48150478  1
  C  C14  1  0.17825627  0.57297543  0.48339591  1
  C  C15  1  0.43756626  0.09560215  0.03364938  1
  C  C16  1  0.56243374  0.90439785  0.03364938  1
  C  C17  1  0.82174373  0.42702457  0.48339591  1
  C  C18  1  0.60207939  0.74847672  0.48150478  1
