# generated using pymatgen
data_CuNiC4
_symmetry_space_group_name_H-M   'P 1'
_cell_length_a   5.57895300
_cell_length_b   5.57895300
_cell_length_c   10.23143400
_cell_angle_alpha   90.00000000
_cell_angle_beta   90.00000000
_cell_angle_gamma   90.00000000
_symmetry_Int_Tables_number   1
_chemical_formula_structural   CuNiC4
_chemical_formula_sum   'Cu2 Ni2 C8'
_cell_volume   318.45048342
_cell_formula_units_Z   2
loop_
 _symmetry_equiv_pos_site_id
 _symmetry_equiv_pos_as_xyz
  1  'x, y, z'
loop_
 _atom_site_type_symbol
 _atom_site_label
 _atom_site_symmetry_multiplicity
 _atom_site_fract_x
 _atom_site_fract_y
 _atom_site_fract_z
 _atom_site_occupancy
  Ni  Ni0  1  0.50000000  0.00000000  0.25000000  1
  Ni  Ni1  1  0.00000000  0.50000000  0.75000000  1
  Cu  Cu2  1  0.00000000  0.00000000  0.00000000  1
  Cu  Cu3  1  0.00000000  0.00000000  0.50000000  1
  C  C4  1  0.77181500  0.73236400  0.62540100  1
  C  C5  1  0.73236400  0.22818500  0.37459900  1
  C  C6  1  0.26763600  0.77181500  0.37459900  1
  C  C7  1  0.77181500  0.26763600  0.87459900  1
  C  C8  1  0.22818500  0.73236400  0.87459900  1
  C  C9  1  0.22818500  0.26763600  0.62540100  1
  C  C10  1  0.26763600  0.22818500  0.12540100  1
  C  C11  1  0.73236400  0.77181500  0.12540100  1
