# generated using pymatgen
data_Cu7(NiC)5
_symmetry_space_group_name_H-M   'P 1'
_cell_length_a   5.16685328
_cell_length_b   5.55650680
_cell_length_c   9.01913121
_cell_angle_alpha   74.09739448
_cell_angle_beta   90.32319830
_cell_angle_gamma   61.00153515
_symmetry_Int_Tables_number   1
_chemical_formula_structural   Cu7(NiC)5
_chemical_formula_sum   'Cu7 Ni5 C5'
_cell_volume   214.83499190
_cell_formula_units_Z   1
loop_
 _symmetry_equiv_pos_site_id
 _symmetry_equiv_pos_as_xyz
  1  'x, y, z'
loop_
 _atom_site_type_symbol
 _atom_site_label
 _atom_site_symmetry_multiplicity
 _atom_site_fract_x
 _atom_site_fract_y
 _atom_site_fract_z
 _atom_site_occupancy
  C  C0  1  0.04913700  0.89562200  0.35368000  1
  C  C1  1  0.75581900  0.49483300  0.23650500  1
  C  C2  1  0.45557000  0.03581400  0.52072700  1
  C  C3  1  0.28099000  0.50824300  0.75033800  1
  C  C4  1  0.05331800  0.99895500  0.00344800  1
  Ni  Ni5  1  0.97483300  0.21084500  0.13684300  1
  Ni  Ni6  1  0.43182700  0.75137700  0.06412900  1
  Ni  Ni7  1  0.40880500  0.73922700  0.67285500  1
  Ni  Ni8  1  0.46794200  0.23760900  0.62957500  1
  Ni  Ni9  1  0.07150300  0.21041700  0.42325400  1
  Cu  Cu10  1  0.92840800  0.73990000  0.55638300  1
  Cu  Cu11  1  0.96474600  0.73457100  0.19832900  1
  Cu  Cu12  1  0.49519100  0.72764400  0.37517300  1
  Cu  Cu13  1  0.58478500  0.20589900  0.32714800  1
  Cu  Cu14  1  0.59125800  0.23388500  0.92548500  1
  Cu  Cu15  1  0.02877500  0.75390800  0.87342500  1
  Cu  Cu16  1  0.06959500  0.28375400  0.82413100  1
