# generated using pymatgen
data_Cu6NiC4
_symmetry_space_group_name_H-M   'P 1'
_cell_length_a   6.23903225
_cell_length_b   6.86667720
_cell_length_c   6.86667671
_cell_angle_alpha   67.31006901
_cell_angle_beta   68.86274359
_cell_angle_gamma   68.86273807
_symmetry_Int_Tables_number   1
_chemical_formula_structural   Cu6NiC4
_chemical_formula_sum   'Cu12 Ni2 C8'
_cell_volume   244.61977571
_cell_formula_units_Z   2
loop_
 _symmetry_equiv_pos_site_id
 _symmetry_equiv_pos_as_xyz
  1  'x, y, z'
loop_
 _atom_site_type_symbol
 _atom_site_label
 _atom_site_symmetry_multiplicity
 _atom_site_fract_x
 _atom_site_fract_y
 _atom_site_fract_z
 _atom_site_occupancy
  C  C0  1  0.18320500  0.65188400  0.84765000  1
  C  C1  1  0.81679500  0.34811600  0.15235000  1
  C  C2  1  0.31679500  0.15235000  0.34811600  1
  C  C3  1  0.68320500  0.84765000  0.65188400  1
  C  C4  1  0.19626500  0.04406400  0.77023100  1
  C  C5  1  0.30373500  0.22976900  0.95593600  1
  C  C6  1  0.80373500  0.95593600  0.22976900  1
  C  C7  1  0.69626500  0.77023100  0.04406400  1
  Ni  Ni8  1  0.25000000  0.68892200  0.31107800  1
  Ni  Ni9  1  0.75000000  0.31107800  0.68892200  1
  Cu  Cu10  1  0.08666000  0.68422600  0.53501900  1
  Cu  Cu11  1  0.41334000  0.46498100  0.31577400  1
  Cu  Cu12  1  0.58666000  0.53501900  0.68422600  1
  Cu  Cu13  1  0.91334000  0.31577400  0.46498100  1
  Cu  Cu14  1  0.80040900  0.68123100  0.94600500  1
  Cu  Cu15  1  0.69959100  0.05399500  0.31876900  1
  Cu  Cu16  1  0.19959100  0.31876900  0.05399500  1
  Cu  Cu17  1  0.30040900  0.94600500  0.68123100  1
  Cu  Cu18  1  0.89369600  0.24749600  0.84595200  1
  Cu  Cu19  1  0.60630400  0.15404800  0.75250400  1
  Cu  Cu20  1  0.10630400  0.75250400  0.15404800  1
  Cu  Cu21  1  0.39369600  0.84595200  0.24749600  1
