# generated using pymatgen
data_CuNiC5
_symmetry_space_group_name_H-M   'P 1'
_cell_length_a   7.95763160
_cell_length_b   7.95763160
_cell_length_c   10.27308400
_cell_angle_alpha   90.00000000
_cell_angle_beta   90.00000000
_cell_angle_gamma   119.99999664
_symmetry_Int_Tables_number   1
_chemical_formula_structural   CuNiC5
_chemical_formula_sum   'Cu6 Ni6 C30'
_cell_volume   563.37704080
_cell_formula_units_Z   6
loop_
 _symmetry_equiv_pos_site_id
 _symmetry_equiv_pos_as_xyz
  1  'x, y, z'
loop_
 _atom_site_type_symbol
 _atom_site_label
 _atom_site_symmetry_multiplicity
 _atom_site_fract_x
 _atom_site_fract_y
 _atom_site_fract_z
 _atom_site_occupancy
  C  C0  1  0.21131200  0.97863700  0.25176300  1
  C  C1  1  0.02136300  0.23267500  0.25176300  1
  C  C2  1  0.23267500  0.02136300  0.75176300  1
  C  C3  1  0.76732500  0.78868800  0.25176300  1
  C  C4  1  0.78868800  0.76732500  0.75176300  1
  C  C5  1  0.97863700  0.21131200  0.75176300  1
  Ni  Ni6  1  0.00565200  0.57461700  0.47332600  1
  Ni  Ni7  1  0.56896500  0.99434800  0.47332600  1
  Ni  Ni8  1  0.42538300  0.43103500  0.47332600  1
  Ni  Ni9  1  0.43103500  0.42538300  0.97332600  1
  Ni  Ni10  1  0.57461700  0.00565200  0.97332600  1
  Ni  Ni11  1  0.99434800  0.56896500  0.97332600  1
  Cu  Cu12  1  0.00000000  0.00000000  0.49975200  1
  Cu  Cu13  1  0.00000000  0.00000000  0.99975200  1
  Cu  Cu14  1  0.33333300  0.66666700  0.19510500  1
  Cu  Cu15  1  0.33333300  0.66666700  0.75434200  1
  Cu  Cu16  1  0.66666700  0.33333300  0.69510500  1
  Cu  Cu17  1  0.66666700  0.33333300  0.25434200  1
  C  C18  1  0.09794800  0.88718500  0.44320500  1
  C  C19  1  0.22220600  0.76974200  0.14458400  1
  C  C20  1  0.22956400  0.77592000  0.80709800  1
  C  C21  1  0.22408000  0.45364400  0.80709800  1
  C  C22  1  0.33333300  0.66666700  0.34593000  1
  C  C23  1  0.00000000  0.00000000  0.15035800  1
  C  C24  1  0.33333300  0.66666700  0.60403000  1
  C  C25  1  0.11281500  0.21076300  0.44320500  1
  C  C26  1  0.23025800  0.45246400  0.14458400  1
  C  C27  1  0.54753600  0.77779400  0.14458400  1
  C  C28  1  0.21076300  0.11281500  0.94320500  1
  C  C29  1  0.54635600  0.77043600  0.80709800  1
  C  C30  1  0.45246400  0.23025800  0.64458400  1
  C  C31  1  0.78923700  0.90205200  0.44320500  1
  C  C32  1  0.45364400  0.22408000  0.30709800  1
  C  C33  1  0.77043600  0.54635600  0.30709800  1
  C  C34  1  0.66666700  0.33333300  0.84593000  1
  C  C35  1  0.66666700  0.33333300  0.10403000  1
  C  C36  1  0.90205200  0.78923700  0.94320500  1
  C  C37  1  0.77779400  0.54753600  0.64458400  1
  C  C38  1  0.76974200  0.22220600  0.64458400  1
  C  C39  1  0.77592000  0.22956400  0.30709800  1
  C  C40  1  0.88718500  0.09794800  0.94320500  1
  C  C41  1  0.00000000  0.00000000  0.65035800  1
