# generated using pymatgen
data_CuNi2C15
_symmetry_space_group_name_H-M   'P 1'
_cell_length_a   8.72375476
_cell_length_b   8.67434266
_cell_length_c   22.75908562
_cell_angle_alpha   90.87594319
_cell_angle_beta   90.00000000
_cell_angle_gamma   120.18861336
_symmetry_Int_Tables_number   1
_chemical_formula_structural   CuNi2C15
_chemical_formula_sum   'Cu6 Ni12 C90'
_cell_volume   1488.43190326
_cell_formula_units_Z   6
loop_
 _symmetry_equiv_pos_site_id
 _symmetry_equiv_pos_as_xyz
  1  'x, y, z'
loop_
 _atom_site_type_symbol
 _atom_site_label
 _atom_site_symmetry_multiplicity
 _atom_site_fract_x
 _atom_site_fract_y
 _atom_site_fract_z
 _atom_site_occupancy
  C  C0  1  0.98990116  0.99337256  0.50349352  1
  C  C1  1  0.00347140  0.99337256  0.00349352  1
  C  C2  1  0.65656816  0.32670556  0.83682652  1
  C  C3  1  0.67013840  0.32670556  0.33682652  1
  C  C4  1  0.32323416  0.66003956  0.17016052  1
  C  C5  1  0.33680440  0.66003956  0.67016052  1
  C  C6  1  0.99903846  0.00203988  0.35409354  1
  C  C7  1  0.00300142  0.00203988  0.85409354  1
  C  C8  1  0.66570546  0.33537288  0.68742654  1
  C  C9  1  0.66966842  0.33537288  0.18742654  1
  C  C10  1  0.33237146  0.66870688  0.02076054  1
  C  C11  1  0.33633442  0.66870688  0.52076054  1
  C  C12  1  0.98417650  0.01047152  0.64836533  1
  C  C13  1  0.02629503  0.01047152  0.14836533  1
  C  C14  1  0.65084350  0.34380452  0.98169833  1
  C  C15  1  0.69296203  0.34380452  0.48169833  1
  C  C16  1  0.31750950  0.67713852  0.31503233  1
  C  C17  1  0.35962803  0.67713852  0.81503233  1
  Ni  Ni18  1  0.28861983  0.99442079  0.24973833  1
  Ni  Ni19  1  0.00973943  0.29388436  0.24922471  1
  Ni  Ni20  1  0.28414493  0.29388436  0.74922471  1
  Ni  Ni21  1  0.70580095  0.99442079  0.74973833  1
  Ni  Ni22  1  0.95528683  0.32775379  0.58307133  1
  Ni  Ni23  1  0.67640643  0.62721736  0.58255771  1
  Ni  Ni24  1  0.95081193  0.62721736  0.08255771  1
  Ni  Ni25  1  0.37246795  0.32775379  0.08307133  1
  Ni  Ni26  1  0.62195283  0.66108779  0.91640533  1
  Ni  Ni27  1  0.34307243  0.96055136  0.91589171  1
  Ni  Ni28  1  0.61747793  0.96055136  0.41589171  1
  Ni  Ni29  1  0.03913395  0.66108779  0.41640533  1
  Cu  Cu30  1  0.70518236  0.71468866  0.24854119  1
  Cu  Cu31  1  0.00950630  0.71468866  0.74854119  1
  Cu  Cu32  1  0.37184936  0.04802166  0.58187419  1
  Cu  Cu33  1  0.67617330  0.04802166  0.08187419  1
  Cu  Cu34  1  0.03851536  0.38135566  0.91520819  1
  Cu  Cu35  1  0.34283930  0.38135566  0.41520819  1
  C  C36  1  0.20376940  0.02554205  0.30479778  1
  C  C37  1  0.81689574  0.79253207  0.30259084  1
  C  C38  1  0.97451589  0.17760714  0.30406694  1
  C  C39  1  0.20309125  0.17760714  0.80406694  1
  C  C40  1  0.97563633  0.79253207  0.80259084  1
  C  C41  1  0.82177264  0.02554205  0.80479778  1
  C  C42  1  0.78550609  0.96028843  0.69443727  1
  C  C43  1  0.17330175  0.20407576  0.69345831  1
  C  C44  1  0.03240312  0.81971453  0.69638587  1
  C  C45  1  0.78731142  0.81971453  0.19638587  1
  C  C46  1  0.03077401  0.20407576  0.19345831  1
  C  C47  1  0.17478234  0.96028843  0.19443727  1
  C  C48  1  0.87043640  0.35887505  0.63813078  1
  C  C49  1  0.48356274  0.12586507  0.63592384  1
  C  C50  1  0.64118289  0.51094014  0.63739994  1
  C  C51  1  0.86975825  0.51094014  0.13739994  1
  C  C52  1  0.64230333  0.12586507  0.13592384  1
  C  C53  1  0.48843964  0.35887505  0.13813078  1
  C  C54  1  0.45217309  0.29362143  0.02777027  1
  C  C55  1  0.83996875  0.53740876  0.02679131  1
  C  C56  1  0.69907012  0.15304753  0.02971887  1
  C  C57  1  0.45397842  0.15304753  0.52971887  1
  C  C58  1  0.69744101  0.53740876  0.52679131  1
  C  C59  1  0.84144934  0.29362143  0.52777027  1
  C  C60  1  0.53710240  0.69220905  0.97146478  1
  C  C61  1  0.15022874  0.45919907  0.96925784  1
  C  C62  1  0.30784889  0.84427414  0.97073394  1
  C  C63  1  0.53642425  0.84427414  0.47073394  1
  C  C64  1  0.30896933  0.45919907  0.46925784  1
  C  C65  1  0.15510564  0.69220905  0.47146478  1
  C  C66  1  0.11883909  0.62695543  0.36110427  1
  C  C67  1  0.50663475  0.87074276  0.36012531  1
  C  C68  1  0.36573612  0.48638153  0.36305287  1
  C  C69  1  0.12064442  0.48638153  0.86305287  1
  C  C70  1  0.36410701  0.87074276  0.86012531  1
  C  C71  1  0.50811534  0.62695543  0.86110427  1
  C  C72  1  0.02264318  0.83015885  0.41010325  1
  C  C73  1  0.80473901  0.98055852  0.40980822  1
  C  C74  1  0.17754817  0.20081959  0.41085659  1
  C  C75  1  0.02327142  0.20081959  0.91085659  1
  C  C76  1  0.17581951  0.98055852  0.90980822  1
  C  C77  1  0.80751568  0.83015885  0.91010325  1
  C  C78  1  0.97756707  0.16334202  0.58902958  1
  C  C79  1  0.19466131  0.02441018  0.58997703  1
  C  C80  1  0.84384496  0.81207308  0.59103170  1
  C  C81  1  0.96822812  0.81207308  0.09103170  1
  C  C82  1  0.82974887  0.02441018  0.08997703  1
  C  C83  1  0.18577495  0.16334202  0.08902958  1
  C  C84  1  0.68931018  0.16349185  0.74343625  1
  C  C85  1  0.47140601  0.31389152  0.74314122  1
  C  C86  1  0.84421517  0.53415259  0.74418959  1
  C  C87  1  0.68993842  0.53415259  0.24418959  1
  C  C88  1  0.84248651  0.31389152  0.24314122  1
  C  C89  1  0.47418268  0.16349185  0.24343625  1
  C  C90  1  0.64423407  0.49667502  0.92236258  1
  C  C91  1  0.86132831  0.35774318  0.92331003  1
  C  C92  1  0.51051196  0.14540608  0.92436470  1
  C  C93  1  0.63489512  0.14540608  0.42436470  1
  C  C94  1  0.49641587  0.35774318  0.42331003  1
  C  C95  1  0.85244195  0.49667502  0.42236258  1
  C  C96  1  0.35597618  0.49682585  0.07677025  1
  C  C97  1  0.13807201  0.64722552  0.07647522  1
  C  C98  1  0.51088117  0.86748659  0.07752359  1
  C  C99  1  0.35660442  0.86748659  0.57752359  1
  C  C100  1  0.50915251  0.64722552  0.57647522  1
  C  C101  1  0.14084868  0.49682585  0.57677025  1
  C  C102  1  0.31090007  0.83000902  0.25569658  1
  C  C103  1  0.52799431  0.69107718  0.25664403  1
  C  C104  1  0.17717796  0.47874008  0.25769870  1
  C  C105  1  0.30156112  0.47874008  0.75769870  1
  C  C106  1  0.16308187  0.69107718  0.75664403  1
  C  C107  1  0.51910795  0.83000902  0.75569658  1
