# generated using pymatgen
data_Cu2Ni7C32
_symmetry_space_group_name_H-M   'P 1'
_cell_length_a   18.88887787
_cell_length_b   9.38205173
_cell_length_c   23.21538884
_cell_angle_alpha   89.90769901
_cell_angle_beta   90.32589327
_cell_angle_gamma   119.81559794
_symmetry_Int_Tables_number   1
_chemical_formula_structural   Cu2Ni7C32
_chemical_formula_sum   'Cu12 Ni42 C192'
_cell_volume   3569.49777074
_cell_formula_units_Z   6
loop_
 _symmetry_equiv_pos_site_id
 _symmetry_equiv_pos_as_xyz
  1  'x, y, z'
loop_
 _atom_site_type_symbol
 _atom_site_label
 _atom_site_symmetry_multiplicity
 _atom_site_fract_x
 _atom_site_fract_y
 _atom_site_fract_z
 _atom_site_occupancy
  Ni  Ni0  1  0.80691235  0.98947523  0.25303160  1
  Ni  Ni1  1  0.18284990  0.34961552  0.25600684  1
  Ni  Ni2  1  0.68566208  0.35292137  0.25310521  1
  Ni  Ni3  1  0.00137966  0.65172498  0.24547047  1
  Ni  Ni4  1  0.51540068  0.66004839  0.24202584  1
  Ni  Ni5  1  0.31755219  0.62022021  0.75558473  1
  Ni  Ni6  1  0.01429713  0.36829599  0.74281537  1
  Ni  Ni7  1  0.49941948  0.36907685  0.74403508  1
  Ni  Ni8  1  0.18886733  0.02648200  0.75198515  1
  Ni  Ni9  1  0.66665900  0.99400567  0.75286293  1
  Ni  Ni10  1  0.15005463  0.32971490  0.58208197  1
  Ni  Ni11  1  0.65218323  0.32265703  0.58063436  1
  Ni  Ni12  1  0.32957263  0.98388880  0.59298930  1
  Ni  Ni13  1  0.83252603  0.99676210  0.58291338  1
  Ni  Ni14  1  0.15883814  0.99312111  0.07028498  1
  Ni  Ni15  1  0.64734605  0.96803299  0.07521003  1
  Ni  Ni16  1  0.33484420  0.67119800  0.07663164  1
  Ni  Ni17  1  0.82735464  0.67318232  0.08520437  1
  Ni  Ni18  1  0.48518173  0.68370629  0.91640521  1
  Ni  Ni19  1  0.99603987  0.68929932  0.91227071  1
  Ni  Ni20  1  0.33803894  0.03035840  0.90835823  1
  Ni  Ni21  1  0.83872748  0.03457413  0.91063855  1
  Ni  Ni22  1  0.17226341  0.28413717  0.91076618  1
  Ni  Ni23  1  0.66245296  0.28359772  0.91412868  1
  Ni  Ni24  1  0.49708838  0.30343242  0.41742145  1
  Ni  Ni25  1  0.98608024  0.29236558  0.43455503  1
  Ni  Ni26  1  0.16878960  0.05043575  0.42536599  1
  Ni  Ni27  1  0.67182522  0.06094879  0.41959896  1
  Ni  Ni28  1  0.34287120  0.64490594  0.41774920  1
  Ni  Ni29  1  0.83526705  0.64353440  0.41486229  1
  Ni  Ni30  1  0.01515301  0.02109827  0.50490662  1
  Ni  Ni31  1  0.51741033  0.01311152  0.49763304  1
  Ni  Ni32  1  0.01832601  0.02601279  0.99078144  1
  Ni  Ni33  1  0.51450702  0.00627192  0.99871342  1
  Ni  Ni34  1  0.32745387  0.33507419  0.82649148  1
  Ni  Ni35  1  0.81614461  0.32169487  0.83559321  1
  Ni  Ni36  1  0.31960137  0.31052159  0.33699177  1
  Ni  Ni37  1  0.81403078  0.31560128  0.33540060  1
  Ni  Ni38  1  0.16903439  0.66857924  0.16336057  1
  Ni  Ni39  1  0.65014550  0.64709116  0.16223552  1
  Ni  Ni40  1  0.15390102  0.65278176  0.66728870  1
  Ni  Ni41  1  0.65516324  0.66619422  0.67288407  1
  Cu  Cu42  1  0.01164855  0.01439198  0.65018106  1
  Cu  Cu43  1  0.50748446  0.99386412  0.65138900  1
  Cu  Cu44  1  0.00847677  0.01300864  0.14768590  1
  Cu  Cu45  1  0.51210417  0.00934385  0.14877470  1
  Cu  Cu46  1  0.83047567  0.33368353  0.68365867  1
  Cu  Cu47  1  0.33205524  0.32800842  0.18207987  1
  Cu  Cu48  1  0.15723336  0.65205583  0.00928229  1
  Cu  Cu49  1  0.65503221  0.64942888  0.01708593  1
  Cu  Cu50  1  0.15590821  0.66496968  0.51996025  1
  Cu  Cu51  1  0.65755818  0.66365414  0.51118495  1
  Cu  Cu52  1  0.17155447  0.67764526  0.32387960  1
  Cu  Cu53  1  0.66614842  0.66269203  0.82124321  1
  C  C54  1  0.00967105  0.01333456  0.35017575  1
  C  C55  1  0.51843436  0.02206500  0.34635127  1
  C  C56  1  0.01579521  0.01244455  0.84582855  1
  C  C57  1  0.51234117  0.98629216  0.84411535  1
  C  C58  1  0.32592337  0.33766366  0.68734286  1
  C  C59  1  0.81832996  0.30859695  0.18269610  1
  C  C60  1  0.32925494  0.33251953  0.98616376  1
  C  C61  1  0.82287992  0.32254012  0.98603541  1
  C  C62  1  0.32326076  0.32675605  0.48755029  1
  C  C63  1  0.82968762  0.32952288  0.48814746  1
  C  C64  1  0.66846528  0.66365044  0.31917088  1
  C  C65  1  0.17179329  0.67800514  0.81849551  1
  C  C66  1  0.14854090  0.99546027  0.25328281  1
  C  C67  1  0.65635068  0.99305481  0.25413520  1
  C  C68  1  0.15460406  0.32023365  0.75453437  1
  C  C69  1  0.64989702  0.29944814  0.75316700  1
  C  C70  1  0.49226791  0.67966268  0.75440030  1
  C  C71  1  0.97915808  0.32719617  0.58015544  1
  C  C72  1  0.19500808  0.05034547  0.58495189  1
  C  C73  1  0.68438066  0.03411611  0.57791299  1
  C  C74  1  0.47929212  0.63046778  0.08093664  1
  C  C75  1  0.18472432  0.33747543  0.08063238  1
  C  C76  1  0.69276702  0.34231766  0.08487306  1
  C  C77  1  0.16706539  0.97298344  0.91588200  1
  C  C78  1  0.66916842  0.98699244  0.91721942  1
  C  C79  1  0.16747726  0.35241604  0.41469321  1
  C  C80  1  0.66730650  0.36214561  0.41417770  1
  C  C81  1  0.35395376  0.70776807  0.25422497  1
  C  C82  1  0.84941280  0.69937174  0.25367941  1
  C  C83  1  0.99386854  0.29900917  0.25393071  1
  C  C84  1  0.50551876  0.31029414  0.25961173  1
  C  C85  1  0.00622292  0.70086999  0.75974068  1
  C  C86  1  0.34617489  0.99537806  0.75342951  1
  C  C87  1  0.85593444  0.00224377  0.75483640  1
  C  C88  1  0.47228497  0.33123524  0.58220610  1
  C  C89  1  0.33404872  0.62000338  0.58093474  1
  C  C90  1  0.83348243  0.63446159  0.57577350  1
  C  C91  1  0.97275911  0.60997692  0.08513852  1
  C  C92  1  0.33188850  0.02949836  0.07660746  1
  C  C93  1  0.83387571  0.05042437  0.08279772  1
  C  C94  1  0.32019212  0.67135458  0.91330567  1
  C  C95  1  0.83013711  0.67140742  0.92122356  1
  C  C96  1  0.00874409  0.35025654  0.90992230  1
  C  C97  1  0.50167723  0.33708617  0.91470714  1
  C  C98  1  0.33045965  0.98928708  0.42020426  1
  C  C99  1  0.82190320  0.96949828  0.41024125  1
  C  C100  1  0.00354152  0.66887804  0.41202881  1
  C  C101  1  0.51008126  0.66893079  0.40829240  1
  C  C102  1  0.09313325  0.00225001  0.30554984  1
  C  C103  1  0.61057767  0.03092722  0.30692408  1
  C  C104  1  0.40004665  0.81041096  0.30439644  1
  C  C105  1  0.90190720  0.79269821  0.30313393  1
  C  C106  1  0.49753738  0.20469966  0.30969755  1
  C  C107  1  0.98437764  0.19560618  0.30490569  1
  C  C108  1  0.10664814  0.19285063  0.80769184  1
  C  C109  1  0.59577627  0.18531055  0.80662658  1
  C  C110  1  0.47958681  0.76540014  0.81181976  1
  C  C111  1  0.99741744  0.78927452  0.80994402  1
  C  C112  1  0.39943327  0.01091990  0.80303481  1
  C  C113  1  0.90322312  0.99203793  0.80454131  1
  C  C114  1  0.38015142  0.96956113  0.69868254  1
  C  C115  1  0.89179298  0.99156785  0.69931008  1
  C  C116  1  0.09693746  0.24839309  0.69516911  1
  C  C117  1  0.60411250  0.22853441  0.68987444  1
  C  C118  1  0.01102964  0.79025292  0.70564920  1
  C  C119  1  0.51173696  0.80361411  0.69935286  1
  C  C120  1  0.39012047  0.79058841  0.19914193  1
  C  C121  1  0.88396448  0.79521752  0.19923893  1
  C  C122  1  0.00566081  0.22240908  0.20165543  1
  C  C123  1  0.51049219  0.23209776  0.20542249  1
  C  C124  1  0.10107838  0.97553302  0.19077722  1
  C  C125  1  0.59986254  0.95270892  0.19482453  1
  C  C126  1  0.43193956  0.33720313  0.63560419  1
  C  C127  1  0.93889191  0.33633332  0.64161413  1
  C  C128  1  0.24676565  0.14675132  0.64218545  1
  C  C129  1  0.73102100  0.11389430  0.63962042  1
  C  C130  1  0.33473666  0.53157696  0.63310149  1
  C  C131  1  0.82756905  0.54428497  0.62914291  1
  C  C132  1  0.44185719  0.54527946  0.14428806  1
  C  C133  1  0.93266469  0.52142109  0.13888108  1
  C  C134  1  0.32585894  0.10615430  0.13102082  1
  C  C135  1  0.83524062  0.13913808  0.13613068  1
  C  C136  1  0.22724619  0.34735304  0.14418037  1
  C  C137  1  0.74121820  0.35304677  0.14490216  1
  C  C138  1  0.23596912  0.32422653  0.02695997  1
  C  C139  1  0.73939206  0.33789739  0.02674295  1
  C  C140  1  0.42528790  0.52263434  0.02602796  1
  C  C141  1  0.93121825  0.51792841  0.03232221  1
  C  C142  1  0.33537826  0.12771142  0.02606034  1
  C  C143  1  0.84060961  0.14572393  0.03025503  1
  C  C144  1  0.23546444  0.13766294  0.52320844  1
  C  C145  1  0.73470811  0.14197586  0.52215767  1
  C  C146  1  0.34017965  0.53985099  0.52722230  1
  C  C147  1  0.83793303  0.54521921  0.52417520  1
  C  C148  1  0.43104553  0.34368427  0.52920389  1
  C  C149  1  0.92939199  0.33203793  0.52272926  1
  C  C150  1  0.28426085  0.69213675  0.96821683  1
  C  C151  1  0.79318270  0.70134528  0.97349955  1
  C  C152  1  0.06050276  0.40901006  0.96328730  1
  C  C153  1  0.56152202  0.41350743  0.96311791  1
  C  C154  1  0.14674275  0.86698891  0.97809098  1
  C  C155  1  0.65684087  0.86904448  0.97352546  1
  C  C156  1  0.29186093  0.88329447  0.47110650  1
  C  C157  1  0.78758566  0.87345704  0.46451569  1
  C  C158  1  0.15338432  0.45354632  0.46741971  1
  C  C159  1  0.64862072  0.43439061  0.47473265  1
  C  C160  1  0.06372915  0.71079880  0.45983628  1
  C  C161  1  0.56200444  0.71296457  0.46133759  1
  C  C162  1  0.03930165  0.63667771  0.35926053  1
  C  C163  1  0.55457505  0.64515622  0.35996195  1
  C  C164  1  0.27251576  0.91906200  0.37034544  1
  C  C165  1  0.76527885  0.88029562  0.36165686  1
  C  C166  1  0.18289540  0.46079564  0.35447262  1
  C  C167  1  0.67956980  0.49169869  0.36186717  1
  C  C168  1  0.05351054  0.46283051  0.86179969  1
  C  C169  1  0.53843402  0.44177333  0.86258413  1
  C  C170  1  0.17857954  0.86185325  0.86573357  1
  C  C171  1  0.68790840  0.90558712  0.86005934  1
  C  C172  1  0.26363270  0.64802936  0.86490090  1
  C  C173  1  0.77118217  0.62750421  0.87235977  1
  C  C174  1  0.98927659  0.80700080  0.40539167  1
  C  C175  1  0.49351794  0.80642018  0.39920915  1
  C  C176  1  0.40838796  0.99250364  0.40877351  1
  C  C177  1  0.90349786  0.98612591  0.40220095  1
  C  C178  1  0.08322081  0.17004627  0.41223857  1
  C  C179  1  0.58451997  0.17597948  0.40946431  1
  C  C180  1  0.99215805  0.17886400  0.90131191  1
  C  C181  1  0.48811730  0.16927153  0.90753878  1
  C  C182  1  0.08400843  0.99252314  0.90901428  1
  C  C183  1  0.58376569  0.99497787  0.91230589  1
  C  C184  1  0.40066483  0.82170381  0.90709378  1
  C  C185  1  0.90829522  0.82525482  0.90962935  1
  C  C186  1  0.47240202  0.17063173  0.57885875  1
  C  C187  1  0.97992034  0.15040124  0.57730982  1
  C  C188  1  0.10319856  0.03427550  0.58345366  1
  C  C189  1  0.59532428  0.02807190  0.57558212  1
  C  C190  1  0.40124741  0.79408366  0.58036460  1
  C  C191  1  0.90452215  0.80206776  0.57702541  1
  C  C192  1  0.48117650  0.81013513  0.07794221  1
  C  C193  1  0.97194348  0.77054535  0.08297506  1
  C  C194  1  0.40248516  0.00314266  0.07813425  1
  C  C195  1  0.90199748  0.01320771  0.08313826  1
  C  C196  1  0.09445661  0.16471997  0.07676129  1
  C  C197  1  0.60206985  0.17340255  0.08203892  1
  C  C198  1  0.34090493  0.14862068  0.74946001  1
  C  C199  1  0.85788414  0.16351696  0.75876629  1
  C  C200  1  0.24370913  0.32891572  0.74751295  1
  C  C201  1  0.73730440  0.29789617  0.75606471  1
  C  C202  1  0.41312789  0.49688922  0.74415027  1
  C  C203  1  0.93553793  0.53121307  0.75885121  1
  C  C204  1  0.35335411  0.54750193  0.25830586  1
  C  C205  1  0.84712919  0.53778051  0.25022770  1
  C  C206  1  0.43464368  0.33823770  0.25917216  1
  C  C207  1  0.92138519  0.31929794  0.24765478  1
  C  C208  1  0.23753749  0.16660910  0.25594148  1
  C  C209  1  0.74871380  0.16026147  0.24734583  1
  C  C210  1  0.32904940  0.52224636  0.91670021  1
  C  C211  1  0.84632815  0.53330989  0.92832849  1
  C  C212  1  0.42377319  0.33394334  0.92538001  1
  C  C213  1  0.93045319  0.34822113  0.91897772  1
  C  C214  1  0.25153682  0.15539484  0.91982797  1
  C  C215  1  0.75247225  0.17109238  0.92261799  1
  C  C216  1  0.34584003  0.16029037  0.42731684  1
  C  C217  1  0.83024261  0.13600853  0.41444022  1
  C  C218  1  0.25230042  0.34112294  0.42219087  1
  C  C219  1  0.75231823  0.34959882  0.41871320  1
  C  C220  1  0.43150024  0.51403383  0.41723001  1
  C  C221  1  0.92493670  0.51509626  0.42308048  1
  C  C222  1  0.17990106  0.50918654  0.08021936  1
  C  C223  1  0.68649300  0.51361088  0.08582875  1
  C  C224  1  0.06033611  0.65161921  0.08616769  1
  C  C225  1  0.57567598  0.67401292  0.08336362  1
  C  C226  1  0.25496837  0.86460410  0.07566065  1
  C  C227  1  0.75591218  0.88944056  0.08273239  1
  C  C228  1  0.18895825  0.86609998  0.58735081  1
  C  C229  1  0.68046172  0.85328256  0.57888890  1
  C  C230  1  0.25529335  0.62317173  0.58064831  1
  C  C231  1  0.75718486  0.64584590  0.57392538  1
  C  C232  1  0.07598130  0.47558837  0.58373224  1
  C  C233  1  0.55986448  0.46640958  0.58347699  1
  C  C234  1  0.15300835  0.82238865  0.25362043  1
  C  C235  1  0.66521698  0.82624217  0.26312631  1
  C  C236  1  0.26687418  0.66994410  0.25363091  1
  C  C237  1  0.76539849  0.67334718  0.25923617  1
  C  C238  1  0.06866346  0.46469389  0.25813764  1
  C  C239  1  0.58200348  0.47361532  0.26253958  1
  C  C240  1  0.16563245  0.50629638  0.76292472  1
  C  C241  1  0.66064565  0.48467579  0.75375826  1
  C  C242  1  0.08272858  0.69223374  0.76285280  1
  C  C243  1  0.57692277  0.66605562  0.75606018  1
  C  C244  1  0.26260813  0.85146823  0.75965264  1
  C  C245  1  0.76976045  0.86803733  0.75478551  1
