# generated using pymatgen
data_Cu3NiC33
_symmetry_space_group_name_H-M   'P 1'
_cell_length_a   17.48828600
_cell_length_b   8.79749838
_cell_length_c   22.46766131
_cell_angle_alpha   89.97885151
_cell_angle_beta   90.04313213
_cell_angle_gamma   120.21152359
_symmetry_Int_Tables_number   1
_chemical_formula_structural   Cu3NiC33
_chemical_formula_sum   'Cu18 Ni6 C198'
_cell_volume   2987.20611767
_cell_formula_units_Z   6
loop_
 _symmetry_equiv_pos_site_id
 _symmetry_equiv_pos_as_xyz
  1  'x, y, z'
loop_
 _atom_site_type_symbol
 _atom_site_label
 _atom_site_symmetry_multiplicity
 _atom_site_fract_x
 _atom_site_fract_y
 _atom_site_fract_z
 _atom_site_occupancy
  C  C0  1  0.65715439  0.34804104  0.58379720  1
  C  C1  1  0.51923492  0.68923309  0.58578815  1
  C  C2  1  0.82412497  0.96183365  0.58386101  1
  C  C3  1  0.15625996  0.96402860  0.08669198  1
  C  C4  1  0.32412059  0.68843460  0.08641776  1
  C  C5  1  0.01941394  0.35070353  0.08845524  1
  C  C6  1  0.00709882  0.99929019  0.49546737  1
  C  C7  1  0.49443836  0.00118673  0.49840818  1
  C  C8  1  0.99606461  0.98937251  0.00080121  1
  C  C9  1  0.50529010  0.01096078  0.99890711  1
  C  C10  1  0.32986245  0.32633459  0.82491709  1
  C  C11  1  0.82996694  0.32886034  0.83356477  1
  C  C12  1  0.32739532  0.32878181  0.33392128  1
  C  C13  1  0.83455273  0.33815749  0.32687161  1
  C  C14  1  0.16433080  0.66431090  0.16341298  1
  C  C15  1  0.66929952  0.66928992  0.16781167  1
  C  C16  1  0.16969992  0.66824752  0.66372006  1
  C  C17  1  0.66493159  0.66471144  0.65866860  1
  Ni  Ni18  1  0.33355421  0.32855655  0.69141166  1
  Ni  Ni19  1  0.83000162  0.33079152  0.68396065  1
  Ni  Ni20  1  0.32971783  0.32847517  0.18539712  1
  Ni  Ni21  1  0.83474426  0.34007979  0.19275414  1
  Ni  Ni22  1  0.16622818  0.66925425  0.02058319  1
  Ni  Ni23  1  0.66636995  0.66452994  0.52010455  1
  Cu  Cu24  1  0.00151735  0.98963728  0.35700206  1
  Cu  Cu25  1  0.50174498  0.99936600  0.35372932  1
  Cu  Cu26  1  0.00258899  0.00332714  0.85343947  1
  Cu  Cu27  1  0.50133803  0.99892778  0.85144833  1
  Cu  Cu28  1  0.00695958  0.00815706  0.64424413  1
  Cu  Cu29  1  0.49136788  0.00263026  0.64143424  1
  Cu  Cu30  1  0.99393542  0.98241385  0.14607886  1
  Cu  Cu31  1  0.50377836  0.00618343  0.14861341  1
  Cu  Cu32  1  0.32830684  0.31430153  0.98647320  1
  Cu  Cu33  1  0.83206720  0.35039097  0.97647250  1
  Cu  Cu34  1  0.33178582  0.31338470  0.47506699  1
  Cu  Cu35  1  0.83219580  0.35380578  0.48356554  1
  Cu  Cu36  1  0.67183905  0.67996911  0.01443949  1
  Cu  Cu37  1  0.16737397  0.66693775  0.51056378  1
  Cu  Cu38  1  0.16368072  0.65945749  0.31981238  1
  Cu  Cu39  1  0.67347321  0.68328913  0.30799320  1
  Cu  Cu40  1  0.17214793  0.66370666  0.80692916  1
  Cu  Cu41  1  0.67243332  0.67933905  0.81642685  1
  C  C42  1  0.64584569  0.00276905  0.25069967  1
  C  C43  1  0.85779835  0.70985333  0.25271689  1
  C  C44  1  0.14571331  0.28830607  0.75033604  1
  C  C45  1  0.35821436  0.00695029  0.75155221  1
  C  C46  1  0.47323875  0.33502104  0.58554823  1
  C  C47  1  0.68827617  0.04306198  0.58535387  1
  C  C48  1  0.83714455  0.63074482  0.58787469  1
  C  C49  1  0.97359386  0.61548270  0.08580719  1
  C  C50  1  0.33794744  0.04407144  0.08717496  1
  C  C51  1  0.18608013  0.33396268  0.08725781  1
  C  C52  1  0.81455512  0.67373942  0.91488802  1
  C  C53  1  0.66643744  0.96208685  0.91692157  1
  C  C54  1  0.31292159  0.95202345  0.41399857  1
  C  C55  1  0.16697384  0.37461302  0.41657977  1
  C  C56  1  0.01722860  0.65674283  0.41686140  1
  C  C57  1  0.14520237  0.99793365  0.25066118  1
  C  C58  1  0.35527433  0.71117057  0.24959871  1
  C  C59  1  0.00390131  0.28949970  0.24989091  1
  C  C60  1  0.49935970  0.28849124  0.25201914  1
  C  C61  1  0.64469623  0.29231215  0.75073426  1
  C  C62  1  -0.00049404  0.71164025  0.75163217  1
  C  C63  1  0.50358585  0.71418158  0.74990494  1
  C  C64  1  0.85562729  -0.00029052  0.75014447  1
  C  C65  1  0.98193207  0.34063235  0.58482074  1
  C  C66  1  0.18960713  0.04028126  0.58412833  1
  C  C67  1  0.32783271  0.61620571  0.58420362  1
  C  C68  1  0.48109441  0.62200939  0.08374799  1
  C  C69  1  0.82896943  0.04138148  0.08345890  1
  C  C70  1  0.68808961  0.33657469  0.08321112  1
  C  C71  1  0.31279313  0.66462107  0.91600149  1
  C  C72  1  0.02165506  0.37663317  0.91590801  1
  C  C73  1  0.52203949  0.37985851  0.91593076  1
  C  C74  1  0.16813252  0.95859295  0.91515818  1
  C  C75  1  0.81156954  0.95928347  0.41641872  1
  C  C76  1  0.66637189  0.37734504  0.41488057  1
  C  C77  1  0.52139369  0.66628528  0.41573976  1
  C  C78  1  0.10043623  0.01569953  0.30409302  1
  C  C79  1  0.58926632  0.01705829  0.30715062  1
  C  C80  1  0.40973226  0.80793753  0.30233104  1
  C  C81  1  0.91837465  0.82506185  0.30893132  1
  C  C82  1  0.48720334  0.17864886  0.30523695  1
  C  C83  1  0.99873348  0.18402172  0.30233344  1
  C  C84  1  0.08922519  0.16170485  0.80737833  1
  C  C85  1  0.59914606  0.18166554  0.80474725  1
  C  C86  1  0.49861794  0.81288830  0.80343996  1
  C  C87  1  0.98746647  0.79701521  0.80574698  1
  C  C88  1  0.41843558  0.01233966  0.80918904  1
  C  C89  1  0.90882177  0.01017374  0.80346759  1
  C  C90  1  0.40410673  0.96748300  0.69406332  1
  C  C91  1  0.89413637  0.97365067  0.69483183  1
  C  C92  1  0.08056126  0.18950868  0.69284350  1
  C  C93  1  0.59296751  0.20828380  0.69603739  1
  C  C94  1  0.01184004  0.82024516  0.69793907  1
  C  C95  1  0.51798746  0.81820219  0.69501838  1
  C  C96  1  0.39770771  0.81807361  0.19352537  1
  C  C97  1  0.90297368  0.83822186  0.19373641  1
  C  C98  1  0.01544172  0.21071542  0.19319965  1
  C  C99  1  0.51119292  0.20201511  0.19749542  1
  C  C100  1  0.09283830  0.98049169  0.19510268  1
  C  C101  1  0.58065352  0.97192271  0.19234632  1
  C  C102  1  0.43403427  0.38388203  0.64087352  1
  C  C103  1  0.94389560  0.36223080  0.63989026  1
  C  C104  1  0.24038631  0.12215084  0.63742243  1
  C  C105  1  0.75235033  0.11951910  0.64155556  1
  C  C106  1  0.31567199  0.51818092  0.63884016  1
  C  C107  1  0.81709347  0.50759932  0.64379563  1
  C  C108  1  0.44405891  0.52344992  0.13811090  1
  C  C109  1  0.93171525  0.48125950  0.13896609  1
  C  C110  1  0.31853539  0.13071413  0.14211424  1
  C  C111  1  0.81287338  0.10850227  0.13745613  1
  C  C112  1  0.25375322  0.38658406  0.14090736  1
  C  C113  1  0.74012528  0.36423375  0.13604439  1
  C  C114  1  0.23628980  0.29254475  0.02779071  1
  C  C115  1  0.72583651  0.30518302  0.02768021  1
  C  C116  1  0.42373901  0.53949255  0.02976439  1
  C  C117  1  0.91065037  0.52143028  0.02456815  1
  C  C118  1  0.35474090  0.17215535  0.02554730  1
  C  C119  1  0.84160231  0.14794638  0.02928737  1
  C  C120  1  0.22566645  0.14487121  0.52871549  1
  C  C121  1  0.73677953  0.18124370  0.52703986  1
  C  C122  1  0.34280755  0.53776967  0.53053467  1
  C  C123  1  0.85604732  0.54272696  0.52655507  1
  C  C124  1  0.41049858  0.30261655  0.52514970  1
  C  C125  1  0.92500567  0.30671487  0.53159076  1
  C  C126  1  0.27478814  0.69244364  0.97001712  1
  C  C127  1  0.76363703  0.69560328  0.97301252  1
  C  C128  1  0.07249932  0.44919096  0.97052648  1
  C  C129  1  0.57638751  0.46213506  0.97024615  1
  C  C130  1  0.15558963  0.86114291  0.97040632  1
  C  C131  1  0.65043667  0.83010633  0.97407937  1
  C  C132  1  0.26797969  0.83442388  0.47380832  1
  C  C133  1  0.77290496  0.85212991  0.47016737  1
  C  C134  1  0.15048511  0.46959553  0.47433432  1
  C  C135  1  0.65359742  0.44960897  0.47046783  1
  C  C136  1  0.08202608  0.69471736  0.47473562  1
  C  C137  1  0.57215977  0.69556635  0.47081456  1
  C  C138  1  0.06705740  0.63271572  0.35864666  1
  C  C139  1  0.56433065  0.64198222  0.36328661  1
  C  C140  1  0.24991165  0.86146097  0.35614234  1
  C  C141  1  0.75435911  0.86485830  0.36306414  1
  C  C142  1  0.18435973  0.50235643  0.35852957  1
  C  C143  1  0.67510650  0.48526838  0.36247657  1
  C  C144  1  0.06461007  0.48771420  0.86316940  1
  C  C145  1  0.56544851  0.48718076  0.86220100  1
  C  C146  1  0.17741029  0.86966112  0.86252612  1
  C  C147  1  0.67888509  0.85702904  0.85965655  1
  C  C148  1  0.25556804  0.64117585  0.86293813  1
  C  C149  1  0.75043927  0.64146322  0.85711524  1
  C  C150  1  0.00975509  0.83438182  0.40968673  1
  C  C151  1  0.51030922  0.82488408  0.40848322  1
  C  C152  1  0.41147023  0.97750672  0.40669000  1
  C  C153  1  0.90084964  0.98027397  0.40876835  1
  C  C154  1  0.07928496  0.18304681  0.40776224  1
  C  C155  1  0.58608772  0.19635073  0.40823872  1
  C  C156  1  0.01031017  0.19591411  0.90807959  1
  C  C157  1  0.51374561  0.20327160  0.91094442  1
  C  C158  1  0.08819665  0.98016451  0.90855752  1
  C  C159  1  0.57865613  0.97906559  0.90891256  1
  C  C160  1  0.40246102  0.82468287  0.90807094  1
  C  C161  1  0.91145331  0.84667669  0.90829604  1
  C  C162  1  0.48065774  0.15195488  0.59092303  1
  C  C163  1  0.98742747  0.17209980  0.58879701  1
  C  C164  1  0.09783259  0.02078915  0.58912745  1
  C  C165  1  0.58939471  0.02868002  0.59239305  1
  C  C166  1  0.41393764  0.79580390  0.58822053  1
  C  C167  1  0.92593190  0.83165615  0.59403839  1
  C  C168  1  0.48814695  0.80058560  0.08674211  1
  C  C169  1  0.98193450  0.81315214  0.09183943  1
  C  C170  1  0.42655538  0.01999046  0.09197271  1
  C  C171  1  0.91204381  0.02903603  0.08686256  1
  C  C172  1  0.08876312  0.15121741  0.09114210  1
  C  C173  1  0.59761202  0.17353344  0.08824181  1
  C  C174  1  0.34791214  0.17367232  0.75030504  1
  C  C175  1  0.84877787  0.15889418  0.74904359  1
  C  C176  1  0.24187362  0.31935561  0.74716619  1
  C  C177  1  0.73270422  0.30990006  0.75014254  1
  C  C178  1  0.42258466  0.54523631  0.74976909  1
  C  C179  1  0.92237613  0.53429110  0.74764347  1
  C  C180  1  0.35205594  0.54173501  0.24730272  1
  C  C181  1  0.84656924  0.52171798  0.25001590  1
  C  C182  1  0.42215207  0.31005733  0.24666135  1
  C  C183  1  0.92369237  0.30136794  0.24721577  1
  C  C184  1  0.23281771  0.15792007  0.24839945  1
  C  C185  1  0.74177592  0.16438126  0.24640060  1
  C  C186  1  0.32305533  0.50777554  0.91969886  1
  C  C187  1  0.82025977  0.49481968  0.92141907  1
  C  C188  1  0.43418811  0.36460825  0.92118034  1
  C  C189  1  0.93111527  0.35254989  0.92033501  1
  C  C190  1  0.24889591  0.13916807  0.91874598  1
  C  C191  1  0.75527804  0.14938684  0.92584545  1
  C  C192  1  0.32184255  0.14638969  0.42166480  1
  C  C193  1  0.81809626  0.13142818  0.41952385  1
  C  C194  1  0.25445995  0.35805529  0.42745295  1
  C  C195  1  0.74623903  0.35823137  0.41836218  1
  C  C196  1  0.43090552  0.50982271  0.42020709  1
  C  C197  1  0.92143813  0.48012833  0.42449401  1
  C  C198  1  0.17093702  0.49477437  0.07296106  1
  C  C199  1  0.67388017  0.48936426  0.07415328  1
  C  C200  1  0.07342773  0.65988067  0.07369201  1
  C  C201  1  0.57046261  0.64388641  0.07497258  1
  C  C202  1  0.25541508  0.85286460  0.07363598  1
  C  C203  1  0.75126697  0.85509968  0.07542945  1
  C  C204  1  0.17653759  0.86100285  0.57802264  1
  C  C205  1  0.66988168  0.84773697  0.57301247  1
  C  C206  1  0.25263706  0.64903986  0.57778584  1
  C  C207  1  0.75511098  0.65922837  0.57443676  1
  C  C208  1  0.07199964  0.49327427  0.57793810  1
  C  C209  1  0.57374229  0.48777885  0.57391399  1
  C  C210  1  0.15089992  0.83562884  0.25338651  1
  C  C211  1  0.64497292  0.81349489  0.25963137  1
  C  C212  1  0.26752789  0.69590664  0.25256187  1
  C  C213  1  0.75928490  0.69874923  0.25981644  1
  C  C214  1  0.08520277  0.46953184  0.25341885  1
  C  C215  1  0.58215414  0.46097372  0.25683298  1
  C  C216  1  0.14559567  0.47692921  0.75991382  1
  C  C217  1  0.64916733  0.46519716  0.75703055  1
  C  C218  1  0.08232032  0.70339016  0.75805498  1
  C  C219  1  0.58317294  0.69382713  0.75766050  1
  C  C220  1  0.25997297  0.82156356  0.76040141  1
  C  C221  1  0.76554927  0.83693878  0.75560289  1
