# generated using pymatgen
data_Cu2NiC10
_symmetry_space_group_name_H-M   'P 1'
_cell_length_a   3.77905617
_cell_length_b   3.77905562
_cell_length_c   13.01065664
_cell_angle_alpha   98.35055135
_cell_angle_beta   98.35055005
_cell_angle_gamma   90.00000524
_symmetry_Int_Tables_number   1
_chemical_formula_structural   Cu2NiC10
_chemical_formula_sum   'Cu2 Ni1 C10'
_cell_volume   181.84740567
_cell_formula_units_Z   1
loop_
 _symmetry_equiv_pos_site_id
 _symmetry_equiv_pos_as_xyz
  1  'x, y, z'
loop_
 _atom_site_type_symbol
 _atom_site_label
 _atom_site_symmetry_multiplicity
 _atom_site_fract_x
 _atom_site_fract_y
 _atom_site_fract_z
 _atom_site_occupancy
  C  C0  1  0.49999900  0.50000000  0.00000000  1
  C  C1  1  0.34223100  0.34223300  0.68446500  1
  C  C2  1  0.65776900  0.65776700  0.31553400  1
  Ni  Ni3  1  0.75000000  0.25000000  0.50000000  1
  Cu  Cu4  1  0.08097000  0.08097000  0.16194000  1
  Cu  Cu5  1  0.91903000  0.91903000  0.83806000  1
  C  C6  1  0.90578800  0.40578900  0.81157900  1
  C  C7  1  0.40802500  0.90802500  0.81605000  1
  C  C8  1  0.09197600  0.59197500  0.18395000  1
  C  C9  1  0.59421100  0.09421100  0.18842100  1
  C  C10  1  0.79074800  0.79075000  0.58149800  1
  C  C11  1  0.00000000  0.00000000  0.00000000  1
  C  C12  1  0.20925000  0.20925000  0.41850200  1
