# generated using pymatgen
data_Cu4Ni2C13
_symmetry_space_group_name_H-M   'P 1'
_cell_length_a   5.04243298
_cell_length_b   5.04243085
_cell_length_c   10.25007513
_cell_angle_alpha   89.99999718
_cell_angle_beta   89.99993199
_cell_angle_gamma   93.03151693
_symmetry_Int_Tables_number   1
_chemical_formula_structural   Cu4Ni2C13
_chemical_formula_sum   'Cu4 Ni2 C13'
_cell_volume   260.25492390
_cell_formula_units_Z   1
loop_
 _symmetry_equiv_pos_site_id
 _symmetry_equiv_pos_as_xyz
  1  'x, y, z'
loop_
 _atom_site_type_symbol
 _atom_site_label
 _atom_site_symmetry_multiplicity
 _atom_site_fract_x
 _atom_site_fract_y
 _atom_site_fract_z
 _atom_site_occupancy
  C  C0  1  0.23502874  0.76497126  1.00000000  1
  Ni  Ni1  1  0.86550188  0.13449712  1.00000000  1
  Ni  Ni2  1  0.52623524  0.47376476  0.50000000  1
  Cu  Cu3  1  0.02040376  0.97959625  0.34065799  1
  Cu  Cu4  1  0.02040375  0.97959625  0.65934201  1
  Cu  Cu5  1  0.51485781  0.48514119  0.19019045  1
  Cu  Cu6  1  0.51485880  0.48514220  0.80980855  1
  C  C7  1  0.19143043  0.80857057  0.50000000  1
  C  C8  1  0.21521952  0.78478248  0.80643957  1
  C  C9  1  0.21521852  0.78478148  0.19356043  1
  C  C10  1  0.30047501  0.27909353  0.32629916  1
  C  C11  1  0.30047201  0.27909253  0.67370084  1
  C  C12  1  0.30921276  0.33866099  1.00000000  1
  C  C13  1  0.66133801  0.69078724  0.00000000  1
  C  C14  1  0.72090847  0.69952499  0.32629916  1
  C  C15  1  0.72090747  0.69952699  0.67370184  1
  C  C16  1  0.80255435  0.19744365  0.20796077  1
  C  C17  1  0.80255235  0.19744765  0.79203923  1
  C  C18  1  0.84992013  0.15007887  0.50000000  1
