# generated using pymatgen
data_Cu(NiC4)2
_symmetry_space_group_name_H-M   'P 1'
_cell_length_a   6.01134825
_cell_length_b   6.06526472
_cell_length_c   6.60262161
_cell_angle_alpha   68.13251213
_cell_angle_beta   62.92062812
_cell_angle_gamma   60.29362306
_symmetry_Int_Tables_number   1
_chemical_formula_structural   Cu(NiC4)2
_chemical_formula_sum   'Cu1 Ni2 C8'
_cell_volume   182.78610686
_cell_formula_units_Z   1
loop_
 _symmetry_equiv_pos_site_id
 _symmetry_equiv_pos_as_xyz
  1  'x, y, z'
loop_
 _atom_site_type_symbol
 _atom_site_label
 _atom_site_symmetry_multiplicity
 _atom_site_fract_x
 _atom_site_fract_y
 _atom_site_fract_z
 _atom_site_occupancy
  Ni  Ni0  1  0.20536928  0.83241142  0.75684902  1
  Ni  Ni1  1  0.66195928  0.24721745  0.42886500  1
  Cu  Cu2  1  0.03242504  0.55197976  0.38317015  1
  C  C3  1  0.80304965  0.48435841  0.90954229  1
  C  C4  1  0.49426233  0.00429416  0.00718118  1
  C  C5  1  0.21576308  0.26746952  0.81349084  1
  C  C6  1  0.37877333  0.69007180  0.11972407  1
  C  C7  1  0.81143079  0.69007180  0.11972407  1
  C  C8  1  0.70327655  0.26746952  0.81349084  1
  C  C9  1  0.74476333  0.81960300  0.69087133  1
  C  C10  1  0.28226032  0.12422015  0.31125821  1
