# generated using pymatgen
data_Cu6NiC12
_symmetry_space_group_name_H-M   'P 1'
_cell_length_a   5.09322651
_cell_length_b   7.57734783
_cell_length_c   5.79661483
_cell_angle_alpha   101.14936619
_cell_angle_beta   100.92163557
_cell_angle_gamma   82.31392242
_symmetry_Int_Tables_number   1
_chemical_formula_structural   Cu6NiC12
_chemical_formula_sum   'Cu6 Ni1 C12'
_cell_volume   214.41417197
_cell_formula_units_Z   1
loop_
 _symmetry_equiv_pos_site_id
 _symmetry_equiv_pos_as_xyz
  1  'x, y, z'
loop_
 _atom_site_type_symbol
 _atom_site_label
 _atom_site_symmetry_multiplicity
 _atom_site_fract_x
 _atom_site_fract_y
 _atom_site_fract_z
 _atom_site_occupancy
  Ni  Ni0  1  0.48792100  0.99605100  0.96861800  1
  Cu  Cu1  1  0.57510400  0.02218200  0.46537100  1
  Cu  Cu2  1  0.51558500  0.35046300  0.81646000  1
  Cu  Cu3  1  0.47685900  0.65397200  0.19138100  1
  Cu  Cu4  1  0.99591500  0.65782100  0.66918400  1
  Cu  Cu5  1  0.98992800  0.31974900  0.33153900  1
  Cu  Cu6  1  0.99631200  0.99928500  0.02027800  1
  C  C7  1  0.77840200  0.09654300  0.27586900  1
  C  C8  1  0.70198900  0.76991600  0.46835500  1
  C  C9  1  0.70264500  0.10738100  0.79001900  1
  C  C10  1  0.67693000  0.43415000  0.12689100  1
  C  C11  1  0.28556300  0.56903100  0.87897600  1
  C  C12  1  0.32554900  0.22569200  0.53743800  1
  C  C13  1  0.32760100  0.89742700  0.20950800  1
  C  C14  1  0.80379900  0.43470600  0.62779700  1
  C  C15  1  0.77773800  0.77980600  0.94418500  1
  C  C16  1  0.21599900  0.21139900  0.03887400  1
  C  C17  1  0.19043200  0.89264900  0.73378600  1
  C  C18  1  0.17572200  0.55499500  0.38166300  1
