# generated using pymatgen
data_CuNi4C65
_symmetry_space_group_name_H-M   'P 1'
_cell_length_a   17.24558720
_cell_length_b   8.61221994
_cell_length_c   22.43406555
_cell_angle_alpha   90.08933512
_cell_angle_beta   89.98091845
_cell_angle_gamma   120.02023724
_symmetry_Int_Tables_number   1
_chemical_formula_structural   CuNi4C65
_chemical_formula_sum   'Cu3 Ni12 C195'
_cell_volume   2884.97816048
_cell_formula_units_Z   3
loop_
 _symmetry_equiv_pos_site_id
 _symmetry_equiv_pos_as_xyz
  1  'x, y, z'
loop_
 _atom_site_type_symbol
 _atom_site_label
 _atom_site_symmetry_multiplicity
 _atom_site_fract_x
 _atom_site_fract_y
 _atom_site_fract_z
 _atom_site_occupancy
  C  C0  1  0.00184259  0.96883361  0.49288239  1
  C  C1  1  0.50348411  0.02569621  0.00203207  1
  C  C2  1  0.34036461  0.33126630  0.83581865  1
  C  C3  1  0.84133461  0.35653623  0.83234275  1
  C  C4  1  0.33232767  0.33083842  0.33208455  1
  C  C5  1  0.83832953  0.34110908  0.32969865  1
  Ni  Ni6  1  0.00153493  0.99589313  0.34710605  1
  Ni  Ni7  1  0.50098228  0.00132440  0.35210671  1
  Ni  Ni8  1  0.99840018  0.99827921  0.14759249  1
  Ni  Ni9  1  0.50033903  0.00173346  0.15550062  1
  Ni  Ni10  1  0.32589195  0.32717954  0.18341292  1
  Ni  Ni11  1  0.84210624  0.34023978  0.18554214  1
  Ni  Ni12  1  0.83553769  0.33603144  0.98876720  1
  Ni  Ni13  1  0.33356646  0.33153645  0.47842360  1
  Ni  Ni14  1  0.16309845  0.66241591  0.02373714  1
  Ni  Ni15  1  0.66522972  0.66787288  0.51238317  1
  Ni  Ni16  1  0.16878911  0.67013301  0.31466726  1
  Ni  Ni17  1  0.66197184  0.65984015  0.31057900  1
  C  C18  1  0.00013707  0.99261238  0.85647504  1
  C  C19  1  0.49849124  0.00422319  0.85671154  1
  C  C20  1  0.00075571  0.99658582  0.64914104  1
  C  C21  1  0.49838251  0.99886356  0.63949926  1
  C  C22  1  0.33879438  0.34240745  0.68211520  1
  C  C23  1  0.83493233  0.34190012  0.68168297  1
  C  C24  1  0.33754953  0.33774207  0.98719799  1
  C  C25  1  0.84131097  0.34312751  0.47449514  1
  C  C26  1  0.66258644  0.65594113  0.02752515  1
  C  C27  1  0.16065300  0.67075553  0.51156362  1
  C  C28  1  0.15730654  0.66335256  0.81280463  1
  C  C29  1  0.66834965  0.66220324  0.81818098  1
  Cu  Cu30  1  0.99724336  0.69874248  0.74756886  1
  Cu  Cu31  1  0.51622919  0.37261954  0.92137191  1
  Cu  Cu32  1  0.02212717  0.67549832  0.40697596  1
  C  C33  1  0.14514375  0.00253411  0.24616626  1
  C  C34  1  0.64460363  0.00080528  0.25385170  1
  C  C35  1  0.35514786  0.71168358  0.25398300  1
  C  C36  1  0.85451311  0.70980769  0.24646960  1
  C  C37  1  0.00085553  0.28459962  0.25067435  1
  C  C38  1  0.49922218  0.28871800  0.24912260  1
  C  C39  1  0.15498584  0.30015215  0.75237166  1
  C  C40  1  0.64460393  0.29356109  0.74688252  1
  C  C41  1  0.50184646  0.70961863  0.75121822  1
  C  C42  1  0.35205355  0.00054706  0.74668643  1
  C  C43  1  0.84963980  0.00116347  0.75308261  1
  C  C44  1  0.48311530  0.34595381  0.57243056  1
  C  C45  1  0.98568061  0.32733893  0.58040291  1
  C  C46  1  0.19104469  0.04871881  0.57551822  1
  C  C47  1  0.68845374  0.03148807  0.57543545  1
  C  C48  1  0.33297716  0.62270227  0.57405282  1
  C  C49  1  0.82344126  0.63224047  0.57539759  1
  C  C50  1  0.47633096  0.63426336  0.09503823  1
  C  C51  1  0.97838208  0.62713561  0.08736302  1
  C  C52  1  0.33334309  0.03304477  0.09050877  1
  C  C53  1  0.83964039  0.05434904  0.08986420  1
  C  C54  1  0.18267288  0.33059982  0.08843504  1
  C  C55  1  0.69109020  0.32060191  0.09173204  1
  C  C56  1  0.30325787  0.66112228  0.92383213  1
  C  C57  1  0.81778833  0.65798691  0.92600400  1
  C  C58  1  0.01700936  0.37142707  0.92722477  1
  C  C59  1  0.16354103  0.94950930  0.92667395  1
  C  C60  1  0.67760345  0.97744338  0.92419442  1
  C  C61  1  0.31894164  0.96690807  0.41029499  1
  C  C62  1  0.80534110  0.93910099  0.40910674  1
  C  C63  1  0.17029605  0.37276353  0.40995567  1
  C  C64  1  0.65805557  0.37596210  0.40913701  1
  C  C65  1  0.52207402  0.67068512  0.41207257  1
  C  C66  1  0.10545886  0.04337233  0.29837985  1
  C  C67  1  0.60391277  0.03884629  0.30672195  1
  C  C68  1  0.41513371  0.79020775  0.30677800  1
  C  C69  1  0.91379942  0.79485618  0.29852083  1
  C  C70  1  0.48227803  0.16926221  0.30094434  1
  C  C71  1  0.97935860  0.16497649  0.30384369  1
  C  C72  1  0.11080386  0.20409496  0.80773497  1
  C  C73  1  0.60275729  0.19131427  0.80168187  1
  C  C74  1  0.48882893  0.78750119  0.80678758  1
  C  C75  1  0.98743093  0.78903248  0.80839564  1
  C  C76  1  0.40870918  0.02933752  0.79943433  1
  C  C77  1  0.90545946  0.04149437  0.80753758  1
  C  C78  1  0.39363809  0.99440885  0.68945804  1
  C  C79  1  0.89371404  0.99522714  0.69778631  1
  C  C80  1  0.10314868  0.22074331  0.69752246  1
  C  C81  1  0.59075836  0.21303544  0.69218413  1
  C  C82  1  0.00230306  0.79084825  0.68354121  1
  C  C83  1  0.49978966  0.80155815  0.69633083  1
  C  C84  1  0.39746253  0.82999000  0.20173758  1
  C  C85  1  0.89451296  0.82124353  0.19242840  1
  C  C86  1  0.01085122  0.19441000  0.19744438  1
  C  C87  1  0.51823570  0.21057120  0.19543877  1
  C  C88  1  0.08749391  0.96939853  0.19310377  1
  C  C89  1  0.58711775  0.97233557  0.20084130  1
  C  C90  1  0.45057526  0.38129439  0.62917454  1
  C  C91  1  0.94099957  0.33982549  0.63427137  1
  C  C92  1  0.23698818  0.13908510  0.63119012  1
  C  C93  1  0.74155488  0.10495819  0.63048840  1
  C  C94  1  0.32135682  0.52907018  0.63150963  1
  C  C95  1  0.80836509  0.52643928  0.63013851  1
  C  C96  1  0.42586920  0.50545163  0.14396197  1
  C  C97  1  0.94013052  0.51138412  0.14144072  1
  C  C98  1  0.31565372  0.12633245  0.14065387  1
  C  C99  1  0.82763067  0.13912398  0.14471940  1
  C  C100  1  0.24426451  0.36956068  0.14074032  1
  C  C101  1  0.74725262  0.33833129  0.14443372  1
  C  C102  1  0.21906061  0.28471630  0.03612739  1
  C  C103  1  0.73068731  0.29172039  0.03665140  1
  C  C104  1  0.42632067  0.57478364  0.03835871  1
  C  C105  1  0.91639714  0.54155492  0.03635360  1
  C  C106  1  0.35788839  0.14312060  0.03601934  1
  C  C107  1  0.85358491  0.17102117  0.03749575  1
  C  C108  1  0.23938738  0.15611507  0.52145584  1
  C  C109  1  0.72905650  0.15179521  0.52364706  1
  C  C110  1  0.34149494  0.52144627  0.52287814  1
  C  C111  1  0.84466797  0.55441103  0.52320640  1
  C  C112  1  0.42103596  0.31606780  0.52211767  1
  C  C113  1  0.93281711  0.30063139  0.52521620  1
  C  C114  1  0.25961670  0.68324176  0.97811278  1
  C  C115  1  0.77258839  0.67874355  0.97843148  1
  C  C116  1  0.07679885  0.46756292  0.97861919  1
  C  C117  1  0.56419019  0.44889825  0.98549831  1
  C  C118  1  0.16016578  0.84223439  0.98006477  1
  C  C119  1  0.66599555  0.87187910  0.97815537  1
  C  C120  1  0.28441892  0.85982665  0.46458185  1
  C  C121  1  0.76535355  0.82875429  0.46319951  1
  C  C122  1  0.15341582  0.43833753  0.46610309  1
  C  C123  1  0.64530589  0.46264991  0.46208801  1
  C  C124  1  0.06916463  0.71311223  0.47223284  1
  C  C125  1  0.58059763  0.70421676  0.46416413  1
  C  C126  1  0.07891947  0.64608818  0.35507851  1
  C  C127  1  0.55956731  0.63009827  0.35795761  1
  C  C128  1  0.25961011  0.88528301  0.35783797  1
  C  C129  1  0.74996411  0.84778122  0.35556262  1
  C  C130  1  0.19363970  0.50126349  0.35979904  1
  C  C131  1  0.67213081  0.48654813  0.35457349  1
  C  C132  1  0.04863094  0.47345580  0.87135677  1
  C  C133  1  0.56163325  0.48319042  0.86126949  1
  C  C134  1  0.17896974  0.87817185  0.87102941  1
  C  C135  1  0.69677844  0.90788789  0.86945092  1
  C  C136  1  0.25851917  0.65927903  0.86799411  1
  C  C137  1  0.76706991  0.62323798  0.86965112  1
  C  C138  1  0.00987459  0.84992576  0.39640742  1
  C  C139  1  0.51433063  0.83266806  0.40198085  1
  C  C140  1  0.40746833  0.98439876  0.39850673  1
  C  C141  1  0.89736831  0.96995814  0.40204463  1
  C  C142  1  0.08841499  0.19959104  0.39656664  1
  C  C143  1  0.57643580  0.19767028  0.40139658  1
  C  C144  1  0.00937131  0.19469618  0.92184246  1
  C  C145  1  0.50378323  0.17210325  0.92005166  1
  C  C146  1  0.08037173  0.95576454  0.92583258  1
  C  C147  1  0.59506945  0.98833425  0.91802448  1
  C  C148  1  0.39704557  0.81156196  0.92383669  1
  C  C149  1  0.90500601  0.82005000  0.92279485  1
  C  C150  1  0.49147978  0.18457746  0.57721960  1
  C  C151  1  0.99661052  0.16699247  0.58272355  1
  C  C152  1  0.10109047  0.02849783  0.57407712  1
  C  C153  1  0.59809782  0.00753254  0.58219146  1
  C  C154  1  0.41607424  0.79907227  0.57542203  1
  C  C155  1  0.89895079  0.81730743  0.58039690  1
  C  C156  1  0.48508712  0.81307151  0.10661817  1
  C  C157  1  0.98697468  0.80449887  0.09808825  1
  C  C158  1  0.41340788  0.01445822  0.10437618  1
  C  C159  1  0.91968036  0.03464922  0.09668134  1
  C  C160  1  0.09421484  0.17352417  0.10113161  1
  C  C161  1  0.59907321  0.15942280  0.09883712  1
  C  C162  1  0.34117870  0.16201386  0.74546536  1
  C  C163  1  0.82559190  0.14275501  0.74881732  1
  C  C164  1  0.24149612  0.29927494  0.74948290  1
  C  C165  1  0.72966550  0.29339419  0.74277681  1
  C  C166  1  0.42319709  0.52299602  0.74993873  1
  C  C167  1  0.90735473  0.50114230  0.74837388  1
  C  C168  1  0.34308683  0.52873865  0.24396427  1
  C  C169  1  0.84668331  0.52796996  0.23831622  1
  C  C170  1  0.41780708  0.30526134  0.23992922  1
  C  C171  1  0.92158442  0.31342052  0.24269999  1
  C  C172  1  0.23619161  0.17021811  0.23755806  1
  C  C173  1  0.73621375  0.15689468  0.24557700  1
  C  C174  1  0.30135715  0.48817216  0.92636525  1
  C  C175  1  0.82805416  0.49592842  0.93503193  1
  C  C176  1  0.41894398  0.36093743  0.92044535  1
  C  C177  1  0.92695451  0.35078921  0.93882940  1
  C  C178  1  0.24083050  0.13235167  0.93117660  1
  C  C179  1  0.75622749  0.16188882  0.93318747  1
  C  C180  1  0.33058191  0.15097952  0.41894014  1
  C  C181  1  0.80727339  0.11226355  0.41351139  1
  C  C182  1  0.24916088  0.34346719  0.41795008  1
  C  C183  1  0.73651154  0.35246876  0.41446121  1
  C  C184  1  0.43058976  0.51252571  0.42182739  1
  C  C185  1  0.92360878  0.49201940  0.40784711  1
  C  C186  1  0.17418696  0.49084024  0.07759506  1
  C  C187  1  0.68481415  0.48323774  0.08899886  1
  C  C188  1  0.06735624  0.64805742  0.07570052  1
  C  C189  1  0.56540742  0.65435246  0.09269161  1
  C  C190  1  0.25386999  0.85491556  0.08129985  1
  C  C191  1  0.75933896  0.87746413  0.08348103  1
  C  C192  1  0.18875103  0.87637699  0.57545687  1
  C  C193  1  0.68088682  0.85573971  0.56313846  1
  C  C194  1  0.25480326  0.64398651  0.56676064  1
  C  C195  1  0.73964816  0.63455482  0.56347429  1
  C  C196  1  0.07424563  0.48911031  0.57759304  1
  C  C197  1  0.57046624  0.50478187  0.56022154  1
  C  C198  1  0.15953678  0.85036219  0.25575975  1
  C  C199  1  0.65000057  0.83587336  0.26306593  1
  C  C200  1  0.26670025  0.69580390  0.26404472  1
  C  C201  1  0.76411960  0.68441404  0.25681389  1
  C  C202  1  0.08317671  0.45743356  0.25943069  1
  C  C203  1  0.57792096  0.46963892  0.25871768  1
  C  C204  1  0.17607232  0.48662325  0.75546274  1
  C  C205  1  0.65966496  0.47610708  0.75007610  1
  C  C206  1  0.08482298  0.67842668  0.74886455  1
  C  C207  1  0.58634295  0.70910380  0.75250178  1
  C  C208  1  0.26679323  0.83816464  0.75212204  1
  C  C209  1  0.76726081  0.82384488  0.75772750  1
