# generated using pymatgen
data_Cu2Ni2C5
_symmetry_space_group_name_H-M   'P 1'
_cell_length_a   3.11785213
_cell_length_b   3.11785194
_cell_length_c   14.43104713
_cell_angle_alpha   90.00000000
_cell_angle_beta   90.00000000
_cell_angle_gamma   120.00001272
_symmetry_Int_Tables_number   1
_chemical_formula_structural   Cu2Ni2C5
_chemical_formula_sum   'Cu2 Ni2 C5'
_cell_volume   121.48968974
_cell_formula_units_Z   1
loop_
 _symmetry_equiv_pos_site_id
 _symmetry_equiv_pos_as_xyz
  1  'x, y, z'
loop_
 _atom_site_type_symbol
 _atom_site_label
 _atom_site_symmetry_multiplicity
 _atom_site_fract_x
 _atom_site_fract_y
 _atom_site_fract_z
 _atom_site_occupancy
  C  C0  1  -0.00000000  0.00000000  0.13050300  1
  Ni  Ni1  1  -0.00000000  -0.00000000  0.52378016  1
  Ni  Ni2  1  0.00000000  -0.00000000  0.94717063  1
  Cu  Cu3  1  0.66666600  0.33333300  0.74147055  1
  Cu  Cu4  1  0.33333300  0.66666700  0.30009828  1
  C  C5  1  0.33333300  0.66666700  0.45373363  1
  C  C6  1  0.66666600  0.33333300  0.88955524  1
  C  C7  1  0.66666600  0.33333300  0.59497470  1
  C  C8  1  0.33333300  0.66666700  0.06975481  1
