# generated using pymatgen
data_Cu12Ni12C13
_symmetry_space_group_name_H-M   'P 1'
_cell_length_a   9.59866987
_cell_length_b   14.68127287
_cell_length_c   3.09906200
_cell_angle_alpha   90.00000000
_cell_angle_beta   90.00000000
_cell_angle_gamma   87.10232686
_symmetry_Int_Tables_number   1
_chemical_formula_structural   Cu12Ni12C13
_chemical_formula_sum   'Cu12 Ni12 C13'
_cell_volume   436.16357212
_cell_formula_units_Z   1
loop_
 _symmetry_equiv_pos_site_id
 _symmetry_equiv_pos_as_xyz
  1  'x, y, z'
loop_
 _atom_site_type_symbol
 _atom_site_label
 _atom_site_symmetry_multiplicity
 _atom_site_fract_x
 _atom_site_fract_y
 _atom_site_fract_z
 _atom_site_occupancy
  C  C0  1  0.10657200  0.06439900  0.50000000  1
  C  C1  1  0.94141200  0.96760800  0.00000000  1
  C  C2  1  0.02018700  0.33286600  0.00000000  1
  C  C3  1  0.00375900  0.67145400  0.00000000  1
  C  C4  1  0.27824200  0.19390300  0.50000000  1
  C  C5  1  0.24272500  0.48358900  0.50000000  1
  C  C6  1  0.25532900  0.85503400  0.50000000  1
  C  C7  1  0.52018300  0.35848700  0.00000000  1
  C  C8  1  0.51470100  0.99451900  0.00000000  1
  C  C9  1  0.49585800  0.65589100  0.00000000  1
  C  C10  1  0.74577800  0.14999500  0.50000000  1
  C  C11  1  0.73626400  0.50337000  0.50000000  1
  C  C12  1  0.69454700  0.81382900  0.50000000  1
  Ni  Ni13  1  0.11640500  0.27666300  0.50000000  1
  Ni  Ni14  1  0.08825900  0.93234900  0.50000000  1
  Ni  Ni15  1  0.19323500  0.12572100  0.00000000  1
  Ni  Ni16  1  0.14787900  0.43637800  0.00000000  1
  Ni  Ni17  1  0.35024100  0.90783300  0.00000000  1
  Ni  Ni18  1  0.41305500  0.40325500  0.50000000  1
  Ni  Ni19  1  0.60240000  0.93516000  0.50000000  1
  Ni  Ni20  1  0.58497200  0.59617700  0.50000000  1
  Ni  Ni21  1  0.64824600  0.10434400  0.00000000  1
  Ni  Ni22  1  0.67173500  0.43736500  0.00000000  1
  Ni  Ni23  1  0.61492600  0.75851600  0.00000000  1
  Ni  Ni24  1  0.90188700  0.06411100  0.50000000  1
  Cu  Cu25  1  0.10768800  0.60134900  0.50000000  1
  Cu  Cu26  1  0.15609000  0.77488800  0.00000000  1
  Cu  Cu27  1  0.38709900  0.24518900  0.00000000  1
  Cu  Cu28  1  0.33625700  0.56286600  0.00000000  1
  Cu  Cu29  1  0.41230600  0.07577500  0.50000000  1
  Cu  Cu30  1  0.37965400  0.72332000  0.50000000  1
  Cu  Cu31  1  0.61511400  0.27665600  0.50000000  1
  Cu  Cu32  1  0.86072000  0.23497800  0.00000000  1
  Cu  Cu33  1  0.81870100  0.86180700  0.00000000  1
  Cu  Cu34  1  0.84979100  0.56273500  0.00000000  1
  Cu  Cu35  1  0.90874100  0.39892400  0.50000000  1
  Cu  Cu36  1  0.87904300  0.72350800  0.50000000  1
