# generated using pymatgen
data_Cu6Ni2C7
_symmetry_space_group_name_H-M   'P 1'
_cell_length_a   3.91325300
_cell_length_b   3.91326000
_cell_length_c   16.85993800
_cell_angle_alpha   90.00215265
_cell_angle_beta   89.99932890
_cell_angle_gamma   90.00122989
_symmetry_Int_Tables_number   1
_chemical_formula_structural   Cu6Ni2C7
_chemical_formula_sum   'Cu6 Ni2 C7'
_cell_volume   258.18594912
_cell_formula_units_Z   1
loop_
 _symmetry_equiv_pos_site_id
 _symmetry_equiv_pos_as_xyz
  1  'x, y, z'
loop_
 _atom_site_type_symbol
 _atom_site_label
 _atom_site_symmetry_multiplicity
 _atom_site_fract_x
 _atom_site_fract_y
 _atom_site_fract_z
 _atom_site_occupancy
  C  C0  1  0.74998200  0.75002000  0.04965900  1
  C  C1  1  0.24999800  0.25001700  0.82101600  1
  C  C2  1  0.75000000  0.74999400  0.44522700  1
  C  C3  1  0.24999800  0.25000100  0.60804400  1
  C  C4  1  0.75001600  0.74995500  0.25254000  1
  C  C5  1  0.25000800  0.24997800  0.32824200  1
  C  C6  1  0.74999700  0.75001000  0.70293700  1
  Ni  Ni7  1  0.24997600  0.25004600  0.12415200  1
  Ni  Ni8  1  0.75000000  0.75002400  0.88600700  1
  Cu  Cu9  1  0.75000900  0.24997000  0.30242700  1
  Cu  Cu10  1  0.25001200  0.74997500  0.30242800  1
  Cu  Cu11  1  0.24999600  0.75001100  0.71313200  1
  Cu  Cu12  1  0.74999900  0.25001200  0.71313200  1
  Cu  Cu13  1  0.25000300  0.24999300  0.44263000  1
  Cu  Cu14  1  0.75000300  0.74999800  0.58157600  1
