# generated using pymatgen
data_Cu(NiC8)2
_symmetry_space_group_name_H-M   'P 1'
_cell_length_a   9.02994431
_cell_length_b   9.02994400
_cell_length_c   22.80873211
_cell_angle_alpha   89.96376267
_cell_angle_beta   90.03623732
_cell_angle_gamma   120.03663857
_symmetry_Int_Tables_number   1
_chemical_formula_structural   Cu(NiC8)2
_chemical_formula_sum   'Cu6 Ni12 C96'
_cell_volume   1610.05729750
_cell_formula_units_Z   6
loop_
 _symmetry_equiv_pos_site_id
 _symmetry_equiv_pos_as_xyz
  1  'x, y, z'
loop_
 _atom_site_type_symbol
 _atom_site_label
 _atom_site_symmetry_multiplicity
 _atom_site_fract_x
 _atom_site_fract_y
 _atom_site_fract_z
 _atom_site_occupancy
  C  C0  1  0.37791385  0.37058462  0.24222296  1
  C  C1  1  0.98625268  0.61807791  0.24350984  1
  C  C2  1  0.62941538  0.62208615  0.74222296  1
  C  C3  1  0.38192209  0.01374732  0.74350984  1
  C  C4  1  0.65836855  0.97551626  0.58529580  1
  C  C5  1  0.02448374  0.34163145  0.08529580  1
  C  C6  1  0.01080715  0.99933069  0.49919235  1
  C  C7  1  0.00066931  0.98919285  0.99919235  1
  C  C8  1  0.67921920  0.32828745  0.83248726  1
  C  C9  1  0.67171255  0.32078080  0.33248726  1
  C  C10  1  0.35163193  0.68450577  0.16342026  1
  C  C11  1  0.31549423  0.64836807  0.66342026  1
  C  C12  1  0.67372354  0.33360085  0.68413892  1
  C  C13  1  0.66639915  0.32627646  0.18413892  1
  C  C14  1  0.99671560  0.00376154  0.35882459  1
  C  C15  1  0.99623846  0.00328440  0.85882459  1
  C  C16  1  0.99856411  0.99766766  0.64349822  1
  C  C17  1  0.00233234  0.00143589  0.14349822  1
  C  C18  1  0.66333819  0.33829486  0.97894996  1
  C  C19  1  0.66170514  0.33666181  0.47894996  1
  C  C20  1  0.33310670  0.66721572  0.01741897  1
  C  C21  1  0.33278428  0.66689330  0.51741897  1
  C  C22  1  0.33298769  0.66618877  0.31505851  1
  C  C23  1  0.33381123  0.66701231  0.81505851  1
  Ni  Ni24  1  0.00245599  0.29063080  0.25172711  1
  Ni  Ni25  1  0.70936920  0.99754401  0.75172711  1
  Ni  Ni26  1  0.37149435  0.03767739  0.58439647  1
  Ni  Ni27  1  0.66211180  0.62458462  0.58545357  1
  Ni  Ni28  1  0.96232261  0.62850565  0.08439647  1
  Ni  Ni29  1  0.37541538  0.33788820  0.08545357  1
  Ni  Ni30  1  0.62208159  0.66433997  0.91604999  1
  Ni  Ni31  1  0.04005933  0.37871351  0.91683656  1
  Ni  Ni32  1  0.33643554  0.95911265  0.91571247  1
  Ni  Ni33  1  0.62128649  0.95994067  0.41683656  1
  Ni  Ni34  1  0.33566003  0.37791841  0.41604999  1
  Ni  Ni35  1  0.04088735  0.66356446  0.41571247  1
  Cu  Cu36  1  0.27909965  0.99294221  0.25257698  1
  Cu  Cu37  1  0.71179513  0.72238039  0.25195713  1
  Cu  Cu38  1  0.27761961  0.28820487  0.75195713  1
  Cu  Cu39  1  0.00705779  0.72090035  0.75257698  1
  Cu  Cu40  1  0.96423723  0.33640184  0.58196724  1
  Cu  Cu41  1  0.66359816  0.03576277  0.08196724  1
  C  C42  1  0.17929394  0.00121681  0.30602336  1
  C  C43  1  0.82278100  0.81504313  0.30598117  1
  C  C44  1  0.99700042  0.17021466  0.30698980  1
  C  C45  1  0.18495687  0.17721900  0.80598117  1
  C  C46  1  0.99878319  0.82070606  0.80602336  1
  C  C47  1  0.82978534  0.00299958  0.80698980  1
  C  C48  1  0.80426255  0.97402638  0.69221552  1
  C  C49  1  0.17069249  0.19600446  0.69602463  1
  C  C50  1  0.03016051  0.83287374  0.69600884  1
  C  C51  1  0.80399554  0.82930751  0.19602463  1
  C  C52  1  0.02597362  0.19573745  0.19221552  1
  C  C53  1  0.16712626  0.96983949  0.19600884  1
  C  C54  1  0.90375905  0.37226720  0.63857709  1
  C  C55  1  0.47838128  0.08684193  0.64396311  1
  C  C56  1  0.62653481  0.53423237  0.64728167  1
  C  C57  1  0.91315807  0.52161872  0.14396311  1
  C  C58  1  0.62773280  0.09624095  0.13857709  1
  C  C59  1  0.46576763  0.37346519  0.14728167  1
  C  C60  1  0.47505015  0.30693102  0.02956613  1
  C  C61  1  0.83282502  0.52253780  0.02885292  1
  C  C62  1  0.70059119  0.15928357  0.02928865  1
  C  C63  1  0.47746220  0.16717498  0.52885292  1
  C  C64  1  0.69306898  0.52494985  0.52956613  1
  C  C65  1  0.84071643  0.29940881  0.52928865  1
  C  C66  1  0.52693741  0.69194731  0.97119826  1
  C  C67  1  0.15944427  0.46643369  0.97411978  1
  C  C68  1  0.30681025  0.83281227  0.97054622  1
  C  C69  1  0.53356631  0.84055573  0.47411978  1
  C  C70  1  0.30805269  0.47306259  0.47119826  1
  C  C71  1  0.16718773  0.69318975  0.47054622  1
  C  C72  1  0.13481760  0.63737684  0.35688212  1
  C  C73  1  0.49867906  0.85972896  0.35972144  1
  C  C74  1  0.36145973  0.49563982  0.35710012  1
  C  C75  1  0.14027104  0.50132094  0.85972144  1
  C  C76  1  0.36262316  0.86518240  0.85688212  1
  C  C77  1  0.50436018  0.63854027  0.85710012  1
  C  C78  1  0.02116781  0.83224875  0.40770976  1
  C  C79  1  0.80945548  0.97592906  0.40894315  1
  C  C80  1  0.16848878  0.18713681  0.40944598  1
  C  C81  1  0.02407094  0.19054452  0.90894315  1
  C  C82  1  0.16775125  0.97883219  0.90770976  1
  C  C83  1  0.81286319  0.83151122  0.90944598  1
  C  C84  1  0.97400509  0.16589383  0.58816754  1
  C  C85  1  0.18282780  0.02493111  0.59042953  1
  C  C86  1  0.83695473  0.82253913  0.58933272  1
  C  C87  1  0.97506889  0.81717220  0.09042953  1
  C  C88  1  0.83410617  0.02599491  0.08816754  1
  C  C89  1  0.17746087  0.16304527  0.08933272  1
  C  C90  1  0.67642010  0.15440756  0.75573365  1
  C  C91  1  0.45581305  0.30859769  0.75093581  1
  C  C92  1  0.84537642  0.54933170  0.75147744  1
  C  C93  1  0.69140231  0.54418695  0.25093581  1
  C  C94  1  0.84559244  0.32357990  0.25573365  1
  C  C95  1  0.45066830  0.15462358  0.25147744  1
  C  C96  1  0.63945845  0.49357653  0.92371039  1
  C  C97  1  0.85163964  0.35709882  0.92454431  1
  C  C98  1  0.50669024  0.14513507  0.92506696  1
  C  C99  1  0.64290118  0.14836036  0.42454431  1
  C  C100  1  0.50642347  0.36054155  0.42371039  1
  C  C101  1  0.85486493  0.49330976  0.42506696  1
  C  C102  1  0.33585874  0.49427160  0.07145841  1
  C  C103  1  0.15436529  0.65801261  0.06938959  1
  C  C104  1  0.51386095  0.85281003  0.07017395  1
  C  C105  1  0.34198739  0.84563471  0.56938959  1
  C  C106  1  0.50572840  0.66414126  0.57145841  1
  C  C107  1  0.14718997  0.48613905  0.57017395  1
  C  C108  1  0.28920871  0.82529837  0.25506745  1
  C  C109  1  0.53182470  0.70623744  0.25539934  1
  C  C110  1  0.18618094  0.47885993  0.25531104  1
  C  C111  1  0.29376256  0.46817530  0.75539934  1
  C  C112  1  0.17470163  0.71079129  0.75506745  1
  C  C113  1  0.52114007  0.81381906  0.75531104  1
