# generated using pymatgen
data_Cu2Ni5C
_symmetry_space_group_name_H-M   'P 1'
_cell_length_a   4.64385000
_cell_length_b   8.33868900
_cell_length_c   12.19195600
_cell_angle_alpha   90.00000000
_cell_angle_beta   90.00000000
_cell_angle_gamma   90.00000000
_symmetry_Int_Tables_number   1
_chemical_formula_structural   Cu2Ni5C
_chemical_formula_sum   'Cu16 Ni40 C8'
_cell_volume   472.11668233
_cell_formula_units_Z   8
loop_
 _symmetry_equiv_pos_site_id
 _symmetry_equiv_pos_as_xyz
  1  'x, y, z'
loop_
 _atom_site_type_symbol
 _atom_site_label
 _atom_site_symmetry_multiplicity
 _atom_site_fract_x
 _atom_site_fract_y
 _atom_site_fract_z
 _atom_site_occupancy
  Ni  Ni0  1  0.76520600  0.55820400  0.50507700  1
  Ni  Ni1  1  0.26520600  0.94179600  0.49492300  1
  Ni  Ni2  1  0.23479400  0.05820400  0.99492300  1
  Ni  Ni3  1  0.73479400  0.44179600  0.00507700  1
  Ni  Ni4  1  0.79434300  0.37855500  0.57013000  1
  Ni  Ni5  1  0.29434300  0.12144500  0.42987000  1
  Ni  Ni6  1  0.20565700  0.87855500  0.92987000  1
  Ni  Ni7  1  0.70565700  0.62144500  0.07013000  1
  Ni  Ni8  1  0.22598400  0.45213900  0.64361400  1
  Ni  Ni9  1  0.72598400  0.04786100  0.35638600  1
  Ni  Ni10  1  0.77401600  0.95213900  0.85638600  1
  Ni  Ni11  1  0.27401600  0.54786100  0.14361400  1
  Ni  Ni12  1  0.23130600  0.46422800  0.50134600  1
  Ni  Ni13  1  0.73130600  0.03577200  0.49865400  1
  Ni  Ni14  1  0.76869400  0.96422800  0.99865400  1
  Ni  Ni15  1  0.90158700  0.83348600  0.69088600  1
  Ni  Ni16  1  0.26869400  0.53577200  0.00134600  1
  Ni  Ni17  1  0.69701800  0.85941500  0.41730800  1
  Ni  Ni18  1  0.80298200  0.14058500  0.91730800  1
  Ni  Ni19  1  0.30298200  0.35941500  0.08269200  1
  Ni  Ni20  1  0.53925400  0.83409700  0.69276600  1
  Ni  Ni21  1  0.03925400  0.66590300  0.30723400  1
  Ni  Ni22  1  0.46074600  0.33409700  0.80723400  1
  Ni  Ni23  1  0.96074600  0.16590300  0.19276600  1
  Ni  Ni24  1  0.59371800  0.35595500  0.33172900  1
  Ni  Ni25  1  0.09371800  0.14404500  0.66827100  1
  Ni  Ni26  1  0.40628200  0.85595500  0.16827100  1
  Ni  Ni27  1  0.90628200  0.64404500  0.83172900  1
  Ni  Ni28  1  0.96995200  0.35620200  0.32800400  1
  Ni  Ni29  1  0.46995200  0.14379800  0.67199600  1
  Ni  Ni30  1  0.03004800  0.85620200  0.17199600  1
  Ni  Ni31  1  0.53004800  0.64379800  0.82800400  1
  Ni  Ni32  1  0.76775900  0.41965200  0.21473200  1
  Ni  Ni33  1  0.26775900  0.08034800  0.78526800  1
  Ni  Ni34  1  0.23224100  0.91965200  0.28526800  1
  Ni  Ni35  1  0.73224100  0.58034800  0.71473200  1
  Ni  Ni36  1  0.59841300  0.16651400  0.19088600  1
  Ni  Ni37  1  0.09841300  0.33348600  0.80911400  1
  Ni  Ni38  1  0.40158700  0.66651400  0.30911400  1
  Ni  Ni39  1  0.19701800  0.64058500  0.58269200  1
  Cu  Cu40  1  0.83578900  0.50007200  0.57581500  1
  Cu  Cu41  1  0.33578900  0.99992800  0.42418500  1
  Cu  Cu42  1  0.16421100  0.00007200  0.92418500  1
  Cu  Cu43  1  0.66421100  0.49992800  0.07581500  1
  Cu  Cu44  1  0.14741300  0.51606900  0.57382900  1
  Cu  Cu45  1  0.64741300  0.98393100  0.42617100  1
  Cu  Cu46  1  0.85258700  0.01606900  0.92617100  1
  Cu  Cu47  1  0.35258700  0.48393100  0.07382900  1
  Cu  Cu48  1  0.72219000  0.82420600  0.74181000  1
  Cu  Cu49  1  0.22219000  0.67579400  0.25819000  1
  Cu  Cu50  1  0.27781000  0.32420600  0.75819000  1
  Cu  Cu51  1  0.77781000  0.17579400  0.24181000  1
  Cu  Cu52  1  0.72116400  0.66020900  0.78206000  1
  Cu  Cu53  1  0.22116400  0.83979100  0.21794000  1
  Cu  Cu54  1  0.27883600  0.16020900  0.71794000  1
  Cu  Cu55  1  0.77883600  0.33979100  0.28206000  1
  C  C56  1  0.22539500  0.82340000  0.61370700  1
  C  C57  1  0.72539500  0.67660000  0.38629300  1
  C  C58  1  0.77460500  0.32340000  0.88629300  1
  C  C59  1  0.27460500  0.17660000  0.11370700  1
  C  C60  1  0.21870600  0.65080400  0.89419000  1
  C  C61  1  0.71870600  0.84919600  0.10581000  1
  C  C62  1  0.78129400  0.15080400  0.60581000  1
  C  C63  1  0.28129400  0.34919600  0.39419000  1
