# generated using pymatgen
data_Cu12Ni5C61
_symmetry_space_group_name_H-M   'P 1'
_cell_length_a   17.80952453
_cell_length_b   8.91356186
_cell_length_c   22.38012137
_cell_angle_alpha   89.98740575
_cell_angle_beta   89.95029275
_cell_angle_gamma   120.02520091
_symmetry_Int_Tables_number   1
_chemical_formula_structural   Cu12Ni5C61
_chemical_formula_sum   'Cu36 Ni15 C183'
_cell_volume   3075.99799861
_cell_formula_units_Z   3
loop_
 _symmetry_equiv_pos_site_id
 _symmetry_equiv_pos_as_xyz
  1  'x, y, z'
loop_
 _atom_site_type_symbol
 _atom_site_label
 _atom_site_symmetry_multiplicity
 _atom_site_fract_x
 _atom_site_fract_y
 _atom_site_fract_z
 _atom_site_occupancy
  C  C0  1  0.32026667  0.00987975  0.24895442  1
  C  C1  1  0.68574683  0.35936062  0.24873971  1
  C  C2  1  0.31790070  0.62572680  0.74914334  1
  C  C3  1  0.81786055  0.62555491  0.74899920  1
  C  C4  1  0.15345574  0.34545018  0.57950458  1
  C  C5  1  0.65345949  0.34571320  0.57909524  1
  C  C6  1  0.01868560  0.69317134  0.57987718  1
  C  C7  1  0.51914104  0.69327802  0.58003425  1
  C  C8  1  0.32716327  0.96140497  0.57959654  1
  C  C9  1  0.82753159  0.96287865  0.57961614  1
  C  C10  1  0.15333921  0.96165234  0.07952255  1
  C  C11  1  0.65390895  0.96283875  0.08033299  1
  C  C12  1  0.32732650  0.69216056  0.08026958  1
  C  C13  1  0.82750471  0.69307936  0.07963300  1
  C  C14  1  0.01850334  0.34490768  0.07992854  1
  C  C15  1  0.51869856  0.34474364  0.08043235  1
  C  C16  1  0.66145658  0.02896572  0.41128093  1
  C  C17  1  0.35243367  0.67649329  0.41077699  1
  C  C18  1  0.00021109  0.99882181  0.49481001  1
  C  C19  1  0.49942791  0.01267935  0.49059355  1
  C  C20  1  0.00010351  0.00019431  0.99581048  1
  C  C21  1  0.50011101  0.99980504  0.99603275  1
  C  C22  1  0.33378490  0.32194846  0.83050282  1
  C  C23  1  0.83378603  0.32203859  0.83049559  1
  C  C24  1  0.33460473  0.33683221  0.32635045  1
  C  C25  1  0.84283828  0.34082984  0.32676069  1
  C  C26  1  0.16245693  0.65522527  0.16579713  1
  C  C27  1  0.66576924  0.67675960  0.16556016  1
  C  C28  1  0.16193182  0.66762107  0.66630737  1
  C  C29  1  0.66207360  0.66729468  0.66635695  1
  C  C30  1  0.49938720  0.00600645  0.34919286  1
  C  C31  1  0.33361504  0.32568696  0.68686280  1
  C  C32  1  0.83383950  0.32626467  0.68675607  1
  C  C33  1  0.33384702  0.34296409  0.18555480  1
  C  C34  1  0.83686000  0.32983921  0.18622224  1
  C  C35  1  0.16618594  0.66656236  0.01104000  1
  C  C36  1  0.66622669  0.66684427  0.01103610  1
  C  C37  1  0.16389732  0.66497062  0.51079644  1
  C  C38  1  0.66790408  0.66538656  0.51123358  1
  Ni  Ni39  1  0.00025638  0.99950231  0.35168619  1
  Ni  Ni40  1  0.00097080  0.00219151  0.85365550  1
  Ni  Ni41  1  0.50097756  0.00227641  0.85363495  1
  Ni  Ni42  1  0.00119140  0.00275299  0.65223317  1
  Ni  Ni43  1  0.50131657  0.00219880  0.65171768  1
  Ni  Ni44  1  0.99988127  0.00033159  0.15196567  1
  Ni  Ni45  1  0.50019087  0.99775738  0.15284033  1
  Ni  Ni46  1  0.33320772  0.33396809  0.98018154  1
  Ni  Ni47  1  0.83351596  0.33397144  0.98024222  1
  Ni  Ni48  1  0.33251855  0.32531849  0.48111931  1
  Ni  Ni49  1  0.83611596  0.33968053  0.48057031  1
  Ni  Ni50  1  0.16396463  0.66152059  0.31572868  1
  Ni  Ni51  1  0.66560160  0.66817012  0.31646780  1
  Ni  Ni52  1  0.16450918  0.66735122  0.81790981  1
  Ni  Ni53  1  0.66448440  0.66726924  0.81794707  1
  Cu  Cu54  1  0.14796634  0.99929383  0.25066708  1
  Cu  Cu55  1  0.64874936  0.99828815  0.25228354  1
  Cu  Cu56  1  0.35105559  0.70121607  0.25326927  1
  Cu  Cu57  1  0.85166655  0.70399647  0.25094396  1
  Cu  Cu58  1  0.99988647  0.29540053  0.25094270  1
  Cu  Cu59  1  0.50022050  0.29754794  0.25085934  1
  Cu  Cu60  1  0.14806303  0.29760227  0.75100035  1
  Cu  Cu61  1  0.64802649  0.29737688  0.75096200  1
  Cu  Cu62  1  0.00142128  0.70561778  0.75050431  1
  Cu  Cu63  1  0.50139762  0.70568212  0.75042945  1
  Cu  Cu64  1  0.35185506  -0.00022384  0.75140078  1
  Cu  Cu65  1  0.85172547  -0.00014649  0.75148641  1
  Cu  Cu66  1  0.47955256  0.33310828  0.58568639  1
  Cu  Cu67  1  0.97939143  0.33357326  0.58513714  1
  Cu  Cu68  1  0.18659288  0.04088415  0.58544280  1
  Cu  Cu69  1  0.68712087  0.04167095  0.58417590  1
  Cu  Cu70  1  0.33376498  0.62688430  0.58539442  1
  Cu  Cu71  1  0.83400698  0.62818431  0.58677004  1
  Cu  Cu72  1  0.47937972  0.62548210  0.08452148  1
  Cu  Cu73  1  0.97908186  0.62576014  0.08501267  1
  Cu  Cu74  1  0.33364407  0.04059229  0.08606325  1
  Cu  Cu75  1  0.83348737  0.04106431  0.08451379  1
  Cu  Cu76  1  0.18678257  0.33225746  0.08456477  1
  Cu  Cu77  1  0.68673944  0.33246434  0.08603545  1
  Cu  Cu78  1  0.31468313  0.66611174  0.91741829  1
  Cu  Cu79  1  0.81465787  0.66591865  0.91745391  1
  Cu  Cu80  1  0.01813293  0.37069107  0.91863376  1
  Cu  Cu81  1  0.51818520  0.37070102  0.91872733  1
  Cu  Cu82  1  0.16721923  0.96357182  0.91857594  1
  Cu  Cu83  1  0.66718107  0.96372834  0.91856075  1
  Cu  Cu84  1  0.31357497  0.96134127  0.41780367  1
  Cu  Cu85  1  0.81547171  0.96273328  0.41905877  1
  Cu  Cu86  1  0.16579317  0.36950137  0.41921214  1
  Cu  Cu87  1  0.66672548  0.37085492  0.41836792  1
  Cu  Cu88  1  0.01889865  0.66816100  0.41823028  1
  Cu  Cu89  1  0.51844932  0.66414845  0.41952161  1
  C  C90  1  0.10235235  0.02367852  0.30495187  1
  C  C91  1  0.60494783  0.02307638  0.30708463  1
  C  C92  1  0.40403981  0.78925715  0.30876439  1
  C  C93  1  0.90953644  0.79578648  0.30509698  1
  C  C94  1  0.48609446  0.17867373  0.30318022  1
  C  C95  1  0.98878316  0.17986989  0.30537147  1
  C  C96  1  0.10145155  0.17960606  0.80422535  1
  C  C97  1  0.60142455  0.17966563  0.80425841  1
  C  C98  1  0.48606656  0.79933544  0.80303453  1
  C  C99  1  0.98608125  0.79928649  0.80311885  1
  C  C100  1  0.41040509  0.02187528  0.80475032  1
  C  C101  1  0.91040172  0.02218542  0.80477817  1
  C  C102  1  0.38912658  0.95775651  0.69278657  1
  C  C103  1  0.88899123  0.95797837  0.69287820  1
  C  C104  1  0.09377541  0.22382755  0.69169941  1
  C  C105  1  0.59369834  0.22343532  0.69168897  1
  C  C106  1  0.01804530  0.81468442  0.69109456  1
  C  C107  1  0.51814192  0.81465696  0.69091554  1
  C  C108  1  0.38926182  0.81977612  0.19458235  1
  C  C109  1  0.88961616  0.81374201  0.19226081  1
  C  C110  1  0.01682138  0.21971877  0.19188813  1
  C  C111  1  0.52108845  0.22438917  0.19136585  1
  C  C112  1  0.09297727  0.96611244  0.19215524  1
  C  C113  1  0.59352146  0.96518040  0.19271516  1
  C  C114  1  0.43817283  0.36606278  0.63936431  1
  C  C115  1  0.93841089  0.36662192  0.63907635  1
  C  C116  1  0.24393848  0.12418858  0.63924422  1
  C  C117  1  0.74511161  0.12794258  0.63743784  1
  C  C118  1  0.31995917  0.51742106  0.64092265  1
  C  C119  1  0.81951148  0.52009128  0.64281016  1
  C  C120  1  0.43864629  0.51068784  0.13849547  1
  C  C121  1  0.93770062  0.51187148  0.13916411  1
  C  C122  1  0.31896190  0.11843322  0.14240656  1
  C  C123  1  0.81685836  0.12224118  0.13862419  1
  C  C124  1  0.24344974  0.36306732  0.13872754  1
  C  C125  1  0.74051263  0.36219950  0.14233551  1
  C  C126  1  0.22423434  0.28923669  0.02766505  1
  C  C127  1  0.72651661  0.29114755  0.03020122  1
  C  C128  1  0.42021189  0.55188252  0.02769020  1
  C  C129  1  0.92012590  0.55187959  0.02803983  1
  C  C130  1  0.35422377  0.16144034  0.03024007  1
  C  C131  1  0.85523079  0.15925059  0.02767553  1
  C  C132  1  0.22332118  0.15852092  0.52831669  1
  C  C133  1  0.72376880  0.15456834  0.52551134  1
  C  C134  1  0.35257341  0.54833839  0.52785328  1
  C  C135  1  0.85478569  0.54947476  0.53075675  1
  C  C136  1  0.42062780  0.28778509  0.52856640  1
  C  C137  1  0.92035095  0.28912297  0.52812911  1
  C  C138  1  0.27521512  0.69243578  0.97403932  1
  C  C139  1  0.77516513  0.69220276  0.97404227  1
  C  C140  1  0.06928237  0.44578572  0.97603814  1
  C  C141  1  0.56938934  0.44584327  0.97610676  1
  C  C142  1  0.15366925  0.86150775  0.97607198  1
  C  C143  1  0.65361224  0.86165194  0.97601739  1
  C  C144  1  0.27240628  0.85295450  0.47444508  1
  C  C145  1  0.77872896  0.86306144  0.47713393  1
  C  C146  1  0.15241542  0.44331893  0.47709644  1
  C  C147  1  0.65715250  0.45223436  0.47575151  1
  C  C148  1  0.06791469  0.69443541  0.47667501  1
  C  C149  1  0.57186886  0.69228918  0.47638635  1
  C  C150  1  0.06127648  0.63828811  0.36264906  1
  C  C151  1  0.56017976  0.63221155  0.36354659  1
  C  C152  1  0.25738894  0.87781544  0.36025954  1
  C  C153  1  0.75472709  0.87901684  0.36426747  1
  C  C154  1  0.18449197  0.49011388  0.36418602  1
  C  C155  1  0.68197738  0.48317765  0.36074154  1
  C  C156  1  0.06005813  0.48289859  0.86197312  1
  C  C157  1  0.55989016  0.48302800  0.86205517  1
  C  C158  1  0.18161990  0.87996853  0.86194970  1
  C  C159  1  0.68169621  0.88020912  0.86192513  1
  C  C160  1  0.26052852  0.63961937  0.85912274  1
  C  C161  1  0.76049930  0.63929445  0.85914587  1
  C  C162  1  0.00858033  0.83097654  0.41087926  1
  C  C163  1  0.50784099  0.82456657  0.41293065  1
  C  C164  1  0.40279521  0.97649718  0.41193279  1
  C  C165  1  0.90675985  0.98489892  0.41074867  1
  C  C166  1  0.08586972  0.18671352  0.41096154  1
  C  C167  1  0.58917684  0.18725226  0.41235103  1
  C  C168  1  0.00864886  0.18770871  0.91149990  1
  C  C169  1  0.50861471  0.18770904  0.91156391  1
  C  C170  1  0.08499098  0.98203450  0.91129526  1
  C  C171  1  0.58490945  0.98204540  0.91125306  1
  C  C172  1  0.40644829  0.83001083  0.91100537  1
  C  C173  1  0.90645857  0.82972474  0.91100751  1
  C  C174  1  0.48707195  0.16260827  0.58978705  1
  C  C175  1  0.98709055  0.16325673  0.58948258  1
  C  C176  1  0.09379770  0.02614401  0.58911553  1
  C  C177  1  0.59460346  0.02798092  0.58827665  1
  C  C178  1  0.41932111  0.81256209  0.58841791  1
  C  C179  1  0.91924352  0.81412798  0.58933497  1
  C  C180  1  0.48687056  0.81124853  0.08926660  1
  C  C181  1  0.98723409  0.81212003  0.08924610  1
  C  C182  1  0.41897294  0.02479768  0.08925785  1
  C  C183  1  0.91889847  0.02587408  0.08884270  1
  C  C184  1  0.09371922  0.16176951  0.08863843  1
  C  C185  1  0.59374807  0.16132326  0.08893599  1
  C  C186  1  0.34195836  0.15751604  0.74636093  1
  C  C187  1  0.84177627  0.15749988  0.74618180  1
  C  C188  1  0.23884047  0.32250476  0.74662999  1
  C  C189  1  0.73876332  0.32200077  0.74671480  1
  C  C190  1  0.41884316  0.53034346  0.74603782  1
  C  C191  1  0.91894730  0.53011636  0.74617527  1
  C  C192  1  0.33938645  0.52249573  0.24579504  1
  C  C193  1  0.83912214  0.52271947  0.24687217  1
  C  C194  1  0.41984914  0.31402668  0.24373778  1
  C  C195  1  0.92021951  0.31360157  0.24713711  1
  C  C196  1  0.23893657  0.15471038  0.24677836  1
  C  C197  1  0.73693993  0.16277225  0.24541932  1
  C  C198  1  0.32367240  0.50114509  0.91985557  1
  C  C199  1  0.82357582  0.50085638  0.92004544  1
  C  C200  1  0.42629636  0.35134945  0.92077411  1
  C  C201  1  0.92641457  0.35194310  0.92048556  1
  C  C202  1  0.24965677  0.14687239  0.92056869  1
  C  C203  1  0.74936230  0.14737705  0.92066514  1
  C  C204  1  0.32058721  0.14346922  0.42038946  1
  C  C205  1  0.82061844  0.14412334  0.42143957  1
  C  C206  1  0.25194198  0.36113337  0.42182184  1
  C  C207  1  0.75078487  0.35164878  0.42039179  1
  C  C208  1  0.42472091  0.50039694  0.42221618  1
  C  C209  1  0.92710273  0.50193755  0.42009681  1
  C  C210  1  0.17341588  0.48900114  0.07715810  1
  C  C211  1  0.67379530  0.48943018  0.07763504  1
  C  C212  1  0.07088185  0.65252707  0.07748648  1
  C  C213  1  0.57142409  0.65367992  0.07693101  1
  C  C214  1  0.25517756  0.85740599  0.07777578  1
  C  C215  1  0.75546683  0.85708961  0.07706155  1
  C  C216  1  0.17309040  0.85752208  0.57802607  1
  C  C217  1  0.67325457  0.85777654  0.57773070  1
  C  C218  1  0.25522490  0.65301789  0.57812106  1
  C  C219  1  0.75526393  0.65342748  0.57878428  1
  C  C220  1  0.07126605  0.48995229  0.57742168  1
  C  C221  1  0.57137704  0.48909021  0.57799505  1
  C  C222  1  0.15553795  0.83158253  0.25532067  1
  C  C223  1  0.65624221  0.83097682  0.25533885  1
  C  C224  1  0.26085399  0.69772627  0.25515389  1
  C  C225  1  0.75995001  0.68754154  0.25607776  1
  C  C226  1  0.08513911  0.47449921  0.25576490  1
  C  C227  1  0.58712213  0.47649140  0.25517679  1
  C  C228  1  0.15647375  0.48120744  0.75605100  1
  C  C229  1  0.65649536  0.48110517  0.75608749  1
  C  C230  1  0.08499457  0.69386734  0.75602569  1
  C  C231  1  0.58494441  0.69381758  0.75600578  1
  C  C232  1  0.26292965  0.82525313  0.75632498  1
  C  C233  1  0.76286798  0.82529981  0.75638480  1
