# generated using pymatgen
data_CuNi2C3
_symmetry_space_group_name_H-M   'P 1'
_cell_length_a   6.08337925
_cell_length_b   6.08337925
_cell_length_c   11.32230794
_cell_angle_alpha   79.89280961
_cell_angle_beta   79.89280961
_cell_angle_gamma   109.81595503
_symmetry_Int_Tables_number   1
_chemical_formula_structural   CuNi2C3
_chemical_formula_sum   'Cu4 Ni8 C12'
_cell_volume   375.38396158
_cell_formula_units_Z   4
loop_
 _symmetry_equiv_pos_site_id
 _symmetry_equiv_pos_as_xyz
  1  'x, y, z'
loop_
 _atom_site_type_symbol
 _atom_site_label
 _atom_site_symmetry_multiplicity
 _atom_site_fract_x
 _atom_site_fract_y
 _atom_site_fract_z
 _atom_site_occupancy
  Ni  Ni0  1  0.69489500  0.45635900  0.09542500  1
  Ni  Ni1  1  0.62379300  0.87520600  0.25875600  1
  Ni  Ni2  1  0.87520600  0.62379300  0.75875600  1
  Ni  Ni3  1  0.37620700  0.12479400  0.74124400  1
  Ni  Ni4  1  0.30510500  0.54364100  0.90457500  1
  Ni  Ni5  1  0.45635900  0.69489500  0.59542500  1
  Ni  Ni6  1  0.54364100  0.30510500  0.40457500  1
  Ni  Ni7  1  0.12479400  0.37620700  0.24124400  1
  Cu  Cu8  1  0.20631100  0.95328200  0.08596200  1
  Cu  Cu9  1  0.04671800  0.79368900  0.41403800  1
  Cu  Cu10  1  0.79368900  0.04671800  0.91403800  1
  Cu  Cu11  1  0.95328200  0.20631100  0.58596200  1
  C  C12  1  0.54674300  0.26694500  0.92946200  1
  C  C13  1  0.73305500  0.45325700  0.57053800  1
  C  C14  1  0.45325700  0.73305500  0.07053800  1
  C  C15  1  0.26694500  0.54674300  0.42946200  1
  C  C16  1  0.35409600  0.10413200  0.24973500  1
  C  C17  1  0.89586800  0.64590400  0.25026500  1
  C  C18  1  0.64590400  0.89586800  0.75026500  1
  C  C19  1  0.10413200  0.35409600  0.74973500  1
  C  C20  1  0.80360500  0.01931100  0.42850600  1
  C  C21  1  0.01931100  0.80360500  0.92850600  1
  C  C22  1  0.19639500  0.98068900  0.57149400  1
  C  C23  1  0.98068900  0.19639500  0.07149400  1
