# generated using pymatgen
data_CuNi3C37
_symmetry_space_group_name_H-M   'P 1'
_cell_length_a   18.04965124
_cell_length_b   9.03612201
_cell_length_c   22.17720682
_cell_angle_alpha   89.95025918
_cell_angle_beta   90.05834076
_cell_angle_gamma   120.15849159
_symmetry_Int_Tables_number   1
_chemical_formula_structural   CuNi3C37
_chemical_formula_sum   'Cu6 Ni18 C222'
_cell_volume   3127.46387988
_cell_formula_units_Z   6
loop_
 _symmetry_equiv_pos_site_id
 _symmetry_equiv_pos_as_xyz
  1  'x, y, z'
loop_
 _atom_site_type_symbol
 _atom_site_label
 _atom_site_symmetry_multiplicity
 _atom_site_fract_x
 _atom_site_fract_y
 _atom_site_fract_z
 _atom_site_occupancy
  C  C0  1  0.81226880  0.00328696  0.24952061  1
  C  C1  1  0.68599822  0.35405475  0.24481475  1
  C  C2  1  0.50272114  0.64507167  0.24738263  1
  C  C3  1  0.30968065  0.61797820  0.74951644  1
  C  C4  1  0.00357446  0.37302514  0.74627983  1
  C  C5  1  0.17786038  0.00361572  0.74450843  1
  C  C6  1  0.15098119  0.32504806  0.57963432  1
  C  C7  1  0.66591044  0.35857238  0.58448628  1
  C  C8  1  0.01474128  0.69810849  0.57785374  1
  C  C9  1  0.52133546  0.68764181  0.58953678  1
  C  C10  1  0.32724380  0.98345337  0.58577682  1
  C  C11  1  0.82792020  0.95832357  0.58961001  1
  C  C12  1  0.16173249  0.96976189  0.08228960  1
  C  C13  1  0.65591753  0.98097663  0.07422185  1
  C  C14  1  0.32342582  0.69288411  0.08591259  1
  C  C15  1  0.82977125  0.67543770  0.08221909  1
  C  C16  1  0.02156201  0.35618841  0.08641588  1
  C  C17  1  0.51447852  0.33127825  0.07167396  1
  C  C18  1  0.48908680  0.66868255  0.91788701  1
  C  C19  1  0.98098051  0.66556310  0.91326344  1
  C  C20  1  0.35554740  0.04708300  0.92159397  1
  C  C21  1  0.84647042  0.03611996  0.91251806  1
  C  C22  1  0.16679810  0.29480847  0.91437425  1
  C  C23  1  0.66174512  0.28967203  0.92260183  1
  C  C24  1  0.48086621  0.30159493  0.42574857  1
  C  C25  1  0.98967541  0.31069650  0.42187761  1
  C  C26  1  0.16012216  0.03146259  0.42665057  1
  C  C27  1  0.66911987  0.04123543  0.41962751  1
  C  C28  1  0.34385152  0.65574179  0.41734779  1
  C  C29  1  0.85645179  0.66409637  0.42464049  1
  C  C30  1  0.00474014  0.99211816  0.50041654  1
  C  C31  1  0.50427816  0.01041512  0.50356795  1
  C  C32  1  0.00427944  0.99723320  0.99936344  1
  C  C33  1  0.50474601  0.01798357  0.99319993  1
  C  C34  1  0.33652809  0.33236435  0.82974978  1
  C  C35  1  0.82941773  0.33500718  0.82660608  1
  C  C36  1  0.32003974  0.32357366  0.33200498  1
  C  C37  1  0.83937166  0.34239320  0.33168627  1
  C  C38  1  0.16813469  0.67197087  0.16023477  1
  C  C39  1  0.66735671  0.66241097  0.16461144  1
  C  C40  1  0.16035477  0.67129196  0.66920283  1
  C  C41  1  0.67059564  0.66737554  0.66158321  1
  Ni  Ni42  1  0.00489801  0.00233513  0.35347713  1
  Ni  Ni43  1  0.50224986  0.00244167  0.34463105  1
  Ni  Ni44  1  0.00241641  0.99505569  0.83922897  1
  Ni  Ni45  1  0.50460116  0.00740121  0.85257518  1
  Ni  Ni46  1  0.33158266  0.32072057  0.68287816  1
  Ni  Ni47  1  0.82955633  0.33996954  0.68331456  1
  Ni  Ni48  1  0.32297577  0.31778115  0.18057690  1
  Ni  Ni49  1  0.83277199  0.34074858  0.18260524  1
  Ni  Ni50  1  0.33271533  0.31750854  0.98589074  1
  Ni  Ni51  1  0.82707650  0.33507399  0.98510366  1
  Ni  Ni52  1  0.32669916  0.32179091  0.48796714  1
  Ni  Ni53  1  0.83429285  0.34761630  0.48965165  1
  Ni  Ni54  1  0.16681520  0.66935508  0.02247016  1
  Ni  Ni55  1  0.66262917  0.65504840  0.01337665  1
  Ni  Ni56  1  0.16055542  0.66666993  0.51596440  1
  Ni  Ni57  1  0.66803579  0.66814327  0.52452853  1
  Ni  Ni58  1  0.66616966  0.67365133  0.31420139  1
  Ni  Ni59  1  0.16157374  0.65980444  0.80980913  1
  Cu  Cu60  1  0.00720190  0.98593334  0.65073595  1
  Cu  Cu61  1  0.50941868  0.02325439  0.64546042  1
  Cu  Cu62  1  0.00927971  0.99784865  0.14506730  1
  Cu  Cu63  1  0.50563547  0.00830317  0.14553933  1
  Cu  Cu64  1  0.15942662  0.64696795  0.31899205  1
  Cu  Cu65  1  0.66100674  0.67454348  0.81854048  1
  C  C66  1  0.65006584  0.00121047  0.25138915  1
  C  C67  1  0.15074493  0.29701451  0.75084883  1
  C  C68  1  0.99524920  0.69045766  0.75468834  1
  C  C69  1  0.47751821  0.33569583  0.58204814  1
  C  C70  1  0.18564272  0.03059566  0.58402466  1
  C  C71  1  0.69016817  0.04401927  0.58206586  1
  C  C72  1  0.83621253  0.63503793  0.58325842  1
  C  C73  1  0.97738957  0.61927458  0.08227398  1
  C  C74  1  0.33561365  0.03945764  0.08429256  1
  C  C75  1  0.18952195  0.33827722  0.08149028  1
  C  C76  1  0.68690329  0.34237921  0.08540740  1
  C  C77  1  0.51566653  0.36837908  0.91750346  1
  C  C78  1  0.66800484  0.96589575  0.92087905  1
  C  C79  1  0.16815310  0.37042413  0.42062448  1
  C  C80  1  0.01491137  0.66256130  0.41775338  1
  C  C81  1  0.14839530  0.99898801  0.25130535  1
  C  C82  1  0.35200977  0.70503103  0.25085293  1
  C  C83  1  0.85517918  0.71090132  0.25155147  1
  C  C84  1  0.00091543  0.29095266  0.25086239  1
  C  C85  1  0.49811156  0.29276383  0.25120562  1
  C  C86  1  0.64685205  0.29685123  0.75171731  1
  C  C87  1  0.50151815  0.71173530  0.75065242  1
  C  C88  1  0.35745389  0.00148798  0.75133140  1
  C  C89  1  0.85033895  0.99347041  0.75124925  1
  C  C90  1  0.98049880  0.33037488  0.58355768  1
  C  C91  1  0.33511416  0.63194076  0.58406587  1
  C  C92  1  0.48008611  0.62863420  0.08605495  1
  C  C93  1  0.83475681  0.03803390  0.08494794  1
  C  C94  1  0.31156637  0.66585612  0.91571482  1
  C  C95  1  0.81282795  0.67166590  0.91588840  1
  C  C96  1  0.01916446  0.37069482  0.91741996  1
  C  C97  1  0.16617803  0.95740844  0.91618500  1
  C  C98  1  0.31408833  0.95644894  0.41406095  1
  C  C99  1  0.81189907  0.95839458  0.41530547  1
  C  C100  1  0.66418256  0.37438369  0.41405360  1
  C  C101  1  0.51936433  0.66748584  0.41572946  1
  C  C102  1  0.10370954  0.01647060  0.30367120  1
  C  C103  1  0.60642495  0.03213880  0.31020687  1
  C  C104  1  0.40411758  0.78904700  0.30581845  1
  C  C105  1  0.90519335  0.80007896  0.30533991  1
  C  C106  1  0.48534282  0.18989200  0.30604663  1
  C  C107  1  0.98971795  0.18510526  0.30463245  1
  C  C108  1  0.10904317  0.18624770  0.81189004  1
  C  C109  1  0.60251116  0.19176853  0.80465370  1
  C  C110  1  0.49053195  0.79468490  0.80483400  1
  C  C111  1  0.98249724  0.77509938  0.81483414  1
  C  C112  1  0.40823310  0.01544773  0.80535294  1
  C  C113  1  0.90226524  0.01697970  0.80681711  1
  C  C114  1  0.39907081  0.97574896  0.69634008  1
  C  C115  1  0.89282127  0.97359685  0.69715314  1
  C  C116  1  0.08422348  0.19277952  0.69260695  1
  C  C117  1  0.59146515  0.20801189  0.69574685  1
  C  C118  1  0.00999519  0.82558172  0.69579070  1
  C  C119  1  0.51237038  0.81734269  0.69557506  1
  C  C120  1  0.39510905  0.81035338  0.19647420  1
  C  C121  1  0.89585739  0.82021306  0.19639353  1
  C  C122  1  0.01131017  0.20635594  0.19560392  1
  C  C123  1  0.51014571  0.20681670  0.19747190  1
  C  C124  1  0.09436005  0.97828958  0.19492595  1
  C  C125  1  0.58260141  0.97567517  0.19352788  1
  C  C126  1  0.43421651  0.37519177  0.63762457  1
  C  C127  1  0.94024317  0.35396569  0.63803954  1
  C  C128  1  0.24408346  0.11506458  0.64304390  1
  C  C129  1  0.75187714  0.12908952  0.63845148  1
  C  C130  1  0.32241280  0.52712071  0.63822148  1
  C  C131  1  0.81536950  0.50335970  0.63744669  1
  C  C132  1  0.44090953  0.52759584  0.14101565  1
  C  C133  1  0.93464572  0.49503624  0.13860928  1
  C  C134  1  0.31941031  0.12911885  0.14068981  1
  C  C135  1  0.82166907  0.11551053  0.13928641  1
  C  C136  1  0.24971173  0.37823162  0.13899263  1
  C  C137  1  0.74214163  0.36989271  0.14564672  1
  C  C138  1  0.21944716  0.27997358  0.02123461  1
  C  C139  1  0.71937962  0.28736113  0.02566399  1
  C  C140  1  0.42757565  0.54926696  0.03129306  1
  C  C141  1  0.91913694  0.56078343  0.02136445  1
  C  C142  1  0.36440687  0.15595216  0.02299976  1
  C  C143  1  0.85095612  0.14544844  0.03046702  1
  C  C144  1  0.22004757  0.14811470  0.52322698  1
  C  C145  1  0.71815381  0.15650705  0.51980077  1
  C  C146  1  0.35223711  0.55843921  0.52929135  1
  C  C147  1  0.86159031  0.57187642  0.52108668  1
  C  C148  1  0.42029913  0.28037437  0.52021885  1
  C  C149  1  0.92849475  0.30717969  0.52842578  1
  C  C150  1  0.27220159  0.69294644  0.97022950  1
  C  C151  1  0.77477570  0.69359586  0.97202268  1
  C  C152  1  0.07338073  0.45236092  0.97130559  1
  C  C153  1  0.57421362  0.44717176  0.97669017  1
  C  C154  1  0.15664064  0.85414914  0.97080498  1
  C  C155  1  0.65448441  0.84931466  0.97963881  1
  C  C156  1  0.27877987  0.85713886  0.47009779  1
  C  C157  1  0.77077499  0.84990140  0.46849998  1
  C  C158  1  0.15633578  0.46353330  0.47837079  1
  C  C159  1  0.65401125  0.45781612  0.46800788  1
  C  C160  1  0.07589179  0.70246968  0.47516244  1
  C  C161  1  0.57408197  0.69462350  0.46886155  1
  C  C162  1  0.07442728  0.64204130  0.35962552  1
  C  C163  1  0.55914672  0.64410084  0.36045598  1
  C  C164  1  0.25781607  0.86580008  0.36123983  1
  C  C165  1  0.75914445  0.87783318  0.36007043  1
  C  C166  1  0.18008699  0.50517111  0.36081698  1
  C  C167  1  0.67345838  0.47709006  0.35899368  1
  C  C168  1  0.05987413  0.47406717  0.86277497  1
  C  C169  1  0.57545170  0.50742427  0.86031687  1
  C  C170  1  0.17598181  0.87359518  0.86193838  1
  C  C171  1  0.67987626  0.85492185  0.86187161  1
  C  C172  1  0.25861524  0.64269243  0.86151055  1
  C  C173  1  0.75704231  0.64915350  0.86295429  1
  C  C174  1  0.00434701  0.82852680  0.40711210  1
  C  C175  1  0.50806017  0.82166697  0.41106746  1
  C  C176  1  0.40177620  0.97588123  0.40680651  1
  C  C177  1  0.89859103  0.97807806  0.40909882  1
  C  C178  1  0.08168699  0.18749988  0.40994578  1
  C  C179  1  0.58378810  0.19982327  0.41095188  1
  C  C180  1  0.00723650  0.19376161  0.91316611  1
  C  C181  1  0.50463711  0.18017162  0.90797354  1
  C  C182  1  0.08785700  0.97542715  0.91443965  1
  C  C183  1  0.58137127  0.97588050  0.91054578  1
  C  C184  1  0.39912256  0.81996568  0.91004619  1
  C  C185  1  0.89906022  0.82985008  0.91112010  1
  C  C186  1  0.48664483  0.15477068  0.59544042  1
  C  C187  1  0.98831047  0.17378618  0.58749814  1
  C  C188  1  0.08857729  0.01456960  0.59124038  1
  C  C189  1  0.58879903  0.02225610  0.59602286  1
  C  C190  1  0.41442947  0.80854685  0.59050377  1
  C  C191  1  0.92099252  0.83259600  0.59467447  1
  C  C192  1  0.48694429  0.80323243  0.08963762  1
  C  C193  1  0.98714661  0.81997900  0.09666405  1
  C  C194  1  0.42077952  0.01066345  0.09787443  1
  C  C195  1  0.91385005  0.01960531  0.09136515  1
  C  C196  1  0.08826866  0.15758091  0.09591988  1
  C  C197  1  0.58756053  0.16369980  0.09451200  1
  C  C198  1  0.34802150  0.15356428  0.74712123  1
  C  C199  1  0.84275120  0.14871716  0.74654947  1
  C  C200  1  0.24687891  0.31962790  0.74459468  1
  C  C201  1  0.72987556  0.30756971  0.74590865  1
  C  C202  1  0.42426924  0.54173722  0.74528372  1
  C  C203  1  0.91760609  0.49583034  0.74572559  1
  C  C204  1  0.34820304  0.53639353  0.24691502  1
  C  C205  1  0.84605294  0.54028273  0.24759039  1
  C  C206  1  0.42624015  0.32561352  0.24506996  1
  C  C207  1  0.92380595  0.30621501  0.24547081  1
  C  C208  1  0.23265626  0.15364376  0.24631678  1
  C  C209  1  0.74618898  0.16823277  0.24446496  1
  C  C210  1  0.32083239  0.51155352  0.92151774  1
  C  C211  1  0.82110024  0.51617483  0.91761450  1
  C  C212  1  0.42471428  0.36717892  0.91574153  1
  C  C213  1  0.93311708  0.35473089  0.92317041  1
  C  C214  1  0.24421291  0.13109060  0.91914315  1
  C  C215  1  0.75619302  0.15207737  0.91838590  1
  C  C216  1  0.32275525  0.12840667  0.41551666  1
  C  C217  1  0.82081984  0.13073104  0.42062944  1
  C  C218  1  0.25657753  0.36149339  0.41731260  1
  C  C219  1  0.74068623  0.35401305  0.41662073  1
  C  C220  1  0.43317634  0.51202416  0.42110601  1
  C  C221  1  0.92407465  0.48181225  0.41526161  1
  C  C222  1  0.16796233  0.49101837  0.07519803  1
  C  C223  1  0.67360914  0.50815783  0.08020659  1
  C  C224  1  0.07591201  0.66518306  0.07607635  1
  C  C225  1  0.56769521  0.65504400  0.08144625  1
  C  C226  1  0.25372078  0.84789742  0.07689887  1
  C  C227  1  0.75930557  0.86445527  0.07868157  1
  C  C228  1  0.17443540  0.83935403  0.57902610  1
  C  C229  1  0.66707354  0.84696475  0.57545602  1
  C  C230  1  0.25993891  0.65373108  0.57734522  1
  C  C231  1  0.75365330  0.66180299  0.57627224  1
  C  C232  1  0.06770520  0.48372394  0.57931423  1
  C  C233  1  0.57568129  0.48814281  0.57504562  1
  C  C234  1  0.15514281  0.84181450  0.25383915  1
  C  C235  1  0.65417130  0.82258816  0.25114791  1
  C  C236  1  0.26567537  0.68719944  0.25515288  1
  C  C237  1  0.76699193  0.69071796  0.25452976  1
  C  C238  1  0.08044742  0.46454840  0.25506805  1
  C  C239  1  0.58017474  0.46243246  0.25520464  1
  C  C240  1  0.15907820  0.48639180  0.75134464  1
  C  C241  1  0.65361039  0.46720860  0.75384472  1
  C  C242  1  0.08824957  0.69794736  0.75252602  1
  C  C243  1  0.58090051  0.69720569  0.75537488  1
  C  C244  1  0.27101530  0.84442431  0.75467792  1
  C  C245  1  0.76384229  0.83466602  0.75669514  1
