# generated using pymatgen
data_Cu3Ni3C29
_symmetry_space_group_name_H-M   'P 1'
_cell_length_a   8.59101832
_cell_length_b   8.52630855
_cell_length_c   22.23510502
_cell_angle_alpha   88.36635695
_cell_angle_beta   92.34990133
_cell_angle_gamma   119.42898203
_symmetry_Int_Tables_number   1
_chemical_formula_structural   Cu3Ni3C29
_chemical_formula_sum   'Cu9 Ni9 C87'
_cell_volume   1417.29530878
_cell_formula_units_Z   3
loop_
 _symmetry_equiv_pos_site_id
 _symmetry_equiv_pos_as_xyz
  1  'x, y, z'
loop_
 _atom_site_type_symbol
 _atom_site_label
 _atom_site_symmetry_multiplicity
 _atom_site_fract_x
 _atom_site_fract_y
 _atom_site_fract_z
 _atom_site_occupancy
  C  C0  1  0.01176683  0.99271212  0.99263694  1
  C  C1  1  0.65980985  0.31976786  0.83328501  1
  C  C2  1  0.67518647  0.33414285  0.33323260  1
  C  C3  1  0.00674965  0.00712297  0.64464232  1
  C  C4  1  0.01084538  0.00853052  0.14163055  1
  C  C5  1  0.33287515  0.67648640  0.52655920  1
  Ni  Ni6  1  0.99192680  0.28588972  0.25162588  1
  Ni  Ni7  1  0.29192026  0.30564861  0.75479730  1
  Ni  Ni8  1  0.72576089  0.01306645  0.75181359  1
  Ni  Ni9  1  0.39620928  0.07285987  0.58095502  1
  Ni  Ni10  1  0.67292753  0.60928637  0.58659983  1
  Ni  Ni11  1  0.94589066  0.60779752  0.07922164  1
  Ni  Ni12  1  0.39837161  0.35063805  0.08140085  1
  Ni  Ni13  1  0.33430706  0.94945331  0.91552865  1
  Ni  Ni14  1  0.02933686  0.66218619  0.41367393  1
  Cu  Cu15  1  0.98158884  0.99342479  0.35542041  1
  Cu  Cu16  1  0.02647205  0.01719723  0.84969348  1
  Cu  Cu17  1  0.62626643  0.30911427  0.69407413  1
  Cu  Cu18  1  0.69006419  0.35105953  0.18179422  1
  Cu  Cu19  1  0.64265099  0.32977879  0.97843163  1
  Cu  Cu20  1  0.67547474  0.36191386  0.48320523  1
  Cu  Cu21  1  0.30403273  0.65408344  0.02295272  1
  Cu  Cu22  1  0.29612176  0.64555583  0.31328749  1
  Cu  Cu23  1  0.36165783  0.69647211  0.80615734  1
  C  C24  1  0.29334394  -0.00024795  0.25405102  1
  C  C25  1  0.70132503  0.70876959  0.25214711  1
  C  C26  1  0.00047993  0.71014743  0.75403613  1
  C  C27  1  0.94718290  0.33515513  0.58209870  1
  C  C28  1  0.65673014  0.04591201  0.08255564  1
  C  C29  1  0.62217308  0.66917213  0.91722772  1
  C  C30  1  0.03922490  0.37569937  0.91723342  1
  C  C31  1  0.61563177  0.94829724  0.41284056  1
  C  C32  1  0.33009942  0.37495627  0.41365447  1
  C  C33  1  0.20820682  0.02864510  0.30583656  1
  C  C34  1  0.82274587  0.78512599  0.30729806  1
  C  C35  1  0.95448879  0.15606011  0.31183224  1
  C  C36  1  0.21999356  0.16841732  0.81265748  1
  C  C37  1  0.96731139  0.79220046  0.80718207  1
  C  C38  1  0.84702603  0.03592037  0.81373792  1
  C  C39  1  0.81559899  0.98066116  0.69387531  1
  C  C40  1  0.17275945  0.20933753  0.69442683  1
  C  C41  1  0.03178831  0.82418835  0.69869486  1
  C  C42  1  0.78795294  0.81638713  0.19805801  1
  C  C43  1  0.01873478  0.18498910  0.19504168  1
  C  C44  1  0.17804338  0.96382810  0.19774646  1
  C  C45  1  0.87904847  0.37160339  0.63457557  1
  C  C46  1  0.51531958  0.13065770  0.64257388  1
  C  C47  1  0.64246823  0.48575482  0.64538861  1
  C  C48  1  0.88010796  0.49733905  0.14273535  1
  C  C49  1  0.63253780  0.12472924  0.13804260  1
  C  C50  1  0.51163490  0.36939691  0.14477702  1
  C  C51  1  0.45713006  0.28147592  0.02406442  1
  C  C52  1  0.81536293  0.51846096  0.02074440  1
  C  C53  1  0.70153119  0.16175487  0.02853015  1
  C  C54  1  0.48501082  0.18273425  0.51840684  1
  C  C55  1  0.72094123  0.55154963  0.52338842  1
  C  C56  1  0.84225931  0.30386737  0.52386219  1
  C  C57  1  0.54058445  0.68851598  0.97112527  1
  C  C58  1  0.15113544  0.44746869  0.97478719  1
  C  C59  1  0.30532208  0.82859100  0.97694524  1
  C  C60  1  0.53659415  0.83811993  0.46748702  1
  C  C61  1  0.30986763  0.46015551  0.46639262  1
  C  C62  1  0.16099923  0.69269130  0.47142670  1
  C  C63  1  0.11407817  0.62009452  0.35520189  1
  C  C64  1  0.50070223  0.86187424  0.35771135  1
  C  C65  1  0.36981891  0.49518189  0.35820150  1
  C  C66  1  0.12071931  0.48695980  0.86458143  1
  C  C67  1  0.36438447  0.85862673  0.85709532  1
  C  C68  1  0.51102096  0.63758059  0.86123264  1
  C  C69  1  0.02318188  0.84985372  0.40333340  1
  C  C70  1  0.79357355  0.95758254  0.40937936  1
  C  C71  1  0.16628999  0.19935018  0.40575607  1
  C  C72  1  0.02244801  0.19223707  0.91446803  1
  C  C73  1  0.14719907  0.96331961  0.90941261  1
  C  C74  1  0.80215904  0.82642111  0.91259079  1
  C  C75  1  0.96668655  0.17302649  0.58626777  1
  C  C76  1  0.20034008  0.04767057  0.59061490  1
  C  C77  1  0.83766712  0.81025214  0.59595027  1
  C  C78  1  0.96207182  0.80728612  0.09061108  1
  C  C79  1  0.82191302  0.02556843  0.09139801  1
  C  C80  1  0.19380577  0.17480894  0.09324286  1
  C  C81  1  0.71645190  0.20085877  0.74444404  1
  C  C82  1  0.49048238  0.32551877  0.74913650  1
  C  C83  1  0.84497326  0.53385916  0.74707643  1
  C  C84  1  0.68017734  0.52442919  0.24818464  1
  C  C85  1  0.80753025  0.30124054  0.24286396  1
  C  C86  1  0.46881542  0.15844871  0.24625098  1
  C  C87  1  0.63737897  0.49781251  0.91931078  1
  C  C88  1  0.85947901  0.35863158  0.92348528  1
  C  C89  1  0.51471275  0.15167876  0.92335151  1
  C  C90  1  0.63723595  0.12902224  0.41681736  1
  C  C91  1  0.49053184  0.35056829  0.41773294  1
  C  C92  1  0.83214531  0.47995308  0.42208394  1
  C  C93  1  0.38229613  0.52904098  0.06915466  1
  C  C94  1  0.14468984  0.63765651  0.07392082  1
  C  C95  1  0.50369804  0.86753278  0.07599365  1
  C  C96  1  0.37282021  0.87004852  0.57144511  1
  C  C97  1  0.48931549  0.61835469  0.57157835  1
  C  C98  1  0.13143519  0.49159523  0.57315657  1
  C  C99  1  0.31189930  0.83463301  0.26018696  1
  C  C100  1  0.52988507  0.70346486  0.26007976  1
  C  C101  1  0.17541442  0.47904574  0.25816418  1
  C  C102  1  0.29372719  0.49201708  0.76730273  1
  C  C103  1  0.16594024  0.69937639  0.76077368  1
  C  C104  1  0.52732786  0.84150684  0.75701613  1
