# generated using pymatgen
data_Cu4NiC7
_symmetry_space_group_name_H-M   'P 1'
_cell_length_a   6.64361723
_cell_length_b   6.64361723
_cell_length_c   6.64361723
_cell_angle_alpha   117.10858475
_cell_angle_beta   105.79289102
_cell_angle_gamma   105.79289102
_symmetry_Int_Tables_number   1
_chemical_formula_structural   Cu4NiC7
_chemical_formula_sum   'Cu8 Ni2 C14'
_cell_volume   222.68555380
_cell_formula_units_Z   2
loop_
 _symmetry_equiv_pos_site_id
 _symmetry_equiv_pos_as_xyz
  1  'x, y, z'
loop_
 _atom_site_type_symbol
 _atom_site_label
 _atom_site_symmetry_multiplicity
 _atom_site_fract_x
 _atom_site_fract_y
 _atom_site_fract_z
 _atom_site_occupancy
  C  C0  1  0.50000000  0.75000000  0.25000000  1
  C  C1  1  0.00000000  0.00000000  -0.00000000  1
  C  C2  1  0.64385467  0.23587982  0.72588793  1
  C  C3  1  0.99000811  0.51412018  0.65797485  1
  C  C4  1  0.35614533  0.08203326  0.59202515  1
  C  C5  1  0.00999189  0.66796674  0.52411207  1
  C  C6  1  0.50999189  0.27411207  0.91796674  1
  C  C7  1  0.14385467  0.47588793  0.48587982  1
  C  C8  1  0.49000811  0.40797485  0.76412018  1
  C  C9  1  0.85614533  0.34202515  0.33203326  1
  C  C10  1  0.86974408  0.99474408  0.62500000  1
  C  C11  1  0.13025592  0.75525592  0.12500000  1
  C  C12  1  0.36974408  0.37500000  0.24474408  1
  C  C13  1  0.63025592  0.87500000  0.00525592  1
  Ni  Ni14  1  0.50000000  0.25000000  0.75000000  1
  Ni  Ni15  1  0.00000000  0.50000000  0.50000000  1
  Cu  Cu16  1  0.72334573  0.00352793  0.47923298  1
  Cu  Cu17  1  0.97570505  0.74647207  0.96981780  1
  Cu  Cu18  1  0.27665427  0.75588725  0.28018220  1
  Cu  Cu19  1  0.02429495  0.99411275  0.77076702  1
  Cu  Cu20  1  0.52429495  0.52076702  0.24411275  1
  Cu  Cu21  1  0.22334573  0.22923298  0.25352793  1
  Cu  Cu22  1  0.47570505  0.71981780  0.99647207  1
  Cu  Cu23  1  0.77665427  0.03018220  0.00588725  1
