# generated using pymatgen
data_Cu2NiC32
_symmetry_space_group_name_H-M   'P 1'
_cell_length_a   9.05086216
_cell_length_b   9.05154707
_cell_length_c   24.29771290
_cell_angle_alpha   89.92775497
_cell_angle_beta   90.13512716
_cell_angle_gamma   119.79671589
_symmetry_Int_Tables_number   1
_chemical_formula_structural   Cu2NiC32
_chemical_formula_sum   'Cu6 Ni3 C96'
_cell_volume   1727.40257663
_cell_formula_units_Z   3
loop_
 _symmetry_equiv_pos_site_id
 _symmetry_equiv_pos_as_xyz
  1  'x, y, z'
loop_
 _atom_site_type_symbol
 _atom_site_label
 _atom_site_symmetry_multiplicity
 _atom_site_fract_x
 _atom_site_fract_y
 _atom_site_fract_z
 _atom_site_occupancy
  Ni  Ni0  1  0.99861678  0.98372473  0.99424864  1
  Ni  Ni1  1  0.65083884  0.33138823  0.83908644  1
  Ni  Ni2  1  0.67815726  0.33167345  0.33729027  1
  C  C3  1  0.99966308  0.98897648  0.84710616  1
  C  C4  1  -0.00013267  0.00772533  0.15978298  1
  C  C5  1  0.67442268  0.33480422  0.19356892  1
  C  C6  1  0.65682214  0.33474055  0.97741301  1
  C  C7  1  0.34175992  0.67425961  0.01724015  1
  C  C8  1  0.34157964  0.67546857  0.80553362  1
  Cu  Cu9  1  0.99874659  0.00710031  0.35838711  1
  Cu  Cu10  1  0.00114016  0.00010091  0.64081225  1
  Cu  Cu11  1  0.66509070  0.33219962  0.67427615  1
  Cu  Cu12  1  0.66719233  0.33344505  0.48389996  1
  Cu  Cu13  1  0.33320679  0.66674438  0.51838438  1
  Cu  Cu14  1  0.32708409  0.65929592  0.32231264  1
  C  C15  1  0.00605196  0.30050400  0.26388156  1
  C  C16  1  0.64105510  0.66890082  0.91303839  1
  C  C17  1  0.33171178  0.97204437  0.91285763  1
  C  C18  1  0.29089977  0.98961653  0.26404404  1
  C  C19  1  0.69772045  0.70870168  0.26416743  1
  C  C20  1  0.30321740  0.28161591  0.73842373  1
  C  C21  1  0.97715106  0.69266220  0.73724210  1
  C  C22  1  0.72161521  0.02492707  0.73815404  1
  C  C23  1  0.95667872  0.33598939  0.57993447  1
  C  C24  1  0.37976284  0.04382151  0.57967793  1
  C  C25  1  0.66421269  0.62066014  0.57981421  1
  C  C26  1  0.96777961  0.64411403  0.08485117  1
  C  C27  1  0.67780189  0.03470217  0.08463725  1
  C  C28  1  0.35506849  0.32446813  0.08672421  1
  C  C29  1  0.03066390  0.36143506  0.91311479  1
  C  C30  1  0.61673814  0.95740093  0.41931969  1
  C  C31  1  0.34142268  0.38233548  0.41971698  1
  C  C32  1  0.04150918  0.66077220  0.41968514  1
  C  C33  1  0.18774339  0.00691600  0.30822130  1
  C  C34  1  0.82023364  0.80826543  0.30837544  1
  C  C35  1  0.98675431  0.17234014  0.30978207  1
  C  C36  1  0.24387774  0.18987419  0.79142872  1
  C  C37  1  0.94275681  0.74934144  0.79047875  1
  C  C38  1  0.81188074  0.05553672  0.79137318  1
  C  C39  1  0.82279599  0.00899234  0.69272042  1
  C  C40  1  0.18723023  0.18006000  0.69264850  1
  C  C41  1  -0.00530313  0.81250991  0.69240334  1
  C  C42  1  0.75965648  0.78928564  0.20972564  1
  C  C43  1  0.02524082  0.23501182  0.20737821  1
  C  C44  1  0.20773822  0.96682711  0.20972286  1
  C  C45  1  0.88358818  0.37771474  0.62809842  1
  C  C46  1  0.49387648  0.11562047  0.62819464  1
  C  C47  1  0.62133094  0.50586628  0.62809740  1
  C  C48  1  0.86798853  0.55061662  0.13489096  1
  C  C49  1  0.68574451  0.13477341  0.13465806  1
  C  C50  1  0.45033698  0.31901128  0.13635317  1
  C  C51  1  0.44149057  0.31676158  0.03579614  1
  C  C52  1  0.87230904  0.55608385  0.03420276  1
  C  C53  1  0.68260047  0.12777650  0.03394352  1
  C  C54  1  0.45784578  0.16229901  0.53201996  1
  C  C55  1  0.70459385  0.54257861  0.53206388  1
  C  C56  1  0.83839626  0.29556421  0.53196869  1
  C  C57  1  0.54552813  0.65048719  0.96738396  1
  C  C58  1  0.11159827  0.44927475  0.96513978  1
  C  C59  1  0.33848782  0.88626060  0.96696221  1
  C  C60  1  0.53655739  0.84728436  0.46836092  1
  C  C61  1  0.31069032  0.46320712  0.46836635  1
  C  C62  1  0.15265247  0.69005029  0.46860871  1
  C  C63  1  0.11576307  0.62183636  0.37122711  1
  C  C64  1  0.50463038  0.88384269  0.37081970  1
  C  C65  1  0.38086138  0.49520166  0.37121215  1
  C  C66  1  0.13241607  0.45460161  0.86418540  1
  C  C67  1  0.31197031  0.86289896  0.86124966  1
  C  C68  1  0.54358820  0.67810579  0.86179281  1
  C  C69  1  0.02349561  0.81166213  0.41005780  1
  C  C70  1  0.78604537  0.97390052  0.41024545  1
  C  C71  1  0.19012346  0.21347550  0.41022084  1
  C  C72  1  0.01257586  0.18959121  0.91542530  1
  C  C73  1  0.17764524  0.00157871  0.91676667  1
  C  C74  1  0.81628810  0.83337751  0.91682609  1
  C  C75  1  0.97615999  0.18553669  0.59119297  1
  C  C76  1  0.21055820  0.02542662  0.59090521  1
  C  C77  1  0.81441245  0.78951234  0.59125940  1
  C  C78  1  0.98749236  0.81761369  0.08476227  1
  C  C79  1  0.83025693  0.01262919  0.08383769  1
  C  C80  1  0.18298998  0.16939576  0.08593652  1
  C  C81  1  0.69996214  0.17557175  0.72818727  1
  C  C82  1  0.47558722  0.30246039  0.72870174  1
  C  C83  1  0.82592245  0.52258491  0.72666061  1
  C  C84  1  0.67895341  0.53515701  0.26415691  1
  C  C85  1  0.84314969  0.31685149  0.26418182  1
  C  C86  1  0.46111705  0.14755603  0.26371482  1
  C  C87  1  0.66754879  0.51349565  0.90603897  1
  C  C88  1  0.85978571  0.34554111  0.90765458  1
  C  C89  1  0.49716766  0.14579651  0.90680158  1
  C  C90  1  0.63728220  0.13161611  0.42874781  1
  C  C91  1  0.49506731  0.36249802  0.42925589  1
  C  C92  1  0.86888862  0.50587157  0.42897252  1
  C  C93  1  0.34122857  0.47844535  0.08825127  1
  C  C94  1  0.13372689  0.65342955  0.08673385  1
  C  C95  1  0.52224079  0.86840576  0.08775968  1
  C  C96  1  0.36188738  0.87523656  0.56693530  1
  C  C97  1  0.51360493  0.63906372  0.56685925  1
  C  C98  1  0.12489035  0.48644835  0.56722983  1
  C  C99  1  0.31014052  0.83958913  0.27420155  1
  C  C100  1  0.53192908  0.69735937  0.27400644  1
  C  C101  1  0.16495609  0.47351921  0.27536103  1
  C  C102  1  0.31388253  0.44872334  0.74071696  1
  C  C103  1  0.13199542  0.67936368  0.73988632  1
  C  C104  1  0.55367579  0.86938390  0.73973151  1
