# generated using pymatgen
data_Cu2(NiC15)5
_symmetry_space_group_name_H-M   'P 1'
_cell_length_a   18.85993196
_cell_length_b   9.42159952
_cell_length_c   23.10033554
_cell_angle_alpha   89.87052058
_cell_angle_beta   90.14619197
_cell_angle_gamma   120.18379597
_symmetry_Int_Tables_number   1
_chemical_formula_structural   Cu2(NiC15)5
_chemical_formula_sum   'Cu6 Ni15 C225'
_cell_volume   3548.17206519
_cell_formula_units_Z   3
loop_
 _symmetry_equiv_pos_site_id
 _symmetry_equiv_pos_as_xyz
  1  'x, y, z'
loop_
 _atom_site_type_symbol
 _atom_site_label
 _atom_site_symmetry_multiplicity
 _atom_site_fract_x
 _atom_site_fract_y
 _atom_site_fract_z
 _atom_site_occupancy
  C  C0  1  0.80867026  0.00807182  0.24705309  1
  C  C1  1  0.68854983  0.34713110  0.24062728  1
  C  C2  1  0.50454060  0.65306955  0.24317836  1
  C  C3  1  0.30373670  0.60493890  0.74825032  1
  C  C4  1  0.00717244  0.37822286  0.74413877  1
  C  C5  1  0.17391131  0.00509159  0.73947621  1
  C  C6  1  0.15037455  0.31714537  0.57497744  1
  C  C7  1  0.66985542  0.36436351  0.58452199  1
  C  C8  1  0.01668285  0.70509247  0.57528185  1
  C  C9  1  0.52144506  0.67575993  0.59210319  1
  C  C10  1  0.32511413  0.99622616  0.58522604  1
  C  C11  1  0.82465106  0.96137891  0.59219096  1
  C  C12  1  0.16737590  0.97268093  0.08134604  1
  C  C13  1  0.65571096  0.99090160  0.06833627  1
  C  C14  1  0.31748756  0.68162448  0.08825834  1
  C  C15  1  0.83005621  0.66041957  0.08235707  1
  C  C16  1  0.02344634  0.36701457  0.08908517  1
  C  C17  1  0.51440682  0.32342177  0.06557802  1
  C  C18  1  0.49460153  0.66711323  0.91911025  1
  C  C19  1  0.97994941  0.66416638  0.91504839  1
  C  C20  1  0.36110250  0.05782214  0.92641527  1
  C  C21  1  0.83927824  0.03560957  0.91093945  1
  C  C22  1  0.16788319  0.29514464  0.91673808  1
  C  C23  1  0.65814011  0.27834833  0.92803114  1
  C  C24  1  0.47996293  0.30021081  0.43042207  1
  C  C25  1  0.99597577  0.32443513  0.42193162  1
  C  C26  1  0.15527574  0.03328359  0.43113866  1
  C  C27  1  0.67044943  0.04324994  0.42188461  1
  C  C28  1  0.33506431  0.64299073  0.41505835  1
  C  C29  1  0.86191912  0.66551297  0.42724222  1
  C  C30  1  0.01046166  0.98957852  0.50028112  1
  C  C31  1  0.50775365  0.01957568  0.51126569  1
  C  C32  1  0.00951224  0.99784886  0.00680659  1
  C  C33  1  0.50941868  0.03089776  0.99425573  1
  C  C34  1  0.33922713  0.33366998  0.83102254  1
  C  C35  1  0.82681706  0.33205386  0.82709212  1
  C  C36  1  0.31036007  0.31911903  0.33333198  1
  C  C37  1  0.84525094  0.35115594  0.33171489  1
  C  C38  1  0.16719284  0.67193836  0.15522235  1
  C  C39  1  0.66706316  0.65953512  0.16182010  1
  C  C40  1  0.15645965  0.67377192  0.66929830  1
  C  C41  1  0.66872151  0.66467778  0.65725679  1
  C  C42  1  0.00354403  0.00147715  0.35019211  1
  C  C43  1  0.50320562  0.00382756  0.34501280  1
  C  C44  1  0.00207675  -0.00453583  0.84190414  1
  C  C45  1  0.50429536  0.00514790  0.85105755  1
  C  C46  1  0.33447421  0.32613193  0.68056561  1
  C  C47  1  0.82925086  0.33555832  0.68393426  1
  C  C48  1  0.32486883  0.31990834  0.18072459  1
  C  C49  1  0.83546705  0.34278540  0.18017821  1
  C  C50  1  0.33335576  0.31848669  0.99199774  1
  C  C51  1  0.82794294  0.33747346  0.98934863  1
  C  C52  1  0.32855123  0.32120748  0.49155975  1
  C  C53  1  0.83240064  0.34560184  0.49370358  1
  C  C54  1  0.16781832  0.67024139  0.01764013  1
  C  C55  1  0.66253574  0.65815147  0.01388635  1
  C  C56  1  0.16275404  0.66757393  0.51479624  1
  C  C57  1  0.66802725  0.66801995  0.51925704  1
  C  C58  1  0.66443275  0.67284698  0.31526761  1
  C  C59  1  0.16206660  0.65828686  0.81311304  1
  Ni  Ni60  1  0.64997602  0.99721113  0.24984713  1
  Ni  Ni61  1  0.15131459  0.30161000  0.74962536  1
  Ni  Ni62  1  -0.00041922  0.68727663  0.75407293  1
  Ni  Ni63  1  0.48539431  0.32500224  0.58153426  1
  Ni  Ni64  1  0.17614721  0.02023722  0.58670616  1
  Ni  Ni65  1  0.67691716  0.02866315  0.58120372  1
  Ni  Ni66  1  0.84007399  0.65586907  0.58406441  1
  Ni  Ni67  1  0.98543286  0.64412432  0.08079252  1
  Ni  Ni68  1  0.34055560  0.02759531  0.08558891  1
  Ni  Ni69  1  0.17901281  0.32994131  0.08068622  1
  Ni  Ni70  1  0.67625054  0.33365288  0.08920439  1
  Ni  Ni71  1  0.51351146  0.36743081  0.91486855  1
  Ni  Ni72  1  0.67094848  0.97175609  0.91806593  1
  Ni  Ni73  1  0.17060320  0.36972709  0.41799431  1
  Ni  Ni74  1  0.01154268  0.65909009  0.41638506  1
  Cu  Cu75  1  0.00558643  0.98705733  0.65433817  1
  Cu  Cu76  1  0.50779496  0.01891481  0.65223921  1
  Cu  Cu77  1  0.00987414  0.99789875  0.15062373  1
  Cu  Cu78  1  0.50342073  0.00773166  0.15179185  1
  Cu  Cu79  1  0.15919633  0.65171547  0.32130026  1
  Cu  Cu80  1  0.66416654  0.67371613  0.82000302  1
  C  C81  1  0.15328479  0.98627359  0.25343123  1
  C  C82  1  0.34874829  0.70219672  0.25055441  1
  C  C83  1  0.84851432  0.70359541  0.25057462  1
  C  C84  1  0.00301935  0.30398997  0.25041511  1
  C  C85  1  0.50065405  0.30362125  0.25059698  1
  C  C86  1  0.64930223  0.31587891  0.75245321  1
  C  C87  1  0.50435519  0.70890071  0.74958651  1
  C  C88  1  0.35470308  0.99553941  0.74938612  1
  C  C89  1  0.84314077  0.98426847  0.75204832  1
  C  C90  1  0.98468861  0.32263318  0.58660152  1
  C  C91  1  0.33880135  0.64889257  0.58597983  1
  C  C92  1  0.48515493  0.64503930  0.08844978  1
  C  C93  1  0.83675811  0.02784328  0.08614086  1
  C  C94  1  0.31687972  0.66380665  0.91536807  1
  C  C95  1  0.81491515  0.67041899  0.91484816  1
  C  C96  1  0.01314132  0.35820264  0.91772805  1
  C  C97  1  0.16657517  0.96976816  0.91589510  1
  C  C98  1  0.31654460  0.96407215  0.41417659  1
  C  C99  1  0.81678810  0.97126277  0.41491944  1
  C  C100  1  0.66476711  0.36395148  0.41427880  1
  C  C101  1  0.51320302  0.66581459  0.41565473  1
  C  C102  1  0.10744817  0.99365978  0.30318110  1
  C  C103  1  0.60919553  0.01880787  0.30814615  1
  C  C104  1  0.39490343  0.78573329  0.30351884  1
  C  C105  1  0.89447589  0.79182505  0.30230663  1
  C  C106  1  0.48974736  0.20943417  0.30395855  1
  C  C107  1  0.99750190  0.20750003  0.30192546  1
  C  C108  1  0.11117010  0.20434777  0.80945489  1
  C  C109  1  0.60499832  0.21838665  0.80283686  1
  C  C110  1  0.49833671  0.79121803  0.80143735  1
  C  C111  1  0.99052551  0.76611372  0.81458750  1
  C  C112  1  0.40098750  0.00473111  0.80133710  1
  C  C113  1  0.88905678  0.99741724  0.80551755  1
  C  C114  1  0.39879718  0.98012178  0.69570712  1
  C  C115  1  0.88500465  0.96771043  0.69959035  1
  C  C116  1  0.08543364  0.19851949  0.69364659  1
  C  C117  1  0.59960168  0.23701803  0.69708112  1
  C  C118  1  0.00915743  0.80752081  0.69668392  1
  C  C119  1  0.51213825  0.81042092  0.69553839  1
  C  C120  1  0.39229251  0.80340379  0.19760157  1
  C  C121  1  0.88944727  0.80100128  0.19619213  1
  C  C122  1  0.01121403  0.22561762  0.19576249  1
  C  C123  1  0.50613275  0.21132374  0.19888381  1
  C  C124  1  0.10797312  0.96952614  0.19709505  1
  C  C125  1  0.58295122  0.96921394  0.19486624  1
  C  C126  1  0.43969800  0.37021256  0.63052637  1
  C  C127  1  0.94379799  0.34167305  0.63762361  1
  C  C128  1  0.23225717  0.10792967  0.64305381  1
  C  C129  1  0.74380832  0.12543654  0.63209429  1
  C  C130  1  0.32793958  0.54720864  0.63748121  1
  C  C131  1  0.81982520  0.51472441  0.63260230  1
  C  C132  1  0.44556113  0.54826374  0.14096532  1
  C  C133  1  0.94043472  0.51329757  0.13205984  1
  C  C134  1  0.32603520  0.12538208  0.13669009  1
  C  C135  1  0.82694819  0.10619987  0.13855750  1
  C  C136  1  0.24181719  0.36562049  0.13329614  1
  C  C137  1  0.73062907  0.35675437  0.14646668  1
  C  C138  1  0.20777937  0.28170663  0.02058301  1
  C  C139  1  0.71285268  0.29800414  0.03002340  1
  C  C140  1  0.43690722  0.56470628  0.03557782  1
  C  C141  1  0.93248864  0.58692109  0.02035391  1
  C  C142  1  0.36741539  0.13371448  0.02484987  1
  C  C143  1  0.84698101  0.12733317  0.03380175  1
  C  C144  1  0.21256901  0.12559821  0.52644211  1
  C  C145  1  0.70210660  0.13052008  0.52004450  1
  C  C146  1  0.35208179  0.57613786  0.53293554  1
  C  C147  1  0.86472485  0.59997145  0.52317649  1
  C  C148  1  0.43325308  0.27700611  0.52043857  1
  C  C149  1  0.93777498  0.30583330  0.53250247  1
  C  C150  1  0.27711662  0.68329358  0.96737599  1
  C  C151  1  0.77724578  0.68336496  0.96901671  1
  C  C152  1  0.06366590  0.44055714  0.96937112  1
  C  C153  1  0.56488054  0.44104168  0.97423744  1
  C  C154  1  0.16222593  0.87692622  0.96868635  1
  C  C155  1  0.66143025  0.87284337  0.97778994  1
  C  C156  1  0.28074724  0.87324252  0.46827359  1
  C  C157  1  0.77586821  0.86902031  0.46611232  1
  C  C158  1  0.16364221  0.45357499  0.47691372  1
  C  C159  1  0.65983690  0.44951936  0.46618454  1
  C  C160  1  0.06558142  0.68970564  0.47410879  1
  C  C161  1  0.56502503  0.68559211  0.46651747  1
  C  C162  1  0.06060950  0.62776551  0.35940179  1
  C  C163  1  0.55282728  0.65149458  0.36205797  1
  C  C164  1  0.26264103  0.87393719  0.36283132  1
  C  C165  1  0.76798129  0.89055469  0.36156801  1
  C  C166  1  0.19134211  0.50638381  0.36123220  1
  C  C167  1  0.66929329  0.45647120  0.36100347  1
  C  C168  1  0.05437041  0.45311514  0.86472553  1
  C  C169  1  0.56587353  0.49822376  0.85898165  1
  C  C170  1  0.17167748  0.88509541  0.86367394  1
  C  C171  1  0.69093563  0.87682024  0.86238211  1
  C  C172  1  0.26818177  0.64871884  0.86265872  1
  C  C173  1  0.76097891  0.65049502  0.86345421  1
  C  C174  1  0.00077309  0.82007875  0.40984441  1
  C  C175  1  0.50205835  0.81251023  0.41290805  1
  C  C176  1  0.39921209  0.98061657  0.40810364  1
  C  C177  1  0.90007331  0.99103622  0.41057572  1
  C  C178  1  0.08620621  0.19411975  0.41057282  1
  C  C179  1  0.58759369  0.19758702  0.41409711  1
  C  C180  1  0.00095661  0.18840138  0.91514066  1
  C  C181  1  0.50166733  0.18352517  0.90973462  1
  C  C182  1  0.09104681  0.98537692  0.91582179  1
  C  C183  1  0.58618539  0.97772443  0.91142047  1
  C  C184  1  0.40062187  0.81177020  0.91145296  1
  C  C185  1  0.89615147  0.82270282  0.90988234  1
  C  C186  1  0.48275323  0.14394740  0.59414587  1
  C  C187  1  0.98975165  0.16850598  0.59089438  1
  C  C188  1  0.08516406  0.01369994  0.58958583  1
  C  C189  1  0.58313673  0.01236889  0.59407975  1
  C  C190  1  0.41559924  0.81594917  0.59261129  1
  C  C191  1  0.92082512  0.84454390  0.59590422  1
  C  C192  1  0.48988464  0.81017239  0.09109409  1
  C  C193  1  0.98439417  0.82296816  0.09173020  1
  C  C194  1  0.42106795  -0.00168557  0.09693678  1
  C  C195  1  0.91271244  0.01299639  0.09083526  1
  C  C196  1  0.08435314  0.15619907  0.09047373  1
  C  C197  1  0.58400287  0.15859791  0.09206888  1
  C  C198  1  0.34448300  0.13970122  0.74557222  1
  C  C199  1  0.83573641  0.13172889  0.74727557  1
  C  C200  1  0.24318342  0.32194930  0.74594714  1
  C  C201  1  0.72941376  0.32896445  0.74851687  1
  C  C202  1  0.42887704  0.54786553  0.74465205  1
  C  C203  1  0.92616184  0.49645797  0.75100260  1
  C  C204  1  0.34772861  0.54391985  0.24711137  1
  C  C205  1  0.83853053  0.53775467  0.25000215  1
  C  C206  1  0.43395928  0.34085558  0.24483045  1
  C  C207  1  0.92709680  0.31313433  0.24796189  1
  C  C208  1  0.23457399  0.13523924  0.25249602  1
  C  C209  1  0.74233036  0.15662464  0.24520980  1
  C  C210  1  0.32431302  0.51376716  0.91954785  1
  C  C211  1  0.82405417  0.52265697  0.91483125  1
  C  C212  1  0.42493963  0.36191511  0.91222884  1
  C  C213  1  0.93112739  0.34605989  0.92146383  1
  C  C214  1  0.24159357  0.13702125  0.91701203  1
  C  C215  1  0.75284439  0.15559474  0.91450325  1
  C  C216  1  0.32546493  0.13000548  0.41438249  1
  C  C217  1  0.82357962  0.13521984  0.41946537  1
  C  C218  1  0.25275296  0.35169402  0.41441333  1
  C  C219  1  0.73835467  0.34446408  0.41592380  1
  C  C220  1  0.43112514  0.51447797  0.42022721  1
  C  C221  1  0.92252092  0.48774856  0.41394080  1
  C  C222  1  0.16103942  0.48201303  0.07851989  1
  C  C223  1  0.66332988  0.49285796  0.08625226  1
  C  C224  1  0.08070695  0.68889045  0.07857036  1
  C  C225  1  0.56979157  0.67273369  0.08483857  1
  C  C226  1  0.26042714  0.84437113  0.08092222  1
  C  C227  1  0.76363517  0.86024681  0.08159720  1
  C  C228  1  0.16406443  0.83547592  0.58499500  1
  C  C229  1  0.65858533  0.84040523  0.57954443  1
  C  C230  1  0.26716859  0.67244441  0.58030450  1
  C  C231  1  0.76117127  0.68260509  0.58071879  1
  C  C232  1  0.06950558  0.46672431  0.58327465  1
  C  C233  1  0.58086091  0.47004190  0.57857822  1
  C  C234  1  0.16129338  0.83274567  0.25605655  1
  C  C235  1  0.65315118  0.82562842  0.24477080  1
  C  C236  1  0.26452028  0.68175890  0.25112116  1
  C  C237  1  0.76508372  0.68686300  0.25097272  1
  C  C238  1  0.07903044  0.47348407  0.25294400  1
  C  C239  1  0.58105976  0.46156400  0.25102445  1
  C  C240  1  0.15922067  0.48312411  0.74428751  1
  C  C241  1  0.65744356  0.48501327  0.75414634  1
  C  C242  1  0.08880134  0.69672499  0.74809578  1
  C  C243  1  0.58016165  0.69367383  0.75084092  1
  C  C244  1  0.27346353  0.84190902  0.74833850  1
  C  C245  1  0.75805481  0.82703334  0.75381222  1
