# generated using pymatgen
data_Cu2NiC5
_symmetry_space_group_name_H-M   'P 1'
_cell_length_a   9.50224000
_cell_length_b   6.97461900
_cell_length_c   7.65295144
_cell_angle_alpha   72.28985601
_cell_angle_beta   90.00000000
_cell_angle_gamma   90.00000000
_symmetry_Int_Tables_number   1
_chemical_formula_structural   Cu2NiC5
_chemical_formula_sum   'Cu8 Ni4 C20'
_cell_volume   483.15836295
_cell_formula_units_Z   4
loop_
 _symmetry_equiv_pos_site_id
 _symmetry_equiv_pos_as_xyz
  1  'x, y, z'
loop_
 _atom_site_type_symbol
 _atom_site_label
 _atom_site_symmetry_multiplicity
 _atom_site_fract_x
 _atom_site_fract_y
 _atom_site_fract_z
 _atom_site_occupancy
  Ni  Ni0  1  0.01189800  0.65996500  0.79422500  1
  Ni  Ni1  1  0.48810200  0.65996500  0.29422500  1
  Ni  Ni2  1  0.51189800  0.34003500  0.70577500  1
  Ni  Ni3  1  0.98810200  0.34003500  0.20577500  1
  Cu  Cu4  1  0.67811400  0.64950600  0.94036100  1
  Cu  Cu5  1  0.17811400  0.35049400  0.55963900  1
  Cu  Cu6  1  0.82188600  0.64950600  0.44036100  1
  Cu  Cu7  1  0.20428200  0.86472200  0.09049900  1
  Cu  Cu8  1  0.79571800  0.13527800  0.90950100  1
  Cu  Cu9  1  0.70428200  0.13527800  0.40950100  1
  Cu  Cu10  1  0.29571800  0.86472200  0.59049900  1
  Cu  Cu11  1  0.32188600  0.35049400  0.05963900  1
  C  C12  1  0.12615500  0.38226800  0.00796900  1
  C  C13  1  0.14621900  0.67809100  0.59121600  1
  C  C14  1  0.89127100  0.50642300  0.67765300  1
  C  C15  1  0.86607600  0.13781900  0.14623900  1
  C  C16  1  0.63392400  0.13781900  0.64623900  1
  C  C17  1  0.60872900  0.50642300  0.17765300  1
  C  C18  1  0.36607600  0.86218100  0.35376100  1
  C  C19  1  0.39127100  0.49357700  0.82234700  1
  C  C20  1  0.13392400  0.86218100  0.85376100  1
  C  C21  1  0.85378100  0.32190900  0.40878400  1
  C  C22  1  0.81827100  0.90013200  0.53146000  1
  C  C23  1  0.18172900  0.09986800  0.46854000  1
  C  C24  1  0.31827100  0.09986800  0.96854000  1
  C  C25  1  0.37384500  0.38226800  0.50796900  1
  C  C26  1  0.64621900  0.32190900  0.90878400  1
  C  C27  1  0.35378100  0.67809100  0.09121600  1
  C  C28  1  0.10872900  0.49357700  0.32234700  1
  C  C29  1  0.62615500  0.61773200  0.49203100  1
  C  C30  1  0.68172900  0.90013200  0.03146000  1
  C  C31  1  0.87384500  0.61773200  0.99203100  1
