# generated using pymatgen
data_CuNiC7
_symmetry_space_group_name_H-M   'P 1'
_cell_length_a   6.20164700
_cell_length_b   7.45925100
_cell_length_c   8.36219000
_cell_angle_alpha   90.00000000
_cell_angle_beta   90.00000000
_cell_angle_gamma   90.00000000
_symmetry_Int_Tables_number   1
_chemical_formula_structural   CuNiC7
_chemical_formula_sum   'Cu4 Ni4 C28'
_cell_volume   386.83191228
_cell_formula_units_Z   4
loop_
 _symmetry_equiv_pos_site_id
 _symmetry_equiv_pos_as_xyz
  1  'x, y, z'
loop_
 _atom_site_type_symbol
 _atom_site_label
 _atom_site_symmetry_multiplicity
 _atom_site_fract_x
 _atom_site_fract_y
 _atom_site_fract_z
 _atom_site_occupancy
  C  C0  1  0.25000000  0.57660100  0.17582800  1
  C  C1  1  0.75000000  0.42339900  0.82417200  1
  C  C2  1  0.75000000  0.07660100  0.32417200  1
  C  C3  1  0.25000000  0.92339900  0.67582800  1
  C  C4  1  0.50000000  0.00000000  0.00000000  1
  C  C5  1  0.00000000  0.00000000  0.00000000  1
  C  C6  1  0.50000000  0.50000000  0.50000000  1
  C  C7  1  0.00000000  0.50000000  0.50000000  1
  Ni  Ni8  1  0.25000000  0.33417800  0.82361800  1
  Ni  Ni9  1  0.75000000  0.66582200  0.17638200  1
  Ni  Ni10  1  0.75000000  0.83417800  0.67638200  1
  Ni  Ni11  1  0.25000000  0.16582200  0.32361800  1
  Cu  Cu12  1  0.25000000  0.73420400  0.94638700  1
  Cu  Cu13  1  0.75000000  0.26579600  0.05361300  1
  Cu  Cu14  1  0.75000000  0.23420400  0.55361300  1
  Cu  Cu15  1  0.25000000  0.76579600  0.44638700  1
  C  C16  1  0.25000000  0.81363800  0.03945200  1
  C  C17  1  0.75000000  0.18636200  0.96054800  1
  C  C18  1  0.75000000  0.31363800  0.46054800  1
  C  C19  1  0.25000000  0.68636200  0.53945200  1
  C  C20  1  0.25000000  0.43929000  0.97913600  1
  C  C21  1  0.75000000  0.56071000  0.02086400  1
  C  C22  1  0.75000000  0.93929000  0.52086400  1
  C  C23  1  0.25000000  0.06071000  0.47913600  1
  C  C24  1  0.45414800  0.12357100  0.22251200  1
  C  C25  1  0.95414800  0.87642900  0.77748800  1
  C  C26  1  0.54585200  0.62357100  0.27748800  1
  C  C27  1  0.04585200  0.37642900  0.72251200  1
  C  C28  1  0.54585200  0.87642900  0.77748800  1
  C  C29  1  0.04585200  0.12357100  0.22251200  1
  C  C30  1  0.45414800  0.37642900  0.72251200  1
  C  C31  1  0.95414800  0.62357100  0.27748800  1
  C  C32  1  0.25000000  0.37251400  0.36440100  1
  C  C33  1  0.75000000  0.62748600  0.63559900  1
  C  C34  1  0.75000000  0.87251400  0.13559900  1
  C  C35  1  0.25000000  0.12748600  0.86440100  1
