# generated using pymatgen
data_Cu2Ni4C9
_symmetry_space_group_name_H-M   'P 1'
_cell_length_a   3.97783800
_cell_length_b   11.32089400
_cell_length_c   16.53421460
_cell_angle_alpha   85.76951683
_cell_angle_beta   90.00000000
_cell_angle_gamma   90.00000000
_symmetry_Int_Tables_number   1
_chemical_formula_structural   Cu2Ni4C9
_chemical_formula_sum   'Cu4 Ni8 C18'
_cell_volume   742.55132962
_cell_formula_units_Z   2
loop_
 _symmetry_equiv_pos_site_id
 _symmetry_equiv_pos_as_xyz
  1  'x, y, z'
loop_
 _atom_site_type_symbol
 _atom_site_label
 _atom_site_symmetry_multiplicity
 _atom_site_fract_x
 _atom_site_fract_y
 _atom_site_fract_z
 _atom_site_occupancy
  Ni  Ni0  1  0.25000000  0.49350200  0.40485500  1
  Ni  Ni1  1  0.25000000  0.26579400  0.08058600  1
  Ni  Ni2  1  0.75000000  0.50649800  0.59514500  1
  Ni  Ni3  1  0.75000000  0.73420600  0.91941400  1
  Ni  Ni4  1  0.75000000  0.51018900  0.21215900  1
  Ni  Ni5  1  0.25000000  0.85843300  0.68385600  1
  Ni  Ni6  1  0.75000000  0.14156700  0.31614400  1
  Ni  Ni7  1  0.25000000  0.48981100  0.78784100  1
  Cu  Cu8  1  0.75000000  0.13158800  0.57486700  1
  Cu  Cu9  1  0.25000000  0.89586900  0.09789800  1
  Cu  Cu10  1  0.25000000  0.86841200  0.42513300  1
  Cu  Cu11  1  0.75000000  0.10413100  0.90210200  1
  C  C12  1  0.25000000  0.37377000  0.54505000  1
  C  C13  1  0.25000000  0.09286000  0.68429100  1
  C  C14  1  0.75000000  0.62623000  0.45495000  1
  C  C15  1  0.75000000  0.41225700  0.08350200  1
  C  C16  1  0.75000000  0.89825400  0.56587000  1
  C  C17  1  0.75000000  0.08700700  0.05954700  1
  C  C18  1  0.75000000  0.36685600  0.34145100  1
  C  C19  1  0.75000000  0.85343100  0.78248100  1
  C  C20  1  0.25000000  0.62091200  0.25811400  1
  C  C21  1  0.25000000  0.58774300  0.91649800  1
  C  C22  1  0.25000000  0.14656900  0.21751900  1
  C  C23  1  0.25000000  0.91299300  0.94045300  1
  C  C24  1  0.25000000  0.26579000  0.92211300  1
  C  C25  1  0.75000000  0.37908800  0.74188600  1
  C  C26  1  0.75000000  0.90714000  0.31570900  1
  C  C27  1  0.25000000  0.63314400  0.65854900  1
  C  C28  1  0.25000000  0.10174600  0.43413000  1
  C  C29  1  0.75000000  0.73421000  0.07788700  1
