# generated using pymatgen
data_Cu2NiC12
_symmetry_space_group_name_H-M   'P 1'
_cell_length_a   6.58547796
_cell_length_b   6.58547840
_cell_length_c   5.85922700
_cell_angle_alpha   63.58563671
_cell_angle_beta   63.58563483
_cell_angle_gamma   54.18860554
_symmetry_Int_Tables_number   1
_chemical_formula_structural   Cu2NiC12
_chemical_formula_sum   'Cu2 Ni1 C12'
_cell_volume   178.49491830
_cell_formula_units_Z   1
loop_
 _symmetry_equiv_pos_site_id
 _symmetry_equiv_pos_as_xyz
  1  'x, y, z'
loop_
 _atom_site_type_symbol
 _atom_site_label
 _atom_site_symmetry_multiplicity
 _atom_site_fract_x
 _atom_site_fract_y
 _atom_site_fract_z
 _atom_site_occupancy
  Ni  Ni0  1  0.46390900  0.46390900  0.03609100  1
  Cu  Cu1  1  0.16559400  0.64015500  0.59712600  1
  Cu  Cu2  1  0.64015500  0.16559400  0.59712600  1
  C  C3  1  0.00821300  0.00821200  0.99178800  1
  C  C4  1  0.20379900  0.20380000  0.29620000  1
  C  C5  1  0.68838400  0.68838400  0.07163400  1
  C  C6  1  0.68838400  0.68838400  0.55159700  1
  C  C7  1  0.33747400  0.33747400  0.41251600  1
  C  C8  1  0.33747400  0.33747400  0.91253500  1
  C  C9  1  0.37752400  0.83727800  0.39259900  1
  C  C10  1  0.83727700  0.37752700  0.39259800  1
  C  C11  1  0.37614400  0.82786900  0.89799400  1
  C  C12  1  0.82787200  0.37614300  0.89799300  1
  C  C13  1  0.88501000  0.88501000  0.37432100  1
  C  C14  1  0.88501000  0.88501000  0.85566000  1
