# generated using pymatgen
data_CuNi5C33
_symmetry_space_group_name_H-M   'P 1'
_cell_length_a   9.04042737
_cell_length_b   9.04885438
_cell_length_c   22.56851279
_cell_angle_alpha   90.04330211
_cell_angle_beta   90.01755180
_cell_angle_gamma   120.01390669
_symmetry_Int_Tables_number   1
_chemical_formula_structural   CuNi5C33
_chemical_formula_sum   'Cu3 Ni15 C99'
_cell_volume   1598.65591077
_cell_formula_units_Z   3
loop_
 _symmetry_equiv_pos_site_id
 _symmetry_equiv_pos_as_xyz
  1  'x, y, z'
loop_
 _atom_site_type_symbol
 _atom_site_label
 _atom_site_symmetry_multiplicity
 _atom_site_fract_x
 _atom_site_fract_y
 _atom_site_fract_z
 _atom_site_occupancy
  C  C0  1  0.63540744  0.01872466  0.24479171  1
  C  C1  1  0.38279480  0.36643110  0.24166997  1
  C  C2  1  0.98367555  0.61517801  0.24160457  1
  C  C3  1  0.63371866  0.61724926  0.74219072  1
  C  C4  1  0.97926945  0.36670696  0.74337419  1
  C  C5  1  0.38353048  0.01593232  0.74127332  1
  C  C6  1  0.02400882  0.68729200  0.58462659  1
  C  C7  1  0.66035747  0.97567102  0.58480337  1
  C  C8  1  0.02351762  0.33766480  0.08583522  1
  C  C9  1  0.00962899  0.01026723  0.49709269  1
  C  C10  1  0.99949920  0.98976899  0.99844992  1
  C  C11  1  0.67172781  0.33242889  0.83187122  1
  C  C12  1  0.66744267  0.32983693  0.33255736  1
  C  C13  1  0.34178070  0.67435930  0.16239937  1
  C  C14  1  0.33260622  0.65563612  0.66350873  1
  C  C15  1  0.66982283  0.33461598  0.68431712  1
  C  C16  1  0.66659579  0.33241286  0.18402105  1
  C  C17  1  0.00337446  0.00572098  0.35746454  1
  C  C18  1  0.99436759  0.99637186  0.85802056  1
  C  C19  1  0.99954708  0.99774956  0.64338227  1
  C  C20  1  0.00896614  0.99960730  0.14298385  1
  C  C21  1  0.66461156  0.33881825  0.97826836  1
  C  C22  1  0.66569633  0.33112529  0.47870228  1
  C  C23  1  0.33282988  0.66761835  0.02015383  1
  C  C24  1  0.33375527  0.66430568  0.51931022  1
  C  C25  1  0.32851594  0.66474249  0.31462292  1
  C  C26  1  0.33299353  0.67108532  0.81502868  1
  Ni  Ni27  1  0.29144012  0.99967568  0.25117271  1
  Ni  Ni28  1  -0.00006172  0.28964561  0.24956101  1
  Ni  Ni29  1  0.00004109  0.70956858  0.75079379  1
  Ni  Ni30  1  0.70857371  0.99875614  0.75055205  1
  Ni  Ni31  1  0.95793688  0.33576995  0.58608502  1
  Ni  Ni32  1  0.37905750  0.04613978  0.58592979  1
  Ni  Ni33  1  0.66009724  0.61613323  0.58681394  1
  Ni  Ni34  1  0.95452458  0.62168161  0.08632468  1
  Ni  Ni35  1  0.38190371  0.33815558  0.08681436  1
  Ni  Ni36  1  0.62059391  0.66469448  0.91656173  1
  Ni  Ni37  1  0.04152510  0.37605692  0.91709005  1
  Ni  Ni38  1  0.33554359  0.96038462  0.91768296  1
  Ni  Ni39  1  0.62368065  0.95847508  0.41631370  1
  Ni  Ni40  1  0.33749427  0.37762801  0.41589358  1
  Ni  Ni41  1  0.03918490  0.66535515  0.41765020  1
  Cu  Cu42  1  0.71413118  0.71698471  0.25063526  1
  Cu  Cu43  1  0.28403704  0.28637284  0.75138138  1
  Cu  Cu44  1  0.66412548  0.04271657  0.08528393  1
  C  C45  1  0.18412823  0.01699014  0.30653632  1
  C  C46  1  0.82562156  0.80746870  0.30561482  1
  C  C47  1  0.97873484  0.16408221  0.30560725  1
  C  C48  1  0.19313634  0.17526275  0.80594747  1
  C  C49  1  0.98687363  0.82046094  0.80590296  1
  C  C50  1  0.83559215  0.02060719  0.80606163  1
  C  C51  1  0.80215333  0.96966684  0.69146531  1
  C  C52  1  0.16803056  0.19854691  0.69561757  1
  C  C53  1  0.03465305  0.83249287  0.69129771  1
  C  C54  1  0.80009958  0.83312255  0.19539796  1
  C  C55  1  0.02988462  0.19735934  0.19071763  1
  C  C56  1  0.16198691  0.96552131  0.19305456  1
  C  C57  1  0.89305980  0.38085416  0.64591435  1
  C  C58  1  0.49106084  0.11068791  0.64524971  1
  C  C59  1  0.63288632  0.51941587  0.64807006  1
  C  C60  1  0.89064017  0.50971981  0.14564513  1
  C  C61  1  0.63697354  0.11174140  0.14350176  1
  C  C62  1  0.47969925  0.36427357  0.14783355  1
  C  C63  1  0.47585209  0.30878104  0.02866623  1
  C  C64  1  0.83304258  0.52066764  0.02848804  1
  C  C65  1  0.69554409  0.16227186  0.03162650  1
  C  C66  1  0.47501122  0.16792426  0.52805387  1
  C  C67  1  0.69981775  0.52671365  0.52975383  1
  C  C68  1  0.82918231  0.29902974  0.52898819  1
  C  C69  1  0.52369666  0.68969213  0.97290450  1
  C  C70  1  0.16091320  0.47009895  0.97499705  1
  C  C71  1  0.30789607  0.83390042  0.97295619  1
  C  C72  1  0.53095716  0.84193120  0.47475328  1
  C  C73  1  0.31102068  0.47653987  0.47195490  1
  C  C74  1  0.15931680  0.69298680  0.47533233  1
  C  C75  1  0.13802779  0.64194989  0.35862149  1
  C  C76  1  0.50408300  0.86088134  0.35732207  1
  C  C77  1  0.35779648  0.49318636  0.35633801  1
  C  C78  1  0.13734541  0.49647685  0.85794561  1
  C  C79  1  0.35978137  0.86462858  0.85774282  1
  C  C80  1  0.50566068  0.64124133  0.85650875  1
  C  C81  1  0.02277454  0.83530136  0.40922682  1
  C  C82  1  0.81022954  0.97272971  0.40956224  1
  C  C83  1  0.16421734  0.19025406  0.41071398  1
  C  C84  1  0.02864412  0.19051778  0.90956283  1
  C  C85  1  0.16615406  0.97795827  0.90960742  1
  C  C86  1  0.80998624  0.83517137  0.91084470  1
  C  C87  1  0.97069992  0.15911262  0.58980556  1
  C  C88  1  0.18317341  0.01878433  0.58863348  1
  C  C89  1  0.83831189  0.81234268  0.58928994  1
  C  C90  1  0.96930669  0.81190416  0.08880260  1
  C  C91  1  0.83193289  0.02947747  0.08877858  1
  C  C92  1  0.18136600  0.16595664  0.08841906  1
  C  C93  1  0.68571861  0.16343942  0.75028147  1
  C  C94  1  0.46041906  0.30615445  0.74756525  1
  C  C95  1  0.83158685  0.52485124  0.75130654  1
  C  C96  1  0.69416767  0.54018290  0.24737856  1
  C  C97  1  0.83473357  0.31220209  0.24935385  1
  C  C98  1  0.47693783  0.16656945  0.24898122  1
  C  C99  1  0.63947663  0.49507537  0.92257393  1
  C  C100  1  0.85362989  0.35627326  0.92404328  1
  C  C101  1  0.50802256  0.14433874  0.92394576  1
  C  C102  1  0.64041350  0.14538035  0.42174567  1
  C  C103  1  0.50673633  0.36092290  0.42240447  1
  C  C104  1  0.85455565  0.49306634  0.42267558  1
  C  C105  1  0.34352998  0.49759381  0.07598038  1
  C  C106  1  0.14764357  0.64814455  0.07426234  1
  C  C107  1  0.50891315  0.86044661  0.07527287  1
  C  C108  1  0.34814409  0.85077102  0.57463856  1
  C  C109  1  0.50598910  0.66099169  0.57593885  1
  C  C110  1  0.14796943  0.50324168  0.57402971  1
  C  C111  1  0.30228974  0.82192954  0.25412346  1
  C  C112  1  0.53424619  0.70401648  0.25487434  1
  C  C113  1  0.18017821  0.47706497  0.25440104  1
  C  C114  1  0.29529909  0.46517170  0.75471830  1
  C  C115  1  0.17708815  0.69613513  0.75455221  1
  C  C116  1  0.52208393  0.81783252  0.75444999  1
