# generated using pymatgen
data_Cu2Ni4C9
_symmetry_space_group_name_H-M   'P 1'
_cell_length_a   5.39767268
_cell_length_b   8.85504906
_cell_length_c   6.89876252
_cell_angle_alpha   108.31955877
_cell_angle_beta   97.09871538
_cell_angle_gamma   114.03361660
_symmetry_Int_Tables_number   1
_chemical_formula_structural   Cu2Ni4C9
_chemical_formula_sum   'Cu2 Ni4 C9'
_cell_volume   273.58758671
_cell_formula_units_Z   1
loop_
 _symmetry_equiv_pos_site_id
 _symmetry_equiv_pos_as_xyz
  1  'x, y, z'
loop_
 _atom_site_type_symbol
 _atom_site_label
 _atom_site_symmetry_multiplicity
 _atom_site_fract_x
 _atom_site_fract_y
 _atom_site_fract_z
 _atom_site_occupancy
  C  C0  1  0.08485234  0.95355216  0.35676835  1
  Ni  Ni1  1  0.77719817  0.24501327  0.58917489  1
  Ni  Ni2  1  0.80035424  0.53860711  0.85058357  1
  Ni  Ni3  1  0.45012221  0.74898657  0.47291038  1
  Ni  Ni4  1  0.05918017  0.41596152  0.23388251  1
  Cu  Cu5  1  0.25069742  0.07507854  0.89805509  1
  Cu  Cu6  1  0.68514026  0.92929485  0.04608836  1
  C  C7  1  0.74056176  0.99692875  0.36907760  1
  C  C8  1  0.30455827  0.97243459  0.61042191  1
  C  C9  1  0.82958847  0.89601968  0.78514765  1
  C  C10  1  0.30670368  0.83294406  0.93873896  1
  C  C11  1  0.27481072  0.27628201  0.88979458  1
  C  C12  1  0.67617689  0.16411454  0.04846338  1
  C  C13  1  0.13872468  0.09600719  0.17369733  1
  C  C14  1  0.77133071  0.74270415  0.09433844  1
