# generated using pymatgen
data_Cu(NiC)5
_symmetry_space_group_name_H-M   'P 1'
_cell_length_a   8.21188672
_cell_length_b   8.21188672
_cell_length_c   14.13347800
_cell_angle_alpha   90.00000000
_cell_angle_beta   90.00000000
_cell_angle_gamma   95.12383877
_symmetry_Int_Tables_number   1
_chemical_formula_structural   Cu(NiC)5
_chemical_formula_sum   'Cu4 Ni20 C20'
_cell_volume   949.28370548
_cell_formula_units_Z   4
loop_
 _symmetry_equiv_pos_site_id
 _symmetry_equiv_pos_as_xyz
  1  'x, y, z'
loop_
 _atom_site_type_symbol
 _atom_site_label
 _atom_site_symmetry_multiplicity
 _atom_site_fract_x
 _atom_site_fract_y
 _atom_site_fract_z
 _atom_site_occupancy
  Ni  Ni0  1  0.74202700  0.25797300  0.09930400  1
  Ni  Ni1  1  0.25797300  0.74202700  0.59930400  1
  Ni  Ni2  1  0.47492100  0.52507900  0.76044700  1
  Ni  Ni3  1  0.52507900  0.47492100  0.26044700  1
  Ni  Ni4  1  0.31221700  0.36097900  0.00455500  1
  Ni  Ni5  1  0.68778300  0.63902100  0.50455500  1
  Ni  Ni6  1  0.63902100  0.68778300  0.00455500  1
  Ni  Ni7  1  0.36097900  0.31221700  0.50455500  1
  Ni  Ni8  1  0.19820300  0.11878500  0.74867300  1
  Ni  Ni9  1  0.80179700  0.88121500  0.24867300  1
  Ni  Ni10  1  0.88121500  0.80179700  0.74867300  1
  Ni  Ni11  1  0.11878500  0.19820300  0.24867300  1
  Ni  Ni12  1  0.96304100  0.36108100  0.60958300  1
  Ni  Ni13  1  0.03695900  0.63891900  0.10958300  1
  Ni  Ni14  1  0.63891900  0.03695900  0.60958300  1
  Ni  Ni15  1  0.36108100  0.96304100  0.10958300  1
  Ni  Ni16  1  0.92820000  0.39677500  0.86664500  1
  Ni  Ni17  1  0.07180000  0.60322500  0.36664500  1
  Ni  Ni18  1  0.60322500  0.07180000  0.86664500  1
  Ni  Ni19  1  0.39677500  0.92820000  0.36664500  1
  Cu  Cu20  1  0.24418500  0.75581500  0.89586700  1
  Cu  Cu21  1  0.75581500  0.24418500  0.39586700  1
  Cu  Cu22  1  0.00636000  0.99364000  0.47930200  1
  Cu  Cu23  1  0.99364000  0.00636000  0.97930200  1
  C  C24  1  0.06279300  0.93720700  0.34527400  1
  C  C25  1  0.93720700  0.06279300  0.84527400  1
  C  C26  1  0.94594500  0.05405500  0.61204200  1
  C  C27  1  0.05405500  0.94594500  0.11204200  1
  C  C28  1  0.81931900  0.18068100  0.26417600  1
  C  C29  1  0.18068100  0.81931900  0.76417600  1
  C  C30  1  0.69452300  0.30547700  0.52987900  1
  C  C31  1  0.30547700  0.69452300  0.02987900  1
  C  C32  1  0.24665700  0.01859000  0.51159500  1
  C  C33  1  0.75334300  0.98141000  0.01159500  1
  C  C34  1  0.98141000  0.75334300  0.51159500  1
  C  C35  1  0.01859000  0.24665700  0.01159500  1
  C  C36  1  0.48382800  0.77742300  0.86245200  1
  C  C37  1  0.51617200  0.22257700  0.36245200  1
  C  C38  1  0.22257700  0.51617200  0.86245200  1
  C  C39  1  0.77742300  0.48382800  0.36245200  1
  C  C40  1  0.24166100  0.99862700  0.94005100  1
  C  C41  1  0.75833900  0.00137300  0.44005100  1
  C  C42  1  0.00137300  0.75833900  0.94005100  1
  C  C43  1  0.99862700  0.24166100  0.44005100  1
