# generated using pymatgen
data_CuNiC4
_symmetry_space_group_name_H-M   'P 1'
_cell_length_a   4.31948590
_cell_length_b   4.43559625
_cell_length_c   4.43559699
_cell_angle_alpha   102.26336568
_cell_angle_beta   90.00000000
_cell_angle_gamma   90.00000000
_symmetry_Int_Tables_number   1
_chemical_formula_structural   CuNiC4
_chemical_formula_sum   'Cu1 Ni1 C4'
_cell_volume   83.04460477
_cell_formula_units_Z   1
loop_
 _symmetry_equiv_pos_site_id
 _symmetry_equiv_pos_as_xyz
  1  'x, y, z'
loop_
 _atom_site_type_symbol
 _atom_site_label
 _atom_site_symmetry_multiplicity
 _atom_site_fract_x
 _atom_site_fract_y
 _atom_site_fract_z
 _atom_site_occupancy
  C  C0  1  0.50000000  0.37692240  0.62307760  1
  Ni  Ni1  1  0.00000000  0.60725013  0.39274987  1
  Cu  Cu2  1  0.00000000  0.03729560  0.96270440  1
  C  C3  1  0.00000000  0.53888852  0.94621714  1
  C  C4  1  0.00000000  0.05378286  0.46111148  1
  C  C5  1  0.50000000  0.02511048  0.97488952  1
