# generated using pymatgen
data_CuNi9C50
_symmetry_space_group_name_H-M   'P 1'
_cell_length_a   9.13431277
_cell_length_b   27.31989719
_cell_length_c   22.41908654
_cell_angle_alpha   89.98233911
_cell_angle_beta   89.97221225
_cell_angle_gamma   120.12264873
_symmetry_Int_Tables_number   1
_chemical_formula_structural   CuNi9C50
_chemical_formula_sum   'Cu6 Ni54 C300'
_cell_volume   4839.10757313
_cell_formula_units_Z   6
loop_
 _symmetry_equiv_pos_site_id
 _symmetry_equiv_pos_as_xyz
  1  'x, y, z'
loop_
 _atom_site_type_symbol
 _atom_site_label
 _atom_site_symmetry_multiplicity
 _atom_site_fract_x
 _atom_site_fract_y
 _atom_site_fract_z
 _atom_site_occupancy
  Ni  Ni0  1  0.00226141  0.00296909  0.49798426  1
  Ni  Ni1  1  0.98582872  0.32754710  0.49998076  1
  Ni  Ni2  1  0.00362900  0.66941886  0.50232009  1
  Ni  Ni3  1  0.98209804  0.99515143  0.00059432  1
  Ni  Ni4  1  0.99571876  0.32725332  0.00045740  1
  Ni  Ni5  1  0.01677579  0.66886328  0.00521612  1
  Ni  Ni6  1  0.66500379  0.10935477  0.83434754  1
  Ni  Ni7  1  0.67339595  0.44249644  0.83251919  1
  Ni  Ni8  1  0.67042018  0.79036357  0.83058139  1
  Ni  Ni9  1  0.66076166  0.10828736  0.33303717  1
  Ni  Ni10  1  0.65738775  0.44367516  0.33270764  1
  Ni  Ni11  1  0.68645783  0.78476038  0.33161899  1
  Ni  Ni12  1  0.34359338  0.22562702  0.16649952  1
  Ni  Ni13  1  0.34624857  0.55200674  0.16995184  1
  Ni  Ni14  1  0.33369823  0.88921601  0.16709560  1
  Ni  Ni15  1  0.33478935  0.22611256  0.66669825  1
  Ni  Ni16  1  0.31174383  0.55173411  0.66795535  1
  Ni  Ni17  1  0.34610212  0.88588526  0.66916973  1
  Ni  Ni18  1  0.62098250  0.00358759  0.24527568  1
  Ni  Ni19  1  0.65689971  0.66509400  0.24808056  1
  Ni  Ni20  1  0.38192849  0.12374329  0.24485603  1
  Ni  Ni21  1  0.35330884  0.78796237  0.24475215  1
  Ni  Ni22  1  0.98781942  0.20329523  0.24542050  1
  Ni  Ni23  1  0.00867177  0.55100695  0.24295546  1
  Ni  Ni24  1  0.62356312  0.20399767  0.74530385  1
  Ni  Ni25  1  0.64141790  0.55025752  0.73961503  1
  Ni  Ni26  1  0.98901490  0.12439010  0.74679956  1
  Ni  Ni27  1  0.01068699  0.78917641  0.74502915  1
  Ni  Ni28  1  0.39114068  0.00408473  0.74553098  1
  Ni  Ni29  1  0.33896686  0.66452592  0.74387071  1
  Ni  Ni30  1  0.32742047  0.11376139  0.58765086  1
  Ni  Ni31  1  0.32401439  0.44088501  0.57135811  1
  Ni  Ni32  1  0.28038749  0.77440817  0.58621546  1
  Ni  Ni33  1  0.01686826  0.22566552  0.59254015  1
  Ni  Ni34  1  0.03270564  0.57277273  0.58840723  1
  Ni  Ni35  1  0.02526069  0.89880721  0.57551814  1
  Ni  Ni36  1  0.67453096  0.32865213  0.57183912  1
  Ni  Ni37  1  0.67847748  0.65380036  0.59513408  1
  Ni  Ni38  1  0.65789556  0.99355965  0.58736174  1
  Ni  Ni39  1  0.31136111  0.32832267  0.07297163  1
  Ni  Ni40  1  0.28933156  0.65530031  0.09608024  1
  Ni  Ni41  1  0.31688141  0.99208425  0.08835079  1
  Ni  Ni42  1  0.66013820  0.22515762  0.09309881  1
  Ni  Ni43  1  0.68623360  0.57299836  0.09031150  1
  Ni  Ni44  1  0.01560800  0.11301230  0.09071757  1
  Ni  Ni45  1  0.99753683  0.44062389  0.07380971  1
  Ni  Ni46  1  0.04594531  0.77561769  0.08733002  1
  Ni  Ni47  1  0.94555220  0.55048999  0.92646319  1
  Ni  Ni48  1  0.70180918  0.34680554  0.92036896  1
  Ni  Ni49  1  0.70249859  0.68016511  0.91980302  1
  Ni  Ni50  1  0.34468689  0.43131243  0.92016559  1
  Ni  Ni51  1  0.95174648  0.43247888  0.42003188  1
  Ni  Ni52  1  0.34036895  0.34779770  0.41983587  1
  Ni  Ni53  1  0.70909472  0.55131877  0.42588268  1
  Cu  Cu54  1  0.00659731  0.66818460  0.65018406  1
  Cu  Cu55  1  0.00114099  0.66892238  0.15069396  1
  Cu  Cu56  1  0.67131642  0.11201011  0.68677409  1
  Cu  Cu57  1  0.66402106  0.11126695  0.18630826  1
  Cu  Cu58  1  0.65751291  0.43945368  0.97929771  1
  Cu  Cu59  1  0.66348403  0.44022151  0.47853370  1
  C  C60  1  0.99632200  0.99702581  0.35897216  1
  C  C61  1  -0.00032751  0.33471044  0.35655687  1
  C  C62  1  0.00620452  0.66763484  0.35197893  1
  C  C63  1  0.99641089  0.99780718  0.85981454  1
  C  C64  1  0.00380257  0.33431997  0.85678175  1
  C  C65  1  0.99892022  0.66780887  0.85113495  1
  C  C66  1  0.99584973  0.99907871  0.64702034  1
  C  C67  1  0.00157664  0.33300465  0.65158246  1
  C  C68  1  0.99651677  0.99756488  0.14578429  1
  C  C69  1  0.99743744  0.33288534  0.15171473  1
  C  C70  1  0.66027396  0.44140304  0.68491410  1
  C  C71  1  0.66878118  0.77986792  0.68782967  1
  C  C72  1  0.66391420  0.44158571  0.18518383  1
  C  C73  1  0.67105926  0.78079294  0.18775808  1
  C  C74  1  0.66827505  0.11163256  0.98125434  1
  C  C75  1  0.67034979  0.78288934  0.97520630  1
  C  C76  1  0.66717480  0.11215985  0.48064645  1
  C  C77  1  0.67210823  0.77995654  0.47330700  1
  C  C78  1  0.33035389  0.22243019  0.01489739  1
  C  C79  1  0.33263554  0.55695143  0.02253568  1
  C  C80  1  0.33621288  0.88714429  0.02006040  1
  C  C81  1  0.33776216  0.22281581  0.51476201  1
  C  C82  1  0.33697393  0.55722330  0.52141425  1
  C  C83  1  0.32657691  0.88678168  0.51852320  1
  C  C84  1  0.33152388  0.21847567  0.31024154  1
  C  C85  1  0.33334613  0.55488839  0.31446127  1
  C  C86  1  0.33469248  0.89318490  0.31417244  1
  C  C87  1  0.32397107  0.21845895  0.81047842  1
  C  C88  1  0.33043408  0.55393370  0.81420145  1
  C  C89  1  0.34519728  0.89363962  0.81428121  1
  C  C90  1  0.27854407  0.99632313  0.25308993  1
  C  C91  1  0.29172815  0.33360833  0.25200621  1
  C  C92  1  0.30528975  0.66630575  0.24980553  1
  C  C93  1  0.70707087  0.23665632  0.25370203  1
  C  C94  1  0.69889810  0.56528700  0.24913100  1
  C  C95  1  0.70790820  0.90397449  0.25311126  1
  C  C96  1  0.00286133  0.09398908  0.25126562  1
  C  C97  1  0.99580665  0.43094419  0.25528694  1
  C  C98  1  0.00243211  0.76785643  0.24859761  1
  C  C99  1  0.28116192  0.09472642  0.75225051  1
  C  C100  1  0.29645674  0.43057863  0.75557852  1
  C  C101  1  0.30156760  0.76867841  0.74764564  1
  C  C102  1  0.00378421  0.23691074  0.75347252  1
  C  C103  1  0.99547364  0.56493028  0.74900362  1
  C  C104  1  0.00464349  0.90422362  0.75187631  1
  C  C105  1  0.71033647  0.99699035  0.75450236  1
  C  C106  1  0.70925726  0.33368594  0.75214507  1
  C  C107  1  0.69313156  0.66630365  0.75026257  1
  C  C108  1  0.96887463  0.11244097  0.58432511  1
  C  C109  1  0.96409191  0.44354535  0.58237033  1
  C  C110  1  0.95762372  0.78074471  0.58008256  1
  C  C111  1  0.36960866  0.01239124  0.58531341  1
  C  C112  1  0.36097076  0.34201081  0.58039855  1
  C  C113  1  0.38861958  0.68333877  0.58161683  1
  C  C114  1  0.66788975  0.21195158  0.58522932  1
  C  C115  1  0.66011725  0.54152529  0.58061481  1
  C  C116  1  0.66021188  0.87379283  0.58027168  1
  C  C117  1  0.96781812  0.21175568  0.08508643  1
  C  C118  1  0.96399439  0.54172369  0.08102255  1
  C  C119  1  0.96096322  0.87485532  0.08061292  1
  C  C120  1  0.66750359  0.01188434  0.08520340  1
  C  C121  1  0.66503816  0.34176097  0.08058220  1
  C  C122  1  0.66425796  0.68390589  0.08027401  1
  C  C123  1  0.36794185  0.11230248  0.08429979  1
  C  C124  1  0.36652346  0.44332545  0.08219450  1
  C  C125  1  0.38747870  0.78251042  0.08188243  1
  C  C126  1  0.61901208  0.21955635  0.91463389  1
  C  C127  1  0.62733500  0.55958053  0.91339398  1
  C  C128  1  0.62736316  0.88950205  0.91691134  1
  C  C129  1  0.03249806  0.12327945  0.91224017  1
  C  C130  1  0.05003939  0.45670860  0.92004832  1
  C  C131  1  0.04503434  0.79478186  0.91457458  1
  C  C132  1  0.32764607  0.31741655  0.91241726  1
  C  C133  1  0.32603149  0.65294402  0.91685483  1
  C  C134  1  0.33245377  0.98618349  0.91920940  1
  C  C135  1  0.62539113  0.31771216  0.41198993  1
  C  C136  1  0.63199951  0.65298091  0.41644014  1
  C  C137  1  0.62689479  0.98689134  0.41793487  1
  C  C138  1  0.33693769  0.12339531  0.41214697  1
  C  C139  1  0.32148407  0.45714350  0.41976786  1
  C  C140  1  0.33777677  0.79380886  0.41366233  1
  C  C141  1  0.04088688  0.22013181  0.41474048  1
  C  C142  1  0.05406139  0.56110211  0.41358666  1
  C  C143  1  0.03842165  0.88940078  0.41768516  1
  C  C144  1  0.15852914  0.99023587  0.30996003  1
  C  C145  1  0.19837461  0.34346835  0.31021051  1
  C  C146  1  0.19563333  0.67273030  0.30560531  1
  C  C147  1  0.83206407  0.28041121  0.30579225  1
  C  C148  1  0.83523722  0.59992704  0.30414720  1
  C  C149  1  0.80899596  0.93457735  0.31399283  1
  C  C150  1  0.00611476  0.05465285  0.30588580  1
  C  C151  1  0.99172161  0.39902890  0.31806512  1
  C  C152  1  0.96543031  0.71786956  0.29874957  1
  C  C153  1  0.15866272  0.05577517  0.80643869  1
  C  C154  1  0.20549422  0.39927467  0.81850765  1
  C  C155  1  0.18353331  0.71927132  0.79843639  1
  C  C156  1  0.01009504  0.28070766  0.80546017  1
  C  C157  1  0.96392809  0.60103099  0.80338751  1
  C  C158  1  0.99560973  0.93608337  0.81153221  1
  C  C159  1  0.81279238  0.99112737  0.81064233  1
  C  C160  1  0.83219134  0.34350562  0.81031096  1
  C  C161  1  0.81459279  0.67241152  0.80876637  1
  C  C162  1  0.80117860  0.32359010  0.69364628  1
  C  C163  1  0.76112841  0.64981026  0.69262144  1
  C  C164  1  0.80686748  0.99264581  0.69237259  1
  C  C165  1  0.17189729  0.06364951  0.68957406  1
  C  C166  1  0.16594345  0.39179329  0.70226685  1
  C  C167  1  0.20507978  0.75327394  0.68497450  1
  C  C168  1  0.00200177  0.26895575  0.69102008  1
  C  C169  1  0.07221460  0.60398167  0.69053204  1
  C  C170  1  0.01944432  0.94239589  0.69201384  1
  C  C171  1  0.80561870  0.26909848  0.19141734  1
  C  C172  1  0.74187053  0.60441512  0.19056527  1
  C  C173  1  0.81397799  0.94449102  0.19572869  1
  C  C174  1  0.02287167  0.06450223  0.18872804  1
  C  C175  1  0.01020409  0.39211894  0.20193167  1
  C  C176  1  0.05863323  0.75382045  0.18626101  1
  C  C177  1  0.17003696  0.32357675  0.19345961  1
  C  C178  1  0.19016665  0.64920925  0.19143350  1
  C  C179  1  0.17118718  0.99212926  0.19120058  1
  C  C180  1  0.92546447  0.13329605  0.64529720  1
  C  C181  1  0.85206384  0.45052292  0.63668595  1
  C  C182  1  0.85959717  0.78624707  0.64090598  1
  C  C183  1  0.47253016  0.02922424  0.64667826  1
  C  C184  1  0.49761231  0.37950095  0.63361767  1
  C  C185  1  0.49685378  0.71223268  0.64485013  1
  C  C186  1  0.61184874  0.17641209  0.64611640  1
  C  C187  1  0.63361075  0.49875446  0.63916040  1
  C  C188  1  0.64168406  0.83295987  0.63801108  1
  C  C189  1  0.91693061  0.17638050  0.14601323  1
  C  C190  1  0.86307115  0.49877850  0.13908868  1
  C  C191  1  0.85375302  0.83377650  0.13740657  1
  C  C192  1  0.61388831  0.02837612  0.14676053  1
  C  C193  1  0.64063258  0.37956227  0.13328491  1
  C  C194  1  0.64056253  0.71420141  0.14140758  1
  C  C195  1  0.47753825  0.13438967  0.14453436  1
  C  C196  1  0.49948403  0.45065819  0.13634500  1
  C  C197  1  0.49512602  0.78628525  0.14320764  1
  C  C198  1  0.47771213  0.10333674  0.03155127  1
  C  C199  1  0.40576603  0.41961962  0.02229105  1
  C  C200  1  0.50952927  0.78719492  0.02552234  1
  C  C201  1  0.83009030  0.17814146  0.03147589  1
  C  C202  1  0.86964953  0.51180814  0.02052977  1
  C  C203  1  0.85791548  0.84264714  0.01988465  1
  C  C204  1  0.70637423  0.06055284  0.03368203  1
  C  C205  1  0.71605022  0.37442214  0.01803722  1
  C  C206  1  0.66557093  0.72146571  0.02266754  1
  C  C207  1  0.47367115  0.06038239  0.53346734  1
  C  C208  1  0.40967285  0.37457269  0.51796403  1
  C  C209  1  0.51024629  0.72436997  0.52827393  1
  C  C210  1  0.70395131  0.17783554  0.53190820  1
  C  C211  1  0.66464184  0.51154549  0.52046780  1
  C  C212  1  0.67923582  0.84388615  0.52062266  1
  C  C213  1  0.83052005  0.10240967  0.53201022  1
  C  C214  1  0.85326896  0.41971648  0.52273706  1
  C  C215  1  0.85837541  0.78870373  0.52386378  1
  C  C216  1  0.53190195  0.23214395  0.97285469  1
  C  C217  1  0.52084618  0.56692797  0.97029154  1
  C  C218  1  0.51357519  0.88789029  0.97410244  1
  C  C219  1  0.16530468  0.16418263  0.96475211  1
  C  C220  1  0.15537558  0.48830649  0.98248269  1
  C  C221  1  0.15115403  0.82177025  0.97644799  1
  C  C222  1  0.33370955  0.28745278  0.97571642  1
  C  C223  1  0.29979419  0.61215928  0.97583769  1
  C  C224  1  0.30492541  0.94276549  0.97452928  1
  C  C225  1  0.52852200  0.28737342  0.47537066  1
  C  C226  1  0.53290151  0.61156000  0.47487120  1
  C  C227  1  0.51920439  0.94355205  0.47390734  1
  C  C228  1  0.32691380  0.16387761  0.46538241  1
  C  C229  1  0.30880007  0.48811631  0.48250375  1
  C  C230  1  0.31033760  0.82225342  0.47532060  1
  C  C231  1  0.16452384  0.23208570  0.47328350  1
  C  C232  1  0.17470397  0.56554555  0.47211483  1
  C  C233  1  0.14247547  0.88874176  0.47789828  1
  C  C234  1  0.13488350  0.21032586  0.35711864  1
  C  C235  1  0.15696923  0.56345881  0.35275311  1
  C  C236  1  0.16006367  0.89120899  0.36296949  1
  C  C237  1  0.49911787  0.27389569  0.36078681  1
  C  C238  1  0.51820519  0.61908776  0.35814108  1
  C  C239  1  0.51853552  0.95898164  0.35647122  1
  C  C240  1  0.34799190  0.15629883  0.34939202  1
  C  C241  1  0.29829960  0.49604964  0.36871727  1
  C  C242  1  0.37193958  0.83768541  0.35866111  1
  C  C243  1  0.12080559  0.15582150  0.84907930  1
  C  C244  1  0.19113795  0.49548384  0.86881283  1
  C  C245  1  0.14341848  0.83709235  0.85849105  1
  C  C246  1  0.32208933  0.27356973  0.86100811  1
  C  C247  1  0.34317018  0.61851230  0.85985278  1
  C  C248  1  0.35843705  0.95819122  0.85736329  1
  C  C249  1  0.49588889  0.21012244  0.85678952  1
  C  C250  1  0.53546578  0.56325427  0.85189980  1
  C  C251  1  0.51614175  0.89011011  0.85980316  1
  C  C252  1  0.03165468  0.27860850  0.40696988  1
  C  C253  1  0.02434590  0.61592803  0.41295825  1
  C  C254  1  0.01585794  0.94476245  0.41892466  1
  C  C255  1  0.81432804  0.32376459  0.41351529  1
  C  C256  1  0.81484396  0.65591474  0.40937130  1
  C  C257  1  0.81632914  0.99519770  0.41437522  1
  C  C258  1  0.16918754  0.06025179  0.41253797  1
  C  C259  1  0.15175131  0.39290915  0.42012684  1
  C  C260  1  0.16459417  0.73341761  0.40119897  1
  C  C261  1  0.01102061  0.06011079  0.91274809  1
  C  C262  1  0.02697573  0.39258994  0.92061575  1
  C  C263  1  0.02725322  0.73218078  0.90225771  1
  C  C264  1  0.15704953  0.32361567  0.91338392  1
  C  C265  1  0.15189338  0.65586124  0.90837310  1
  C  C266  1  0.16830560  0.99473330  0.91317217  1
  C  C267  1  0.80391795  0.27822735  0.90655515  1
  C  C268  1  0.81884852  0.61691981  0.91381064  1
  C  C269  1  0.81670792  0.94417976  0.91765786  1
  C  C270  1  0.97228547  0.05217273  0.58844186  1
  C  C271  1  0.01548065  0.39476893  0.59914687  1
  C  C272  1  0.96375640  0.72356055  0.57666221  1
  C  C273  1  0.17701752  0.00489508  0.58727775  1
  C  C274  1  0.17372121  0.33342731  0.59674896  1
  C  C275  1  0.20715230  0.67838938  0.57781887  1
  C  C276  1  0.83649617  0.27638138  0.58821032  1
  C  C277  1  0.82768815  0.60301680  0.58434101  1
  C  C278  1  0.83111788  0.93645478  0.58841434  1
  C  C279  1  0.99328628  0.27639855  0.08829288  1
  C  C280  1  0.98343830  0.60343462  0.08426614  1
  C  C281  1  0.98428691  0.93811251  0.08729982  1
  C  C282  1  0.84153078  0.00742160  0.08787498  1
  C  C283  1  0.82630077  0.33314154  0.09707539  1
  C  C284  1  0.83047395  0.67863354  0.07685303  1
  C  C285  1  0.18549409  0.05239744  0.08888476  1
  C  C286  1  0.16864379  0.39490735  0.09888176  1
  C  C287  1  0.21183392  0.72434609  0.07687036  1
  C  C288  1  0.70858969  0.05516568  0.75723856  1
  C  C289  1  0.68402344  0.38788111  0.74046236  1
  C  C290  1  0.69838797  0.72773874  0.74660543  1
  C  C291  1  0.46103934  0.09853748  0.75603136  1
  C  C292  1  0.47986281  0.43539176  0.74362580  1
  C  C293  1  0.48443067  0.77000293  0.74652081  1
  C  C294  1  0.83401030  0.17749017  0.76204452  1
  C  C295  1  0.81478233  0.50609155  0.74061070  1
  C  C296  1  0.83741733  0.84069342  0.74376425  1
  C  C297  1  0.69809655  0.17716981  0.26192534  1
  C  C298  1  0.70177373  0.50599654  0.23991738  1
  C  C299  1  0.68480124  0.84062540  0.24461066  1
  C  C300  1  0.83461513  0.09811143  0.25567783  1
  C  C301  1  0.82549859  0.43504190  0.24331212  1
  C  C302  1  0.82496448  0.77023625  0.24524477  1
  C  C303  1  0.45502805  0.05465089  0.25700550  1
  C  C304  1  0.47947250  0.38775437  0.24020877  1
  C  C305  1  0.48578017  0.72727905  0.24646723  1
  C  C306  1  0.64290315  0.16539541  0.92624055  1
  C  C307  1  0.63394929  0.50241020  0.91366894  1
  C  C308  1  0.64499934  0.83266334  0.91586239  1
  C  C309  1  0.85085695  0.11961635  0.92494634  1
  C  C310  1  0.87516804  0.45484079  0.90864486  1
  C  C311  1  0.84794146  0.78137371  0.91877030  1
  C  C312  1  0.50284890  0.04746563  0.93126502  1
  C  C313  1  0.49517336  0.37733555  0.90245588  1
  C  C314  1  0.49688254  0.71502455  0.92234911  1
  C  C315  1  0.63984556  0.04799322  0.43099870  1
  C  C316  1  0.63802893  0.37762261  0.40231262  1
  C  C317  1  0.65496985  0.71596686  0.42385499  1
  C  C318  1  0.50813830  0.11990770  0.42533648  1
  C  C319  1  0.48980117  0.45472862  0.40869498  1
  C  C320  1  0.49765027  0.78299157  0.42157070  1
  C  C321  1  0.85429791  0.16582521  0.42696080  1
  C  C322  1  0.87633171  0.50302632  0.41340303  1
  C  C323  1  0.85162621  0.83257514  0.41530144  1
  C  C324  1  0.32360874  0.16277579  0.06822932  1
  C  C325  1  0.37846234  0.50583872  0.07723748  1
  C  C326  1  0.35212916  0.83617170  0.08202738  1
  C  C327  1  0.15642595  0.22106311  0.06898220  1
  C  C328  1  0.15706301  0.54698772  0.08337436  1
  C  C329  1  0.14999171  0.88130226  0.08088394  1
  C  C330  1  0.49266965  0.27881245  0.08035224  1
  C  C331  1  0.49097400  0.62023338  0.07813942  1
  C  C332  1  0.50083225  0.95076129  0.06826673  1
  C  C333  1  0.34403219  0.27892605  0.58044093  1
  C  C334  1  0.37239284  0.62016950  0.57890821  1
  C  C335  1  0.34475307  0.94951702  0.56974817  1
  C  C336  1  0.50713679  0.22110316  0.56889548  1
  C  C337  1  0.48401149  0.54703885  0.58344696  1
  C  C338  1  0.49243278  0.88133234  0.58003349  1
  C  C339  1  0.16429974  0.16267965  0.56824979  1
  C  C340  1  0.13968238  0.50580699  0.57813123  1
  C  C341  1  0.15256159  0.83678766  0.58284446  1
  C  C342  1  0.29813690  0.27455731  0.25887009  1
  C  C343  1  0.35399843  0.61560232  0.25652605  1
  C  C344  1  0.31707777  0.94306017  0.25193264  1
  C  C345  1  0.51637546  0.22951415  0.25256496  1
  C  C346  1  0.50531031  0.54964529  0.26720160  1
  C  C347  1  0.51777591  0.89702744  0.25229359  1
  C  C348  1  0.17340977  0.15832928  0.25076670  1
  C  C349  1  0.15607772  0.49693635  0.25457029  1
  C  C350  1  0.16538378  0.82874072  0.26756313  1
  C  C351  1  0.30146274  0.15850062  0.74991509  1
  C  C352  1  0.33300523  0.49668330  0.75431074  1
  C  C353  1  0.31961772  0.82940629  0.76514923  1
  C  C354  1  0.17266040  0.22960644  0.75257574  1
  C  C355  1  0.14217872  0.55017709  0.76933271  1
  C  C356  1  0.17337780  0.89695382  0.75183906  1
  C  C357  1  0.52553317  0.27459683  0.75897418  1
  C  C358  1  0.49180756  0.61558780  0.75627018  1
  C  C359  1  0.51289742  0.94363688  0.75182772  1
