# generated using pymatgen
data_CuNiC
_symmetry_space_group_name_H-M   'P 1'
_cell_length_a   4.29229700
_cell_length_b   7.02332500
_cell_length_c   7.47899600
_cell_angle_alpha   90.00000000
_cell_angle_beta   90.00000000
_cell_angle_gamma   90.00000000
_symmetry_Int_Tables_number   1
_chemical_formula_structural   CuNiC
_chemical_formula_sum   'Cu4 Ni4 C4'
_cell_volume   225.46328549
_cell_formula_units_Z   4
loop_
 _symmetry_equiv_pos_site_id
 _symmetry_equiv_pos_as_xyz
  1  'x, y, z'
loop_
 _atom_site_type_symbol
 _atom_site_label
 _atom_site_symmetry_multiplicity
 _atom_site_fract_x
 _atom_site_fract_y
 _atom_site_fract_z
 _atom_site_occupancy
  C  C0  1  0.75000000  0.50325300  0.79980500  1
  C  C1  1  0.25000000  0.99674700  0.29980500  1
  C  C2  1  0.75000000  0.00325300  0.70019500  1
  C  C3  1  0.25000000  0.49674700  0.20019500  1
  Ni  Ni4  1  0.25000000  0.81345400  0.91152500  1
  Ni  Ni5  1  0.25000000  0.31345400  0.58847500  1
  Ni  Ni6  1  0.75000000  0.18654600  0.08847500  1
  Ni  Ni7  1  0.75000000  0.68654600  0.41152500  1
  Cu  Cu8  1  0.25000000  0.69932800  0.58540000  1
  Cu  Cu9  1  0.25000000  0.19932800  0.91460000  1
  Cu  Cu10  1  0.75000000  0.80067200  0.08540000  1
  Cu  Cu11  1  0.75000000  0.30067200  0.41460000  1
