# generated using pymatgen
data_Cu2NiC10
_symmetry_space_group_name_H-M   'P 1'
_cell_length_a   3.82390000
_cell_length_b   7.09639922
_cell_length_c   6.89475239
_cell_angle_alpha   109.98584635
_cell_angle_beta   90.00375172
_cell_angle_gamma   105.62517430
_symmetry_Int_Tables_number   1
_chemical_formula_structural   Cu2NiC10
_chemical_formula_sum   'Cu2 Ni1 C10'
_cell_volume   168.45068090
_cell_formula_units_Z   1
loop_
 _symmetry_equiv_pos_site_id
 _symmetry_equiv_pos_as_xyz
  1  'x, y, z'
loop_
 _atom_site_type_symbol
 _atom_site_label
 _atom_site_symmetry_multiplicity
 _atom_site_fract_x
 _atom_site_fract_y
 _atom_site_fract_z
 _atom_site_occupancy
  Ni  Ni0  1  0.30411200  0.61265800  0.48909600  1
  C  C1  1  0.08951500  0.18303800  0.17596200  1
  C  C2  1  0.90999000  0.82423100  0.84285100  1
  Cu  Cu3  1  0.17808400  0.36069800  0.77504500  1
  Cu  Cu4  1  0.79921800  0.60275400  0.18048900  1
  C  C5  1  0.84896500  0.70233200  0.49132500  1
  C  C6  1  0.15913300  0.32252400  0.49773700  1
  C  C7  1  0.93511300  0.87439400  0.15208700  1
  C  C8  1  0.05998500  0.12438800  0.85303600  1
  C  C9  1  0.25807700  0.52037600  0.17526100  1
  C  C10  1  0.74061600  0.48561200  0.86499700  1
  C  C11  1  0.37375700  0.75178300  0.80250100  1
  C  C12  1  0.62055600  0.24521200  0.16961200  1
