# generated using pymatgen
data_Cu2Ni2C13
_symmetry_space_group_name_H-M   'P 1'
_cell_length_a   14.56176322
_cell_length_b   14.56176322
_cell_length_c   14.56176322
_cell_angle_alpha   164.88020675
_cell_angle_beta   164.88020675
_cell_angle_gamma   21.44559472
_symmetry_Int_Tables_number   1
_chemical_formula_structural   Cu2Ni2C13
_chemical_formula_sum   'Cu2 Ni2 C13'
_cell_volume   210.04691895
_cell_formula_units_Z   1
loop_
 _symmetry_equiv_pos_site_id
 _symmetry_equiv_pos_as_xyz
  1  'x, y, z'
loop_
 _atom_site_type_symbol
 _atom_site_label
 _atom_site_symmetry_multiplicity
 _atom_site_fract_x
 _atom_site_fract_y
 _atom_site_fract_z
 _atom_site_occupancy
  Ni  Ni0  1  0.71206500  0.71206500  0.00000000  1
  Ni  Ni1  1  0.28793500  0.28793500  0.00000000  1
  Cu  Cu2  1  0.57582800  0.57582800  0.00000000  1
  Cu  Cu3  1  0.42417200  0.42417200  0.00000000  1
  C  C4  1  0.85404300  0.85404300  0.00000000  1
  C  C5  1  0.14595700  0.14595700  0.00000000  1
  C  C6  1  0.00000000  0.00000000  0.00000000  1
  C  C7  1  0.36928500  0.86928500  0.50000000  1
  C  C8  1  0.86928500  0.36928500  0.50000000  1
  C  C9  1  0.63071500  0.13071500  0.50000000  1
  C  C10  1  0.13071500  0.63071500  0.50000000  1
  C  C11  1  0.79231200  0.79231200  0.00000000  1
  C  C12  1  0.20768800  0.20768800  0.00000000  1
  C  C13  1  0.50000000  0.00000000  0.50000000  1
  C  C14  1  0.06759200  0.06759200  0.00000000  1
  C  C15  1  0.93240800  0.93240800  0.00000000  1
  C  C16  1  0.00000000  0.50000000  0.50000000  1
