# generated using pymatgen
data_Cu8Ni2C
_symmetry_space_group_name_H-M   'P 1'
_cell_length_a   7.38356300
_cell_length_b   7.91012400
_cell_length_c   8.73774900
_cell_angle_alpha   90.00000000
_cell_angle_beta   90.00000000
_cell_angle_gamma   90.00000000
_symmetry_Int_Tables_number   1
_chemical_formula_structural   Cu8Ni2C
_chemical_formula_sum   'Cu32 Ni8 C4'
_cell_volume   510.32734689
_cell_formula_units_Z   4
loop_
 _symmetry_equiv_pos_site_id
 _symmetry_equiv_pos_as_xyz
  1  'x, y, z'
loop_
 _atom_site_type_symbol
 _atom_site_label
 _atom_site_symmetry_multiplicity
 _atom_site_fract_x
 _atom_site_fract_y
 _atom_site_fract_z
 _atom_site_occupancy
  C  C0  1  0.50000000  0.25000000  0.17100800  1
  C  C1  1  0.00000000  0.75000000  0.32899200  1
  C  C2  1  0.50000000  0.75000000  0.82899200  1
  C  C3  1  0.00000000  0.25000000  0.67100800  1
  Ni  Ni4  1  0.75920200  0.07736400  0.39064900  1
  Ni  Ni5  1  0.25920200  0.92263600  0.10935100  1
  Ni  Ni6  1  0.74079800  0.57736400  0.10935100  1
  Ni  Ni7  1  0.24079800  0.42263600  0.39064900  1
  Ni  Ni8  1  0.24079800  0.92263600  0.60935100  1
  Ni  Ni9  1  0.74079800  0.07736400  0.89064900  1
  Ni  Ni10  1  0.25920200  0.42263600  0.89064900  1
  Ni  Ni11  1  0.75920200  0.57736400  0.60935100  1
  Cu  Cu12  1  0.72469000  0.22247100  0.43157500  1
  Cu  Cu13  1  0.22469000  0.77752900  0.06842500  1
  Cu  Cu14  1  0.77531000  0.72247100  0.06842500  1
  Cu  Cu15  1  0.27531000  0.27752900  0.43157500  1
  Cu  Cu16  1  0.27531000  0.77752900  0.56842500  1
  Cu  Cu17  1  0.77531000  0.22247100  0.93157500  1
  Cu  Cu18  1  0.22469000  0.27752900  0.93157500  1
  Cu  Cu19  1  0.72469000  0.72247100  0.56842500  1
  Cu  Cu20  1  0.83818600  0.00360900  0.49460700  1
  Cu  Cu21  1  0.33818600  0.99639100  0.00539300  1
  Cu  Cu22  1  0.66181400  0.50360900  0.00539300  1
  Cu  Cu23  1  0.16181400  0.49639100  0.49460700  1
  Cu  Cu24  1  0.16181400  0.99639100  0.50539300  1
  Cu  Cu25  1  0.66181400  0.00360900  0.99460700  1
  Cu  Cu26  1  0.33818600  0.49639100  0.99460700  1
  Cu  Cu27  1  0.83818600  0.50360900  0.50539300  1
  Cu  Cu28  1  0.61870000  0.99963200  0.36643400  1
  Cu  Cu29  1  0.11870000  0.00036800  0.13356600  1
  Cu  Cu30  1  0.88130000  0.49963200  0.13356600  1
  Cu  Cu31  1  0.38130000  0.50036800  0.36643400  1
  Cu  Cu32  1  0.38130000  0.00036800  0.63356600  1
  Cu  Cu33  1  0.88130000  0.99963200  0.86643400  1
  Cu  Cu34  1  0.11870000  0.50036800  0.86643400  1
  Cu  Cu35  1  0.61870000  0.49963200  0.63356600  1
  Cu  Cu36  1  0.85364700  0.08296100  0.27473600  1
  Cu  Cu37  1  0.35364700  0.91703900  0.22526400  1
  Cu  Cu38  1  0.64635300  0.58296100  0.22526400  1
  Cu  Cu39  1  0.14635300  0.41703900  0.27473600  1
  Cu  Cu40  1  0.14635300  0.91703900  0.72526400  1
  Cu  Cu41  1  0.64635300  0.08296100  0.77473600  1
  Cu  Cu42  1  0.35364700  0.41703900  0.77473600  1
  Cu  Cu43  1  0.85364700  0.58296100  0.72526400  1
