# generated using pymatgen
data_Cu12Ni3C55
_symmetry_space_group_name_H-M   'P 1'
_cell_length_a   17.22272314
_cell_length_b   8.61332589
_cell_length_c   22.28740776
_cell_angle_alpha   89.97506428
_cell_angle_beta   89.98704486
_cell_angle_gamma   119.99720851
_symmetry_Int_Tables_number   1
_chemical_formula_structural   Cu12Ni3C55
_chemical_formula_sum   'Cu36 Ni9 C165'
_cell_volume   2863.35375911
_cell_formula_units_Z   3
loop_
 _symmetry_equiv_pos_site_id
 _symmetry_equiv_pos_as_xyz
  1  'x, y, z'
loop_
 _atom_site_type_symbol
 _atom_site_label
 _atom_site_symmetry_multiplicity
 _atom_site_fract_x
 _atom_site_fract_y
 _atom_site_fract_z
 _atom_site_occupancy
  C  C0  1  0.33188831  0.33068437  0.82754007  1
  C  C1  1  0.83481622  0.33614363  0.82846900  1
  C  C2  1  0.33105281  0.32954315  0.32812556  1
  C  C3  1  0.83530170  0.33725116  0.32707730  1
  C  C4  1  0.66862753  0.66723191  0.16838870  1
  C  C5  1  0.16640222  0.66643018  0.66555777  1
  C  C6  1  0.50013728  0.00177783  0.35580221  1
  C  C7  1  0.00080227  0.99887990  0.85551232  1
  C  C8  1  0.49933853  0.00123098  0.85627952  1
  C  C9  1  0.00318992  0.00314661  0.64189319  1
  C  C10  1  0.49674872  0.99700447  0.64155557  1
  C  C11  1  0.99644090  0.99656679  0.14632302  1
  C  C12  1  0.50329868  0.00242564  0.14387510  1
  C  C13  1  0.33392890  0.33605109  0.97928994  1
  C  C14  1  0.83270955  0.33050817  0.97992014  1
  C  C15  1  0.33033087  0.33387411  0.47740957  1
  C  C16  1  0.83635591  0.33251361  0.47624578  1
  C  C17  1  0.16614199  0.66556058  0.02571655  1
  C  C18  1  0.66913570  0.67124263  0.52350814  1
  C  C19  1  0.16346554  0.66303837  0.30845407  1
  C  C20  1  0.66715297  0.66687522  0.80785688  1
  Ni  Ni21  1  0.99971380  0.99812979  0.35494939  1
  Ni  Ni22  1  0.33053928  0.32999092  0.68610917  1
  Ni  Ni23  1  0.83630045  0.33691161  0.68648377  1
  Ni  Ni24  1  0.33376715  0.33241903  0.18858267  1
  Ni  Ni25  1  0.83262188  0.33446472  0.18877841  1
  Ni  Ni26  1  0.66722345  0.66782796  0.02306184  1
  Ni  Ni27  1  0.16471545  0.66266371  0.51938263  1
  Ni  Ni28  1  0.66980232  0.66997689  0.31078373  1
  Ni  Ni29  1  0.16615709  0.66631639  0.81036128  1
  Cu  Cu30  1  0.14523321  0.01244567  0.25199081  1
  Cu  Cu31  1  0.64945500  0.00005389  0.25038822  1
  Cu  Cu32  1  0.35656176  0.70381102  0.24863451  1
  Cu  Cu33  1  0.85393958  0.70574555  0.25417975  1
  Cu  Cu34  1  0.99272825  0.27712966  0.25232891  1
  Cu  Cu35  1  0.50048460  0.29877629  0.24963065  1
  Cu  Cu36  1  0.14891429  0.29821209  0.74967331  1
  Cu  Cu37  1  0.64795797  0.28412793  0.74799595  1
  Cu  Cu38  1  0.00028552  0.70283529  0.74922127  1
  Cu  Cu39  1  0.49404683  0.70350566  0.74854089  1
  Cu  Cu40  1  0.35077994  0.00009294  0.74964204  1
  Cu  Cu41  1  0.85824669  0.01196096  0.74813189  1
  Cu  Cu42  1  0.47325866  0.33785810  0.58583029  1
  Cu  Cu43  1  0.97990815  0.34608213  0.58565423  1
  Cu  Cu44  1  0.19419611  0.03942830  0.58522109  1
  Cu  Cu45  1  0.69468340  0.05556844  0.58654409  1
  Cu  Cu46  1  0.32553542  0.61042748  0.58554334  1
  Cu  Cu47  1  0.83311891  0.61126863  0.58614276  1
  Cu  Cu48  1  0.47986256  0.61469325  0.08640661  1
  Cu  Cu49  1  0.97287233  0.61424481  0.08699034  1
  Cu  Cu50  1  0.33382950  0.05334105  0.08683160  1
  Cu  Cu51  1  0.82756924  0.04036130  0.08669787  1
  Cu  Cu52  1  0.19199341  0.33049403  0.08746531  1
  Cu  Cu53  1  0.69351152  0.34637431  0.08595556  1
  Cu  Cu54  1  0.30510123  0.66477715  0.91366039  1
  Cu  Cu55  1  0.80673169  0.66662818  0.91929350  1
  Cu  Cu56  1  0.02660910  0.38802681  0.91357761  1
  Cu  Cu57  1  0.52736478  0.38830564  0.91925474  1
  Cu  Cu58  1  0.16828330  0.94673930  0.91386211  1
  Cu  Cu59  1  0.66608299  0.94546146  0.91899651  1
  Cu  Cu60  1  0.30575734  0.94450384  0.41893406  1
  Cu  Cu61  1  0.81233386  0.94612835  0.41153255  1
  Cu  Cu62  1  0.15880335  0.37485719  0.41752052  1
  Cu  Cu63  1  0.66798596  0.38891132  0.41387741  1
  Cu  Cu64  1  0.02787929  0.68180092  0.41817341  1
  Cu  Cu65  1  0.52698776  0.66520859  0.41332146  1
  C  C66  1  0.10041456  0.03631656  0.30635026  1
  C  C67  1  0.60132154  0.03041251  0.30525609  1
  C  C68  1  0.41525180  0.79554471  0.30487610  1
  C  C69  1  0.91561677  0.79886134  0.30668344  1
  C  C70  1  0.48471119  0.17262757  0.30504125  1
  C  C71  1  0.98188228  0.16451380  0.30668243  1
  C  C72  1  0.10145764  0.17261735  0.80533689  1
  C  C73  1  0.60214640  0.16948123  0.80501307  1
  C  C74  1  0.48301628  0.79631014  0.80526847  1
  C  C75  1  0.98477823  0.79677378  0.80520215  1
  C  C76  1  0.41384322  0.02993271  0.80524137  1
  C  C77  1  0.91487643  0.03475113  0.80520852  1
  C  C78  1  0.39843677  0.96979915  0.69489499  1
  C  C79  1  0.89990262  0.97178459  0.69414066  1
  C  C80  1  0.08668673  0.20365823  0.69492011  1
  C  C81  1  0.58590799  0.19950212  0.69405973  1
  C  C82  1  0.01507203  0.82753069  0.69468359  1
  C  C83  1  0.51415290  0.82785135  0.69432048  1
  C  C84  1  0.40037071  0.82771685  0.19410636  1
  C  C85  1  0.89829199  0.82643608  0.19538631  1
  C  C86  1  0.01344687  0.19998647  0.19465169  1
  C  C87  1  0.51480315  0.20231490  0.19451628  1
  C  C88  1  0.08624985  0.97329171  0.19445147  1
  C  C89  1  0.58701337  0.97041782  0.19484059  1
  C  C90  1  0.43118532  0.36593232  0.64073417  1
  C  C91  1  0.93412788  0.36939918  0.64035989  1
  C  C92  1  0.25078219  0.13161403  0.64012877  1
  C  C93  1  0.75176058  0.13823094  0.64121811  1
  C  C94  1  0.31550948  0.49800513  0.64050346  1
  C  C95  1  0.81690353  0.49660504  0.64086628  1
  C  C96  1  0.43307683  0.49688745  0.13994310  1
  C  C97  1  0.93073238  0.49589427  0.14037936  1
  C  C98  1  0.31700121  0.13786830  0.14032457  1
  C  C99  1  0.81529657  0.13394364  0.14002280  1
  C  C100  1  0.25234684  0.36637576  0.14057514  1
  C  C101  1  0.75123503  0.36892415  0.13969396  1
  C  C102  1  0.23349807  0.30309257  0.02849743  1
  C  C103  1  0.73379022  0.30703118  0.02791414  1
  C  C104  1  0.41956152  0.53230994  0.02830219  1
  C  C105  1  0.91829301  0.53347192  0.02799949  1
  C  C106  1  0.34839164  0.16379926  0.02809287  1
  C  C107  1  0.84633775  0.16024165  0.02830511  1
  C  C108  1  0.23392512  0.16135469  0.52834529  1
  C  C109  1  0.73351914  0.16552652  0.52856505  1
  C  C110  1  0.34730314  0.53311419  0.52849891  1
  C  C111  1  0.84844977  0.53137747  0.52841044  1
  C  C112  1  0.41744044  0.30309665  0.52814824  1
  C  C113  1  0.91931175  0.30516062  0.52873060  1
  C  C114  1  0.26626933  0.69476319  0.97183801  1
  C  C115  1  0.76422731  0.69504928  0.97398978  1
  C  C116  1  0.08119005  0.46759282  0.97163685  1
  C  C117  1  0.58337332  0.47194254  0.97424182  1
  C  C118  1  0.15305656  0.83751829  0.97188569  1
  C  C119  1  0.65197921  0.83322231  0.97399907  1
  C  C120  1  0.26493611  0.83444082  0.47425092  1
  C  C121  1  0.76671488  0.83659207  0.47096546  1
  C  C122  1  0.15119431  0.46726606  0.47331970  1
  C  C123  1  0.65250442  0.46735844  0.47206494  1
  C  C124  1  0.08279075  0.69817051  0.47343136  1
  C  C125  1  0.58099993  0.69480224  0.47181883  1
  C  C126  1  0.06654239  0.63461798  0.36162319  1
  C  C127  1  0.56864669  0.63311194  0.35896605  1
  C  C128  1  0.25094475  0.86856999  0.36110043  1
  C  C129  1  0.74787775  0.86394059  0.35939354  1
  C  C130  1  0.18310265  0.50026483  0.36127002  1
  C  C131  1  0.68307553  0.50255432  0.35923336  1
  C  C132  1  0.06846588  0.50333252  0.85913745  1
  C  C133  1  0.56647118  0.49878442  0.86123267  1
  C  C134  1  0.18367666  0.86376076  0.85915053  1
  C  C135  1  0.68248251  0.86615153  0.86122235  1
  C  C136  1  0.24835870  0.63370019  0.85890484  1
  C  C137  1  0.75053141  0.63445261  0.86141406  1
  C  C138  1  0.01395333  0.83682525  0.40599765  1
  C  C139  1  0.51428682  0.83022302  0.40687789  1
  C  C140  1  0.40087872  0.97060144  0.40779222  1
  C  C141  1  0.90430241  0.97211968  0.40536332  1
  C  C142  1  0.08167758  0.19132647  0.40560118  1
  C  C143  1  0.58480634  0.19840329  0.40731068  1
  C  C144  1  0.01421228  0.19807425  0.90680187  1
  C  C145  1  0.51473918  0.19925225  0.90807373  1
  C  C146  1  0.08527932  0.97121928  0.90727144  1
  C  C147  1  0.58446722  0.97101917  0.90752676  1
  C  C148  1  0.40063238  0.82967054  0.90711140  1
  C  C149  1  0.90064480  0.83068200  0.90761096  1
  C  C150  1  0.48575339  0.17172746  0.59289063  1
  C  C151  1  0.98694568  0.17227526  0.59362884  1
  C  C152  1  0.10032360  0.02676046  0.59285916  1
  C  C153  1  0.59898804  0.02873160  0.59361888  1
  C  C154  1  0.41313752  0.79983567  0.59306470  1
  C  C155  1  0.91529482  0.80157539  0.59347131  1
  C  C156  1  0.48691116  0.80178891  0.09284045  1
  C  C157  1  0.98635505  0.80342683  0.09194336  1
  C  C158  1  0.41584564  0.02826050  0.09257678  1
  C  C159  1  0.91386090  0.02625277  0.09242829  1
  C  C160  1  0.09789047  0.16802562  0.09260747  1
  C  C161  1  0.59970018  0.17308799  0.09228634  1
  C  C162  1  0.34583718  0.17044206  0.74196953  1
  C  C163  1  0.84640487  0.17352167  0.74154452  1
  C  C164  1  0.23937862  0.30882432  0.74192826  1
  C  C165  1  0.74053750  0.30745152  0.74158329  1
  C  C166  1  0.41306824  0.51925610  0.74153992  1
  C  C167  1  0.91507724  0.52138881  0.74199363  1
  C  C168  1  0.34710298  0.52052280  0.24128119  1
  C  C169  1  0.84573544  0.52227841  0.24173712  1
  C  C170  1  0.41491859  0.30810417  0.24164542  1
  C  C171  1  0.91316703  0.30540140  0.24155659  1
  C  C172  1  0.23935472  0.17279737  0.24152287  1
  C  C173  1  0.73921820  0.16993322  0.24179830  1
  C  C174  1  0.31904375  0.50033490  0.92254868  1
  C  C175  1  0.81953416  0.50055874  0.92377384  1
  C  C176  1  0.43106003  0.36101531  0.92378058  1
  C  C177  1  0.93086471  0.36186379  0.92277508  1
  C  C178  1  0.25033324  0.13882829  0.92300690  1
  C  C179  1  0.74931240  0.13757121  0.92343699  1
  C  C180  1  0.32034078  0.13843677  0.42443296  1
  C  C181  1  0.81964601  0.13582501  0.42382470  1
  C  C182  1  0.24790783  0.35982460  0.42453815  1
  C  C183  1  0.74982822  0.36106202  0.42327857  1
  C  C184  1  0.43107495  0.50043173  0.42299738  1
  C  C185  1  0.93186773  0.50408911  0.42476904  1
  C  C186  1  0.18192704  0.49741707  0.07465914  1
  C  C187  1  0.68048646  0.50624378  0.07499493  1
  C  C188  1  0.06706069  0.63637389  0.07466863  1
  C  C189  1  0.57238641  0.63888096  0.07514815  1
  C  C190  1  0.25133967  0.86539898  0.07464420  1
  C  C191  1  0.74681565  0.85508082  0.07516087  1
  C  C192  1  0.18048780  0.85365197  0.57516796  1
  C  C193  1  0.68150232  0.86615419  0.57549269  1
  C  C194  1  0.24653154  0.63864779  0.57537884  1
  C  C195  1  0.75127124  0.63710625  0.57524656  1
  C  C196  1  0.07263536  0.50581807  0.57540647  1
  C  C197  1  0.56803893  0.49937259  0.57459881  1
  C  C198  1  0.15401261  0.84034015  0.25935124  1
  C  C199  1  0.65393121  0.82940814  0.25801823  1
  C  C200  1  0.26521615  0.69176475  0.25834565  1
  C  C201  1  0.76121728  0.69173496  0.25836571  1
  C  C202  1  0.07966327  0.46721454  0.25881531  1
  C  C203  1  0.58501455  0.47886777  0.25807450  1
  C  C204  1  0.15444008  0.47874607  0.75841948  1
  C  C205  1  0.65399970  0.46824257  0.75879542  1
  C  C206  1  0.08483656  0.69123490  0.75829624  1
  C  C207  1  0.58021994  0.69123394  0.75894041  1
  C  C208  1  0.26072449  0.83014770  0.75838344  1
  C  C209  1  0.76556187  0.84013688  0.75875283  1
