# generated using pymatgen
data_Cu4Ni9C98
_symmetry_space_group_name_H-M   'P 1'
_cell_length_a   8.97833103
_cell_length_b   8.96656995
_cell_length_c   22.86234238
_cell_angle_alpha   89.92040083
_cell_angle_beta   90.04049056
_cell_angle_gamma   119.89435610
_symmetry_Int_Tables_number   1
_chemical_formula_structural   Cu4Ni9C98
_chemical_formula_sum   'Cu4 Ni9 C98'
_cell_volume   1595.63748707
_cell_formula_units_Z   1
loop_
 _symmetry_equiv_pos_site_id
 _symmetry_equiv_pos_as_xyz
  1  'x, y, z'
loop_
 _atom_site_type_symbol
 _atom_site_label
 _atom_site_symmetry_multiplicity
 _atom_site_fract_x
 _atom_site_fract_y
 _atom_site_fract_z
 _atom_site_occupancy
  Ni  Ni0  1  0.98452946  0.63302415  0.24243777  1
  Ni  Ni1  1  0.36795189  0.01723925  0.74289077  1
  Ni  Ni2  1  0.32016942  0.02981568  0.41069129  1
  Ni  Ni3  1  0.99321957  0.00555639  0.49677808  1
  Ni  Ni4  1  0.00078888  -0.00004047  0.99572648  1
  Ni  Ni5  1  0.68162173  0.34679512  0.82447484  1
  Ni  Ni6  1  0.66510177  0.32965127  0.32339573  1
  Ni  Ni7  1  0.33911415  0.66771940  0.16589521  1
  Ni  Ni8  1  0.33362016  0.66229228  0.66537374  1
  Cu  Cu9  1  0.99232320  0.00234903  0.35760499  1
  Cu  Cu10  1  0.99823343  0.00008252  0.85935672  1
  Cu  Cu11  1  0.67195808  0.33568748  0.68052656  1
  Cu  Cu12  1  0.66299537  0.32701466  0.17955784  1
  C  C13  1  0.00145445  0.00113381  0.64726375  1
  C  C14  1  0.00047414  0.00087222  0.14698513  1
  C  C15  1  0.66876274  0.33690596  0.98118556  1
  C  C16  1  0.66524516  0.33625291  0.48219433  1
  C  C17  1  0.33145548  0.66779829  0.02037866  1
  C  C18  1  0.33188318  0.66317016  0.52069979  1
  C  C19  1  0.33717620  0.66040318  0.31150309  1
  C  C20  1  0.33438105  0.66412887  0.81177430  1
  C  C21  1  0.36630908  0.03494259  0.58555097  1
  C  C22  1  0.96370824  0.63344453  0.08561676  1
  C  C23  1  0.34370530  0.38031419  0.41846221  1
  C  C24  1  0.29152148  0.99596206  0.25367930  1
  C  C25  1  0.70596779  0.71251926  0.25027365  1
  C  C26  1  0.00523705  0.29615683  0.25098964  1
  C  C27  1  0.28675314  0.29340091  0.75144388  1
  C  C28  1  0.00414574  0.70976424  0.75261153  1
  C  C29  1  0.70660882  0.99456687  0.75216762  1
  C  C30  1  0.96269199  0.33022907  0.58249103  1
  C  C31  1  0.66953897  0.63341637  0.58299307  1
  C  C32  1  0.66949244  0.03688669  0.08158096  1
  C  C33  1  0.36861176  0.33152628  0.08182327  1
  C  C34  1  0.61198488  0.65297150  0.91867279  1
  C  C35  1  0.04176511  0.38787710  0.91855008  1
  C  C36  1  0.34714581  0.95961399  0.91752215  1
  C  C37  1  0.61264198  0.95567635  0.41899799  1
  C  C38  1  0.04207272  0.65070253  0.41711114  1
  C  C39  1  0.21331693  0.00829011  0.31052429  1
  C  C40  1  0.81166192  0.78860769  0.30409662  1
  C  C41  1  0.98863366  0.19906145  0.30574352  1
  C  C42  1  0.20860945  0.18667709  0.80485291  1
  C  C43  1  0.99158181  0.79437702  0.80679711  1
  C  C44  1  0.80559133  0.01339243  0.80643504  1
  C  C45  1  0.79839764  0.97185309  0.69558556  1
  C  C46  1  0.16691187  0.19935806  0.69525002  1
  C  C47  1  0.03011118  0.83201992  0.69635399  1
  C  C48  1  0.80184508  0.83347871  0.19460787  1
  C  C49  1  0.02605926  0.20261504  0.19477889  1
  C  C50  1  0.16562864  0.97475890  0.19893117  1
  C  C51  1  0.90967562  0.37978770  0.63738211  1
  C  C52  1  0.46366951  0.08723944  0.64580227  1
  C  C53  1  0.62249298  0.52877688  0.63741116  1
  C  C54  1  0.91474077  0.53659103  0.14601545  1
  C  C55  1  0.61681462  0.08725726  0.13647950  1
  C  C56  1  0.47196788  0.37923437  0.13656877  1
  C  C57  1  0.46334115  0.30079991  0.02831423  1
  C  C58  1  0.82685593  0.52230576  0.03028856  1
  C  C59  1  0.69411532  0.16095104  0.02840685  1
  C  C60  1  0.47536247  0.17010481  0.52902642  1
  C  C61  1  0.69915861  0.53749462  0.52920800  1
  C  C62  1  0.84133966  0.30646404  0.52880689  1
  C  C63  1  0.50720381  0.65745931  0.97099018  1
  C  C64  1  0.15227819  0.49331028  0.97112421  1
  C  C65  1  0.34248802  0.84658381  0.96961068  1
  C  C66  1  0.50746860  0.84837891  0.47178235  1
  C  C67  1  0.33641014  0.49309745  0.47235454  1
  C  C68  1  0.15679037  0.66531196  0.46960586  1
  C  C69  1  0.13227049  0.63426259  0.35974745  1
  C  C70  1  0.49889067  0.86754848  0.36246656  1
  C  C71  1  0.36263223  0.50073460  0.35911655  1
  C  C72  1  0.13417729  0.49860788  0.86215418  1
  C  C73  1  0.36428457  0.86834615  0.86042439  1
  C  C74  1  0.50066462  0.63504470  0.86228321  1
  C  C75  1  0.02940920  0.81243506  0.41747095  1
  C  C76  1  0.78650400  0.97200969  0.42049474  1
  C  C77  1  0.18844181  0.18866532  0.42184753  1
  C  C78  1  0.02402041  0.21293601  0.92052280  1
  C  C79  1  0.18922341  0.97600327  0.92010536  1
  C  C80  1  0.78753638  0.80813759  0.91993286  1
  C  C81  1  0.97170412  0.16082709  0.58855941  1
  C  C82  1  0.17520502  0.02316922  0.59116696  1
  C  C83  1  0.83533358  0.81359938  0.58888397  1
  C  C84  1  0.97864245  0.82583510  0.09118271  1
  C  C85  1  0.83977500  0.02989190  0.08821754  1
  C  C86  1  0.18763514  0.16591716  0.08884247  1
  C  C87  1  0.66243055  0.13665614  0.74600379  1
  C  C88  1  0.46641343  0.32324841  0.74246485  1
  C  C89  1  0.86103654  0.52853759  0.74486565  1
  C  C90  1  0.67573134  0.53252630  0.24149224  1
  C  C91  1  0.86131796  0.33767147  0.24557328  1
  C  C92  1  0.47101168  0.14259129  0.24545384  1
  C  C93  1  0.62076787  0.48213097  0.92425109  1
  C  C94  1  0.86186711  0.37767107  0.92471020  1
  C  C95  1  0.51605235  0.13786880  0.92430127  1
  C  C96  1  0.62114313  0.13556031  0.42414512  1
  C  C97  1  0.52547066  0.37274887  0.42472573  1
  C  C98  1  0.86529170  0.48420030  0.42442291  1
  C  C99  1  0.33428842  0.48242399  0.06682704  1
  C  C100  1  0.15865338  0.67070021  0.06814574  1
  C  C101  1  0.52362186  0.84990669  0.06619849  1
  C  C102  1  0.32908867  0.84083379  0.56838184  1
  C  C103  1  0.51882189  0.66755920  0.56830915  1
  C  C104  1  0.14894333  0.47863644  0.56823235  1
  C  C105  1  0.28838037  0.81512674  0.25420276  1
  C  C106  1  0.52693367  0.70944949  0.25555208  1
  C  C107  1  0.18168083  0.48074769  0.25475209  1
  C  C108  1  0.29297724  0.47432811  0.75696320  1
  C  C109  1  0.18588442  0.71094288  0.75571294  1
  C  C110  1  0.52158996  0.81716749  0.75719206  1
