# generated using pymatgen
data_CuNi2C3
_symmetry_space_group_name_H-M   'P 1'
_cell_length_a   6.83256100
_cell_length_b   11.94377100
_cell_length_c   12.36609619
_cell_angle_alpha   89.66356520
_cell_angle_beta   90.00000000
_cell_angle_gamma   90.00000000
_symmetry_Int_Tables_number   1
_chemical_formula_structural   CuNi2C3
_chemical_formula_sum   'Cu8 Ni16 C24'
_cell_volume   1009.13697424
_cell_formula_units_Z   8
loop_
 _symmetry_equiv_pos_site_id
 _symmetry_equiv_pos_as_xyz
  1  'x, y, z'
loop_
 _atom_site_type_symbol
 _atom_site_label
 _atom_site_symmetry_multiplicity
 _atom_site_fract_x
 _atom_site_fract_y
 _atom_site_fract_z
 _atom_site_occupancy
  Ni  Ni0  1  0.74615900  0.13168400  0.92449000  1
  Ni  Ni1  1  0.35913200  0.65380200  0.47915600  1
  Ni  Ni2  1  0.14086800  0.65380200  0.97915600  1
  Ni  Ni3  1  0.64086800  0.34619800  0.52084400  1
  Ni  Ni4  1  0.53325400  0.21065000  0.11531200  1
  Ni  Ni5  1  0.03325400  0.78935000  0.38468800  1
  Ni  Ni6  1  0.46674600  0.78935000  0.88468800  1
  Ni  Ni7  1  0.96674600  0.21065000  0.61531200  1
  Ni  Ni8  1  0.48784800  0.32214800  0.90438200  1
  Ni  Ni9  1  0.98784800  0.67785200  0.59561800  1
  Ni  Ni10  1  0.51215200  0.67785200  0.09561800  1
  Ni  Ni11  1  0.01215200  0.32214800  0.40438200  1
  Ni  Ni12  1  0.75384100  0.13168400  0.42449000  1
  Ni  Ni13  1  0.24615900  0.86831600  0.57551000  1
  Ni  Ni14  1  0.25384100  0.86831600  0.07551000  1
  Ni  Ni15  1  0.85913200  0.34619800  0.02084400  1
  Cu  Cu16  1  0.84757600  0.99513800  0.84257800  1
  Cu  Cu17  1  0.34757600  0.00486200  0.65742200  1
  Cu  Cu18  1  0.15242400  0.00486200  0.15742200  1
  Cu  Cu19  1  0.65242400  0.99513800  0.34257800  1
  Cu  Cu20  1  0.29592100  0.40291600  0.80256100  1
  Cu  Cu21  1  0.79592100  0.59708400  0.69743900  1
  Cu  Cu22  1  0.70407900  0.59708400  0.19743900  1
  Cu  Cu23  1  0.20407900  0.40291600  0.30256100  1
  C  C24  1  0.72466600  0.29639500  0.12153300  1
  C  C25  1  0.22466600  0.70360500  0.37846700  1
  C  C26  1  0.27533400  0.70360500  0.87846700  1
  C  C27  1  0.77533400  0.29639500  0.62153300  1
  C  C28  1  0.90773400  0.22503500  0.95637500  1
  C  C29  1  0.40773400  0.77496500  0.54362500  1
  C  C30  1  0.09226600  0.77496500  0.04362500  1
  C  C31  1  0.59226600  0.22503500  0.45637500  1
  C  C32  1  0.40163100  0.27948200  0.01919600  1
  C  C33  1  0.90163100  0.72051800  0.48080400  1
  C  C34  1  0.59836900  0.72051800  0.98080400  1
  C  C35  1  0.09836900  0.27948200  0.51919600  1
  C  C36  1  0.67915500  0.39388200  0.93850300  1
  C  C37  1  0.17915500  0.60611800  0.56149700  1
  C  C38  1  0.32084500  0.60611800  0.06149700  1
  C  C39  1  0.82084500  0.39388200  0.43850300  1
  C  C40  1  0.58558800  0.20735600  0.85618900  1
  C  C41  1  0.08558800  0.79264400  0.64381100  1
  C  C42  1  0.41441200  0.79264400  0.14381100  1
  C  C43  1  0.86863000  0.10980200  0.53697100  1
  C  C44  1  0.63137000  0.10980200  0.03697100  1
  C  C45  1  0.13137000  0.89019800  0.46302900  1
  C  C46  1  0.36863000  0.89019800  0.96302900  1
  C  C47  1  0.91441200  0.20735600  0.35618900  1
