# generated using pymatgen
data_Cu4NiC10
_symmetry_space_group_name_H-M   'P 1'
_cell_length_a   5.78173875
_cell_length_b   5.77955227
_cell_length_c   7.10926689
_cell_angle_alpha   114.04901162
_cell_angle_beta   114.05174298
_cell_angle_gamma   89.89390408
_symmetry_Int_Tables_number   1
_chemical_formula_structural   Cu4NiC10
_chemical_formula_sum   'Cu4 Ni1 C10'
_cell_volume   194.22578319
_cell_formula_units_Z   1
loop_
 _symmetry_equiv_pos_site_id
 _symmetry_equiv_pos_as_xyz
  1  'x, y, z'
loop_
 _atom_site_type_symbol
 _atom_site_label
 _atom_site_symmetry_multiplicity
 _atom_site_fract_x
 _atom_site_fract_y
 _atom_site_fract_z
 _atom_site_occupancy
  C  C0  1  0.87482900  0.12459200  0.74971900  1
  C  C1  1  0.12513800  0.87515600  0.25003700  1
  Ni  Ni2  1  0.62511900  0.37504500  0.25026600  1
  Cu  Cu3  1  0.48379400  0.93551100  0.92044400  1
  Cu  Cu4  1  0.43693700  0.48491300  0.92076100  1
  Cu  Cu5  1  0.06455000  0.56325300  0.57947100  1
  Cu  Cu6  1  0.51478600  0.51627100  0.57931900  1
  C  C7  1  0.72682300  0.53105900  0.88031800  1
  C  C8  1  0.15339800  0.84962800  0.88076000  1
  C  C9  1  0.27608100  0.46827500  0.09505500  1
  C  C10  1  0.81906000  0.12688800  0.09520700  1
  C  C11  1  0.53184100  0.18060200  0.40463700  1
  C  C12  1  0.87282400  0.72388000  0.40448000  1
  C  C13  1  0.15093000  0.27270100  0.62002400  1
  C  C14  1  0.46889000  0.84722600  0.61950000  1
