# generated using pymatgen
data_Cu3Ni3C31
_symmetry_space_group_name_H-M   'P 1'
_cell_length_a   9.01391223
_cell_length_b   8.97141144
_cell_length_c   22.87446185
_cell_angle_alpha   89.91478102
_cell_angle_beta   90.14017750
_cell_angle_gamma   119.98314321
_symmetry_Int_Tables_number   1
_chemical_formula_structural   Cu3Ni3C31
_chemical_formula_sum   'Cu9 Ni9 C93'
_cell_volume   1602.24173695
_cell_formula_units_Z   3
loop_
 _symmetry_equiv_pos_site_id
 _symmetry_equiv_pos_as_xyz
  1  'x, y, z'
loop_
 _atom_site_type_symbol
 _atom_site_label
 _atom_site_symmetry_multiplicity
 _atom_site_fract_x
 _atom_site_fract_y
 _atom_site_fract_z
 _atom_site_occupancy
  C  C0  1  0.99858151  0.62999364  0.25365418  1
  C  C1  1  0.66514512  0.95685314  0.58532662  1
  C  C2  1  0.66780672  0.70411348  0.07956023  1
  C  C3  1  0.02386690  0.00136160  0.50010342  1
  C  C4  1  0.01981439  0.01708679  0.99663815  1
  C  C5  1  0.66453881  0.33266933  0.83316694  1
  C  C6  1  0.65232518  0.32024356  0.33460436  1
  C  C7  1  0.33317944  0.66646393  0.16675514  1
  C  C8  1  0.31669915  0.65674367  0.66894316  1
  C  C9  1  0.00754946  0.99683869  0.64647855  1
  C  C10  1  0.00069297  0.00224505  0.14323150  1
  C  C11  1  0.66587962  0.33101366  0.18938071  1
  C  C12  1  0.32463382  0.66482790  0.01846047  1
  C  C13  1  0.32912258  0.66846336  0.52051641  1
  C  C14  1  0.34085796  0.67000752  0.31558115  1
  C  C15  1  0.99128747  0.99449459  0.35562059  1
  C  C16  1  0.98935225  0.99196302  0.85250933  1
  C  C17  1  0.66474612  0.33074679  0.69150744  1
  C  C18  1  0.67513915  0.33834779  0.97592036  1
  C  C19  1  0.66540392  0.33485063  0.47759475  1
  C  C20  1  0.33319364  0.66577592  0.81364424  1
  Ni  Ni21  1  0.70442274  0.70975513  0.24723593  1
  Ni  Ni22  1  0.00294927  0.70751348  0.74996521  1
  Ni  Ni23  1  0.70706438  0.99483746  0.74680155  1
  Ni  Ni24  1  0.37742280  0.04826848  0.58357817  1
  Ni  Ni25  1  0.96025916  0.62294822  0.08513502  1
  Ni  Ni26  1  0.62303705  0.66686553  0.91942087  1
  Ni  Ni27  1  0.04419837  0.37215317  0.91550686  1
  Ni  Ni28  1  0.62712424  0.96056917  0.42032904  1
  Ni  Ni29  1  0.04080526  0.66640171  0.41402121  1
  Cu  Cu30  1  0.28498835  0.00046600  0.25155190  1
  Cu  Cu31  1  0.00160921  0.28875657  0.25066513  1
  Cu  Cu32  1  0.28825326  0.28913378  0.75120988  1
  Cu  Cu33  1  0.94957650  0.33673007  0.58459843  1
  Cu  Cu34  1  0.66481230  0.61707237  0.58448052  1
  Cu  Cu35  1  0.66632782  0.04631111  0.08175136  1
  Cu  Cu36  1  0.38250797  0.33283425  0.08080281  1
  Cu  Cu37  1  0.33272067  0.95935237  0.91470667  1
  Cu  Cu38  1  0.33105534  0.37208919  0.41779889  1
  C  C39  1  0.19408511  0.01766649  0.30616691  1
  C  C40  1  0.83135091  0.82217665  0.30319950  1
  C  C41  1  0.99570532  0.18524118  0.30561544  1
  C  C42  1  0.20279844  0.17473628  0.80456699  1
  C  C43  1  0.98049145  0.80713101  0.80615812  1
  C  C44  1  0.83573989  0.02223592  0.80236285  1
  C  C45  1  0.78743538  0.97072222  0.68684088  1
  C  C46  1  0.18093186  0.20997178  0.69561037  1
  C  C47  1  0.03541896  0.82491372  0.69211739  1
  C  C48  1  0.79641191  0.81411293  0.18709345  1
  C  C49  1  0.01644776  0.20149254  0.19489971  1
  C  C50  1  0.17807157  0.98352500  0.19618118  1
  C  C51  1  0.85896471  0.35114839  0.64055211  1
  C  C52  1  0.49534155  0.15193089  0.64132298  1
  C  C53  1  0.65936578  0.51489153  0.63984939  1
  C  C54  1  0.86844572  0.51838317  0.14511779  1
  C  C55  1  0.65054859  0.13279144  0.13745758  1
  C  C56  1  0.48944249  0.34933926  0.13606368  1
  C  C57  1  0.47352764  0.31563971  0.02592373  1
  C  C58  1  0.83497334  0.51083495  0.02840624  1
  C  C59  1  0.67205295  0.14955572  0.02652653  1
  C  C60  1  0.48439783  0.16305750  0.52647834  1
  C  C61  1  0.67890780  0.52794521  0.52876515  1
  C  C62  1  0.84215688  0.32612562  0.52990968  1
  C  C63  1  0.55101988  0.69904390  0.97975379  1
  C  C64  1  0.15591696  0.45954667  0.97369057  1
  C  C65  1  0.30296062  0.84889152  0.96961382  1
  C  C66  1  0.55065032  0.84827191  0.47976735  1
  C  C67  1  0.30478785  0.45545983  0.47232755  1
  C  C68  1  0.16578462  0.69482770  0.46943309  1
  C  C69  1  0.11357601  0.63109932  0.35414614  1
  C  C70  1  0.50478957  0.86779521  0.36452632  1
  C  C71  1  0.36090238  0.48451346  0.36357882  1
  C  C72  1  0.13814720  0.49882886  0.85970976  1
  C  C73  1  0.35739579  0.86893642  0.86083938  1
  C  C74  1  0.49681768  0.64613838  0.86451439  1
  C  C75  1  0.02071830  0.83942907  0.40787048  1
  C  C76  1  0.82081197  0.99050830  0.40818631  1
  C  C77  1  0.17462728  0.19012287  0.40972089  1
  C  C78  1  0.02266960  0.18249642  0.90605712  1
  C  C79  1  0.17628283  0.98379363  0.90670875  1
  C  C80  1  0.81660060  0.83034742  0.90681808  1
  C  C81  1  0.95341245  0.16666833  0.58600343  1
  C  C82  1  0.19127539  0.03451083  0.58412227  1
  C  C83  1  0.82394351  0.80121643  0.58598629  1
  C  C84  1  0.96252858  0.80726341  0.08281300  1
  C  C85  1  0.83381178  0.03619409  0.08282521  1
  C  C86  1  0.20207788  0.17441286  0.08409516  1
  C  C87  1  0.68771695  0.16909504  0.74330284  1
  C  C88  1  0.47054996  0.31050332  0.74408942  1
  C  C89  1  0.82675219  0.51964968  0.74386196  1
  C  C90  1  0.70204831  0.52532654  0.24958504  1
  C  C91  1  0.83419499  0.29930232  0.24966870  1
  C  C92  1  0.46586703  0.15809579  0.24832414  1
  C  C93  1  0.64055704  0.49192634  0.92323766  1
  C  C94  1  0.85031159  0.34828694  0.92329594  1
  C  C95  1  0.49690116  0.13773127  0.92124044  1
  C  C96  1  0.65390946  0.15562000  0.42608159  1
  C  C97  1  0.49251936  0.35202161  0.42461600  1
  C  C98  1  0.84624724  0.50694722  0.42669722  1
  C  C99  1  0.37562966  0.50173569  0.07829004  1
  C  C100  1  0.15010684  0.64743623  0.08085377  1
  C  C101  1  0.51245614  0.86155985  0.07946616  1
  C  C102  1  0.37175207  0.86263461  0.58227084  1
  C  C103  1  0.50081151  0.63125675  0.58304359  1
  C  C104  1  0.12934894  0.49500874  0.58148552  1
  C  C105  1  0.29232586  0.83184537  0.25467849  1
  C  C106  1  0.51550697  0.68665874  0.25294201  1
  C  C107  1  0.15514686  0.47357903  0.25321849  1
  C  C108  1  0.31350835  0.47222948  0.75875945  1
  C  C109  1  0.16778735  0.68055609  0.75903804  1
  C  C110  1  0.51790445  0.82931127  0.75956752  1
