# generated using pymatgen
data_CuNiC18
_symmetry_space_group_name_H-M   'P 1'
_cell_length_a   8.64186673
_cell_length_b   8.64186647
_cell_length_c   21.56405000
_cell_angle_alpha   90.33099568
_cell_angle_beta   89.66900426
_cell_angle_gamma   120.18777408
_symmetry_Int_Tables_number   1
_chemical_formula_structural   CuNiC18
_chemical_formula_sum   'Cu6 Ni6 C108'
_cell_volume   1392.00750009
_cell_formula_units_Z   6
loop_
 _symmetry_equiv_pos_site_id
 _symmetry_equiv_pos_as_xyz
  1  'x, y, z'
loop_
 _atom_site_type_symbol
 _atom_site_label
 _atom_site_symmetry_multiplicity
 _atom_site_fract_x
 _atom_site_fract_y
 _atom_site_fract_z
 _atom_site_occupancy
  C  C0  1  0.00075783  0.99743974  0.49854959  1
  C  C1  1  0.00256026  0.99924217  0.99854959  1
  C  C2  1  0.66646024  0.32964592  0.83201137  1
  C  C3  1  0.67035408  0.33353976  0.33201137  1
  C  C4  1  0.34423889  0.67299731  0.16528775  1
  C  C5  1  0.32700269  0.65576111  0.66528775  1
  C  C6  1  0.36290417  0.36420499  0.24905083  1
  C  C7  1  0.99585789  0.62842617  0.24901548  1
  C  C8  1  0.63579501  0.63709583  0.74905083  1
  C  C9  1  0.37157383  0.00414211  0.74901548  1
  C  C10  1  0.03540858  0.70041708  0.58173559  1
  C  C11  1  0.66036180  0.96539818  0.58430606  1
  C  C12  1  0.29958292  0.96459142  0.08173559  1
  C  C13  1  0.03460182  0.33963820  0.08430606  1
  C  C14  1  0.97019479  0.66943656  0.91788889  1
  C  C15  1  0.69918185  0.03072208  0.91423027  1
  C  C16  1  0.96927792  0.30081815  0.41423027  1
  C  C17  1  0.33056344  0.02980521  0.41788889  1
  C  C18  1  0.99302894  0.99389807  0.35342310  1
  C  C19  1  0.00610193  0.00697106  0.85342310  1
  C  C20  1  0.67046516  0.32763833  0.68674760  1
  C  C21  1  0.67236167  0.32953484  0.18674760  1
  C  C22  1  0.33061476  0.66935155  0.01973356  1
  C  C23  1  0.33064845  0.66938524  0.51973356  1
  Ni  Ni24  1  0.99138003  0.28051150  0.25199093  1
  Ni  Ni25  1  0.71948850  0.00861997  0.75199093  1
  Ni  Ni26  1  0.37718873  0.04819918  0.58450610  1
  Ni  Ni27  1  0.95180082  0.62281127  0.08450610  1
  Ni  Ni28  1  0.33120342  0.96125401  0.91833310  1
  Ni  Ni29  1  0.03874599  0.66879658  0.41833310  1
  Cu  Cu30  1  0.00590907  0.00720222  0.64831984  1
  Cu  Cu31  1  0.99279778  0.99409093  0.14831984  1
  Cu  Cu32  1  0.66100898  0.33497495  0.98146809  1
  Cu  Cu33  1  0.66502505  0.33899102  0.48146809  1
  Cu  Cu34  1  0.32726433  0.66165615  0.31482830  1
  Cu  Cu35  1  0.33834385  0.67273567  0.81482830  1
  C  C36  1  0.29313741  0.00196884  0.25088544  1
  C  C37  1  0.70971193  0.71455317  0.25139188  1
  C  C38  1  0.28544683  0.29028807  0.75139188  1
  C  C39  1  0.99803116  0.70686259  0.75088544  1
  C  C40  1  0.95813652  0.33476622  0.58379822  1
  C  C41  1  0.66037488  0.61698547  0.58521595  1
  C  C42  1  0.66523378  0.04186348  0.08379822  1
  C  C43  1  0.38301453  0.33962512  0.08521595  1
  C  C44  1  0.61659239  0.66256963  0.91779541  1
  C  C45  1  0.05155138  0.37878113  0.91760198  1
  C  C46  1  0.62121887  0.94844862  0.41760198  1
  C  C47  1  0.33743037  0.38340761  0.41779541  1
  C  C48  1  0.20764008  0.03587692  0.30798688  1
  C  C49  1  0.83441802  0.79632250  0.30646890  1
  C  C50  1  0.97188137  0.16537547  0.31238515  1
  C  C51  1  0.20367750  0.16558198  0.80646890  1
  C  C52  1  0.96412308  0.79235992  0.80798688  1
  C  C53  1  0.83462453  0.02811863  0.81238515  1
  C  C54  1  0.79800785  0.95647741  0.68903648  1
  C  C55  1  0.17079414  0.21127100  0.69164157  1
  C  C56  1  0.04432752  0.83005823  0.69184685  1
  C  C57  1  0.78872900  0.82920586  0.19164157  1
  C  C58  1  0.04352259  0.20199215  0.18903648  1
  C  C59  1  0.16994177  0.95567248  0.19184685  1
  C  C60  1  0.87231248  0.37410521  0.63918017  1
  C  C61  1  0.50423488  0.13512812  0.64373002  1
  C  C62  1  0.63686097  0.50684898  0.64315836  1
  C  C63  1  0.86487188  0.49576512  0.14373002  1
  C  C64  1  0.62589479  0.12768752  0.13918017  1
  C  C65  1  0.49315102  0.36313903  0.14315836  1
  C  C66  1  0.45903714  0.28946780  0.02698025  1
  C  C67  1  0.83220097  0.53745246  0.02060762  1
  C  C68  1  0.70986588  0.16288860  0.02422537  1
  C  C69  1  0.46254754  0.16779903  0.52060762  1
  C  C70  1  0.71053220  0.54096286  0.52698025  1
  C  C71  1  0.83711140  0.29013412  0.52422537  1
  C  C72  1  0.52828977  0.69764643  0.97296515  1
  C  C73  1  0.16210797  0.46196386  0.97605117  1
  C  C74  1  0.29570134  0.83350178  0.97733078  1
  C  C75  1  0.53803614  0.83789203  0.47605117  1
  C  C76  1  0.30235357  0.47171023  0.47296515  1
  C  C77  1  0.16649822  0.70429866  0.47733078  1
  C  C78  1  0.12184929  0.62001302  0.35593288  1
  C  C79  1  0.49574641  0.86788447  0.35971315  1
  C  C80  1  0.37415749  0.49462494  0.35662553  1
  C  C81  1  0.13211553  0.50425359  0.85971315  1
  C  C82  1  0.37998698  0.87815071  0.85593288  1
  C  C83  1  0.50537506  0.62584251  0.85662553  1
  C  C84  1  0.02675533  0.84746261  0.40842258  1
  C  C85  1  0.80991697  0.97652428  0.41057886  1
  C  C86  1  0.16978626  0.19468675  0.41130135  1
  C  C87  1  0.02347572  0.19008303  0.91057886  1
  C  C88  1  0.15253739  0.97324467  0.90842258  1
  C  C89  1  0.80531325  0.83021374  0.91130135  1
  C  C90  1  0.96826369  0.15990116  0.58959155  1
  C  C91  1  0.17210593  0.01817593  0.59056231  1
  C  C92  1  0.83314839  0.80892800  0.58883574  1
  C  C93  1  0.98182407  0.82789407  0.09056231  1
  C  C94  1  0.84009884  0.03173631  0.08959155  1
  C  C95  1  0.19107200  0.16685161  0.08883574  1
  C  C96  1  0.68747151  0.17631992  0.74459534  1
  C  C97  1  0.47557611  0.31637074  0.74354579  1
  C  C98  1  0.82774081  0.52501527  0.74181284  1
  C  C99  1  0.68362926  0.52442389  0.24354579  1
  C  C100  1  0.82368008  0.31252849  0.24459534  1
  C  C101  1  0.47498473  0.17225919  0.24181284  1
  C  C102  1  0.64233376  0.49640564  0.92187937  1
  C  C103  1  0.86060987  0.36080996  0.92158377  1
  C  C104  1  0.51921707  0.15690749  0.92476948  1
  C  C105  1  0.63919004  0.13939013  0.42158377  1
  C  C106  1  0.50359436  0.35766624  0.42187937  1
  C  C107  1  0.84309251  0.48078293  0.42476948  1
  C  C108  1  0.35954621  0.50232333  0.07631113  1
  C  C109  1  0.15073770  0.64391182  0.07723422  1
  C  C110  1  0.50005514  0.85608377  0.07578924  1
  C  C111  1  0.35608818  0.84926230  0.57723422  1
  C  C112  1  0.49767667  0.64045379  0.57631113  1
  C  C113  1  0.14391623  0.49994486  0.57578924  1
  C  C114  1  0.30951622  0.83082651  0.25642781  1
  C  C115  1  0.52008759  0.69352184  0.25768427  1
  C  C116  1  0.17963080  0.48548627  0.25509277  1
  C  C117  1  0.30647816  0.47991241  0.75768427  1
  C  C118  1  0.16917349  0.69048378  0.75642781  1
  C  C119  1  0.51451373  0.82036920  0.75509277  1
