# generated using pymatgen
data_CuNi3C35
_symmetry_space_group_name_H-M   'P 1'
_cell_length_a   9.27502489
_cell_length_b   9.27162394
_cell_length_c   23.26940900
_cell_angle_alpha   89.88490907
_cell_angle_beta   89.95490892
_cell_angle_gamma   120.03562173
_symmetry_Int_Tables_number   1
_chemical_formula_structural   CuNi3C35
_chemical_formula_sum   'Cu3 Ni9 C105'
_cell_volume   1732.32378693
_cell_formula_units_Z   3
loop_
 _symmetry_equiv_pos_site_id
 _symmetry_equiv_pos_as_xyz
  1  'x, y, z'
loop_
 _atom_site_type_symbol
 _atom_site_label
 _atom_site_symmetry_multiplicity
 _atom_site_fract_x
 _atom_site_fract_y
 _atom_site_fract_z
 _atom_site_occupancy
  C  C0  1  0.64048209  0.00077672  0.25594466  1
  C  C1  1  0.36197057  0.36265351  0.25758434  1
  C  C2  1  0.99753339  0.63696768  0.25611238  1
  C  C3  1  0.64891781  0.64452837  0.74957247  1
  C  C4  1  0.99522951  0.35676308  0.74990665  1
  C  C5  1  0.03250008  0.69978755  0.57871476  1
  C  C6  1  0.66496171  0.96621759  0.57840142  1
  C  C7  1  0.66359489  0.69907520  0.07857422  1
  C  C8  1  0.03490078  0.33317936  0.07828786  1
  C  C9  1  0.01671153  0.01659234  0.49381461  1
  C  C10  1  0.01681834  0.00026976  0.99293909  1
  C  C11  1  0.64966553  0.31652998  0.83543243  1
  C  C12  1  0.66655159  0.33315452  0.34409012  1
  C  C13  1  0.33384694  0.68300375  0.16658111  1
  C  C14  1  0.33373959  0.66584474  0.66372380  1
  Ni  Ni15  1  0.99694911  0.99749228  0.35425669  1
  Ni  Ni16  1  0.00215938  0.99960732  0.85272583  1
  Ni  Ni17  1  0.01332097  0.00861934  0.65022904  1
  Ni  Ni18  1  0.00904366  0.99976601  0.14642275  1
  Ni  Ni19  1  0.65250158  0.32455499  0.68412906  1
  Ni  Ni20  1  0.66115973  0.32760341  0.18102241  1
  Ni  Ni21  1  0.33318161  0.67493339  0.01402579  1
  Ni  Ni22  1  0.33263851  0.65580911  0.51377149  1
  Ni  Ni23  1  0.33348268  0.66542612  0.32548878  1
  Cu  Cu24  1  0.66391544  0.33104403  0.97831850  1
  Cu  Cu25  1  0.66256347  0.33344206  0.48226634  1
  Cu  Cu26  1  0.33306413  0.67363438  0.82083046  1
  C  C27  1  0.29812231  0.99567176  0.25101296  1
  C  C28  1  0.69852884  0.70171923  0.24684942  1
  C  C29  1  0.00338495  0.30148508  0.24714154  1
  C  C30  1  0.29958019  0.31167948  0.75366901  1
  C  C31  1  0.00479504  0.69838374  0.74916210  1
  C  C32  1  0.69818054  0.99290664  0.74963009  1
  C  C33  1  0.95629045  0.33223065  0.58511725  1
  C  C34  1  0.36874375  0.03275275  0.58073018  1
  C  C35  1  0.67064114  0.63345186  0.58522822  1
  C  C36  1  0.95693174  0.62398000  0.08193245  1
  C  C37  1  0.67009632  0.03764172  0.08246314  1
  C  C38  1  0.37092397  0.33533321  0.08111502  1
  C  C39  1  0.62849970  0.65952921  0.91799027  1
  C  C40  1  0.03063394  0.37076922  0.91873693  1
  C  C41  1  0.34058472  0.97222710  0.91736854  1
  C  C42  1  0.63863178  0.97887906  0.41905702  1
  C  C43  1  0.33955548  0.35864431  0.41475345  1
  C  C44  1  0.02192935  0.66035736  0.41925275  1
  C  C45  1  0.21212141  0.02154231  0.30249094  1
  C  C46  1  0.81621319  0.79289762  0.29684689  1
  C  C47  1  0.97857443  0.18409508  0.29722388  1
  C  C48  1  0.21490518  0.20252069  0.80546303  1
  C  C49  1  0.97540898  0.79003138  0.79822902  1
  C  C50  1  0.81775646  0.02063239  0.79897887  1
  C  C51  1  0.76854950  0.96054189  0.69332659  1
  C  C52  1  0.19284938  0.23451140  0.69898630  1
  C  C53  1  0.03172633  0.79445381  0.69198740  1
  C  C54  1  0.77490024  0.79892334  0.18994005  1
  C  C55  1  0.02587048  0.22604986  0.19042790  1
  C  C56  1  0.19435581  0.97179114  0.19616570  1
  C  C57  1  0.88093906  0.35104438  0.64195470  1
  C  C58  1  0.46908444  0.11346658  0.63543567  1
  C  C59  1  0.65314829  0.54226306  0.64243513  1
  C  C60  1  0.88161293  0.53206450  0.13919064  1
  C  C61  1  0.65400123  0.11010254  0.14010026  1
  C  C62  1  0.46170125  0.35018075  0.13826797  1
  C  C63  1  0.47492087  0.32549109  0.03060547  1
  C  C64  1  0.84029989  0.51915327  0.03176266  1
  C  C65  1  0.67783362  0.15266927  0.03223868  1
  C  C66  1  0.46508089  0.14276080  0.52872817  1
  C  C67  1  0.67975050  0.52798265  0.53488658  1
  C  C68  1  0.83878732  0.31735498  0.53487430  1
  C  C69  1  0.54974058  0.67786144  0.97353942  1
  C  C70  1  0.12747679  0.44874208  0.97439849  1
  C  C71  1  0.32085499  0.87306319  0.97192502  1
  C  C72  1  0.54659563  0.87136675  0.47170205  1
  C  C73  1  0.32319235  0.45810989  0.46414945  1
  C  C74  1  0.12882022  0.67569695  0.47193354  1
  C  C75  1  0.10159941  0.63961473  0.36303994  1
  C  C76  1  0.53925699  0.89812159  0.36282655  1
  C  C77  1  0.36034861  0.45180297  0.35677362  1
  C  C78  1  0.12882663  0.48694663  0.86637945  1
  C  C79  1  0.35689332  0.87509789  0.86499486  1
  C  C80  1  0.51498918  0.64495640  0.86540103  1
  C  C81  1  0.99944211  0.81316585  0.41621037  1
  C  C82  1  0.81407205  0.00127693  0.41628745  1
  C  C83  1  0.18691244  0.18346521  0.41454770  1
  C  C84  1  0.00691670  0.19605186  0.91176833  1
  C  C85  1  0.18919343  0.99555555  0.91151265  1
  C  C86  1  0.80381100  0.81044871  0.91152087  1
  C  C87  1  0.96379698  0.16872531  0.58543679  1
  C  C88  1  0.19158314  0.00998864  0.58270929  1
  C  C89  1  0.83668425  0.80467050  0.58441447  1
  C  C90  1  0.96311220  0.79403237  0.08086322  1
  C  C91  1  0.83624662  0.03330095  0.08090284  1
  C  C92  1  0.19338521  0.18211279  0.08008262  1
  C  C93  1  0.68016669  0.14955624  0.74605958  1
  C  C94  1  0.48094066  0.34722933  0.74850425  1
  C  C95  1  0.84952750  0.51947394  0.74660524  1
  C  C96  1  0.67477003  0.52257527  0.24507264  1
  C  C97  1  0.84663505  0.32296832  0.24525789  1
  C  C98  1  0.47608383  0.15209314  0.24680136  1
  C  C99  1  0.63785578  0.49590529  0.92053911  1
  C  C100  1  0.85730153  0.36056811  0.92143724  1
  C  C101  1  0.50382547  0.14410005  0.91977237  1
  C  C102  1  0.65384513  0.15372952  0.42430188  1
  C  C103  1  0.50034948  0.34766017  0.42287064  1
  C  C104  1  0.84724316  0.50045740  0.42506616  1
  C  C105  1  0.35679138  0.49555304  0.07734639  1
  C  C106  1  0.12877063  0.63703148  0.07728668  1
  C  C107  1  0.52357331  0.85708215  0.07833057  1
  C  C108  1  0.35186050  0.85713401  0.57717642  1
  C  C109  1  0.52369991  0.66685801  0.57956306  1
  C  C110  1  0.12845646  0.49093888  0.57872287  1
  C  C111  1  0.31706276  0.83834922  0.25623967  1
  C  C112  1  0.52494669  0.68734585  0.25422412  1
  C  C113  1  0.16043810  0.47719112  0.25419861  1
  C  C114  1  0.31196995  0.48724330  0.76005342  1
  C  C115  1  0.15896452  0.67443718  0.75958493  1
  C  C116  1  0.52528810  0.83153207  0.76007260  1
