# generated using pymatgen
data_Cu6NiC12
_symmetry_space_group_name_H-M   'P 1'
_cell_length_a   5.25530177
_cell_length_b   5.21874989
_cell_length_c   8.78500094
_cell_angle_alpha   90.40653483
_cell_angle_beta   91.26634597
_cell_angle_gamma   95.98613414
_symmetry_Int_Tables_number   1
_chemical_formula_structural   Cu6NiC12
_chemical_formula_sum   'Cu6 Ni1 C12'
_cell_volume   239.55533366
_cell_formula_units_Z   1
loop_
 _symmetry_equiv_pos_site_id
 _symmetry_equiv_pos_as_xyz
  1  'x, y, z'
loop_
 _atom_site_type_symbol
 _atom_site_label
 _atom_site_symmetry_multiplicity
 _atom_site_fract_x
 _atom_site_fract_y
 _atom_site_fract_z
 _atom_site_occupancy
  Ni  Ni0  1  0.49459047  0.03789357  0.80772572  1
  Cu  Cu1  1  0.03083091  0.00867862  0.00784530  1
  Cu  Cu2  1  0.05334357  0.01935714  0.32754632  1
  Cu  Cu3  1  0.99046469  0.95284827  0.65400306  1
  Cu  Cu4  1  0.42511824  0.53554957  0.82972851  1
  Cu  Cu5  1  0.57297486  0.39749397  0.17303291  1
  Cu  Cu6  1  0.42977876  0.53524020  0.50509410  1
  C  C7  1  0.16137416  0.82932161  0.17153681  1
  C  C8  1  0.15629169  0.80358716  0.49377079  1
  C  C9  1  0.15683399  0.81331263  0.82950780  1
  C  C10  1  0.37939622  0.27239994  0.97624851  1
  C  C11  1  0.32567975  0.29219176  0.34298896  1
  C  C12  1  0.33288111  0.29401787  0.66994276  1
  C  C13  1  0.60820175  0.74638224  0.67199793  1
  C  C14  1  0.87515141  0.18426026  0.16703056  1
  C  C15  1  0.62929606  0.76373625  0.97800856  1
  C  C16  1  0.66806952  0.68129477  0.34084175  1
  C  C17  1  0.85502817  0.16508042  0.49411387  1
  C  C18  1  0.85469466  0.18124075  0.82331980  1
