# generated using pymatgen
data_Cu2Ni3C8
_symmetry_space_group_name_H-M   'P 1'
_cell_length_a   4.89060100
_cell_length_b   5.88488900
_cell_length_c   10.32220287
_cell_angle_alpha   88.91174136
_cell_angle_beta   90.00000000
_cell_angle_gamma   90.00000000
_symmetry_Int_Tables_number   1
_chemical_formula_structural   Cu2Ni3C8
_chemical_formula_sum   'Cu4 Ni6 C16'
_cell_volume   297.02606057
_cell_formula_units_Z   2
loop_
 _symmetry_equiv_pos_site_id
 _symmetry_equiv_pos_as_xyz
  1  'x, y, z'
loop_
 _atom_site_type_symbol
 _atom_site_label
 _atom_site_symmetry_multiplicity
 _atom_site_fract_x
 _atom_site_fract_y
 _atom_site_fract_z
 _atom_site_occupancy
  Ni  Ni0  1  0.00483200  0.25977400  0.77259500  1
  Ni  Ni1  1  0.50483200  0.74022600  0.72740500  1
  Ni  Ni2  1  0.49516800  0.25977400  0.27259500  1
  Ni  Ni3  1  0.99516800  0.74022600  0.22740500  1
  Ni  Ni4  1  0.50000000  0.00000000  0.00000000  1
  Ni  Ni5  1  0.00000000  0.00000000  0.50000000  1
  Cu  Cu6  1  0.55739200  0.24915700  0.59593000  1
  Cu  Cu7  1  0.05739200  0.75084300  0.90407000  1
  Cu  Cu8  1  0.44260800  0.75084300  0.40407000  1
  Cu  Cu9  1  0.94260800  0.24915700  0.09593000  1
  C  C10  1  0.72452000  0.03136700  0.66961500  1
  C  C11  1  0.22452000  0.96863300  0.83038500  1
  C  C12  1  0.27548000  0.96863300  0.33038500  1
  C  C13  1  0.77548000  0.03136700  0.16961500  1
  C  C14  1  0.19676700  0.54441400  0.81984300  1
  C  C15  1  0.69676700  0.45558600  0.68015700  1
  C  C16  1  0.80323300  0.45558600  0.18015700  1
  C  C17  1  0.30323300  0.54441400  0.31984300  1
  C  C18  1  0.72582800  0.76486300  0.89216100  1
  C  C19  1  0.22582800  0.23513700  0.60783900  1
  C  C20  1  0.66685900  0.24016000  0.44610900  1
  C  C21  1  0.16685900  0.75984000  0.05389100  1
  C  C22  1  0.33314100  0.75984000  0.55389100  1
  C  C23  1  0.27417200  0.23513700  0.10783900  1
  C  C24  1  0.77417200  0.76486300  0.39216100  1
  C  C25  1  0.83314100  0.24016000  0.94610900  1
