# generated using pymatgen
data_CuNiC5
_symmetry_space_group_name_H-M   'P 1'
_cell_length_a   6.72047000
_cell_length_b   6.98101745
_cell_length_c   7.09704047
_cell_angle_alpha   75.71615408
_cell_angle_beta   83.35935175
_cell_angle_gamma   88.17618720
_symmetry_Int_Tables_number   1
_chemical_formula_structural   CuNiC5
_chemical_formula_sum   'Cu4 Ni4 C20'
_cell_volume   320.50264498
_cell_formula_units_Z   4
loop_
 _symmetry_equiv_pos_site_id
 _symmetry_equiv_pos_as_xyz
  1  'x, y, z'
loop_
 _atom_site_type_symbol
 _atom_site_label
 _atom_site_symmetry_multiplicity
 _atom_site_fract_x
 _atom_site_fract_y
 _atom_site_fract_z
 _atom_site_occupancy
  C  C0  1  0.55793800  0.69864900  0.27490600  1
  C  C1  1  0.44101500  0.29017900  0.72992200  1
  C  C2  1  0.15933000  0.83892200  0.67166600  1
  C  C3  1  0.83502300  0.18940700  0.33369000  1
  Ni  Ni4  1  0.61957700  0.79199600  0.71675600  1
  Ni  Ni5  1  0.37860100  0.20447400  0.27714200  1
  Ni  Ni6  1  0.04793400  0.69275200  0.20607400  1
  Ni  Ni7  1  0.94143200  0.28959900  0.78858300  1
  Cu  Cu8  1  0.11928900  0.52968500  0.53916900  1
  Cu  Cu9  1  0.26573600  0.46334100  0.04832000  1
  Cu  Cu10  1  0.74181700  0.54332100  0.94609100  1
  Cu  Cu11  1  0.00300100  0.99101300  0.02270400  1
  C  C12  1  0.78896600  0.27716800  0.64994400  1
  C  C13  1  0.19365900  0.68468500  0.36297900  1
  C  C14  1  0.07764500  0.10357200  0.83275700  1
  C  C15  1  0.94414400  0.90631600  0.16171900  1
  C  C16  1  0.66286200  0.67537500  0.93489100  1
  C  C17  1  0.33986000  0.32755700  0.05980300  1
  C  C18  1  0.50656500  0.64912900  0.62876100  1
  C  C19  1  0.48721000  0.34438100  0.37198800  1
  C  C20  1  0.81926500  0.86210600  0.59612700  1
  C  C21  1  0.17720900  0.13477400  0.39512600  1
  C  C22  1  0.47420200  0.95940500  0.74332000  1
  C  C23  1  0.52262000  0.03673500  0.24924500  1
  C  C24  1  0.16778800  0.66671600  0.01516800  1
  C  C25  1  0.84473400  0.33813900  0.97779300  1
  C  C26  1  0.87733500  0.54523000  0.28470700  1
  C  C27  1  0.10374300  0.46257300  0.68875100  1
