# generated using pymatgen
data_Cu2NiC8
_symmetry_space_group_name_H-M   'P 1'
_cell_length_a   8.04135161
_cell_length_b   8.04135178
_cell_length_c   8.04135197
_cell_angle_alpha   39.66361657
_cell_angle_beta   39.66361328
_cell_angle_gamma   39.66362409
_symmetry_Int_Tables_number   1
_chemical_formula_structural   Cu2NiC8
_chemical_formula_sum   'Cu2 Ni1 C8'
_cell_volume   190.75088917
_cell_formula_units_Z   1
loop_
 _symmetry_equiv_pos_site_id
 _symmetry_equiv_pos_as_xyz
  1  'x, y, z'
loop_
 _atom_site_type_symbol
 _atom_site_label
 _atom_site_symmetry_multiplicity
 _atom_site_fract_x
 _atom_site_fract_y
 _atom_site_fract_z
 _atom_site_occupancy
  Ni  Ni0  1  0.00000000  0.00000000  0.00000000  1
  Cu  Cu1  1  0.62377800  0.62377800  0.62377800  1
  Cu  Cu2  1  0.37622200  0.37622200  0.37622200  1
  C  C3  1  0.83169900  0.83169900  0.83169900  1
  C  C4  1  0.16830100  0.16830100  0.16830100  1
  C  C5  1  0.83689100  0.44484700  0.06374600  1
  C  C6  1  0.44484700  0.06374600  0.83689100  1
  C  C7  1  0.06374600  0.83689100  0.44484700  1
  C  C8  1  0.16310900  0.55515300  0.93625400  1
  C  C9  1  0.93625400  0.16310900  0.55515300  1
  C  C10  1  0.55515300  0.93625400  0.16310900  1
