# generated using pymatgen
data_CuNiC3
_symmetry_space_group_name_H-M   'P 1'
_cell_length_a   11.81509226
_cell_length_b   12.06875600
_cell_length_c   11.94371549
_cell_angle_alpha   90.00000000
_cell_angle_beta   90.01669477
_cell_angle_gamma   90.00000000
_symmetry_Int_Tables_number   1
_chemical_formula_structural   CuNiC3
_chemical_formula_sum   'Cu8 Ni8 C24'
_cell_volume   1703.09571183
_cell_formula_units_Z   8
loop_
 _symmetry_equiv_pos_site_id
 _symmetry_equiv_pos_as_xyz
  1  'x, y, z'
loop_
 _atom_site_type_symbol
 _atom_site_label
 _atom_site_symmetry_multiplicity
 _atom_site_fract_x
 _atom_site_fract_y
 _atom_site_fract_z
 _atom_site_occupancy
  C  C0  1  0.23365100  0.25000000  0.99165200  1
  C  C1  1  0.76634900  0.75000000  0.00834800  1
  C  C2  1  0.75767900  0.25000000  0.99352300  1
  C  C3  1  0.24232100  0.75000000  0.00647700  1
  C  C4  1  0.24502300  0.25000000  0.51453200  1
  C  C5  1  0.75497700  0.75000000  0.48546800  1
  C  C6  1  0.74781400  0.25000000  0.50543600  1
  C  C7  1  0.25218600  0.75000000  0.49456400  1
  Ni  Ni8  1  0.93912600  0.45992900  0.24892000  1
  Ni  Ni9  1  0.06087400  0.95992900  0.75108000  1
  Ni  Ni10  1  0.06087400  0.54007100  0.75108000  1
  Ni  Ni11  1  0.93912600  0.04007100  0.24892000  1
  Ni  Ni12  1  0.50657500  0.49722200  0.20999500  1
  Ni  Ni13  1  0.49342500  0.99722200  0.79000500  1
  Ni  Ni14  1  0.49342500  0.50277800  0.79000500  1
  Ni  Ni15  1  0.50657500  0.00277800  0.20999500  1
  Cu  Cu16  1  0.97394000  0.25000000  0.24499400  1
  Cu  Cu17  1  0.02606000  0.75000000  0.75500600  1
  Cu  Cu18  1  0.25770600  0.50596000  0.74440700  1
  Cu  Cu19  1  0.74229400  0.00596000  0.25559300  1
  Cu  Cu20  1  0.74229400  0.49404000  0.25559300  1
  Cu  Cu21  1  0.25770600  0.99404000  0.74440700  1
  Cu  Cu22  1  0.50000000  0.00000000  0.00000000  1
  Cu  Cu23  1  0.50000000  0.50000000  0.00000000  1
  C  C24  1  0.26073900  0.49691300  0.23796900  1
  C  C25  1  0.73926100  0.99691300  0.76203100  1
  C  C26  1  0.73926100  0.50308700  0.76203100  1
  C  C27  1  0.26073900  0.00308700  0.23796900  1
  C  C28  1  0.00000000  0.00000000  0.00000000  1
  C  C29  1  0.00000000  0.50000000  0.00000000  1
  C  C30  1  0.00528300  0.25000000  0.74999200  1
  C  C31  1  0.99471700  0.75000000  0.25000800  1
  C  C32  1  0.00000000  0.00000000  0.50000000  1
  C  C33  1  0.00000000  0.50000000  0.50000000  1
  C  C34  1  0.51300600  0.25000000  0.24374700  1
  C  C35  1  0.48699400  0.75000000  0.75625300  1
  C  C36  1  0.48423300  0.25000000  0.76063800  1
  C  C37  1  0.51576700  0.75000000  0.23936200  1
  C  C38  1  0.50000000  0.00000000  0.50000000  1
  C  C39  1  0.50000000  0.50000000  0.50000000  1
