# generated using pymatgen
data_Cu4Ni4C7
_symmetry_space_group_name_H-M   'P 1'
_cell_length_a   16.45504919
_cell_length_b   16.45504919
_cell_length_c   16.45504919
_cell_angle_alpha   168.99187448
_cell_angle_beta   168.70517151
_cell_angle_gamma   15.79695676
_symmetry_Int_Tables_number   1
_chemical_formula_structural   Cu4Ni4C7
_chemical_formula_sum   'Cu4 Ni4 C7'
_cell_volume   166.62260498
_cell_formula_units_Z   1
loop_
 _symmetry_equiv_pos_site_id
 _symmetry_equiv_pos_as_xyz
  1  'x, y, z'
loop_
 _atom_site_type_symbol
 _atom_site_label
 _atom_site_symmetry_multiplicity
 _atom_site_fract_x
 _atom_site_fract_y
 _atom_site_fract_z
 _atom_site_occupancy
  C  C0  1  0.00000000  0.00000000  0.00000000  1
  C  C1  1  0.08169000  0.58169000  0.50000000  1
  C  C2  1  0.91831000  0.41831000  0.50000000  1
  C  C3  1  0.21434600  0.71434600  0.50000000  1
  C  C4  1  0.78565400  0.28565400  0.50000000  1
  C  C5  1  0.64787000  0.14787000  0.50000000  1
  C  C6  1  0.35213000  0.85213000  0.50000000  1
  Ni  Ni7  1  0.47160800  0.47160800  0.00000000  1
  Ni  Ni8  1  0.44317100  0.94317100  0.50000000  1
  Ni  Ni9  1  0.55682900  0.05682900  0.50000000  1
  Ni  Ni10  1  0.52839200  0.52839200  0.00000000  1
  Cu  Cu11  1  0.71530800  0.21530800  0.50000000  1
  Cu  Cu12  1  0.85279900  0.35279900  0.50000000  1
  Cu  Cu13  1  0.28469200  0.78469200  0.50000000  1
  Cu  Cu14  1  0.14720100  0.64720100  0.50000000  1
