# generated using pymatgen
data_CuNiC33
_symmetry_space_group_name_H-M   'P 1'
_cell_length_a   8.83158122
_cell_length_b   8.82596531
_cell_length_c   22.87074086
_cell_angle_alpha   89.88515064
_cell_angle_beta   90.08836286
_cell_angle_gamma   120.07235856
_symmetry_Int_Tables_number   1
_chemical_formula_structural   CuNiC33
_chemical_formula_sum   'Cu3 Ni3 C99'
_cell_volume   1542.74259772
_cell_formula_units_Z   3
loop_
 _symmetry_equiv_pos_site_id
 _symmetry_equiv_pos_as_xyz
  1  'x, y, z'
loop_
 _atom_site_type_symbol
 _atom_site_label
 _atom_site_symmetry_multiplicity
 _atom_site_fract_x
 _atom_site_fract_y
 _atom_site_fract_z
 _atom_site_occupancy
  Ni  Ni0  1  0.00060090  0.99980232  0.99407442  1
  Ni  Ni1  1  0.66486833  0.33233825  0.83836714  1
  Ni  Ni2  1  0.66648645  0.33313384  0.33740068  1
  Cu  Cu3  1  0.00518934  0.00282224  0.85461427  1
  Cu  Cu4  1  0.66642220  0.33360715  0.97766334  1
  Cu  Cu5  1  0.66659763  0.33431507  0.47947465  1
  C  C6  1  0.99462052  0.99806255  0.35854474  1
  C  C7  1  0.00317717  0.00428912  0.64598156  1
  C  C8  1  0.99740969  0.00127634  0.14646767  1
  C  C9  1  0.66485330  0.33359744  0.68706234  1
  C  C10  1  0.66873822  0.33563672  0.18772982  1
  C  C11  1  0.33342249  0.66633405  0.02217250  1
  C  C12  1  0.33297933  0.66573295  0.52325914  1
  C  C13  1  0.33293813  0.66519635  0.30808394  1
  C  C14  1  0.33350420  0.66519166  0.80941846  1
  C  C15  1  0.71650551  0.71397079  0.25129464  1
  C  C16  1  0.99652237  0.28254751  0.25092805  1
  C  C17  1  0.28698592  0.28528397  0.75192595  1
  C  C18  1  0.28421135  0.00265525  0.25114255  1
  C  C19  1  0.99861331  0.71346897  0.75090617  1
  C  C20  1  0.71536973  0.00176229  0.75070037  1
  C  C21  1  0.95209425  0.33175166  0.58216941  1
  C  C22  1  0.37892971  0.04628831  0.58226600  1
  C  C23  1  0.66883342  0.62175307  0.58218798  1
  C  C24  1  0.95404880  0.62203267  0.08212305  1
  C  C25  1  0.66733028  0.04685293  0.08223644  1
  C  C26  1  0.37879934  0.33126352  0.08209354  1
  C  C27  1  0.62027668  0.66737294  0.91653006  1
  C  C28  1  0.04625216  0.38030070  0.91651988  1
  C  C29  1  0.33302699  0.95299904  0.91644835  1
  C  C30  1  0.61565763  0.95198777  0.41614066  1
  C  C31  1  0.33478444  0.38286597  0.41591691  1
  C  C32  1  0.04914989  0.66600371  0.41592822  1
  C  C33  1  0.20238067  0.03516598  0.30527483  1
  C  C34  1  0.83995238  0.80310121  0.30825191  1
  C  C35  1  0.96749130  0.16038945  0.30781071  1
  C  C36  1  0.20982374  0.16618989  0.80799137  1
  C  C37  1  0.95631454  0.78390775  0.80442994  1
  C  C38  1  0.82675012  0.03883830  0.80428933  1
  C  C39  1  0.79954574  0.97182482  0.69548258  1
  C  C40  1  0.16658872  0.19272668  0.69335506  1
  C  C41  1  0.02474031  0.82688286  0.69573045  1
  C  C42  1  0.80829740  0.83304866  0.19356992  1
  C  C43  1  0.02967108  0.19529658  0.19318780  1
  C  C44  1  0.17221451  0.97233874  0.19595633  1
  C  C45  1  0.86903345  0.36436100  0.63668171  1
  C  C46  1  0.49685971  0.13239162  0.63677934  1
  C  C47  1  0.63619632  0.50250321  0.63660848  1
  C  C48  1  0.86475904  0.50586181  0.13763147  1
  C  C49  1  0.64095291  0.13363983  0.13756977  1
  C  C50  1  0.49315682  0.35836177  0.13750819  1
  C  C51  1  0.45801502  0.29826039  0.02868081  1
  C  C52  1  0.84034983  0.54391676  0.02896548  1
  C  C53  1  0.70265617  0.15960097  0.02875575  1
  C  C54  1  0.45592228  0.15861061  0.52870123  1
  C  C55  1  0.70182839  0.54340165  0.52865618  1
  C  C56  1  0.84151596  0.29942467  0.52836114  1
  C  C57  1  0.52267834  0.68367493  0.97193238  1
  C  C58  1  0.16091567  0.47669957  0.97196265  1
  C  C59  1  0.31700249  0.83886443  0.97208506  1
  C  C60  1  0.52904544  0.83807191  0.47137297  1
  C  C61  1  0.30821123  0.47008736  0.47098491  1
  C  C62  1  0.16247180  0.69058476  0.47125579  1
  C  C63  1  0.14113132  0.64427867  0.36209346  1
  C  C64  1  0.50289871  0.86096040  0.36213930  1
  C  C65  1  0.35679989  0.49852255  0.36195113  1
  C  C66  1  0.14226659  0.49508356  0.86186743  1
  C  C67  1  0.35184263  0.85899854  0.86186634  1
  C  C68  1  0.50581401  0.64929493  0.86177352  1
  C  C69  1  0.03915584  0.83578076  0.40778157  1
  C  C70  1  0.79718920  0.96310457  0.40862021  1
  C  C71  1  0.16768297  0.20176279  0.40727130  1
  C  C72  1  0.03507203  0.20254020  0.91404642  1
  C  C73  1  0.16454053  0.96089468  0.91480181  1
  C  C74  1  0.79716763  0.83422502  0.91369049  1
  C  C75  1  0.97650922  0.17226974  0.59476992  1
  C  C76  1  0.19427525  0.01764639  0.59552840  1
  C  C77  1  0.82440927  0.80447057  0.59605402  1
  C  C78  1  0.98224769  0.80819196  0.09321040  1
  C  C79  1  0.82845393  0.02076385  0.09248384  1
  C  C80  1  0.19334040  0.17043250  0.09259678  1
  C  C81  1  0.69093876  0.16284663  0.73786230  1
  C  C82  1  0.48369730  0.31472798  0.73740692  1
  C  C83  1  0.84106237  0.52554828  0.73788750  1
  C  C84  1  0.68977896  0.51899221  0.24059170  1
  C  C85  1  0.82409429  0.30203176  0.24052438  1
  C  C86  1  0.46849297  0.16390285  0.24116384  1
  C  C87  1  0.62948550  0.49959404  0.92068821  1
  C  C88  1  0.86929726  0.37081495  0.92066866  1
  C  C89  1  0.49965581  0.13137945  0.92110590  1
  C  C90  1  0.63859231  0.13397447  0.42123800  1
  C  C91  1  0.49623018  0.36402039  0.42088422  1
  C  C92  1  0.86747049  0.50576545  0.42114086  1
  C  C93  1  0.35798408  0.49449055  0.07443879  1
  C  C94  1  0.13640316  0.63978139  0.07467804  1
  C  C95  1  0.50501341  0.86229040  0.07463417  1
  C  C96  1  0.35905627  0.86167766  0.57331951  1
  C  C97  1  0.50329256  0.64032384  0.57310826  1
  C  C98  1  0.13853360  0.49497768  0.57311100  1
  C  C99  1  0.30487518  0.84113253  0.26080347  1
  C  C100  1  0.52695712  0.69655846  0.26184826  1
  C  C101  1  0.16437699  0.47570500  0.26168969  1
  C  C102  1  0.31074403  0.48042275  0.76004367  1
  C  C103  1  0.16251706  0.69451490  0.75889009  1
  C  C104  1  0.52944620  0.84144540  0.75879575  1
