# generated using pymatgen
data_Cu2NiC12
_symmetry_space_group_name_H-M   'P 1'
_cell_length_a   6.05664673
_cell_length_b   5.94315599
_cell_length_c   8.13370951
_cell_angle_alpha   89.99986660
_cell_angle_beta   87.56737709
_cell_angle_gamma   119.37917017
_symmetry_Int_Tables_number   1
_chemical_formula_structural   Cu2NiC12
_chemical_formula_sum   'Cu2 Ni1 C12'
_cell_volume   254.82138723
_cell_formula_units_Z   1
loop_
 _symmetry_equiv_pos_site_id
 _symmetry_equiv_pos_as_xyz
  1  'x, y, z'
loop_
 _atom_site_type_symbol
 _atom_site_label
 _atom_site_symmetry_multiplicity
 _atom_site_fract_x
 _atom_site_fract_y
 _atom_site_fract_z
 _atom_site_occupancy
  C  C0  1  0.59113500  0.29554800  0.25713600  1
  C  C1  1  0.40886500  0.70445200  0.74286400  1
  C  C2  1  0.00000000  0.00000000  0.00000000  1
  Ni  Ni3  1  0.00000000  0.50000000  0.50000000  1
  C  C4  1  0.00000000  0.00000000  0.50000000  1
  Cu  Cu5  1  0.61081900  0.30541400  0.74324400  1
  Cu  Cu6  1  0.38918100  0.69458600  0.25675600  1
  C  C7  1  0.66400400  0.33198400  0.94865500  1
  C  C8  1  0.33599600  0.66801600  0.05134500  1
  C  C9  1  0.80648600  0.63405900  0.62773800  1
  C  C10  1  0.28632200  0.14317300  0.68678800  1
  C  C11  1  0.80646900  0.17242500  0.62772100  1
  C  C12  1  0.19351400  0.36594100  0.37226200  1
  C  C13  1  0.71367800  0.85682700  0.31321200  1
  C  C14  1  0.19353100  0.82757500  0.37227900  1
