# generated using pymatgen
data_Cu3Ni3C29
_symmetry_space_group_name_H-M   'P 1'
_cell_length_a   18.22797551
_cell_length_b   9.12733665
_cell_length_c   23.73947119
_cell_angle_alpha   89.73635044
_cell_angle_beta   90.05688643
_cell_angle_gamma   120.21119546
_symmetry_Int_Tables_number   1
_chemical_formula_structural   Cu3Ni3C29
_chemical_formula_sum   'Cu18 Ni18 C174'
_cell_volume   3413.11475238
_cell_formula_units_Z   6
loop_
 _symmetry_equiv_pos_site_id
 _symmetry_equiv_pos_as_xyz
  1  'x, y, z'
loop_
 _atom_site_type_symbol
 _atom_site_label
 _atom_site_symmetry_multiplicity
 _atom_site_fract_x
 _atom_site_fract_y
 _atom_site_fract_z
 _atom_site_occupancy
  C  C0  1  0.98849801  0.95282495  0.50162435  1
  C  C1  1  0.50389086  0.99787024  0.99866158  1
  C  C2  1  0.33984859  0.29991382  0.83678714  1
  C  C3  1  0.83507337  0.34652938  0.83475472  1
  C  C4  1  0.31853521  0.30027007  0.33608076  1
  C  C5  1  0.83657703  0.34880046  0.34594539  1
  C  C6  1  0.00788593  -0.00006497  0.35334724  1
  C  C7  1  0.50225655  0.02601676  0.85096827  1
  C  C8  1  0.99857449  0.00587137  0.65864392  1
  C  C9  1  0.48859032  0.97012945  0.14869221  1
  C  C10  1  0.33488738  0.33522808  0.97358409  1
  C  C11  1  0.84076003  0.33276088  0.97457822  1
  C  C12  1  0.33827175  0.34359230  0.48001952  1
  C  C13  1  0.82855376  0.34188325  0.48126955  1
  C  C14  1  0.67582541  0.66636382  0.30471546  1
  C  C15  1  0.49004759  0.99103614  0.36174356  1
  C  C16  1  0.00582128  0.01005236  0.86289624  1
  C  C17  1  0.49841172  0.00127721  0.64956974  1
  C  C18  1  0.00742742  0.02346432  0.15189915  1
  C  C19  1  0.32219239  0.33271314  0.68890145  1
  C  C20  1  0.82639301  0.32729812  0.67691853  1
  C  C21  1  0.33943959  0.35847647  0.18895064  1
  C  C22  1  0.83441784  0.31793379  0.18158173  1
  C  C23  1  0.15549921  0.66493245  0.01650152  1
  C  C24  1  0.67204821  0.66717702  0.02236631  1
  C  C25  1  0.17607924  0.68214736  0.51954722  1
  C  C26  1  0.66772606  0.65222828  0.52579930  1
  C  C27  1  0.16201413  0.68009162  0.30549597  1
  C  C28  1  0.16850026  0.67330325  0.80749019  1
  C  C29  1  0.66452818  0.64110487  0.81118709  1
  Ni  Ni30  1  0.15263608  0.01207270  0.24578793  1
  Ni  Ni31  1  0.35058712  0.70209063  0.25760999  1
  Ni  Ni32  1  0.99666599  0.29212116  0.25340972  1
  Ni  Ni33  1  0.14730888  0.29439933  0.75592205  1
  Ni  Ni34  1  0.65058412  0.29204174  0.74769515  1
  Ni  Ni35  1  0.35335331  0.00894712  0.74791742  1
  Ni  Ni36  1  0.67834232  0.02251093  0.58309791  1
  Ni  Ni37  1  0.33355575  0.62970122  0.58553992  1
  Ni  Ni38  1  0.83672806  0.64020536  0.58099562  1
  Ni  Ni39  1  0.48679324  0.62268610  0.08009843  1
  Ni  Ni40  1  0.83768719  0.03506648  0.08277408  1
  Ni  Ni41  1  0.81006157  0.67287828  0.91336747  1
  Ni  Ni42  1  0.02937818  0.38369742  0.91137011  1
  Ni  Ni43  1  0.52843747  0.38499764  0.91842353  1
  Ni  Ni44  1  0.16227760  0.94364705  0.90999146  1
  Ni  Ni45  1  0.30334430  0.94986234  0.41082876  1
  Ni  Ni46  1  0.65840559  0.36833497  0.41534032  1
  Ni  Ni47  1  0.02827378  0.66660151  0.41644557  1
  Cu  Cu48  1  0.65741677  0.03628899  0.25154110  1
  Cu  Cu49  1  0.86042401  0.69666241  0.23929036  1
  Cu  Cu50  1  0.48543166  0.27878987  0.25105830  1
  Cu  Cu51  1  0.99477435  0.68620407  0.75465642  1
  Cu  Cu52  1  0.49680075  0.69417863  0.74810899  1
  Cu  Cu53  1  0.84649723  0.00970059  0.75677685  1
  Cu  Cu54  1  0.48201901  0.32953855  0.58656721  1
  Cu  Cu55  1  0.98874120  0.35352660  0.58443507  1
  Cu  Cu56  1  0.18745155  0.02892756  0.58459026  1
  Cu  Cu57  1  0.98341071  0.63694918  0.08540901  1
  Cu  Cu58  1  0.32072614  0.02006970  0.08040190  1
  Cu  Cu59  1  0.18710495  0.34394263  0.08657035  1
  Cu  Cu60  1  0.69155093  0.34643570  0.08344812  1
  Cu  Cu61  1  0.30255614  0.67766560  0.91811445  1
  Cu  Cu62  1  0.66170880  0.93056772  0.91679546  1
  Cu  Cu63  1  0.81196595  0.93958015  0.42444891  1
  Cu  Cu64  1  0.16404761  0.39255288  0.41843854  1
  Cu  Cu65  1  0.52592412  0.68564402  0.41364336  1
  C  C66  1  0.12664423  0.06903410  0.30241851  1
  C  C67  1  0.61557915  0.05920755  0.30090396  1
  C  C68  1  0.42473094  0.80750839  0.30619464  1
  C  C69  1  0.89902912  0.74664365  0.29515587  1
  C  C70  1  0.47559313  0.17127619  0.30090566  1
  C  C71  1  0.96309642  0.16703561  0.30585342  1
  C  C72  1  0.09296678  0.15079231  0.80539296  1
  C  C73  1  0.62580347  0.19001371  0.80585868  1
  C  C74  1  0.47234405  0.74614076  0.79971456  1
  C  C75  1  0.98274348  0.77484685  0.80262753  1
  C  C76  1  0.40619214  0.07043774  0.80543261  1
  C  C77  1  0.90759328  0.03658350  0.80254410  1
  C  C78  1  0.40695666  0.97986113  0.69825980  1
  C  C79  1  0.87063843  0.96081129  0.70415231  1
  C  C80  1  0.09959591  0.24327233  0.69735913  1
  C  C81  1  0.58191590  0.18700619  0.69826214  1
  C  C82  1  0.01395085  0.78270345  0.70199851  1
  C  C83  1  0.50975853  0.80789876  0.70019214  1
  C  C84  1  0.37694243  0.79951399  0.19887004  1
  C  C85  1  0.91508981  0.81584849  0.19498183  1
  C  C86  1  0.01111628  0.18906015  0.19954996  1
  C  C87  1  0.49973894  0.21336579  0.19894116  1
  C  C88  1  0.08626846  0.98537696  0.19444564  1
  C  C89  1  0.61125135  0.01250372  0.19902596  1
  C  C90  1  0.43838183  0.35877108  0.63360721  1
  C  C91  1  0.94022313  0.36450905  0.63534824  1
  C  C92  1  0.24050958  0.12431250  0.63491292  1
  C  C93  1  0.75339279  0.13370402  0.63605442  1
  C  C94  1  0.31533050  0.49070960  0.63885078  1
  C  C95  1  0.82784822  0.50233835  0.63322722  1
  C  C96  1  0.43113636  0.50213402  0.13896716  1
  C  C97  1  0.93893105  0.51138802  0.13205801  1
  C  C98  1  0.31241749  0.10415098  0.13086861  1
  C  C99  1  0.81694325  0.13737569  0.13665946  1
  C  C100  1  0.24593186  0.37382705  0.13517575  1
  C  C101  1  0.74600972  0.35926028  0.13364697  1
  C  C102  1  0.21391525  0.29409893  0.03619389  1
  C  C103  1  0.72678032  0.31577252  0.03242800  1
  C  C104  1  0.42282356  0.53468886  0.02925839  1
  C  C105  1  0.93389342  0.58301669  0.03347619  1
  C  C106  1  0.32992508  0.11655206  0.02875365  1
  C  C107  1  0.86785992  0.16648212  0.03207029  1
  C  C108  1  0.22359166  0.12873217  0.53304474  1
  C  C109  1  0.71213529  0.14580577  0.53087815  1
  C  C110  1  0.35860109  0.56066568  0.53156328  1
  C  C111  1  0.85633193  0.58223223  0.52335564  1
  C  C112  1  0.43357592  0.28568502  0.53403917  1
  C  C113  1  0.93755736  0.32050605  0.53374767  1
  C  C114  1  0.25231734  0.67506074  0.97030528  1
  C  C115  1  0.76484642  0.69125575  0.97061415  1
  C  C116  1  0.07706365  0.47522993  0.97366897  1
  C  C117  1  0.58920838  0.50276544  0.97080210  1
  C  C118  1  0.15348854  0.83007188  0.97030121  1
  C  C119  1  0.66750259  0.85190949  0.97094841  1
  C  C120  1  0.26334394  0.84749106  0.47194503  1
  C  C121  1  0.75465993  0.83453188  0.47328129  1
  C  C122  1  0.17147823  0.48731482  0.47267041  1
  C  C123  1  0.65060391  0.47244772  0.47243233  1
  C  C124  1  0.08769781  0.66901469  0.47265689  1
  C  C125  1  0.56840376  0.69037604  0.46671552  1
  C  C126  1  0.08052643  0.67553752  0.35736413  1
  C  C127  1  0.57076228  0.67972565  0.36319510  1
  C  C128  1  0.24906583  0.84589166  0.35695083  1
  C  C129  1  0.77186658  0.85688370  0.37091620  1
  C  C130  1  0.15940432  0.48244991  0.36891424  1
  C  C131  1  0.66702700  0.47805199  0.36012909  1
  C  C132  1  0.09004243  0.50348346  0.86174855  1
  C  C133  1  0.57968338  0.47879327  0.85723087  1
  C  C134  1  0.16831547  0.84172564  0.85657163  1
  C  C135  1  0.65828901  0.83007963  0.86673891  1
  C  C136  1  0.26483716  0.69824009  0.86590569  1
  C  C137  1  0.75181234  0.66163646  0.85680148  1
  C  C138  1  0.02569325  0.84123102  0.42138593  1
  C  C139  1  0.52330704  0.85146988  0.40951472  1
  C  C140  1  0.39681000  0.95358102  0.40332335  1
  C  C141  1  0.89335634  0.94437113  0.43174356  1
  C  C142  1  0.08676108  0.22447989  0.42475058  1
  C  C143  1  0.56632844  0.18520070  0.40335446  1
  C  C144  1  0.02544312  0.19759913  0.90676231  1
  C  C145  1  0.52219247  0.20259735  0.92466763  1
  C  C146  1  0.07100419  0.94173386  0.90528111  1
  C  C147  1  0.58336511  0.94064335  0.91991913  1
  C  C148  1  0.38840816  0.82310967  0.92524108  1
  C  C149  1  0.90132144  0.84945595  0.89859681  1
  C  C150  1  0.49983418  0.18942959  0.59942932  1
  C  C151  1  0.00476306  0.21240279  0.59278055  1
  C  C152  1  0.09981734  0.99087040  0.59174850  1
  C  C153  1  0.58871255  0.99632123  0.60850807  1
  C  C154  1  0.41070468  0.81428587  0.60713594  1
  C  C155  1  0.90599234  0.83223773  0.59437744  1
  C  C156  1  0.50809778  0.81626411  0.08550363  1
  C  C157  1  0.00329904  0.80823309  0.10082580  1
  C  C158  1  0.39417255  0.99289789  0.08333890  1
  C  C159  1  0.91431439  0.00543016  0.10696341  1
  C  C160  1  0.09970992  0.19675774  0.10115644  1
  C  C161  1  0.60356107  0.21036016  0.09180169  1
  C  C162  1  0.33764507  0.16373046  0.72581429  1
  C  C163  1  0.84367401  0.17013696  0.74788655  1
  C  C164  1  0.24322475  0.30803841  0.74508994  1
  C  C165  1  0.74569526  0.32478391  0.72779149  1
  C  C166  1  0.42366356  0.51620171  0.73354890  1
  C  C167  1  0.91858565  0.51433556  0.74829939  1
  C  C168  1  0.34735942  0.51280343  0.24394106  1
  C  C169  1  0.85008918  0.52785836  0.22666291  1
  C  C170  1  0.40249060  0.28192616  0.24555040  1
  C  C171  1  0.91765537  0.32020588  0.22801733  1
  C  C172  1  0.24440313  0.16872583  0.22301654  1
  C  C173  1  0.74506611  0.20063880  0.24420498  1
  C  C174  1  0.29959476  0.51461435  0.91567985  1
  C  C175  1  0.82005280  0.50869776  0.91220047  1
  C  C176  1  0.43963967  0.38107971  0.91105633  1
  C  C177  1  0.93724022  0.36204628  0.90802294  1
  C  C178  1  0.24135653  0.12987928  0.91032216  1
  C  C179  1  0.73829977  0.10082929  0.91201002  1
  C  C180  1  0.32131585  0.14038875  0.41174369  1
  C  C181  1  0.82093870  0.10706710  0.42473739  1
  C  C182  1  0.24072357  0.37499628  0.41474693  1
  C  C183  1  0.73374039  0.32731999  0.41542043  1
  C  C184  1  0.43741652  0.54431263  0.41197213  1
  C  C185  1  0.93806200  0.49546374  0.41305589  1
  C  C186  1  0.17784958  0.49444501  0.07808610  1
  C  C187  1  0.69479231  0.51298562  0.07921553  1
  C  C188  1  0.06699954  0.64035118  0.07604433  1
  C  C189  1  0.57762128  0.62575470  0.07152774  1
  C  C190  1  0.24151114  0.84654494  0.07341629  1
  C  C191  1  0.75150354  0.85643418  0.07086901  1
  C  C192  1  0.18942679  0.86717653  0.58016165  1
  C  C193  1  0.66912196  0.83592917  0.56958535  1
  C  C194  1  0.24858928  0.64330132  0.57105664  1
  C  C195  1  0.74160167  0.63056203  0.57423260  1
  C  C196  1  0.07102245  0.51605750  0.57970970  1
  C  C197  1  0.56600996  0.48774060  0.57735221  1
  C  C198  1  0.16206726  0.84298772  0.25389511  1
  C  C199  1  0.67710962  0.90052138  0.25871655  1
  C  C200  1  0.25544721  0.64885140  0.27624952  1
  C  C201  1  0.77698801  0.68510998  0.23521160  1
  C  C202  1  0.07832255  0.47800649  0.26217755  1
  C  C203  1  0.55266780  0.45573310  0.25876417  1
  C  C204  1  0.17274758  0.48671506  0.77306297  1
  C  C205  1  0.66340871  0.48619845  0.75690790  1
  C  C206  1  0.06972910  0.66091989  0.76460092  1
  C  C207  1  0.57333090  0.67851481  0.75600297  1
  C  C208  1  0.25893175  0.83974919  0.75901719  1
  C  C209  1  0.75824935  0.87195445  0.77109967  1
