# generated using pymatgen
data_Cu3Ni7C31
_symmetry_space_group_name_H-M   'P 1'
_cell_length_a   9.12632277
_cell_length_b   9.11936700
_cell_length_c   22.55565566
_cell_angle_alpha   90.03094405
_cell_angle_beta   89.99691307
_cell_angle_gamma   119.98753353
_symmetry_Int_Tables_number   1
_chemical_formula_structural   Cu3Ni7C31
_chemical_formula_sum   'Cu9 Ni21 C93'
_cell_volume   1625.92710571
_cell_formula_units_Z   3
loop_
 _symmetry_equiv_pos_site_id
 _symmetry_equiv_pos_as_xyz
  1  'x, y, z'
loop_
 _atom_site_type_symbol
 _atom_site_label
 _atom_site_symmetry_multiplicity
 _atom_site_fract_x
 _atom_site_fract_y
 _atom_site_fract_z
 _atom_site_occupancy
  Ni  Ni0  1  0.63192314  0.99867503  0.25207821  1
  Ni  Ni1  1  0.36712613  0.36904692  0.25210040  1
  Ni  Ni2  1  0.00174448  0.63422735  0.25389679  1
  Ni  Ni3  1  0.64255728  0.63253208  0.74488895  1
  Ni  Ni4  1  0.99364987  0.35359661  0.74275850  1
  Ni  Ni5  1  0.29732363  0.34137058  0.58425918  1
  Ni  Ni6  1  0.03592625  0.69930191  0.58271633  1
  Ni  Ni7  1  0.66648473  0.95968096  0.58053439  1
  Ni  Ni8  1  0.30138105  0.96509745  0.08360402  1
  Ni  Ni9  1  0.66029089  0.70113378  0.08453906  1
  Ni  Ni10  1  0.04119452  0.33292426  0.08087550  1
  Ni  Ni11  1  0.32139286  0.29653044  0.91287805  1
  Ni  Ni12  1  0.97871173  0.30148985  0.41654358  1
  Ni  Ni13  1  0.32541149  0.02294178  0.41646214  1
  Ni  Ni14  1  0.69670081  0.67616949  0.41653630  1
  Ni  Ni15  1  0.99664412  0.99933717  0.49970532  1
  Ni  Ni16  1  0.98972309  0.99757765  0.99602424  1
  Ni  Ni17  1  0.66188701  0.32273153  0.82827799  1
  Ni  Ni18  1  0.66540428  0.33234382  0.33358518  1
  Ni  Ni19  1  0.33836482  0.66725444  0.16588975  1
  Ni  Ni20  1  0.33408030  0.67070307  0.65988219  1
  Cu  Cu21  1  0.99921955  0.99978742  0.35333448  1
  Cu  Cu22  1  0.00096348  0.00305786  0.85193459  1
  Cu  Cu23  1  0.00137560  0.00551858  0.64831213  1
  Cu  Cu24  1  0.00113228  0.00449987  0.14594560  1
  Cu  Cu25  1  0.66081645  0.33162916  0.68529458  1
  Cu  Cu26  1  0.66159355  0.33001407  0.18277631  1
  Cu  Cu27  1  0.33444532  0.66370952  0.01729686  1
  Cu  Cu28  1  0.33287862  0.66273574  0.51638436  1
  Cu  Cu29  1  0.33386296  0.66643434  0.32022028  1
  C  C30  1  0.66895604  0.32804538  0.97869027  1
  C  C31  1  0.67128045  0.33701481  0.48117820  1
  C  C32  1  0.32769778  0.66535316  0.81501285  1
  C  C33  1  0.29718162  0.29413449  0.75220549  1
  C  C34  1  0.96057809  0.33419511  0.58629269  1
  C  C35  1  0.66737608  0.62926551  0.58564298  1
  C  C36  1  0.66496931  0.03841138  0.08446817  1
  C  C37  1  0.37493500  0.33390464  0.08284604  1
  C  C38  1  0.03641742  0.37181867  0.91883971  1
  C  C39  1  0.62720808  0.96274815  0.41703104  1
  C  C40  1  0.33510581  0.37099693  0.41671827  1
  C  C41  1  0.03864846  0.66605757  0.41704129  1
  C  C42  1  0.29371702  0.99861610  0.24906790  1
  C  C43  1  0.70562079  0.70573967  0.24886726  1
  C  C44  1  0.00111729  0.29673309  0.24919915  1
  C  C45  1  0.00486697  0.71079485  0.75062459  1
  C  C46  1  0.70418864  0.99670866  0.75120706  1
  C  C47  1  0.37710336  0.04365593  0.58305861  1
  C  C48  1  0.95473138  0.62132142  0.08286998  1
  C  C49  1  0.62626308  0.66617366  0.91767333  1
  C  C50  1  0.33469007  0.95850110  0.91891514  1
  C  C51  1  0.20867324  0.02181965  0.30447414  1
  C  C52  1  0.81321751  0.79113397  0.30446329  1
  C  C53  1  0.97633389  0.18768621  0.30454788  1
  C  C54  1  0.20549727  0.18695502  0.81120936  1
  C  C55  1  0.97571776  0.79710216  0.80333442  1
  C  C56  1  0.82054933  0.02215932  0.80360679  1
  C  C57  1  0.77231539  0.95536803  0.69394076  1
  C  C58  1  0.17592481  0.21932760  0.69324016  1
  C  C59  1  0.03283593  0.81020080  0.69247443  1
  C  C60  1  0.79235307  0.81357374  0.19268845  1
  C  C61  1  0.02287076  0.20953995  0.19303339  1
  C  C62  1  0.18612188  0.97689666  0.19277535  1
  C  C63  1  0.87119613  0.35835525  0.64446058  1
  C  C64  1  0.48988511  0.12943828  0.63667663  1
  C  C65  1  0.63720774  0.51209568  0.64354737  1
  C  C66  1  0.87877846  0.51524012  0.13936427  1
  C  C67  1  0.63670642  0.12444839  0.14305256  1
  C  C68  1  0.49170397  0.36737580  0.14145875  1
  C  C69  1  0.47749253  0.31213058  0.02439375  1
  C  C70  1  0.83464104  0.52496889  0.02860006  1
  C  C71  1  0.69141690  0.17035651  0.02711456  1
  C  C72  1  0.46515454  0.15426328  0.52606165  1
  C  C73  1  0.68562120  0.52380020  0.52689051  1
  C  C74  1  0.83503852  0.30966759  0.52733701  1
  C  C75  1  0.54581758  0.68765297  0.97410785  1
  C  C76  1  0.15143053  0.45870583  0.97677858  1
  C  C77  1  0.31709354  0.86118937  0.97563141  1
  C  C78  1  0.54555138  0.84476096  0.47496725  1
  C  C79  1  0.29802712  0.45260889  0.47463621  1
  C  C80  1  0.15533971  0.70146517  0.47513680  1
  C  C81  1  0.11458295  0.62252861  0.35802017  1
  C  C82  1  0.50850839  0.88502106  0.35779851  1
  C  C83  1  0.37810131  0.49109028  0.35782135  1
  C  C84  1  0.14080522  0.50026361  0.86086646  1
  C  C85  1  0.35976289  0.86570508  0.86451851  1
  C  C86  1  0.50434123  0.63970518  0.86319325  1
  C  C87  1  0.00781082  0.82645614  0.40994609  1
  C  C88  1  0.81778433  0.99129792  0.41003203  1
  C  C89  1  0.17206179  0.18106396  0.40978528  1
  C  C90  1  0.02079548  0.18770608  0.91160232  1
  C  C91  1  0.18385865  0.98762655  0.91165768  1
  C  C92  1  0.80343222  0.81569139  0.90949218  1
  C  C93  1  0.97257639  0.16016812  0.58616523  1
  C  C94  1  0.20208859  0.03238132  0.58647355  1
  C  C95  1  0.84420876  0.81149276  0.58624111  1
  C  C96  1  0.96556910  0.79623849  0.08536140  1
  C  C97  1  0.83724528  0.02500380  0.08516605  1
  C  C98  1  0.19085320  0.15819558  0.08493591  1
  C  C99  1  0.68804991  0.15623630  0.74601176  1
  C  C100  1  0.49183237  0.33382842  0.74899319  1
  C  C101  1  0.85297555  0.52615548  0.74758530  1
  C  C102  1  0.68884534  0.52645754  0.24595127  1
  C  C103  1  0.84159134  0.31753294  0.24544047  1
  C  C104  1  0.47348955  0.16093836  0.24623137  1
  C  C105  1  0.62737713  0.49287651  0.92131698  1
  C  C106  1  0.84933304  0.36190027  0.92292466  1
  C  C107  1  0.50028519  0.14240357  0.92215324  1
  C  C108  1  0.64459212  0.15290854  0.42489196  1
  C  C109  1  0.50584903  0.35121556  0.42509055  1
  C  C110  1  0.84710055  0.49256244  0.42483722  1
  C  C111  1  0.35202182  0.50034565  0.07817299  1
  C  C112  1  0.13250401  0.64362526  0.07582254  1
  C  C113  1  0.49596241  0.85341019  0.07789484  1
  C  C114  1  0.35694886  0.86601488  0.57788203  1
  C  C115  1  0.50106843  0.65092594  0.58001648  1
  C  C116  1  0.14585181  0.50417362  0.58023449  1
  C  C117  1  0.31164133  0.83724606  0.25220527  1
  C  C118  1  0.52657013  0.68812250  0.25187459  1
  C  C119  1  0.16379131  0.47499347  0.25220765  1
  C  C120  1  0.31500612  0.49194112  0.76078586  1
  C  C121  1  0.16923398  0.69188245  0.76020162  1
  C  C122  1  0.52434974  0.83350313  0.76187311  1
