# generated using pymatgen
data_CuNiC4
_symmetry_space_group_name_H-M   'P 1'
_cell_length_a   5.98912600
_cell_length_b   5.98912600
_cell_length_c   6.92137768
_cell_angle_alpha   115.63611951
_cell_angle_beta   115.63611951
_cell_angle_gamma   90.00000000
_symmetry_Int_Tables_number   1
_chemical_formula_structural   CuNiC4
_chemical_formula_sum   'Cu2 Ni2 C8'
_cell_volume   196.36994077
_cell_formula_units_Z   2
loop_
 _symmetry_equiv_pos_site_id
 _symmetry_equiv_pos_as_xyz
  1  'x, y, z'
loop_
 _atom_site_type_symbol
 _atom_site_label
 _atom_site_symmetry_multiplicity
 _atom_site_fract_x
 _atom_site_fract_y
 _atom_site_fract_z
 _atom_site_occupancy
  Ni  Ni0  1  0.50000000  0.00000000  0.00000000  1
  Ni  Ni1  1  0.00000000  0.50000000  0.00000000  1
  Cu  Cu2  1  0.75000000  0.75000000  0.50000000  1
  Cu  Cu3  1  0.25000000  0.25000000  0.50000000  1
  C  C4  1  0.96153200  0.46153200  0.26043000  1
  C  C5  1  0.70110300  0.20110300  0.73957200  1
  C  C6  1  0.03846800  0.53846800  0.73957000  1
  C  C7  1  0.20110300  0.03846800  0.73957100  1
  C  C8  1  0.29889700  0.79889700  0.26042800  1
  C  C9  1  0.46153200  0.29889700  0.26042900  1
  C  C10  1  0.79889700  0.96153200  0.26042900  1
  C  C11  1  0.53846800  0.70110300  0.73957100  1
