# generated using pymatgen
data_Cu2Ni2C9
_symmetry_space_group_name_H-M   'P 1'
_cell_length_a   3.42160101
_cell_length_b   3.42300904
_cell_length_c   40.05415590
_cell_angle_alpha   89.96629240
_cell_angle_beta   90.00721842
_cell_angle_gamma   119.98224102
_symmetry_Int_Tables_number   1
_chemical_formula_structural   Cu2Ni2C9
_chemical_formula_sum   'Cu2 Ni2 C9'
_cell_volume   406.34342215
_cell_formula_units_Z   1
loop_
 _symmetry_equiv_pos_site_id
 _symmetry_equiv_pos_as_xyz
  1  'x, y, z'
loop_
 _atom_site_type_symbol
 _atom_site_label
 _atom_site_symmetry_multiplicity
 _atom_site_fract_x
 _atom_site_fract_y
 _atom_site_fract_z
 _atom_site_occupancy
  C  C0  1  0.00106700  0.00299800  0.36962000  1
  C  C1  1  0.33337700  0.66663100  0.70456300  1
  C  C2  1  0.66656000  0.33321500  0.04738300  1
  C  C3  1  0.66646300  0.33281700  0.14042500  1
  C  C4  1  0.33344000  0.66697800  0.61104900  1
  C  C5  1  0.33322400  0.66647500  0.09388400  1
  C  C6  1  0.33326000  0.66657700  0.47168700  1
  C  C7  1  0.66688000  0.33360900  0.27983200  1
  C  C8  1  0.66669300  0.33337400  0.65781100  1
  Ni  Ni9  1  0.66656600  0.33328800  0.42939000  1
  Ni  Ni10  1  0.66650700  0.33294200  0.51236800  1
  Cu  Cu11  1  0.33224100  0.66363600  0.31903500  1
  Cu  Cu12  1  0.33372100  0.66746000  0.24323000  1
