# generated using pymatgen
data_Cu5NiC31
_symmetry_space_group_name_H-M   'P 1'
_cell_length_a   8.43820181
_cell_length_b   8.41311310
_cell_length_c   21.68772571
_cell_angle_alpha   90.19024823
_cell_angle_beta   89.70874619
_cell_angle_gamma   119.96340399
_symmetry_Int_Tables_number   1
_chemical_formula_structural   Cu5NiC31
_chemical_formula_sum   'Cu15 Ni3 C93'
_cell_volume   1333.84549373
_cell_formula_units_Z   3
loop_
 _symmetry_equiv_pos_site_id
 _symmetry_equiv_pos_as_xyz
  1  'x, y, z'
loop_
 _atom_site_type_symbol
 _atom_site_label
 _atom_site_symmetry_multiplicity
 _atom_site_fract_x
 _atom_site_fract_y
 _atom_site_fract_z
 _atom_site_occupancy
  C  C0  1  0.36675260  0.00034325  0.74947088  1
  C  C1  1  0.66487723  0.96767475  0.58458804  1
  C  C2  1  0.66940872  0.69823392  0.08275052  1
  C  C3  1  0.01150088  0.00108954  0.49920530  1
  C  C4  1  0.00955853  0.00699041  0.99945330  1
  C  C5  1  0.67612046  0.34078200  0.83407505  1
  C  C6  1  0.66675001  0.33338055  0.33331054  1
  C  C7  1  0.32156754  0.66521319  0.16747928  1
  C  C8  1  0.32513978  0.65204901  0.66652559  1
  Ni  Ni9  1  0.71843124  0.00055796  0.75022251  1
  Ni  Ni10  1  0.37379213  0.04756493  0.58269360  1
  Ni  Ni11  1  0.95714630  0.61821636  0.08387488  1
  C  C12  1  0.00135054  0.00065985  0.35358114  1
  C  C13  1  0.99718374  0.00062354  0.85453705  1
  C  C14  1  0.00261842  0.99891088  0.64660976  1
  C  C15  1  0.00544708  0.00046883  0.14707657  1
  C  C16  1  0.67029719  0.33090630  0.68665758  1
  C  C17  1  0.67133883  0.33444522  0.18778146  1
  C  C18  1  0.66911816  0.33723144  0.97968862  1
  C  C19  1  0.66119655  0.33155017  0.47858700  1
  C  C20  1  0.32592366  0.66615732  0.01970126  1
  C  C21  1  0.32868395  0.66674222  0.51936933  1
  C  C22  1  0.33195125  0.66593941  0.31306743  1
  C  C23  1  0.33731416  0.66628714  0.81351596  1
  Cu  Cu24  1  0.28891692  0.00127423  0.25050748  1
  Cu  Cu25  1  0.71151099  0.71237339  0.25067368  1
  Cu  Cu26  1  0.99964801  0.28513489  0.25060360  1
  Cu  Cu27  1  0.28421754  0.28923285  0.75049075  1
  Cu  Cu28  1  0.99397258  0.70907071  0.75111136  1
  Cu  Cu29  1  0.95598002  0.33834756  0.58222215  1
  Cu  Cu30  1  0.66627725  0.61381394  0.58264441  1
  Cu  Cu31  1  0.66724168  0.05140861  0.08334538  1
  Cu  Cu32  1  0.37849337  0.32866393  0.08319447  1
  Cu  Cu33  1  0.62003542  0.66555617  0.91746081  1
  Cu  Cu34  1  0.04788498  0.38040447  0.91636727  1
  Cu  Cu35  1  0.33354590  0.95737522  0.91640676  1
  Cu  Cu36  1  0.62179968  0.95430497  0.41595394  1
  Cu  Cu37  1  0.33357154  0.38131961  0.41595875  1
  Cu  Cu38  1  0.04434810  0.66537458  0.41604949  1
  C  C39  1  0.20805471  0.04020597  0.30860255  1
  C  C40  1  0.83411980  0.79631825  0.30749329  1
  C  C41  1  0.96307532  0.16664283  0.30865815  1
  C  C42  1  0.21012358  0.16174689  0.80753003  1
  C  C43  1  0.96071057  0.79143836  0.80962222  1
  C  C44  1  0.84267163  0.04197405  0.81069328  1
  C  C45  1  0.79621131  0.95983556  0.68658702  1
  C  C46  1  0.16756064  0.20851655  0.69230259  1
  C  C47  1  0.04744066  0.83620000  0.69388855  1
  C  C48  1  0.78913451  0.82805085  0.19088300  1
  C  C49  1  0.03830470  0.20430823  0.19201643  1
  C  C50  1  0.16955992  0.96094949  0.19249840  1
  C  C51  1  0.87951897  0.37941174  0.64116763  1
  C  C52  1  0.50359912  0.12325469  0.64447256  1
  C  C53  1  0.63001189  0.49812521  0.64130952  1
  C  C54  1  0.87003901  0.49422036  0.14496433  1
  C  C55  1  0.62200584  0.12467659  0.14171741  1
  C  C56  1  0.50166053  0.37509113  0.14070232  1
  C  C57  1  0.45561886  0.28743130  0.02464984  1
  C  C58  1  0.82137518  0.54033640  0.02403271  1
  C  C59  1  0.70438549  0.16706951  0.02479344  1
  C  C60  1  0.46317071  0.17228399  0.52223813  1
  C  C61  1  0.70856750  0.53877128  0.52426891  1
  C  C62  1  0.83144152  0.29271918  0.52534560  1
  C  C63  1  0.53974576  0.70194974  0.97694986  1
  C  C64  1  0.16685364  0.46112549  0.97427746  1
  C  C65  1  0.29546781  0.83574559  0.97350060  1
  C  C66  1  0.54435925  0.83860792  0.47582949  1
  C  C67  1  0.29507924  0.46226842  0.47460423  1
  C  C68  1  0.16404555  0.70596277  0.47409052  1
  C  C69  1  0.12558795  0.62664594  0.35802362  1
  C  C70  1  0.49921657  0.87033139  0.35920662  1
  C  C71  1  0.37032266  0.50001796  0.35800204  1
  C  C72  1  0.12969595  0.50100135  0.85841991  1
  C  C73  1  0.36950738  0.87813305  0.85656514  1
  C  C74  1  0.50008812  0.62930509  0.85999348  1
  C  C75  1  0.02676239  0.83900273  0.40921256  1
  C  C76  1  0.81222587  0.97098982  0.40940338  1
  C  C77  1  0.16085716  0.18947027  0.40995931  1
  C  C78  1  0.03334295  0.19054034  0.91102779  1
  C  C79  1  0.16033406  0.97408294  0.90980440  1
  C  C80  1  0.81142761  0.83742586  0.91212493  1
  C  C81  1  0.96954404  0.16264103  0.58881249  1
  C  C82  1  0.17394483  0.02592105  0.59072295  1
  C  C83  1  0.83385532  0.80936624  0.58844236  1
  C  C84  1  0.97238415  0.82034808  0.09138500  1
  C  C85  1  0.83842657  0.02978933  0.09054153  1
  C  C86  1  0.18655774  0.16197888  0.09068502  1
  C  C87  1  0.69048972  0.17962237  0.74443791  1
  C  C88  1  0.47691531  0.31139403  0.74346141  1
  C  C89  1  0.82120464  0.52300805  0.74282130  1
  C  C90  1  0.68997330  0.51967225  0.24480944  1
  C  C91  1  0.82537046  0.30037234  0.24521646  1
  C  C92  1  0.47938759  0.17379148  0.24307260  1
  C  C93  1  0.63399956  0.48993733  0.92224881  1
  C  C94  1  0.85606692  0.36024535  0.92258672  1
  C  C95  1  0.50727956  0.14686969  0.92330288  1
  C  C96  1  0.64280485  0.14671112  0.42187277  1
  C  C97  1  0.50757738  0.36573947  0.42126650  1
  C  C98  1  0.85412034  0.49302873  0.42334212  1
  C  C99  1  0.36642562  0.50579403  0.07570784  1
  C  C100  1  0.15756644  0.64010339  0.07639851  1
  C  C101  1  0.50159648  0.85404789  0.07593642  1
  C  C102  1  0.36141276  0.84676716  0.57532697  1
  C  C103  1  0.49474835  0.63582481  0.57625235  1
  C  C104  1  0.14736594  0.50646010  0.57541992  1
  C  C105  1  0.30669723  0.82785719  0.25742683  1
  C  C106  1  0.52106986  0.69584422  0.25729494  1
  C  C107  1  0.17232514  0.47701046  0.25668331  1
  C  C108  1  0.29851646  0.47686815  0.75809440  1
  C  C109  1  0.16648323  0.68942502  0.75778284  1
  C  C110  1  0.51032935  0.82236837  0.75706719  1
