# generated using pymatgen
data_Cu9Ni2C43
_symmetry_space_group_name_H-M   'P 1'
_cell_length_a   8.76915606
_cell_length_b   8.76915578
_cell_length_c   22.82726784
_cell_angle_alpha   90.00000000
_cell_angle_beta   90.00000000
_cell_angle_gamma   120.00000107
_symmetry_Int_Tables_number   1
_chemical_formula_structural   Cu9Ni2C43
_chemical_formula_sum   'Cu18 Ni4 C86'
_cell_volume   1520.19796081
_cell_formula_units_Z   2
loop_
 _symmetry_equiv_pos_site_id
 _symmetry_equiv_pos_as_xyz
  1  'x, y, z'
loop_
 _atom_site_type_symbol
 _atom_site_label
 _atom_site_symmetry_multiplicity
 _atom_site_fract_x
 _atom_site_fract_y
 _atom_site_fract_z
 _atom_site_occupancy
  C  C0  1  -0.00000000  -0.00000000  0.49448469  1
  C  C1  1  -0.00000000  -0.00000000  0.99448469  1
  C  C2  1  0.66666700  0.33333300  0.82484919  1
  C  C3  1  0.66666700  0.33333300  0.32484919  1
  C  C4  1  0.33333300  0.66666700  0.16697178  1
  C  C5  1  0.33333300  0.66666700  0.66697178  1
  C  C6  1  -0.00000000  -0.00000000  0.64903463  1
  C  C7  1  -0.00000000  -0.00000000  0.14903463  1
  C  C8  1  0.66666700  0.33333300  0.97871090  1
  C  C9  1  0.66666700  0.33333300  0.47871090  1
  C  C10  1  0.33333300  0.66666700  0.02007498  1
  C  C11  1  0.33333300  0.66666700  0.52007498  1
  C  C12  1  0.33333300  0.66666700  0.30920769  1
  C  C13  1  0.33333300  0.66666700  0.80920769  1
  Ni  Ni14  1  -0.00000000  -0.00000000  0.35201590  1
  Ni  Ni15  1  -0.00000000  -0.00000000  0.85201590  1
  Ni  Ni16  1  0.66666700  0.33333300  0.68559143  1
  Ni  Ni17  1  0.66666700  0.33333300  0.18559143  1
  Cu  Cu18  1  0.29273088  0.00742728  0.25269636  1
  Cu  Cu19  1  0.71469640  0.70726912  0.25269636  1
  Cu  Cu20  1  0.99257272  0.28530360  0.25269636  1
  Cu  Cu21  1  0.29273088  0.28530360  0.75269636  1
  Cu  Cu22  1  0.99257272  0.70726912  0.75269636  1
  Cu  Cu23  1  0.71469640  0.00742728  0.75269636  1
  Cu  Cu24  1  0.95340084  0.33219053  0.58469576  1
  Cu  Cu25  1  0.37879070  0.04659916  0.58469576  1
  Cu  Cu26  1  0.66780947  0.62120930  0.58469576  1
  Cu  Cu27  1  0.95340084  0.62120930  0.08469576  1
  Cu  Cu28  1  0.66780947  0.04659916  0.08469576  1
  Cu  Cu29  1  0.37879070  0.33219053  0.08469576  1
  Cu  Cu30  1  0.62460513  0.67030530  0.91612212  1
  Cu  Cu31  1  0.04569917  0.37539487  0.91612212  1
  Cu  Cu32  1  0.32969470  0.95430083  0.91612212  1
  Cu  Cu33  1  0.62460513  0.95430083  0.41612212  1
  Cu  Cu34  1  0.32969470  0.37539487  0.41612212  1
  Cu  Cu35  1  0.04569917  0.67030530  0.41612212  1
  C  C36  1  0.20787080  0.02743439  0.30641991  1
  C  C37  1  0.81956359  0.79212920  0.30641991  1
  C  C38  1  0.97256561  0.18043641  0.30641991  1
  C  C39  1  0.20787080  0.18043641  0.80641991  1
  C  C40  1  0.97256561  0.79212920  0.80641991  1
  C  C41  1  0.81956359  0.02743439  0.80641991  1
  C  C42  1  0.80044664  0.97065282  0.69567954  1
  C  C43  1  0.17020618  0.19955336  0.69567954  1
  C  C44  1  0.02934718  0.82979382  0.69567954  1
  C  C45  1  0.80044664  0.82979382  0.19567954  1
  C  C46  1  0.02934718  0.19955336  0.19567954  1
  C  C47  1  0.17020618  0.97065282  0.19567954  1
  C  C48  1  0.88256715  0.37075686  0.63839475  1
  C  C49  1  0.48819071  0.11743285  0.63839475  1
  C  C50  1  0.62924314  0.51180929  0.63839475  1
  C  C51  1  0.88256715  0.51180929  0.13839475  1
  C  C52  1  0.62924314  0.11743285  0.13839475  1
  C  C53  1  0.48819071  0.37075686  0.13839475  1
  C  C54  1  0.46693193  0.30582225  0.02832503  1
  C  C55  1  0.83889132  0.53306807  0.02832503  1
  C  C56  1  0.69417775  0.16110868  0.02832503  1
  C  C57  1  0.46693193  0.16110868  0.52832503  1
  C  C58  1  0.69417775  0.53306807  0.52832503  1
  C  C59  1  0.83889132  0.30582225  0.52832503  1
  C  C60  1  0.52604739  0.68526518  0.97116680  1
  C  C61  1  0.15921679  0.47395261  0.97116680  1
  C  C62  1  0.31473482  0.84078321  0.97116680  1
  C  C63  1  0.52604739  0.84078321  0.47116680  1
  C  C64  1  0.31473482  0.47395261  0.47116680  1
  C  C65  1  0.15921679  0.68526518  0.47116680  1
  C  C66  1  0.13241388  0.63601412  0.36214397  1
  C  C67  1  0.50359924  0.86758612  0.36214397  1
  C  C68  1  0.36398588  0.49640076  0.36214397  1
  C  C69  1  0.13241388  0.49640076  0.86214397  1
  C  C70  1  0.36398588  0.86758612  0.86214397  1
  C  C71  1  0.50359924  0.63601412  0.86214397  1
  C  C72  1  0.02563880  0.82950335  0.41365690  1
  C  C73  1  0.80386454  0.97436120  0.41365690  1
  C  C74  1  0.17049665  0.19613546  0.41365690  1
  C  C75  1  0.02563880  0.19613546  0.91365690  1
  C  C76  1  0.17049665  0.97436120  0.91365690  1
  C  C77  1  0.80386454  0.82950335  0.91365690  1
  C  C78  1  0.97590052  0.16716663  0.58913307  1
  C  C79  1  0.19126610  0.02409948  0.58913307  1
  C  C80  1  0.83283337  0.80873390  0.58913307  1
  C  C81  1  0.97590052  0.80873390  0.08913307  1
  C  C82  1  0.83283337  0.02409948  0.08913307  1
  C  C83  1  0.19126610  0.16716663  0.08913307  1
  C  C84  1  0.68323551  0.15877483  0.74280139  1
  C  C85  1  0.47554031  0.31676449  0.74280139  1
  C  C86  1  0.84122517  0.52445969  0.74280139  1
  C  C87  1  0.68323551  0.52445969  0.24280139  1
  C  C88  1  0.84122517  0.31676449  0.24280139  1
  C  C89  1  0.47554031  0.15877483  0.24280139  1
  C  C90  1  0.63386147  0.49703689  0.92525048  1
  C  C91  1  0.86317643  0.36613853  0.92525048  1
  C  C92  1  0.50296311  0.13682357  0.92525048  1
  C  C93  1  0.63386147  0.13682357  0.42525048  1
  C  C94  1  0.50296311  0.36613853  0.42525048  1
  C  C95  1  0.86317643  0.49703689  0.42525048  1
  C  C96  1  0.35162777  0.49376456  0.07254608  1
  C  C97  1  0.14213579  0.64837223  0.07254608  1
  C  C98  1  0.50623544  0.85786421  0.07254608  1
  C  C99  1  0.35162777  0.85786421  0.57254608  1
  C  C100  1  0.50623544  0.64837223  0.57254608  1
  C  C101  1  0.14213579  0.49376456  0.57254608  1
  C  C102  1  0.30176051  0.82925630  0.25732078  1
  C  C103  1  0.52749480  0.69823949  0.25732078  1
  C  C104  1  0.17074370  0.47250520  0.25732078  1
  C  C105  1  0.30176051  0.47250520  0.75732078  1
  C  C106  1  0.17074370  0.69823949  0.75732078  1
  C  C107  1  0.52749480  0.82925630  0.75732078  1
