# generated using pymatgen
data_Cu2Ni2C13
_symmetry_space_group_name_H-M   'P 1'
_cell_length_a   6.11544752
_cell_length_b   7.23326620
_cell_length_c   7.62784222
_cell_angle_alpha   107.28608333
_cell_angle_beta   113.63218367
_cell_angle_gamma   90.00000097
_symmetry_Int_Tables_number   1
_chemical_formula_structural   Cu2Ni2C13
_chemical_formula_sum   'Cu2 Ni2 C13'
_cell_volume   292.40750218
_cell_formula_units_Z   1
loop_
 _symmetry_equiv_pos_site_id
 _symmetry_equiv_pos_as_xyz
  1  'x, y, z'
loop_
 _atom_site_type_symbol
 _atom_site_label
 _atom_site_symmetry_multiplicity
 _atom_site_fract_x
 _atom_site_fract_y
 _atom_site_fract_z
 _atom_site_occupancy
  C  C0  1  0.11432700  0.50000000  0.00000000  1
  C  C1  1  0.13627700  0.65884900  0.37877000  1
  C  C2  1  0.75750800  0.34115100  0.62123000  1
  Ni  Ni3  1  0.61952700  0.25319900  0.04201400  1
  Ni  Ni4  1  0.57751500  0.74680100  0.95798600  1
  Cu  Cu5  1  0.24073300  0.06110200  0.28206300  1
  Cu  Cu6  1  0.95866900  0.93889800  0.71793700  1
  C  C7  1  0.35169500  0.00000000  0.00000000  1
  C  C8  1  0.80550100  0.00000000  0.00000000  1
  C  C9  1  0.65624900  0.31469000  0.35894000  1
  C  C10  1  0.29730800  0.68531000  0.64106000  1
  C  C11  1  0.57519900  0.19300900  0.66935200  1
  C  C12  1  0.90584700  0.80699100  0.33064800  1
  C  C13  1  0.83238500  0.59473300  0.81751700  1
  C  C14  1  0.01486800  0.40526700  0.18248300  1
  C  C15  1  0.06464300  0.27567200  0.75860800  1
  C  C16  1  0.30603500  0.72432800  0.24139200  1
