# generated using pymatgen
data_Cu(NiC3)2
_symmetry_space_group_name_H-M   'P 1'
_cell_length_a   7.11730402
_cell_length_b   8.16552396
_cell_length_c   7.69871409
_cell_angle_alpha   89.99999939
_cell_angle_beta   115.86218824
_cell_angle_gamma   90.00000556
_symmetry_Int_Tables_number   1
_chemical_formula_structural   Cu(NiC3)2
_chemical_formula_sum   'Cu4 Ni8 C24'
_cell_volume   402.61122834
_cell_formula_units_Z   4
loop_
 _symmetry_equiv_pos_site_id
 _symmetry_equiv_pos_as_xyz
  1  'x, y, z'
loop_
 _atom_site_type_symbol
 _atom_site_label
 _atom_site_symmetry_multiplicity
 _atom_site_fract_x
 _atom_site_fract_y
 _atom_site_fract_z
 _atom_site_occupancy
  C  C0  1  0.00000000  0.50000000  0.00000000  1
  C  C1  1  0.00000000  0.00000000  0.50000000  1
  C  C2  1  0.50000000  0.00000000  0.00000000  1
  C  C3  1  0.50000000  0.50000000  0.50000000  1
  Ni  Ni4  1  0.33092300  0.70099800  0.20226800  1
  Ni  Ni5  1  0.83092300  0.20099800  0.20226800  1
  Ni  Ni6  1  0.66907700  0.20099800  0.29773200  1
  Ni  Ni7  1  0.16907700  0.70099800  0.29773200  1
  Ni  Ni8  1  0.66907700  0.29900200  0.79773200  1
  Ni  Ni9  1  0.16907700  0.79900200  0.79773200  1
  Ni  Ni10  1  0.33092300  0.79900200  0.70226800  1
  Ni  Ni11  1  0.83092300  0.29900200  0.70226800  1
  Cu  Cu12  1  0.75000000  0.83511600  0.75000000  1
  Cu  Cu13  1  0.25000000  0.33511600  0.75000000  1
  Cu  Cu14  1  0.25000000  0.16488400  0.25000000  1
  Cu  Cu15  1  0.75000000  0.66488400  0.25000000  1
  C  C16  1  0.25000000  0.87129800  0.75000000  1
  C  C17  1  0.75000000  0.37129800  0.75000000  1
  C  C18  1  0.75000000  0.12870200  0.25000000  1
  C  C19  1  0.25000000  0.62870200  0.25000000  1
  C  C20  1  0.76533400  0.95226800  0.57921300  1
  C  C21  1  0.26533400  0.45226800  0.57921300  1
  C  C22  1  0.73466600  0.95226800  0.92078700  1
  C  C23  1  0.23466600  0.45226800  0.92078700  1
  C  C24  1  0.23466600  0.04773200  0.42078700  1
  C  C25  1  0.73466600  0.54773200  0.42078700  1
  C  C26  1  0.26533400  0.04773200  0.07921300  1
  C  C27  1  0.76533400  0.54773200  0.07921300  1
  C  C28  1  0.46740700  0.21818300  0.85006800  1
  C  C29  1  0.96740700  0.71818300  0.85006800  1
  C  C30  1  0.53259300  0.71818300  0.64993200  1
  C  C31  1  0.03259300  0.21818300  0.64993200  1
  C  C32  1  0.53259300  0.78181700  0.14993200  1
  C  C33  1  0.03259300  0.28181700  0.14993200  1
  C  C34  1  0.46740700  0.28181700  0.35006800  1
  C  C35  1  0.96740700  0.78181700  0.35006800  1
