# generated using pymatgen
data_CuNi5C32
_symmetry_space_group_name_H-M   'P 1'
_cell_length_a   9.01752160
_cell_length_b   9.02711538
_cell_length_c   22.74660437
_cell_angle_alpha   89.75115287
_cell_angle_beta   90.23491952
_cell_angle_gamma   119.93832797
_symmetry_Int_Tables_number   1
_chemical_formula_structural   CuNi5C32
_chemical_formula_sum   'Cu3 Ni15 C96'
_cell_volume   1604.52973736
_cell_formula_units_Z   3
loop_
 _symmetry_equiv_pos_site_id
 _symmetry_equiv_pos_as_xyz
  1  'x, y, z'
loop_
 _atom_site_type_symbol
 _atom_site_label
 _atom_site_symmetry_multiplicity
 _atom_site_fract_x
 _atom_site_fract_y
 _atom_site_fract_z
 _atom_site_occupancy
  C  C0  1  0.64816472  0.00070838  0.25126508  1
  C  C1  1  0.99244945  0.35648887  0.74965366  1
  C  C2  1  0.29760366  0.33677561  0.58009553  1
  C  C3  1  0.66746663  0.96735615  0.57860003  1
  C  C4  1  0.02325231  0.33231874  0.08550030  1
  C  C5  1  0.96007016  0.66433088  0.91207993  1
  C  C6  1  0.99841637  0.00066243  0.49142870  1
  C  C7  1  0.96886709  0.98802980  0.00205568  1
  C  C8  1  0.64604575  0.33032122  0.83262792  1
  C  C9  1  0.65464419  0.34068560  0.33448483  1
  C  C10  1  0.32587022  0.68165748  0.16735186  1
  C  C11  1  0.32820634  0.68217173  0.66384573  1
  C  C12  1  0.00132018  0.00577497  0.35182878  1
  C  C13  1  0.99188973  0.00502711  0.85307378  1
  C  C14  1  0.99339593  0.98931074  0.14891859  1
  C  C15  1  0.68089443  0.34042885  0.97751746  1
  C  C16  1  0.34315563  0.67132372  0.02312134  1
  C  C17  1  0.33487142  0.66464278  0.52115031  1
  C  C18  1  0.99644855  0.99368911  0.64607217  1
  C  C19  1  0.66618724  0.33678369  0.68793426  1
  C  C20  1  0.67594649  0.33367774  0.18969602  1
  C  C21  1  0.65609582  0.32434008  0.47867970  1
  C  C22  1  0.34339834  0.66672180  0.31247742  1
  C  C23  1  0.33705801  0.65542139  0.80857566  1
  Ni  Ni24  1  0.29071245  0.00023528  0.25091838  1
  Ni  Ni25  1  0.71267268  0.70526647  0.25191082  1
  Ni  Ni26  1  0.01052195  0.29677972  0.24743530  1
  Ni  Ni27  1  0.28956767  0.28092583  0.74950795  1
  Ni  Ni28  1  0.00102393  0.71184110  0.75278851  1
  Ni  Ni29  1  0.70401565  0.99706297  0.74769183  1
  Ni  Ni30  1  0.95356152  0.33478667  0.58457556  1
  Ni  Ni31  1  0.37550153  0.04489038  0.58462208  1
  Ni  Ni32  1  0.67472722  0.62269568  0.58141785  1
  Ni  Ni33  1  0.95930283  0.62986680  0.08185680  1
  Ni  Ni34  1  0.66635451  0.04172701  0.08426238  1
  Ni  Ni35  1  0.62339972  0.66490826  0.91696886  1
  Ni  Ni36  1  0.04912099  0.37567146  0.91791106  1
  Ni  Ni37  1  0.62862937  0.95929328  0.41833233  1
  Ni  Ni38  1  0.33271607  0.37264659  0.41922033  1
  Cu  Cu39  1  0.38057008  0.33149744  0.08298304  1
  Cu  Cu40  1  0.33500690  0.95237582  0.91523271  1
  Cu  Cu41  1  0.04187274  0.66217772  0.41677444  1
  C  C42  1  0.20577795  0.03233942  0.30801627  1
  C  C43  1  0.82861798  0.78847615  0.30921612  1
  C  C44  1  0.95951323  0.16182205  0.30145966  1
  C  C45  1  0.20103377  0.16697568  0.80651737  1
  C  C46  1  0.97331587  0.79074714  0.81227341  1
  C  C47  1  0.83188056  0.03892299  0.80332548  1
  C  C48  1  0.79501034  0.97083767  0.68874118  1
  C  C49  1  0.16581340  0.19881650  0.69114627  1
  C  C50  1  0.02347861  0.83670090  0.69587818  1
  C  C51  1  0.78936674  0.83474444  0.19572022  1
  C  C52  1  0.03925917  0.22018525  0.18693450  1
  C  C53  1  0.17240977  0.96869851  0.19333570  1
  C  C54  1  0.86424340  0.35558073  0.64414989  1
  C  C55  1  0.50263252  0.14438284  0.63991080  1
  C  C56  1  0.64511361  0.50117084  0.63892726  1
  C  C57  1  0.84537453  0.49921862  0.13633315  1
  C  C58  1  0.64957114  0.13924620  0.14336567  1
  C  C59  1  0.48069796  0.34754405  0.13640497  1
  C  C60  1  0.46481703  0.31877166  0.02931908  1
  C  C61  1  0.85147457  0.54286846  0.02073807  1
  C  C62  1  0.68268734  0.16202716  0.02767346  1
  C  C63  1  0.46522454  0.16825350  0.52605869  1
  C  C64  1  0.69691995  0.52748122  0.52434481  1
  C  C65  1  0.82603850  0.30191633  0.52828750  1
  C  C66  1  0.53202472  0.69093158  0.97410456  1
  C  C67  1  0.15471489  0.47475020  0.97663761  1
  C  C68  1  0.31364696  0.84843091  0.96877725  1
  C  C69  1  0.53053148  0.85206174  0.47756342  1
  C  C70  1  0.31262287  0.45985006  0.47944021  1
  C  C71  1  0.14360154  0.67830187  0.47062123  1
  C  C72  1  0.12752179  0.64474068  0.36399939  1
  C  C73  1  0.50674830  0.86297948  0.36036580  1
  C  C74  1  0.34847201  0.49944711  0.36384470  1
  C  C75  1  0.14607705  0.49890016  0.85902525  1
  C  C76  1  0.35551572  0.86912811  0.86198121  1
  C  C77  1  0.50698236  0.65618367  0.85834731  1
  C  C78  1  0.02286880  0.81355234  0.41379722  1
  C  C79  1  0.81461943  0.97515820  0.41369472  1
  C  C80  1  0.17079187  0.18202082  0.41279135  1
  C  C81  1  0.03140082  0.18859665  0.91344265  1
  C  C82  1  0.17669958  0.96238890  0.91149635  1
  C  C83  1  0.81931714  0.82587671  0.91264213  1
  C  C84  1  0.96749562  0.15847804  0.59010577  1
  C  C85  1  0.19166288  0.03780540  0.59173921  1
  C  C86  1  0.84087869  0.81503497  0.58895992  1
  C  C87  1  0.98257545  0.81860784  0.08740595  1
  C  C88  1  0.84675438  0.04008884  0.08672579  1
  C  C89  1  0.20661593  0.18154354  0.08575502  1
  C  C90  1  0.68966173  0.17016612  0.74108837  1
  C  C91  1  0.48250081  0.31420619  0.74144686  1
  C  C92  1  0.83755836  0.51803251  0.74208026  1
  C  C93  1  0.67855973  0.51296900  0.23955660  1
  C  C94  1  0.83525605  0.31526858  0.24117509  1
  C  C95  1  0.48734144  0.16484035  0.24088977  1
  C  C96  1  0.63238801  0.48801163  0.91763473  1
  C  C97  1  0.85942316  0.36371687  0.91793164  1
  C  C98  1  0.48598843  0.12463256  0.91997690  1
  C  C99  1  0.64542101  0.15151499  0.42386467  1
  C  C100  1  0.51483180  0.36804190  0.42243210  1
  C  C101  1  0.87125861  0.50306267  0.42115561  1
  C  C102  1  0.36203367  0.48792092  0.08044178  1
  C  C103  1  0.14056310  0.62764010  0.08157585  1
  C  C104  1  0.49776282  0.85209069  0.08193322  1
  C  C105  1  0.36238901  0.86034642  0.57998854  1
  C  C106  1  0.50393455  0.64342320  0.57862936  1
  C  C107  1  0.14651195  0.49647567  0.58022519  1
  C  C108  1  0.32304741  0.83574013  0.26013549  1
  C  C109  1  0.52099634  0.68837383  0.26067719  1
  C  C110  1  0.16870237  0.48830523  0.26099916  1
  C  C111  1  0.30148950  0.47144327  0.75639679  1
  C  C112  1  0.16922000  0.68496757  0.75669614  1
  C  C113  1  0.51448487  0.82959210  0.75594803  1
