# generated using pymatgen
data_Cu4NiC13
_symmetry_space_group_name_H-M   'P 1'
_cell_length_a   7.24806700
_cell_length_b   8.77658446
_cell_length_c   8.99476783
_cell_angle_alpha   99.55189832
_cell_angle_beta   112.10680026
_cell_angle_gamma   106.48934027
_symmetry_Int_Tables_number   1
_chemical_formula_structural   Cu4NiC13
_chemical_formula_sum   'Cu8 Ni2 C26'
_cell_volume   483.76743530
_cell_formula_units_Z   2
loop_
 _symmetry_equiv_pos_site_id
 _symmetry_equiv_pos_as_xyz
  1  'x, y, z'
loop_
 _atom_site_type_symbol
 _atom_site_label
 _atom_site_symmetry_multiplicity
 _atom_site_fract_x
 _atom_site_fract_y
 _atom_site_fract_z
 _atom_site_occupancy
  Ni  Ni0  1  0.90405700  0.73256600  0.73982300  1
  Ni  Ni1  1  0.09594300  0.26743400  0.26017700  1
  Cu  Cu2  1  0.61247200  0.29181400  0.58108500  1
  Cu  Cu3  1  0.38752800  0.70818600  0.41891500  1
  Cu  Cu4  1  0.57422000  0.13331900  0.84466400  1
  Cu  Cu5  1  0.42578000  0.86668100  0.15533600  1
  Cu  Cu6  1  0.79449100  0.81351400  0.10738400  1
  Cu  Cu7  1  0.20550900  0.18648600  0.89261600  1
  Cu  Cu8  1  0.92813800  0.62003200  0.34109800  1
  Cu  Cu9  1  0.07186200  0.37996800  0.65890200  1
  C  C10  1  0.50480100  0.13335100  0.25759800  1
  C  C11  1  0.49519900  0.86664900  0.74240200  1
  C  C12  1  0.81764500  0.26233000  0.57380400  1
  C  C13  1  0.18235500  0.73767000  0.42619600  1
  C  C14  1  0.67271200  0.46250200  0.69404900  1
  C  C15  1  0.32728800  0.53749800  0.30595100  1
  C  C16  1  0.55686800  0.76491500  0.60013900  1
  C  C17  1  0.44313200  0.23508500  0.39986100  1
  C  C18  1  0.53160000  0.15158400  0.66199100  1
  C  C19  1  0.46840000  0.84841600  0.33800900  1
  C  C20  1  0.10440600  0.56103900  0.70048500  1
  C  C21  1  0.89559400  0.43896100  0.29951500  1
  C  C22  1  0.16291100  0.31188600  0.55049000  1
  C  C23  1  0.83708900  0.68811400  0.44951000  1
  C  C24  1  0.16197500  0.34224800  0.83697400  1
  C  C25  1  0.83802500  0.65775200  0.16302600  1
  C  C26  1  0.23704400  0.21380900  0.07054400  1
  C  C27  1  0.76295600  0.78619100  0.92945600  1
  C  C28  1  0.04881700  0.02337000  0.76030500  1
  C  C29  1  0.95118300  0.97663000  0.23969500  1
  C  C30  1  0.44543300  0.22477500  0.90482200  1
  C  C31  1  0.55456700  0.77522500  0.09517800  1
  C  C32  1  0.44957200  0.94342900  0.80540600  1
  C  C33  1  0.55042800  0.05657100  0.19459400  1
  C  C34  1  0.19373800  0.79426900  0.03395200  1
  C  C35  1  0.80626200  0.20573100  0.96604800  1
