# generated using pymatgen
data_Cu4Ni8C99
_symmetry_space_group_name_H-M   'P 1'
_cell_length_a   17.64176071
_cell_length_b   8.84370628
_cell_length_c   22.53942656
_cell_angle_alpha   89.97530775
_cell_angle_beta   90.18334179
_cell_angle_gamma   119.99343309
_symmetry_Int_Tables_number   1
_chemical_formula_structural   Cu4Ni8C99
_chemical_formula_sum   'Cu8 Ni16 C198'
_cell_volume   3045.62092159
_cell_formula_units_Z   2
loop_
 _symmetry_equiv_pos_site_id
 _symmetry_equiv_pos_as_xyz
  1  'x, y, z'
loop_
 _atom_site_type_symbol
 _atom_site_label
 _atom_site_symmetry_multiplicity
 _atom_site_fract_x
 _atom_site_fract_y
 _atom_site_fract_z
 _atom_site_occupancy
  C  C0  1  0.35344370  0.03748506  0.90677525  1
  C  C1  1  0.84660229  0.03534188  0.90812837  1
  C  C2  1  0.66519106  0.28654489  0.90552606  1
  C  C3  1  0.16493565  0.04347403  0.41063595  1
  C  C4  1  0.34383167  0.65323859  0.42302980  1
  C  C5  1  0.85326836  0.67090178  0.41054265  1
  C  C6  1  0.00752436  0.03647929  0.49814452  1
  C  C7  1  0.51031273  0.01246136  0.50169636  1
  C  C8  1  0.00813871  0.00595236  0.99578593  1
  C  C9  1  0.50500490  0.97814969  0.99175938  1
  C  C10  1  0.32586119  0.33058266  0.82045083  1
  C  C11  1  0.82473415  0.31531680  0.82253201  1
  C  C12  1  0.32354027  0.31940811  0.32922099  1
  C  C13  1  0.82554566  0.32228627  0.32165781  1
  C  C14  1  0.16489035  0.67111715  0.16107785  1
  C  C15  1  0.67275825  0.67682665  0.15985704  1
  C  C16  1  0.17007405  0.66986019  0.66079731  1
  C  C17  1  0.66907195  0.66292861  0.66403155  1
  Ni  Ni18  1  0.00560085  0.01025107  0.35014919  1
  Ni  Ni19  1  0.50567033  0.00840060  0.35249513  1
  Ni  Ni20  1  0.00347622  0.00740606  0.84991648  1
  Ni  Ni21  1  0.50495280  0.99947589  0.84987937  1
  Ni  Ni22  1  0.33002547  0.32546194  0.68635608  1
  Ni  Ni23  1  0.82806286  0.32579732  0.68740352  1
  Ni  Ni24  1  0.32756404  0.32426130  0.18442922  1
  Ni  Ni25  1  0.83122222  0.33334334  0.18698937  1
  Ni  Ni26  1  0.33073539  0.33641573  0.98140841  1
  Ni  Ni27  1  0.83260208  0.32579803  0.97871411  1
  Ni  Ni28  1  0.33057737  0.33384924  0.48298640  1
  Ni  Ni29  1  0.82999697  0.32332213  0.48513560  1
  Ni  Ni30  1  0.16543705  0.66519127  0.01929398  1
  Ni  Ni31  1  0.66630574  0.67480643  0.01753171  1
  Ni  Ni32  1  0.16585921  0.65642272  0.52147836  1
  Ni  Ni33  1  0.66502377  0.66635332  0.52098031  1
  Cu  Cu34  1  0.99906492  0.00975097  0.65007584  1
  Cu  Cu35  1  0.49903352  0.01109432  0.65166339  1
  Cu  Cu36  1  0.99969090  0.98554092  0.14977170  1
  Cu  Cu37  1  0.50505718  0.99847891  0.14555078  1
  Cu  Cu38  1  0.16407543  0.65878140  0.31244173  1
  Cu  Cu39  1  0.66932680  0.67482375  0.30837140  1
  Cu  Cu40  1  0.16747558  0.66189238  0.80792937  1
  Cu  Cu41  1  0.67064438  0.68101212  0.80932050  1
  C  C42  1  0.15337628  0.00934289  0.25554872  1
  C  C43  1  0.65003405  0.01147816  0.25428427  1
  C  C44  1  0.85930878  0.70234426  0.25702847  1
  C  C45  1  0.15086194  0.28662353  0.75425623  1
  C  C46  1  0.65119742  0.29912453  0.75614665  1
  C  C47  1  0.35803180  0.01455083  0.75726884  1
  C  C48  1  0.85771454  0.01535507  0.75641219  1
  C  C49  1  0.66310687  0.96183299  0.92122091  1
  C  C50  1  0.16370994  0.36298963  0.42105710  1
  C  C51  1  0.35592282  0.71017583  0.25157483  1
  C  C52  1  0.99979175  0.28796563  0.24937254  1
  C  C53  1  0.49757444  0.28617966  0.25102454  1
  C  C54  1  0.99858893  0.71186227  0.75093272  1
  C  C55  1  0.49865601  0.70982742  0.74944687  1
  C  C56  1  0.47869226  0.33564978  0.58265979  1
  C  C57  1  0.97834779  0.33655303  0.58431943  1
  C  C58  1  0.18529559  0.03386696  0.58117635  1
  C  C59  1  0.68523815  0.03624025  0.58284537  1
  C  C60  1  0.33519939  0.62978732  0.58251377  1
  C  C61  1  0.83394460  0.62632694  0.58078740  1
  C  C62  1  0.47741386  0.61648883  0.08579925  1
  C  C63  1  0.97858477  0.61905623  0.08296987  1
  C  C64  1  0.33202200  0.03872719  0.08221004  1
  C  C65  1  0.83458027  0.04093511  0.08337289  1
  C  C66  1  0.18685344  0.33658412  0.08348820  1
  C  C67  1  0.68807951  0.34085990  0.08251964  1
  C  C68  1  0.30951637  0.66015732  0.91868436  1
  C  C69  1  0.81414330  0.66770842  0.91872273  1
  C  C70  1  0.02274919  0.37655313  0.91938430  1
  C  C71  1  0.51907398  0.37943213  0.91987749  1
  C  C72  1  0.16474482  0.95484085  0.91917278  1
  C  C73  1  0.31435044  0.95776083  0.41694730  1
  C  C74  1  0.80981040  0.96017732  0.41878820  1
  C  C75  1  0.66500691  0.37595329  0.41886978  1
  C  C76  1  0.01957062  0.65834120  0.41953864  1
  C  C77  1  0.52118183  0.66686831  0.41804301  1
  C  C78  1  0.10926034  0.02312734  0.31480784  1
  C  C79  1  0.60099585  0.03000633  0.30893630  1
  C  C80  1  0.40321234  0.79152178  0.30631751  1
  C  C81  1  0.90674687  0.79624111  0.31676861  1
  C  C82  1  0.48308058  0.18153514  0.30395278  1
  C  C83  1  0.98967500  0.18987666  0.30308844  1
  C  C84  1  0.10656638  0.17374745  0.81058901  1
  C  C85  1  0.60859413  0.18890304  0.81409185  1
  C  C86  1  0.48713187  0.78733955  0.80269093  1
  C  C87  1  0.98706458  0.78936551  0.80424561  1
  C  C88  1  0.40622010  0.01631799  0.81670553  1
  C  C89  1  0.90413530  0.01689384  0.81677965  1
  C  C90  1  0.40259104  0.96956731  0.69711986  1
  C  C91  1  0.90522054  0.97281610  0.69680324  1
  C  C92  1  0.08523825  0.19264024  0.69341570  1
  C  C93  1  0.58300243  0.19150391  0.69623723  1
  C  C94  1  0.01704852  0.82584630  0.69657897  1
  C  C95  1  0.51485821  0.82404192  0.69521314  1
  C  C96  1  0.39865499  0.82672154  0.19830122  1
  C  C97  1  0.90455375  0.83713080  0.19721897  1
  C  C98  1  0.01765573  0.21107656  0.19557439  1
  C  C99  1  0.51178787  0.20085065  0.19693864  1
  C  C100  1  0.08545480  0.97765100  0.19588896  1
  C  C101  1  0.58389469  0.97688342  0.19315351  1
  C  C102  1  0.43777166  0.35300683  0.63611843  1
  C  C103  1  0.93416367  0.34777856  0.63687983  1
  C  C104  1  0.23920136  0.12350184  0.63273360  1
  C  C105  1  0.73738629  0.12122489  0.63539682  1
  C  C106  1  0.32829704  0.52130064  0.63298185  1
  C  C107  1  0.82608525  0.51920923  0.63196781  1
  C  C108  1  0.43353365  0.52069982  0.13937319  1
  C  C109  1  0.93822055  0.52218702  0.13702912  1
  C  C110  1  0.32365589  0.12762457  0.13411782  1
  C  C111  1  0.82660839  0.13221411  0.13482743  1
  C  C112  1  0.23865945  0.35814325  0.13702265  1
  C  C113  1  0.73858946  0.35451140  0.13525540  1
  C  C114  1  0.22494547  0.30629133  0.02985767  1
  C  C115  1  0.72036795  0.30561060  0.02750527  1
  C  C116  1  0.42665923  0.54644046  0.03139728  1
  C  C117  1  0.92623257  0.54432077  0.02924209  1
  C  C118  1  0.34772099  0.13876979  0.02678341  1
  C  C119  1  0.84709206  0.13685948  0.02729614  1
  C  C120  1  0.22111841  0.13217927  0.52493138  1
  C  C121  1  0.72201827  0.13910406  0.52790730  1
  C  C122  1  0.34652556  0.55846509  0.52533225  1
  C  C123  1  0.84571348  0.55331657  0.52400857  1
  C  C124  1  0.42680226  0.30743367  0.52829217  1
  C  C125  1  0.92848395  0.30895423  0.52893453  1
  C  C126  1  0.26627634  0.68589082  0.97009422  1
  C  C127  1  0.77070053  0.69033641  0.97062801  1
  C  C128  1  0.07577849  0.46377266  0.97176346  1
  C  C129  1  0.57358674  0.46136037  0.97270550  1
  C  C130  1  0.15731793  0.85273875  0.97238185  1
  C  C131  1  0.65627873  0.84987797  0.97798309  1
  C  C132  1  0.27273612  0.85050111  0.46899633  1
  C  C133  1  0.76543792  0.84586727  0.46913818  1
  C  C134  1  0.16084555  0.47545380  0.47434723  1
  C  C135  1  0.65730052  0.46419683  0.47127305  1
  C  C136  1  0.07621920  0.68591256  0.47022715  1
  C  C137  1  0.57575185  0.69282919  0.47002044  1
  C  C138  1  0.06529662  0.64513504  0.36301726  1
  C  C139  1  0.56618348  0.65125008  0.36310063  1
  C  C140  1  0.25655380  0.87098147  0.36177834  1
  C  C141  1  0.75486895  0.86812154  0.36234324  1
  C  C142  1  0.17566116  0.49640223  0.35949583  1
  C  C143  1  0.67536720  0.48666011  0.36418201  1
  C  C144  1  0.06749539  0.48181796  0.86462233  1
  C  C145  1  0.56236836  0.48156698  0.86529703  1
  C  C146  1  0.17621040  0.86551572  0.86522738  1
  C  C147  1  0.67498428  0.85241294  0.86146728  1
  C  C148  1  0.25512103  0.64253933  0.86318676  1
  C  C149  1  0.75843434  0.64204658  0.86350823  1
  C  C150  1  0.00891852  0.81325108  0.41418193  1
  C  C151  1  0.50613803  0.81828154  0.41253671  1
  C  C152  1  0.39978607  0.96708799  0.40812160  1
  C  C153  1  0.89612713  0.97508749  0.41256864  1
  C  C154  1  0.07844540  0.17297500  0.41417510  1
  C  C155  1  0.58627148  0.20273149  0.41345376  1
  C  C156  1  0.01114936  0.19856736  0.91590525  1
  C  C157  1  0.50748738  0.20070193  0.91619983  1
  C  C158  1  0.08636638  0.97137750  0.91367795  1
  C  C159  1  0.57874670  0.98434878  0.91305738  1
  C  C160  1  0.39613063  0.81731305  0.91304954  1
  C  C161  1  0.90145981  0.82521803  0.91333893  1
  C  C162  1  0.48740386  0.16920429  0.58803434  1
  C  C163  1  0.98772099  0.17032816  0.58886485  1
  C  C164  1  0.09466031  0.01403683  0.58778701  1
  C  C165  1  0.59429641  0.01600900  0.58870361  1
  C  C166  1  0.41729426  0.80929324  0.58811594  1
  C  C167  1  0.91555392  0.80623105  0.58726631  1
  C  C168  1  0.48552731  0.80299711  0.09169730  1
  C  C169  1  0.98748827  0.80435519  0.08871636  1
  C  C170  1  0.41312696  0.01852492  0.09154225  1
  C  C171  1  0.91786900  0.02706029  0.09064113  1
  C  C172  1  0.09620210  0.17434069  0.08990743  1
  C  C173  1  0.59393762  0.17401251  0.09068219  1
  C  C174  1  0.34468571  0.17394652  0.74360432  1
  C  C175  1  0.84680191  0.17743662  0.74278837  1
  C  C176  1  0.24839265  0.34186944  0.74024213  1
  C  C177  1  0.74718126  0.34116381  0.74181536  1
  C  C178  1  0.42545492  0.53634151  0.73899878  1
  C  C179  1  0.92644648  0.53816738  0.73986753  1
  C  C180  1  0.34713558  0.53917452  0.24264071  1
  C  C181  1  0.84510530  0.51537753  0.24372474  1
  C  C182  1  0.42635020  0.32042979  0.24037839  1
  C  C183  1  0.92695072  0.31735574  0.24029415  1
  C  C184  1  0.24852197  0.16936329  0.24382505  1
  C  C185  1  0.74694731  0.15575603  0.24135566  1
  C  C186  1  0.31495082  0.49990096  0.92148031  1
  C  C187  1  0.81976512  0.50701671  0.92232747  1
  C  C188  1  0.43021183  0.36091169  0.92355927  1
  C  C189  1  0.93559816  0.36279977  0.92103026  1
  C  C190  1  0.24716586  0.12825853  0.92157936  1
  C  C191  1  0.75473723  0.15208800  0.91792834  1
  C  C192  1  0.32227509  0.13121447  0.41957762  1
  C  C193  1  0.81475706  0.13058802  0.42089402  1
  C  C194  1  0.25494140  0.35426679  0.41768979  1
  C  C195  1  0.74700750  0.36611071  0.42036783  1
  C  C196  1  0.43471574  0.50523331  0.42042874  1
  C  C197  1  0.93269460  0.49826056  0.42081138  1
  C  C198  1  0.17422939  0.48931360  0.07806224  1
  C  C199  1  0.67164206  0.48786464  0.07867860  1
  C  C200  1  0.06920308  0.65291975  0.07810803  1
  C  C201  1  0.56708850  0.64806074  0.08336265  1
  C  C202  1  0.25605655  0.86030551  0.07814212  1
  C  C203  1  0.75987747  0.85991525  0.08119073  1
  C  C204  1  0.17338473  0.85595994  0.57690136  1
  C  C205  1  0.67328089  0.85849265  0.57751901  1
  C  C206  1  0.25937925  0.65846931  0.58063750  1
  C  C207  1  0.75722558  0.65247744  0.57698790  1
  C  C208  1  0.06800422  0.48672865  0.58143190  1
  C  C209  1  0.56900281  0.48409014  0.57737468  1
  C  C210  1  0.15470867  0.81947857  0.25677949  1
  C  C211  1  0.64629897  0.81472667  0.25718154  1
  C  C212  1  0.26629865  0.69460183  0.25335195  1
  C  C213  1  0.75850192  0.68878272  0.25957890  1
  C  C214  1  0.08277769  0.46911519  0.25356916  1
  C  C215  1  0.58246244  0.45827744  0.25589306  1
  C  C216  1  0.14679790  0.47650838  0.75847933  1
  C  C217  1  0.64604788  0.48237432  0.75861834  1
  C  C218  1  0.08243696  0.70219143  0.75639346  1
  C  C219  1  0.58168220  0.69998260  0.75264115  1
  C  C220  1  0.25804689  0.82705236  0.76009536  1
  C  C221  1  0.75950764  0.82779830  0.75600680  1
