# generated using pymatgen
data_CuNi2C7
_symmetry_space_group_name_H-M   'P 1'
_cell_length_a   5.07095200
_cell_length_b   5.72311100
_cell_length_c   8.58615605
_cell_angle_alpha   72.78102981
_cell_angle_beta   90.00000000
_cell_angle_gamma   90.00000000
_symmetry_Int_Tables_number   1
_chemical_formula_structural   CuNi2C7
_chemical_formula_sum   'Cu2 Ni4 C14'
_cell_volume   238.01583432
_cell_formula_units_Z   2
loop_
 _symmetry_equiv_pos_site_id
 _symmetry_equiv_pos_as_xyz
  1  'x, y, z'
loop_
 _atom_site_type_symbol
 _atom_site_label
 _atom_site_symmetry_multiplicity
 _atom_site_fract_x
 _atom_site_fract_y
 _atom_site_fract_z
 _atom_site_occupancy
  C  C0  1  0.41125700  0.56214300  0.10338500  1
  C  C1  1  0.89902600  0.68755000  0.49554000  1
  C  C2  1  0.91125700  0.43785700  0.89661500  1
  C  C3  1  0.39902600  0.31245000  0.50446000  1
  Ni  Ni4  1  0.78436800  0.99664400  0.94274400  1
  Ni  Ni5  1  0.02617300  0.04349800  0.81774700  1
  Ni  Ni6  1  0.28436800  0.00335600  0.05725600  1
  Ni  Ni7  1  0.52617300  0.95650200  0.18225300  1
  Cu  Cu8  1  0.89725300  0.28471200  0.29179600  1
  Cu  Cu9  1  0.39725300  0.71528800  0.70820400  1
  C  C10  1  0.76854800  0.39447400  0.43580100  1
  C  C11  1  0.26854800  0.60552600  0.56419900  1
  C  C12  1  0.44553400  0.90712600  0.09233000  1
  C  C13  1  0.27760000  0.55408600  0.88999600  1
  C  C14  1  0.81265700  0.99262600  0.32560200  1
  C  C15  1  0.31265700  0.00737400  0.67439800  1
  C  C16  1  0.77760000  0.44591400  0.11000400  1
  C  C17  1  0.94553400  0.09287400  0.90767000  1
  C  C18  1  0.22542500  0.32243300  0.28997300  1
  C  C19  1  0.72542500  0.67756700  0.71002700  1
