# generated using pymatgen
data_Cu3NiC5
_symmetry_space_group_name_H-M   'P 1'
_cell_length_a   5.52966275
_cell_length_b   5.52966275
_cell_length_c   5.52966275
_cell_angle_alpha   89.85598250
_cell_angle_beta   90.14401750
_cell_angle_gamma   89.85598250
_symmetry_Int_Tables_number   1
_chemical_formula_structural   Cu3NiC5
_chemical_formula_sum   'Cu3 Ni1 C5'
_cell_volume   169.07983313
_cell_formula_units_Z   1
loop_
 _symmetry_equiv_pos_site_id
 _symmetry_equiv_pos_as_xyz
  1  'x, y, z'
loop_
 _atom_site_type_symbol
 _atom_site_label
 _atom_site_symmetry_multiplicity
 _atom_site_fract_x
 _atom_site_fract_y
 _atom_site_fract_z
 _atom_site_occupancy
  Ni  Ni0  1  0.33935200  0.66064800  0.33935200  1
  C  C1  1  0.99934800  0.00065200  0.99934800  1
  Cu  Cu2  1  0.99213300  0.00786700  0.50224300  1
  Cu  Cu3  1  0.99213300  0.49775700  0.99213300  1
  Cu  Cu4  1  0.50224300  0.00786700  0.99213300  1
  C  C5  1  0.76535700  0.75725500  0.24274500  1
  C  C6  1  0.76144500  0.23855500  0.76144500  1
  C  C7  1  0.24274500  0.75725500  0.76535700  1
  C  C8  1  0.24274500  0.23464300  0.24274500  1
