# generated using pymatgen
data_Cu2(NiC12)3
_symmetry_space_group_name_H-M   'P 1'
_cell_length_a   8.96002878
_cell_length_b   8.93932086
_cell_length_c   22.18497884
_cell_angle_alpha   89.61530556
_cell_angle_beta   90.00326489
_cell_angle_gamma   119.98386637
_symmetry_Int_Tables_number   1
_chemical_formula_structural   Cu2(NiC12)3
_chemical_formula_sum   'Cu6 Ni9 C108'
_cell_volume   1539.08010473
_cell_formula_units_Z   3
loop_
 _symmetry_equiv_pos_site_id
 _symmetry_equiv_pos_as_xyz
  1  'x, y, z'
loop_
 _atom_site_type_symbol
 _atom_site_label
 _atom_site_symmetry_multiplicity
 _atom_site_fract_x
 _atom_site_fract_y
 _atom_site_fract_z
 _atom_site_occupancy
  C  C0  1  0.63227979  0.00277125  0.25210890  1
  C  C1  1  0.36789877  0.37039021  0.24768815  1
  C  C2  1  0.99965468  0.62711704  0.24973913  1
  C  C3  1  0.63044627  0.63277565  0.74975074  1
  C  C4  1  0.99626767  0.36601000  0.74964506  1
  C  C5  1  0.37244706  0.00117346  0.74857528  1
  C  C6  1  0.03371151  0.69774241  0.58295321  1
  C  C7  1  0.66498933  0.97005105  0.58253968  1
  C  C8  1  0.66476591  0.69276355  0.08210083  1
  C  C9  1  0.03345536  0.33545430  0.08532753  1
  C  C10  1  0.96180897  0.66546340  0.91836184  1
  C  C11  1  0.70296219  0.03382640  0.91661041  1
  C  C12  1  0.33803838  0.30054420  0.91764386  1
  C  C13  1  0.96458841  0.30069671  0.41609883  1
  C  C14  1  0.33474331  0.02844042  0.41866169  1
  C  C15  1  0.99919301  0.99980266  0.50028917  1
  C  C16  1  0.00850586  0.99726026  0.99949915  1
  C  C17  1  0.66627091  0.33307921  0.83344593  1
  C  C18  1  0.67196038  0.33971666  0.33292024  1
  C  C19  1  0.32805227  0.66821235  0.16713496  1
  C  C20  1  0.33323197  0.66175836  0.66674931  1
  C  C21  1  0.99119623  0.99736632  0.84971726  1
  C  C22  1  0.66939307  0.32359337  0.68200011  1
  C  C23  1  0.67399508  0.33680550  0.18075935  1
  C  C24  1  0.66402407  0.34491621  0.98515381  1
  C  C25  1  0.32549654  0.66281294  0.31833253  1
  C  C26  1  0.34324905  0.67046905  0.81710313  1
  Ni  Ni27  1  0.99989942  0.29978876  0.24940907  1
  Ni  Ni28  1  0.70420090  0.00037867  0.75165592  1
  Ni  Ni29  1  0.96025097  0.33424180  0.58473344  1
  Ni  Ni30  1  0.37397702  0.04433312  0.58488332  1
  Ni  Ni31  1  0.95781123  0.62412572  0.08295973  1
  Ni  Ni32  1  0.38024169  0.32971177  0.08336998  1
  Ni  Ni33  1  0.62990879  0.66663877  0.91504364  1
  Ni  Ni34  1  0.62171792  0.95238181  0.41482617  1
  Ni  Ni35  1  0.03920020  0.66631516  0.41519050  1
  Cu  Cu36  1  0.99171509  0.99530278  0.35247339  1
  Cu  Cu37  1  0.00257235  0.00510432  0.64872451  1
  Cu  Cu38  1  0.00754279  0.00285307  0.14650164  1
  Cu  Cu39  1  0.66559586  0.33223721  0.48078556  1
  Cu  Cu40  1  0.33556913  0.67006431  0.01906028  1
  Cu  Cu41  1  0.33319484  0.66652536  0.51932528  1
  C  C42  1  0.29656505  0.00038652  0.25069866  1
  C  C43  1  0.70336610  0.70363466  0.24906312  1
  C  C44  1  0.29194538  0.29306764  0.75312228  1
  C  C45  1  0.00004868  0.70631126  0.75224421  1
  C  C46  1  0.66392523  0.61771704  0.58647905  1
  C  C47  1  0.66338705  0.04769234  0.08328364  1
  C  C48  1  0.04206669  0.37427669  0.91470030  1
  C  C49  1  0.33310634  0.95957332  0.91412594  1
  C  C50  1  0.33678388  0.38009804  0.41415593  1
  C  C51  1  0.21649795  0.03730076  0.30728938  1
  C  C52  1  0.82734206  0.78510491  0.30322857  1
  C  C53  1  0.95922418  0.17333371  0.30866998  1
  C  C54  1  0.20999182  0.17364549  0.80886173  1
  C  C55  1  0.97024284  0.79317266  0.80737165  1
  C  C56  1  0.83185826  0.04170354  0.80935096  1
  C  C57  1  0.78348093  0.95373030  0.69208597  1
  C  C58  1  0.17549489  0.21388823  0.69692687  1
  C  C59  1  0.03985118  0.82173715  0.69449028  1
  C  C60  1  0.78375334  0.82135022  0.19203859  1
  C  C61  1  0.04037916  0.21336823  0.19075580  1
  C  C62  1  0.17219689  0.95766684  0.19646097  1
  C  C63  1  0.87911958  0.37647958  0.64369159  1
  C  C64  1  0.49387518  0.12795075  0.64387404  1
  C  C65  1  0.63924219  0.51121485  0.64405973  1
  C  C66  1  0.87963263  0.50560885  0.14327901  1
  C  C67  1  0.63793155  0.12415206  0.14107626  1
  C  C68  1  0.49823843  0.36668442  0.14342406  1
  C  C69  1  0.45852008  0.29988880  0.02161151  1
  C  C70  1  0.84197946  0.54311161  0.02246623  1
  C  C71  1  0.69779597  0.15990790  0.02570495  1
  C  C72  1  0.44948479  0.15484626  0.52245983  1
  C  C73  1  0.70147539  0.54291711  0.52965328  1
  C  C74  1  0.84246302  0.29492526  0.52400213  1
  C  C75  1  0.55111393  0.71316722  0.97497062  1
  C  C76  1  0.15442253  0.45198039  0.97232779  1
  C  C77  1  0.29009717  0.83913805  0.97019680  1
  C  C78  1  0.54649720  0.84352874  0.47767160  1
  C  C79  1  0.29679783  0.45490111  0.47066228  1
  C  C80  1  0.15661609  0.70593220  0.47614321  1
  C  C81  1  0.12088447  0.62580740  0.35642352  1
  C  C82  1  0.50127992  0.86624697  0.35602401  1
  C  C83  1  0.36323156  0.48515482  0.35683607  1
  C  C84  1  0.12532944  0.49462437  0.85933026  1
  C  C85  1  0.36406313  0.87601010  0.85808344  1
  C  C86  1  0.50188590  0.62583026  0.85758923  1
  C  C87  1  0.03456801  0.84727080  0.41055629  1
  C  C88  1  0.82027897  0.98812304  0.41319471  1
  C  C89  1  0.17309767  0.19540102  0.41052452  1
  C  C90  1  0.03005444  0.19484661  0.90988958  1
  C  C91  1  0.17183278  0.98137786  0.90859804  1
  C  C92  1  0.82296327  0.84049464  0.90957154  1
  C  C93  1  0.96708042  0.15476447  0.58855644  1
  C  C94  1  0.17516073  0.00686520  0.58920880  1
  C  C95  1  0.82906502  0.80123274  0.58971031  1
  C  C96  1  0.96432317  0.81128046  0.08825564  1
  C  C97  1  0.82749825  0.02612744  0.08755421  1
  C  C98  1  0.18038572  0.16759834  0.08589392  1
  C  C99  1  0.68815492  0.17583738  0.74536584  1
  C  C100  1  0.47364668  0.31458076  0.74594589  1
  C  C101  1  0.83362961  0.52860778  0.74619025  1
  C  C102  1  0.68561561  0.52341358  0.24420879  1
  C  C103  1  0.82295721  0.31137833  0.24374517  1
  C  C104  1  0.47400760  0.16462072  0.24354744  1
  C  C105  1  0.64698382  0.49180439  0.92075807  1
  C  C106  1  0.85938578  0.35149403  0.92138015  1
  C  C107  1  0.49985678  0.13689899  0.92100090  1
  C  C108  1  0.63646954  0.14509021  0.41829147  1
  C  C109  1  0.49522148  0.35533870  0.42009187  1
  C  C110  1  0.84924178  0.49289574  0.42068936  1
  C  C111  1  0.36163571  0.50687284  0.07930112  1
  C  C112  1  0.14836601  0.63979989  0.07776851  1
  C  C113  1  0.50587876  0.86156050  0.07906024  1
  C  C114  1  0.36133110  0.85301852  0.58132149  1
  C  C115  1  0.50610631  0.64388188  0.58066901  1
  C  C116  1  0.15028820  0.50765875  0.57947182  1
  C  C117  1  0.31421830  0.83751343  0.25581322  1
  C  C118  1  0.52641016  0.69142837  0.25580773  1
  C  C119  1  0.17643768  0.48855239  0.25539537  1
  C  C120  1  0.30425055  0.47276018  0.75763353  1
  C  C121  1  0.16158404  0.68510368  0.75784886  1
  C  C122  1  0.51113733  0.82668924  0.75702912  1
