# generated using pymatgen
data_Cu3NiC
_symmetry_space_group_name_H-M   'P 1'
_cell_length_a   6.60436000
_cell_length_b   9.50254300
_cell_length_c   10.22941100
_cell_angle_alpha   90.00000000
_cell_angle_beta   90.00000000
_cell_angle_gamma   90.00000000
_symmetry_Int_Tables_number   1
_chemical_formula_structural   Cu3NiC
_chemical_formula_sum   'Cu12 Ni4 C4'
_cell_volume   641.97957371
_cell_formula_units_Z   4
loop_
 _symmetry_equiv_pos_site_id
 _symmetry_equiv_pos_as_xyz
  1  'x, y, z'
loop_
 _atom_site_type_symbol
 _atom_site_label
 _atom_site_symmetry_multiplicity
 _atom_site_fract_x
 _atom_site_fract_y
 _atom_site_fract_z
 _atom_site_occupancy
  Ni  Ni0  1  0.10581700  0.92183400  0.25000000  1
  Ni  Ni1  1  0.60581700  0.57816600  0.75000000  1
  Ni  Ni2  1  0.39418300  0.42183400  0.25000000  1
  Ni  Ni3  1  0.89418300  0.07816600  0.75000000  1
  Cu  Cu4  1  0.86909100  0.79805700  0.25000000  1
  Cu  Cu5  1  0.36909100  0.70194300  0.75000000  1
  Cu  Cu6  1  0.63090900  0.29805700  0.25000000  1
  Cu  Cu7  1  0.13090900  0.20194300  0.75000000  1
  Cu  Cu8  1  0.26770700  0.89250900  0.09278600  1
  Cu  Cu9  1  0.76770700  0.60749100  0.90721400  1
  Cu  Cu10  1  0.23229300  0.39250900  0.40721400  1
  Cu  Cu11  1  0.73229300  0.10749100  0.59278600  1
  Cu  Cu12  1  0.73229300  0.10749100  0.90721400  1
  Cu  Cu13  1  0.23229300  0.39250900  0.09278600  1
  Cu  Cu14  1  0.76770700  0.60749100  0.59278600  1
  Cu  Cu15  1  0.26770700  0.89250900  0.40721400  1
  C  C16  1  0.03839200  0.05734600  0.25000000  1
  C  C17  1  0.53839200  0.44265400  0.75000000  1
  C  C18  1  0.46160800  0.55734600  0.25000000  1
  C  C19  1  0.96160800  0.94265400  0.75000000  1
