# generated using pymatgen
data_Cu3Ni9C70
_symmetry_space_group_name_H-M   'P 1'
_cell_length_a   19.06370606
_cell_length_b   9.52675508
_cell_length_c   23.21129063
_cell_angle_alpha   90.00272387
_cell_angle_beta   89.83968113
_cell_angle_gamma   119.97758446
_symmetry_Int_Tables_number   1
_chemical_formula_structural   Cu3Ni9C70
_chemical_formula_sum   'Cu9 Ni27 C210'
_cell_volume   3651.55694611
_cell_formula_units_Z   3
loop_
 _symmetry_equiv_pos_site_id
 _symmetry_equiv_pos_as_xyz
  1  'x, y, z'
loop_
 _atom_site_type_symbol
 _atom_site_label
 _atom_site_symmetry_multiplicity
 _atom_site_fract_x
 _atom_site_fract_y
 _atom_site_fract_z
 _atom_site_occupancy
  C  C0  1  0.82361463  0.01601131  0.25669082  1
  C  C1  1  0.17448739  0.35173958  0.25452036  1
  C  C2  1  0.69502792  0.36936016  0.25185991  1
  C  C3  1  0.99852158  0.62974844  0.24379790  1
  C  C4  1  0.49899633  0.64957365  0.24589221  1
  C  C5  1  0.32228452  0.62975479  0.75214676  1
  C  C6  1  0.99641701  0.34586578  0.73613711  1
  C  C7  1  0.50074052  0.37031214  0.74038561  1
  C  C8  1  0.19290071  0.01966604  0.74631059  1
  C  C9  1  0.68138636  0.00466882  0.74700633  1
  C  C10  1  0.14179881  0.31079428  0.58087844  1
  C  C11  1  0.65420309  0.32705300  0.58227056  1
  C  C12  1  0.33625147  0.99153873  0.58823551  1
  C  C13  1  0.83366840  0.97277550  0.58443349  1
  C  C14  1  0.14694684  0.98110239  0.08061067  1
  C  C15  1  0.64550885  0.97330900  0.07766223  1
  C  C16  1  0.33399951  0.68231800  0.08314835  1
  C  C17  1  0.83651107  0.68303491  0.08906860  1
  C  C18  1  0.47995023  0.67843739  0.91603007  1
  C  C19  1  0.97860071  0.68186642  0.92879478  1
  C  C20  1  0.34091180  0.01703140  0.90564920  1
  C  C21  1  0.83993197  0.01608309  0.90704708  1
  C  C22  1  0.17529365  0.29460279  0.91070864  1
  C  C23  1  0.66990365  0.28662060  0.90863426  1
  C  C24  1  0.48392716  0.28496703  0.43316347  1
  C  C25  1  0.97746028  0.27774037  0.42200567  1
  C  C26  1  0.16794063  0.05279387  0.41318182  1
  C  C27  1  0.67822355  0.05712991  0.41889519  1
  C  C28  1  0.34200357  0.66605224  0.41163700  1
  C  C29  1  0.84186621  0.66476183  0.42262510  1
  C  C30  1  0.99532569  0.99436078  0.50357235  1
  C  C31  1  0.50934626  0.01802255  0.50588562  1
  C  C32  1  0.00489730  0.99447262  0.00316711  1
  C  C33  1  0.50549440  0.99477963  0.99698710  1
  C  C34  1  0.32908997  0.33529842  0.82327649  1
  C  C35  1  0.81559488  0.32502199  0.82547957  1
  C  C36  1  0.31515437  0.30125131  0.33498657  1
  C  C37  1  0.82726065  0.31992880  0.33205109  1
  C  C38  1  0.15346575  0.64763493  0.16817788  1
  C  C39  1  0.66340585  0.65772166  0.16683019  1
  C  C40  1  0.16140686  0.66761241  0.66488664  1
  C  C41  1  0.66111273  0.66218328  0.66352858  1
  C  C42  1  0.00118209  0.00714545  0.34756252  1
  C  C43  1  0.49947388  0.00498081  0.34862386  1
  C  C44  1  0.99814541  0.99474119  0.84566206  1
  C  C45  1  0.50176700  0.99551705  0.84520882  1
  C  C46  1  0.33688768  0.33081939  0.67625716  1
  C  C47  1  0.83703972  0.34339328  0.17705335  1
  C  C48  1  0.33190498  0.33879852  0.98973311  1
  C  C49  1  0.82539133  0.33733327  0.98738982  1
  C  C50  1  0.32666426  0.31580300  0.48791959  1
  C  C51  1  0.83242606  0.33573980  0.49384365  1
  C  C52  1  0.67522595  0.67617104  0.31691352  1
  C  C53  1  0.17363585  0.67134614  0.81411852  1
  C  C54  1  0.99610188  0.00148001  0.64916586  1
  C  C55  1  0.50916379  0.01219546  0.65640343  1
  C  C56  1  0.00805168  0.00621538  0.15597006  1
  C  C57  1  0.50116052  0.99261326  0.15142579  1
  C  C58  1  0.82861408  0.32724577  0.67595310  1
  C  C59  1  0.33009969  0.34387243  0.18081811  1
  C  C60  1  0.16712881  0.66870171  0.01906954  1
  C  C61  1  0.66425249  0.66319074  0.01891905  1
  C  C62  1  0.16360533  0.66428742  0.51886404  1
  C  C63  1  0.67343613  0.66499064  0.52199182  1
  C  C64  1  0.17664627  0.67219547  0.30911058  1
  C  C65  1  0.67750978  0.68394957  0.80790670  1
  Ni  Ni66  1  0.15714512  0.00329579  0.25024088  1
  Ni  Ni67  1  0.64943393  0.99539032  0.25007049  1
  Ni  Ni68  1  0.35074836  0.69460131  0.24942287  1
  Ni  Ni69  1  0.85063348  0.70249416  0.24776455  1
  Ni  Ni70  1  0.00266522  0.30610882  0.25335694  1
  Ni  Ni71  1  0.14815699  0.29909466  0.75004247  1
  Ni  Ni72  1  0.65774482  0.31204210  0.75182636  1
  Ni  Ni73  1  0.50246726  0.69872710  0.75426874  1
  Ni  Ni74  1  0.35030050  -0.00012947  0.74878287  1
  Ni  Ni75  1  0.85124564  0.01628325  0.75107127  1
  Ni  Ni76  1  0.49198023  0.32477580  0.58238041  1
  Ni  Ni77  1  0.98820144  0.33682357  0.58499542  1
  Ni  Ni78  1  0.17155769  0.01190169  0.58466580  1
  Ni  Ni79  1  0.67686977  0.01952799  0.58258766  1
  Ni  Ni80  1  0.83640359  0.64197727  0.57996547  1
  Ni  Ni81  1  0.48794684  0.64081364  0.08488135  1
  Ni  Ni82  1  0.99305374  0.65916417  0.08241701  1
  Ni  Ni83  1  0.17775619  0.33604042  0.08299217  1
  Ni  Ni84  1  0.66985291  0.32914863  0.08470493  1
  Ni  Ni85  1  0.31891758  0.67207489  0.92108426  1
  Ni  Ni86  1  0.80891655  0.66615707  0.91739969  1
  Ni  Ni87  1  0.16649614  0.96439422  0.91722630  1
  Ni  Ni88  1  0.66796373  0.95600552  0.91716010  1
  Ni  Ni89  1  0.30868734  0.95302573  0.41744319  1
  Ni  Ni90  1  0.81885817  0.97078045  0.42016363  1
  Ni  Ni91  1  0.16853792  0.38036103  0.41652589  1
  Ni  Ni92  1  0.66658276  0.36645616  0.41604325  1
  Cu  Cu93  1  0.49280905  0.29713114  0.24481661  1
  Cu  Cu94  1  0.99339248  0.68821903  0.74588731  1
  Cu  Cu95  1  0.33318795  0.65565560  0.58197143  1
  Cu  Cu96  1  0.33352128  0.02609342  0.08372860  1
  Cu  Cu97  1  0.83325711  0.01159462  0.08174293  1
  Cu  Cu98  1  0.01994722  0.37198942  0.92066138  1
  Cu  Cu99  1  0.52590708  0.38556184  0.91509715  1
  Cu  Cu100  1  0.02627420  0.66384539  0.41387093  1
  Cu  Cu101  1  0.51925470  0.66602412  0.41957473  1
  C  C102  1  0.13008244  0.05777698  0.30910216  1
  C  C103  1  0.61160107  0.01727576  0.31058214  1
  C  C104  1  0.40317969  0.75811211  0.30836207  1
  C  C105  1  0.89693679  0.78056003  0.30837933  1
  C  C106  1  0.48293014  0.21960982  0.30193038  1
  C  C107  1  0.98757961  0.21245159  0.31477389  1
  C  C108  1  0.11354745  0.21066865  0.81324191  1
  C  C109  1  0.62727581  0.20723909  0.81168673  1
  C  C110  1  0.48645369  0.75816881  0.81663411  1
  C  C111  1  0.98517867  0.74636179  0.80388316  1
  C  C112  1  0.39318248  0.01068366  0.81110202  1
  C  C113  1  0.90038261  0.04821493  0.81191191  1
  C  C114  1  0.40784945  0.99456219  0.69617572  1
  C  C115  1  0.90362911  0.99686117  0.69889868  1
  C  C116  1  0.08823642  0.17253576  0.69988881  1
  C  C117  1  0.59285847  0.20754783  0.69941283  1
  C  C118  1  0.99802478  0.80252454  0.70124994  1
  C  C119  1  0.51396676  0.83706124  0.70591981  1
  C  C120  1  0.40019410  0.81356604  0.19511060  1
  C  C121  1  0.90621663  0.81965372  0.19339675  1
  C  C122  1  0.01471119  0.19333980  0.20379298  1
  C  C123  1  0.49710938  0.19229076  0.19926975  1
  C  C124  1  0.09280886  0.97821176  0.19738564  1
  C  C125  1  0.58929948  0.99946257  0.19786859  1
  C  C126  1  0.45387598  0.35480295  0.64053421  1
  C  C127  1  0.93637117  0.35504567  0.63876368  1
  C  C128  1  0.23468382  0.08851417  0.63855194  1
  C  C129  1  0.74475891  0.12680302  0.63408979  1
  C  C130  1  0.31880474  0.55230624  0.63343335  1
  C  C131  1  0.82132131  0.49639666  0.62599243  1
  C  C132  1  0.43494654  0.51489276  0.13762124  1
  C  C133  1  0.95549291  0.55317854  0.14044825  1
  C  C134  1  0.32349128  0.12445017  0.12927558  1
  C  C135  1  0.81877814  0.08552685  0.13329179  1
  C  C136  1  0.24714848  0.36264564  0.13326202  1
  C  C137  1  0.73174934  0.37405845  0.13880592  1
  C  C138  1  0.21009578  0.29140548  0.02443230  1
  C  C139  1  0.70644375  0.27666351  0.02936102  1
  C  C140  1  0.43679993  0.57767362  0.02550842  1
  C  C141  1  0.93347340  0.57370087  0.02639007  1
  C  C142  1  0.34811848  0.10737271  0.02747290  1
  C  C143  1  0.84280870  0.10875704  0.02968390  1
  C  C144  1  0.20940782  0.13543661  0.52877939  1
  C  C145  1  0.70736342  0.12896904  0.52407199  1
  C  C146  1  0.34299495  0.57805249  0.52982365  1
  C  C147  1  0.85399200  0.59351015  0.51688684  1
  C  C148  1  0.43069235  0.28598996  0.52693421  1
  C  C149  1  0.93820760  0.29904425  0.52526494  1
  C  C150  1  0.26120066  0.66966097  0.97603944  1
  C  C151  1  0.75824147  0.66608857  0.97557281  1
  C  C152  1  0.07300845  0.47264547  0.96913642  1
  C  C153  1  0.57206269  0.47966812  0.96675373  1
  C  C154  1  0.16585996  0.84539630  0.97072318  1
  C  C155  1  0.66495476  0.85120039  0.97549029  1
  C  C156  1  0.25783949  0.85094922  0.47511802  1
  C  C157  1  0.76012690  0.85186618  0.47309968  1
  C  C158  1  0.16638001  0.48190728  0.47404214  1
  C  C159  1  0.66573175  0.48505717  0.46832259  1
  C  C160  1  0.07275193  0.66317045  0.46545515  1
  C  C161  1  0.57226143  0.67091916  0.46678724  1
  C  C162  1  0.06860881  0.66014325  0.36069510  1
  C  C163  1  0.55112492  0.65003964  0.36282496  1
  C  C164  1  0.25464780  0.85073715  0.36114104  1
  C  C165  1  0.77148763  0.89765720  0.35864927  1
  C  C166  1  0.17051499  0.48603278  0.35892945  1
  C  C167  1  0.66579086  0.44628274  0.35338055  1
  C  C168  1  0.05304365  0.45667028  0.86550453  1
  C  C169  1  0.56632059  0.47457847  0.86202663  1
  C  C170  1  0.16909502  0.88328233  0.85578990  1
  C  C171  1  0.67016805  0.85301445  0.86050756  1
  C  C172  1  0.26897101  0.64791042  0.86119419  1
  C  C173  1  0.75420779  0.65890674  0.86174101  1
  C  C174  1  0.02279990  0.81612683  0.41690035  1
  C  C175  1  0.51357384  0.81590463  0.42185169  1
  C  C176  1  0.39741396  0.96440282  0.41822352  1
  C  C177  1  0.90474286  0.96864494  0.42431866  1
  C  C178  1  0.08955107  0.19821638  0.42042972  1
  C  C179  1  0.58230924  0.18851507  0.42350580  1
  C  C180  1  0.01661649  0.21359481  0.92287985  1
  C  C181  1  0.52232796  0.22625707  0.91828536  1
  C  C182  1  0.08306141  0.97553214  0.92327016  1
  C  C183  1  0.58831161  0.97907306  0.92056167  1
  C  C184  1  0.40448150  0.84516286  0.92482534  1
  C  C185  1  0.89809881  0.83174350  0.91828976  1
  C  C186  1  0.50046171  0.15984234  0.58902071  1
  C  C187  1  0.99800539  0.17439875  0.59585077  1
  C  C188  1  0.08380837  0.00051704  0.59512145  1
  C  C189  1  0.58898115  0.00201033  0.59754887  1
  C  C190  1  0.40389749  0.81908212  0.58877914  1
  C  C191  1  0.90757020  0.82486635  0.59669193  1
  C  C192  1  0.49462863  0.82165278  0.09509502  1
  C  C193  1  0.00104219  0.84106536  0.08772067  1
  C  C194  1  0.40067824  0.99451740  0.09588434  1
  C  C195  1  0.90413665  0.98961382  0.08814697  1
  C  C196  1  0.09031334  0.17739132  0.09676369  1
  C  C197  1  0.57947721  0.16712466  0.09430665  1
  C  C198  1  0.33988016  0.16051797  0.74704566  1
  C  C199  1  0.84016959  0.17613202  0.74086396  1
  C  C200  1  0.24121113  0.33317415  0.74507112  1
  C  C201  1  0.74555842  0.32555298  0.73708665  1
  C  C202  1  0.42276329  0.52185774  0.74384416  1
  C  C203  1  0.92309083  0.52328889  0.73838349  1
  C  C204  1  0.34020524  0.51055448  0.23911480  1
  C  C205  1  0.83967714  0.52061394  0.24583793  1
  C  C206  1  0.42238842  0.32108054  0.23631574  1
  C  C207  1  0.92320460  0.32410355  0.24330855  1
  C  C208  1  0.24647507  0.16074301  0.23289618  1
  C  C209  1  0.74140209  0.14736615  0.24423906  1
  C  C210  1  0.33215849  0.51415001  0.92245071  1
  C  C211  1  0.81871643  0.50342966  0.91558674  1
  C  C212  1  0.44295700  0.36196288  0.91754628  1
  C  C213  1  0.93771935  0.34967069  0.92717269  1
  C  C214  1  0.25043916  0.14133054  0.92026135  1
  C  C215  1  0.75280198  0.13334964  0.91545344  1
  C  C216  1  0.31784407  0.13466765  0.41494518  1
  C  C217  1  0.83153053  0.15410356  0.42260440  1
  C  C218  1  0.25370592  0.37374692  0.41452199  1
  C  C219  1  0.74919784  0.35346855  0.41779533  1
  C  C220  1  0.43658162  0.52232118  0.42502714  1
  C  C221  1  0.94468532  0.52021008  0.41490916  1
  C  C222  1  0.17838002  0.50989176  0.08026324  1
  C  C223  1  0.66403267  0.49375144  0.07391339  1
  C  C224  1  0.08615496  0.68787417  0.07432610  1
  C  C225  1  0.58174936  0.67656898  0.08122047  1
  C  C226  1  0.25648271  0.86446515  0.08243388  1
  C  C227  1  0.75880901  0.84588413  0.07717416  1
  C  C228  1  0.16474992  0.83485074  0.57369565  1
  C  C229  1  0.67621671  0.84672719  0.57902764  1
  C  C230  1  0.25867799  0.67191108  0.57728440  1
  C  C231  1  0.75087342  0.64991567  0.58019011  1
  C  C232  1  0.08221535  0.49111247  0.58096259  1
  C  C233  1  0.58289270  0.48138735  0.57270653  1
  C  C234  1  0.15485459  0.82888338  0.25486997  1
  C  C235  1  0.64300622  0.81823296  0.24320756  1
  C  C236  1  0.25837100  0.66592991  0.25245576  1
  C  C237  1  0.76161950  0.69109957  0.24206375  1
  C  C238  1  0.08592059  0.48633864  0.25314886  1
  C  C239  1  0.56814441  0.45706829  0.24243605  1
  C  C240  1  0.14353448  0.46631025  0.74289219  1
  C  C241  1  0.65623317  0.48297906  0.75555606  1
  C  C242  1  0.06910432  0.67937635  0.74307960  1
  C  C243  1  0.58558049  0.68482948  0.75389794  1
  C  C244  1  0.26148002  0.83340056  0.74155126  1
  C  C245  1  0.75915222  0.85502459  0.75321651  1
