# generated using pymatgen
data_Cu2NiC9
_symmetry_space_group_name_H-M   'P 1'
_cell_length_a   5.91515204
_cell_length_b   5.91523238
_cell_length_c   5.51500740
_cell_angle_alpha   85.68612540
_cell_angle_beta   94.32491220
_cell_angle_gamma   68.84229937
_symmetry_Int_Tables_number   1
_chemical_formula_structural   Cu2NiC9
_chemical_formula_sum   'Cu2 Ni1 C9'
_cell_volume   178.35498414
_cell_formula_units_Z   1
loop_
 _symmetry_equiv_pos_site_id
 _symmetry_equiv_pos_as_xyz
  1  'x, y, z'
loop_
 _atom_site_type_symbol
 _atom_site_label
 _atom_site_symmetry_multiplicity
 _atom_site_fract_x
 _atom_site_fract_y
 _atom_site_fract_z
 _atom_site_occupancy
  C  C0  1  0.32783000  0.31308700  0.50136400  1
  C  C1  1  0.68686400  0.67218600  0.50136100  1
  Ni  Ni2  1  0.05550100  0.94451300  0.41119900  1
  Cu  Cu3  1  0.25904900  0.74079000  0.90531600  1
  Cu  Cu4  1  0.72758700  0.27241100  0.09870500  1
  C  C5  1  0.05861300  0.65688300  0.64043200  1
  C  C6  1  0.34311400  0.94146900  0.64032700  1
  C  C7  1  0.43544800  0.56460400  0.22958000  1
  C  C8  1  0.56379900  0.43621200  0.77592600  1
  C  C9  1  0.01910300  0.98091000  0.04408200  1
  C  C10  1  0.65478800  0.04839000  0.33211000  1
  C  C11  1  0.95163700  0.34521100  0.33209900  1
