# generated using pymatgen
data_Cu2NiC7
_symmetry_space_group_name_H-M   'P 1'
_cell_length_a   7.83955985
_cell_length_b   2.90717670
_cell_length_c   5.25866328
_cell_angle_alpha   90.15023022
_cell_angle_beta   110.52897135
_cell_angle_gamma   79.21899711
_symmetry_Int_Tables_number   1
_chemical_formula_structural   Cu2NiC7
_chemical_formula_sum   'Cu2 Ni1 C7'
_cell_volume   109.99931064
_cell_formula_units_Z   1
loop_
 _symmetry_equiv_pos_site_id
 _symmetry_equiv_pos_as_xyz
  1  'x, y, z'
loop_
 _atom_site_type_symbol
 _atom_site_label
 _atom_site_symmetry_multiplicity
 _atom_site_fract_x
 _atom_site_fract_y
 _atom_site_fract_z
 _atom_site_occupancy
  C  C0  1  0.78589398  0.60688741  0.28386874  1
  Ni  Ni1  1  0.34488838  0.32718680  0.36277137  1
  Cu  Cu2  1  0.02184864  0.98877825  0.98740672  1
  Cu  Cu3  1  0.67567618  0.66173452  0.70358771  1
  C  C4  1  0.04737280  0.47765831  0.25287305  1
  C  C5  1  0.41815364  0.79136992  0.62773671  1
  C  C6  1  0.73706632  0.13180944  0.97026101  1
  C  C7  1  0.27586547  0.86101427  0.08721069  1
  C  C8  1  0.63480807  0.18139048  0.43575037  1
  C  C9  1  0.92842653  0.53466960  0.72603461  1
