# generated using pymatgen
data_Cu2Ni7C32
_symmetry_space_group_name_H-M   'P 1'
_cell_length_a   18.74811991
_cell_length_b   9.31551346
_cell_length_c   22.99054180
_cell_angle_alpha   90.12170995
_cell_angle_beta   90.76039118
_cell_angle_gamma   119.99472807
_symmetry_Int_Tables_number   1
_chemical_formula_structural   Cu2Ni7C32
_chemical_formula_sum   'Cu12 Ni42 C192'
_cell_volume   3477.01822002
_cell_formula_units_Z   6
loop_
 _symmetry_equiv_pos_site_id
 _symmetry_equiv_pos_as_xyz
  1  'x, y, z'
loop_
 _atom_site_type_symbol
 _atom_site_label
 _atom_site_symmetry_multiplicity
 _atom_site_fract_x
 _atom_site_fract_y
 _atom_site_fract_z
 _atom_site_occupancy
  Ni  Ni0  1  0.80747326  0.99006184  0.25255805  1
  Ni  Ni1  1  0.18336140  0.34808402  0.25354068  1
  Ni  Ni2  1  0.68618874  0.36082096  0.25317390  1
  Ni  Ni3  1  0.00035865  0.64943005  0.24333461  1
  Ni  Ni4  1  0.51264361  0.65211166  0.24179238  1
  Ni  Ni5  1  0.31834337  0.62224981  0.75522915  1
  Ni  Ni6  1  0.01196671  0.37081840  0.74244676  1
  Ni  Ni7  1  0.49956623  0.36852075  0.74334748  1
  Ni  Ni8  1  0.18990259  0.02085261  0.75176012  1
  Ni  Ni9  1  0.66930985  0.99739206  0.75059087  1
  Ni  Ni10  1  0.14744356  0.32685228  0.58236217  1
  Ni  Ni11  1  0.65117154  0.31918133  0.58193174  1
  Ni  Ni12  1  0.33033224  0.98430821  0.59192292  1
  Ni  Ni13  1  0.83230242  0.99575882  0.58479458  1
  Ni  Ni14  1  0.15611663  0.99114397  0.07351457  1
  Ni  Ni15  1  0.64452257  0.96481440  0.07615460  1
  Ni  Ni16  1  0.33437757  0.67083267  0.07935442  1
  Ni  Ni17  1  0.82827180  0.67524203  0.08516887  1
  Ni  Ni18  1  0.48322259  0.68063598  0.91736209  1
  Ni  Ni19  1  0.99118122  0.68177882  0.91502300  1
  Ni  Ni20  1  0.34429024  0.03806434  0.90959655  1
  Ni  Ni21  1  0.84218757  0.03380793  0.91123918  1
  Ni  Ni22  1  0.17148772  0.28163395  0.91383141  1
  Ni  Ni23  1  0.66148765  0.27898858  0.91288752  1
  Ni  Ni24  1  0.49183836  0.30131391  0.41948560  1
  Ni  Ni25  1  0.98452804  0.29283552  0.43234949  1
  Ni  Ni26  1  0.16842675  0.05303863  0.42224996  1
  Ni  Ni27  1  0.67107311  0.06239058  0.41994173  1
  Ni  Ni28  1  0.34559437  0.65072531  0.41720509  1
  Ni  Ni29  1  0.84075458  0.64629935  0.41558577  1
  Ni  Ni30  1  0.01362323  0.02073854  0.50431106  1
  Ni  Ni31  1  0.51636779  0.00929281  0.49907810  1
  Ni  Ni32  1  0.01640929  0.02570982  0.99240069  1
  Ni  Ni33  1  0.51277982  0.00502614  0.99731451  1
  Ni  Ni34  1  0.32805090  0.33413194  0.82824185  1
  Ni  Ni35  1  0.81661638  0.32569415  0.83420257  1
  Ni  Ni36  1  0.32003856  0.30894625  0.33626041  1
  Ni  Ni37  1  0.81680476  0.32067089  0.33675405  1
  Ni  Ni38  1  0.16855941  0.66842897  0.16366615  1
  Ni  Ni39  1  0.65030431  0.64369265  0.16301653  1
  Ni  Ni40  1  0.15387962  0.65755226  0.66759580  1
  Ni  Ni41  1  0.65670696  0.66595246  0.67237969  1
  Cu  Cu42  1  0.00853527  0.01510256  0.64908897  1
  Cu  Cu43  1  0.50689474  0.99700797  0.65140225  1
  Cu  Cu44  1  0.00693597  0.00844759  0.14880796  1
  Cu  Cu45  1  0.50852772  0.00175565  0.14796559  1
  Cu  Cu46  1  0.82990098  0.33058281  0.68298563  1
  Cu  Cu47  1  0.33077937  0.32896938  0.18203665  1
  Cu  Cu48  1  0.16042918  0.65706590  0.01380968  1
  Cu  Cu49  1  0.65613578  0.65620365  0.01870299  1
  Cu  Cu50  1  0.15745877  0.66040470  0.52066990  1
  Cu  Cu51  1  0.66050654  0.66339837  0.51433269  1
  Cu  Cu52  1  0.17085430  0.67332204  0.31861625  1
  Cu  Cu53  1  0.66678814  0.66673874  0.81734574  1
  C  C54  1  0.01972029  0.03096317  0.34730651  1
  C  C55  1  0.52710340  0.04434498  0.34361230  1
  C  C56  1  0.02497744  0.00701855  0.84362827  1
  C  C57  1  0.52771248  0.98103764  0.83641435  1
  C  C58  1  0.32223116  0.33377631  0.68860208  1
  C  C59  1  0.80525674  0.29042012  0.17987489  1
  C  C60  1  0.32446129  0.33506914  0.99091022  1
  C  C61  1  0.81437353  0.30094885  0.98736994  1
  C  C62  1  0.31390764  0.33323316  0.49075321  1
  C  C63  1  0.82663071  0.31678605  0.49650469  1
  C  C64  1  0.66675771  0.66502709  0.32168055  1
  C  C65  1  0.17123172  0.67455080  0.82006894  1
  C  C66  1  0.15095547  0.99639019  0.25182083  1
  C  C67  1  0.65465866  0.99016663  0.25392217  1
  C  C68  1  0.15226072  0.31867818  0.75483346  1
  C  C69  1  0.65195068  0.30376937  0.75206388  1
  C  C70  1  0.49271602  0.68278072  0.75206486  1
  C  C71  1  0.97913916  0.32969797  0.58201693  1
  C  C72  1  0.19183374  0.04556514  0.58508940  1
  C  C73  1  0.68145107  0.03027904  0.57933835  1
  C  C74  1  0.47850879  0.62618572  0.08231749  1
  C  C75  1  0.18193246  0.33562936  0.08195017  1
  C  C76  1  0.68863488  0.34139524  0.08427546  1
  C  C77  1  0.16849595  0.96723056  0.91515831  1
  C  C78  1  0.66970140  0.97675265  0.91733727  1
  C  C79  1  0.16758017  0.36225108  0.41515756  1
  C  C80  1  0.66818658  0.36997169  0.41310903  1
  C  C81  1  0.35397787  0.70835324  0.25286247  1
  C  C82  1  0.85356340  0.70630253  0.25230846  1
  C  C83  1  0.99644233  0.29711625  0.25254101  1
  C  C84  1  0.50022205  0.29862151  0.25469802  1
  C  C85  1  0.00062017  0.70250950  0.75449535  1
  C  C86  1  0.35097017  0.99666686  0.75195395  1
  C  C87  1  0.85551392  0.00145200  0.75287260  1
  C  C88  1  0.47704321  0.33187378  0.58107733  1
  C  C89  1  0.33504679  0.63255988  0.58084083  1
  C  C90  1  0.83247507  0.63162755  0.57857529  1
  C  C91  1  0.97711495  0.61960279  0.08463671  1
  C  C92  1  0.33204771  0.03122336  0.07983654  1
  C  C93  1  0.83526831  0.04136589  0.08328972  1
  C  C94  1  0.31660705  0.67047669  0.91550526  1
  C  C95  1  0.82163494  0.67194010  0.91957436  1
  C  C96  1  0.01179345  0.36053782  0.91340751  1
  C  C97  1  0.51162852  0.35650493  0.91483756  1
  C  C98  1  0.32230034  0.97272342  0.41884554  1
  C  C99  1  0.81821916  0.96376911  0.41256760  1
  C  C100  1  0.01277709  0.66699738  0.41306387  1
  C  C101  1  0.51283417  0.66426056  0.41219900  1
  C  C102  1  0.10595617  0.01872828  0.30896455  1
  C  C103  1  0.61645479  0.03294093  0.31047049  1
  C  C104  1  0.40117811  0.79790899  0.30536299  1
  C  C105  1  0.90400106  0.79710632  0.30435127  1
  C  C106  1  0.48963421  0.20214194  0.30870560  1
  C  C107  1  0.98350175  0.19630862  0.30566887  1
  C  C108  1  0.11100318  0.20155781  0.81157778  1
  C  C109  1  0.60703119  0.19510637  0.81055909  1
  C  C110  1  0.47199455  0.75318048  0.81209543  1
  C  C111  1  0.98928120  0.77589437  0.80892542  1
  C  C112  1  0.40100181  0.01044911  0.80369088  1
  C  C113  1  0.90367755  0.00857331  0.80526639  1
  C  C114  1  0.39011614  0.97859962  0.69758395  1
  C  C115  1  0.89323791  0.98457857  0.69890920  1
  C  C116  1  0.09299718  0.23611293  0.69632780  1
  C  C117  1  0.59756039  0.22150579  0.69187011  1
  C  C118  1  0.00528524  0.80355960  0.70369080  1
  C  C119  1  0.51192627  0.81454186  0.69987322  1
  C  C120  1  0.39166186  0.80051005  0.19905634  1
  C  C121  1  0.89277018  0.80618721  0.19865923  1
  C  C122  1  0.00805076  0.21327660  0.20150835  1
  C  C123  1  0.50506895  0.20763531  0.20346871  1
  C  C124  1  0.09541273  0.97200697  0.19246233  1
  C  C125  1  0.59707856  0.95903234  0.19542150  1
  C  C126  1  0.44014704  0.34925340  0.63499469  1
  C  C127  1  0.93667633  0.34568005  0.64141038  1
  C  C128  1  0.25033752  0.13964579  0.64202608  1
  C  C129  1  0.73687411  0.11945823  0.63828486  1
  C  C130  1  0.32820595  0.53536384  0.63319289  1
  C  C131  1  0.82166786  0.52657900  0.62998691  1
  C  C132  1  0.43897966  0.53023210  0.14356540  1
  C  C133  1  0.94047758  0.52818777  0.13835842  1
  C  C134  1  0.32097096  0.11369872  0.13150015  1
  C  C135  1  0.83049721  0.12435881  0.13742255  1
  C  C136  1  0.23473139  0.35601527  0.14238119  1
  C  C137  1  0.74452402  0.37670526  0.14439818  1
  C  C138  1  0.22269182  0.30297685  0.02441305  1
  C  C139  1  0.72938463  0.31390942  0.02598755  1
  C  C140  1  0.42310184  0.52880458  0.02450020  1
  C  C141  1  0.93063126  0.53387254  0.03108483  1
  C  C142  1  0.34209451  0.12523247  0.02635171  1
  C  C143  1  0.84774508  0.14126483  0.03058267  1
  C  C144  1  0.22583893  0.14074203  0.52268844  1
  C  C145  1  0.72187943  0.13936974  0.52025183  1
  C  C146  1  0.34790712  0.56074308  0.52662880  1
  C  C147  1  0.84328149  0.55865657  0.52491095  1
  C  C148  1  0.43116115  0.32758077  0.52764802  1
  C  C149  1  0.92724647  0.32074396  0.52232892  1
  C  C150  1  0.27358534  0.68232275  0.96882378  1
  C  C151  1  0.78244410  0.69193127  0.97283951  1
  C  C152  1  0.06801178  0.43972217  0.96514163  1
  C  C153  1  0.56818417  0.43892447  0.96587323  1
  C  C154  1  0.15092246  0.85641809  0.97488551  1
  C  C155  1  0.66013310  0.86645452  0.97497592  1
  C  C156  1  0.28150763  0.87162085  0.47095882  1
  C  C157  1  0.77705861  0.86356906  0.46550755  1
  C  C158  1  0.15665681  0.45974763  0.47042414  1
  C  C159  1  0.65251726  0.45191797  0.47153759  1
  C  C160  1  0.06956313  0.69815496  0.46367790  1
  C  C161  1  0.56921414  0.69715639  0.46351166  1
  C  C162  1  0.05374814  0.64772017  0.36022527  1
  C  C163  1  0.55190093  0.64231065  0.35952981  1
  C  C164  1  0.26475567  0.89127108  0.36758938  1
  C  C165  1  0.76520273  0.88207782  0.36036809  1
  C  C166  1  0.18005712  0.46828866  0.35521599  1
  C  C167  1  0.67913500  0.48698285  0.35606166  1
  C  C168  1  0.05133050  0.46115970  0.86118567  1
  C  C169  1  0.55307840  0.45955904  0.86283043  1
  C  C170  1  0.17865460  0.86847361  0.85905673  1
  C  C171  1  0.68409624  0.89156658  0.85967252  1
  C  C172  1  0.26372789  0.64625538  0.86342458  1
  C  C173  1  0.76446545  0.63916001  0.86929012  1
  C  C174  1  0.00098515  0.81323356  0.40928107  1
  C  C175  1  0.49947453  0.80886389  0.40882793  1
  C  C176  1  0.40138394  0.97576965  0.41091445  1
  C  C177  1  0.89985112  0.97280209  0.40879597  1
  C  C178  1  0.08188630  0.17721991  0.41471159  1
  C  C179  1  0.58221691  0.18357832  0.41188320  1
  C  C180  1  0.99778154  0.18860635  0.91015870  1
  C  C181  1  0.49927020  0.18737904  0.91060698  1
  C  C182  1  0.08274465  0.98173650  0.91195645  1
  C  C183  1  0.58463140  0.98921368  0.91419065  1
  C  C184  1  0.39702144  0.82580400  0.91368985  1
  C  C185  1  0.90167858  0.82809609  0.91210541  1
  C  C186  1  0.47955479  0.17109419  0.58224771  1
  C  C187  1  0.98012317  0.15109741  0.58191714  1
  C  C188  1  0.10004044  0.02967834  0.58936074  1
  C  C189  1  0.59162582  0.02193613  0.58176170  1
  C  C190  1  0.40385487  0.80731565  0.58510484  1
  C  C191  1  0.90348368  0.80228738  0.58698009  1
  C  C192  1  0.48128785  0.80886435  0.08279603  1
  C  C193  1  0.97921611  0.78610719  0.08622365  1
  C  C194  1  0.40242896  0.00240629  0.08830427  1
  C  C195  1  0.90434791  0.00563875  0.08802680  1
  C  C196  1  0.09062404  0.16392279  0.08367900  1
  C  C197  1  0.59828954  0.17093244  0.08806780  1
  C  C198  1  0.34359517  0.14943053  0.74873504  1
  C  C199  1  0.85247293  0.16070275  0.75105191  1
  C  C200  1  0.24236898  0.32971638  0.74967851  1
  C  C201  1  0.74015900  0.30380853  0.75018696  1
  C  C202  1  0.41317932  0.49617765  0.74184496  1
  C  C203  1  0.92914257  0.52988357  0.75003355  1
  C  C204  1  0.34941947  0.54151381  0.25136887  1
  C  C205  1  0.84988423  0.54214824  0.24919098  1
  C  C206  1  0.42873540  0.32759447  0.25069748  1
  C  C207  1  0.92529708  0.32313078  0.24451182  1
  C  C208  1  0.24102665  0.16827747  0.25001206  1
  C  C209  1  0.74836995  0.15771603  0.24836656  1
  C  C210  1  0.32743713  0.52244201  0.91856792  1
  C  C211  1  0.83612055  0.52839615  0.92302087  1
  C  C212  1  0.43168878  0.35206834  0.92053411  1
  C  C213  1  0.93220000  0.35690513  0.92202682  1
  C  C214  1  0.25252710  0.15293738  0.91933933  1
  C  C215  1  0.75470591  0.16297569  0.91903059  1
  C  C216  1  0.33592217  0.14392707  0.42227824  1
  C  C217  1  0.82951694  0.13347044  0.41652500  1
  C  C218  1  0.25263739  0.34770568  0.41943006  1
  C  C219  1  0.75175955  0.35281311  0.41693070  1
  C  C220  1  0.43280803  0.50873171  0.42039228  1
  C  C221  1  0.93283876  0.51307716  0.41862897  1
  C  C222  1  0.18074018  0.51130766  0.07975936  1
  C  C223  1  0.68521551  0.51443264  0.08051181  1
  C  C224  1  0.06566912  0.65989402  0.08192906  1
  C  C225  1  0.57572502  0.67099804  0.08210553  1
  C  C226  1  0.25453404  0.86373269  0.07700274  1
  C  C227  1  0.75713890  0.87768194  0.07931659  1
  C  C228  1  0.18845152  0.86453633  0.58211224  1
  C  C229  1  0.68087354  0.85306148  0.57738520  1
  C  C230  1  0.25661608  0.63838820  0.57605392  1
  C  C231  1  0.75563915  0.64440866  0.57535637  1
  C  C232  1  0.07638934  0.48009432  0.58227685  1
  C  C233  1  0.56569469  0.47104766  0.57906749  1
  C  C234  1  0.15261737  0.82061995  0.25348640  1
  C  C235  1  0.66224606  0.82041992  0.26103303  1
  C  C236  1  0.26641558  0.67430063  0.25346793  1
  C  C237  1  0.76882390  0.68244369  0.25366209  1
  C  C238  1  0.07407265  0.46306648  0.25689786  1
  C  C239  1  0.57765352  0.46346368  0.25602978  1
  C  C240  1  0.16115362  0.50509984  0.76122010  1
  C  C241  1  0.65960608  0.48612077  0.75479078  1
  C  C242  1  0.07807300  0.69410462  0.75588407  1
  C  C243  1  0.57858600  0.67430822  0.75666329  1
  C  C244  1  0.26611298  0.84731322  0.75286975  1
  C  C245  1  0.76873460  0.86087557  0.75394256  1
