# generated using pymatgen
data_Cu5(NiC10)7
_symmetry_space_group_name_H-M   'P 1'
_cell_length_a   19.56707521
_cell_length_b   9.84180060
_cell_length_c   23.53956202
_cell_angle_alpha   90.16186257
_cell_angle_beta   89.55518540
_cell_angle_gamma   120.19874164
_symmetry_Int_Tables_number   1
_chemical_formula_structural   Cu5(NiC10)7
_chemical_formula_sum   'Cu15 Ni21 C210'
_cell_volume   3917.80512050
_cell_formula_units_Z   3
loop_
 _symmetry_equiv_pos_site_id
 _symmetry_equiv_pos_as_xyz
  1  'x, y, z'
loop_
 _atom_site_type_symbol
 _atom_site_label
 _atom_site_symmetry_multiplicity
 _atom_site_fract_x
 _atom_site_fract_y
 _atom_site_fract_z
 _atom_site_occupancy
  C  C0  1  0.80484205  0.98353335  0.23444619  1
  C  C1  1  0.18932744  0.35952430  0.26248817  1
  C  C2  1  0.69296337  0.37002918  0.25900841  1
  C  C3  1  0.00121690  0.66466914  0.23434469  1
  C  C4  1  0.50128325  0.65821613  0.23696415  1
  C  C5  1  0.30614948  0.62890249  0.75476699  1
  C  C6  1  0.99664782  0.33675007  0.74403161  1
  C  C7  1  0.50480186  0.34496393  0.74593084  1
  C  C8  1  0.19021734  0.01251561  0.76754218  1
  C  C9  1  0.69278987  0.02426994  0.76904748  1
  C  C10  1  0.14146317  0.32079106  0.58430188  1
  C  C11  1  0.64271123  0.32372004  0.58614172  1
  C  C12  1  0.34193683  0.98106853  0.57284736  1
  C  C13  1  0.84246636  0.98562281  0.58051425  1
  C  C14  1  0.14196555  0.96516398  0.09023225  1
  C  C15  1  0.65418253  0.96040629  0.08747399  1
  C  C16  1  0.34194555  0.69622376  0.08027617  1
  C  C17  1  0.83455723  0.70753751  0.07293245  1
  C  C18  1  0.48998196  0.69508975  0.93093589  1
  C  C19  1  0.98224151  0.68835142  0.93491978  1
  C  C20  1  0.33768791  0.00600542  0.90927076  1
  C  C21  1  0.83408300  0.00686264  0.92430021  1
  C  C22  1  0.17053571  0.29009313  0.90330402  1
  C  C23  1  0.67758749  0.30564889  0.90564432  1
  C  C24  1  0.48440647  0.27892299  0.42530572  1
  C  C25  1  0.98484161  0.28011996  0.42449736  1
  C  C26  1  0.17356183  0.04918916  0.39755093  1
  C  C27  1  0.67469738  0.05387358  0.39813643  1
  C  C28  1  0.33324951  0.66191016  0.39983292  1
  C  C29  1  0.83675521  0.66652704  0.40243252  1
  C  C30  1  0.99843398  0.02598294  0.49348991  1
  C  C31  1  0.49978777  0.02582638  0.49305019  1
  C  C32  1  0.98382456  0.97419235  0.00366513  1
  C  C33  1  0.50255803  0.97405435  0.99628869  1
  C  C34  1  0.31884755  0.31997961  0.83505413  1
  C  C35  1  0.81996603  0.33591488  0.83521133  1
  C  C36  1  0.31918736  0.30948902  0.32618380  1
  C  C37  1  0.82108238  0.32569160  0.32590660  1
  C  C38  1  0.16319252  0.68568625  0.17241378  1
  C  C39  1  0.66560649  0.68687523  0.16219531  1
  C  C40  1  0.15441693  0.63913506  0.67278656  1
  C  C41  1  0.66919799  0.64972966  0.67576429  1
  C  C42  1  0.99697728  0.99728496  0.34496696  1
  C  C43  1  0.49645401  0.99737558  0.34494350  1
  C  C44  1  0.99587748  0.99328264  0.84684189  1
  C  C45  1  0.49886406  -0.00054613  0.84745240  1
  C  C46  1  0.99644785  0.00674418  0.65422680  1
  C  C47  1  0.49776984  0.00684332  0.65246096  1
  C  C48  1  0.99234160  0.99224835  0.14986286  1
  C  C49  1  0.49771413  0.98872862  0.15399355  1
  C  C50  1  0.33714601  0.32789103  0.68301230  1
  C  C51  1  0.83775801  0.33810994  0.68530575  1
  C  C52  1  0.33775279  0.33731443  0.18424882  1
  C  C53  1  0.83766512  0.33527011  0.17809643  1
  C  C54  1  0.33803906  0.34365422  0.98392934  1
  C  C55  1  0.83671556  0.32965301  0.98799553  1
  C  C56  1  0.33599216  0.33060932  0.48304023  1
  C  C57  1  0.83805016  0.33292054  0.48312497  1
  C  C58  1  0.16109819  0.66854407  0.01457766  1
  C  C59  1  0.66750716  0.67803397  0.01629272  1
  C  C60  1  0.16349382  0.65654752  0.51429574  1
  C  C61  1  0.66233651  0.65539818  0.51475151  1
  C  C62  1  0.17942440  0.68509477  0.31550217  1
  C  C63  1  0.67465914  0.67427043  0.31889599  1
  C  C64  1  0.17328344  0.67394498  0.82096294  1
  C  C65  1  0.68145903  0.67837284  0.81748669  1
  Ni  Ni66  1  0.15255065  0.99864671  0.24869881  1
  Ni  Ni67  1  0.65577399  0.00016254  0.25142699  1
  Ni  Ni68  1  0.34327171  0.68017869  0.25138282  1
  Ni  Ni69  1  0.84468935  0.68328367  0.25403941  1
  Ni  Ni70  1  0.15457920  0.31092774  0.74930601  1
  Ni  Ni71  1  0.65427642  0.31168665  0.74851190  1
  Ni  Ni72  1  0.34277355  0.99758327  0.75117160  1
  Ni  Ni73  1  0.84375449  0.00393511  0.74844298  1
  Ni  Ni74  1  0.49029011  0.33056984  0.58319741  1
  Ni  Ni75  1  0.99051989  0.33287810  0.58370740  1
  Ni  Ni76  1  0.48961282  0.65205911  0.08322393  1
  Ni  Ni77  1  0.99187220  0.64905082  0.08437285  1
  Ni  Ni78  1  0.83151650  0.01634656  0.08233467  1
  Ni  Ni79  1  0.32226220  0.66759454  0.91924374  1
  Ni  Ni80  1  0.82114648  0.66290971  0.92427783  1
  Ni  Ni81  1  0.16762037  0.98125986  0.91411488  1
  Ni  Ni82  1  0.66690218  0.97863182  0.91408775  1
  Ni  Ni83  1  0.32117568  0.97140690  0.42633393  1
  Ni  Ni84  1  0.82192855  0.97338284  0.42190160  1
  Ni  Ni85  1  0.16691671  0.35697653  0.41568541  1
  Ni  Ni86  1  0.66565283  0.35244729  0.41636912  1
  Cu  Cu87  1  0.00039594  0.31285519  0.25338380  1
  Cu  Cu88  1  0.50264283  0.31344733  0.25309163  1
  Cu  Cu89  1  0.00456345  0.69377480  0.75162751  1
  Cu  Cu90  1  0.50022610  0.69056172  0.75168002  1
  Cu  Cu91  1  0.17904261  0.02440119  0.58418484  1
  Cu  Cu92  1  0.68156346  0.02825553  0.58359138  1
  Cu  Cu93  1  0.33136021  0.64308192  0.58315123  1
  Cu  Cu94  1  0.83233117  0.64537485  0.57990765  1
  Cu  Cu95  1  0.33250129  0.01861452  0.07954073  1
  Cu  Cu96  1  0.18275123  0.33773183  0.08364155  1
  Cu  Cu97  1  0.67791419  0.33063534  0.08352927  1
  Cu  Cu98  1  0.01175113  0.35623234  0.91226138  1
  Cu  Cu99  1  0.51454782  0.36236643  0.91293427  1
  Cu  Cu100  1  0.01474378  0.66965090  0.41319648  1
  Cu  Cu101  1  0.51261505  0.67010727  0.41348062  1
  C  C102  1  0.11083237  0.01699001  0.30786990  1
  C  C103  1  0.61349215  0.01645940  0.31017575  1
  C  C104  1  0.38750471  0.77276300  0.31048746  1
  C  C105  1  0.88933552  0.76205864  0.31457613  1
  C  C106  1  0.49745201  0.23384420  0.30804539  1
  C  C107  1  0.99533092  0.23074337  0.30781719  1
  C  C108  1  0.11246268  0.20099961  0.80588767  1
  C  C109  1  0.60762749  0.19955512  0.80417367  1
  C  C110  1  0.49414477  0.76522980  0.80499654  1
  C  C111  1  0.00082306  0.76623245  0.80600139  1
  C  C112  1  0.39365109  0.01381956  0.80862635  1
  C  C113  1  0.89564581  0.00635092  0.80348091  1
  C  C114  1  0.38918444  0.98414770  0.69465902  1
  C  C115  1  0.88791170  0.99721773  0.68934042  1
  C  C116  1  0.10276327  0.21851863  0.69217339  1
  C  C117  1  0.60024036  0.21733977  0.69177001  1
  C  C118  1  0.00497973  0.78891416  0.70285279  1
  C  C119  1  0.50749545  0.79076103  0.70248194  1
  C  C120  1  0.39350777  0.78444768  0.19580265  1
  C  C121  1  0.89495500  0.80280673  0.20184125  1
  C  C122  1  0.00876135  0.22511334  0.20544794  1
  C  C123  1  0.50373478  0.21700204  0.20524673  1
  C  C124  1  0.09720586  0.98856276  0.19432068  1
  C  C125  1  0.59948148  0.98800004  0.19719179  1
  C  C126  1  0.44334017  0.32897055  0.64206933  1
  C  C127  1  0.94251724  0.33483481  0.64104251  1
  C  C128  1  0.22605743  0.11075290  0.63508249  1
  C  C129  1  0.72898103  0.11640215  0.63386721  1
  C  C130  1  0.33162580  0.55607611  0.63463212  1
  C  C131  1  0.82993719  0.54641591  0.62807817  1
  C  C132  1  0.44066068  0.55204873  0.14021639  1
  C  C133  1  0.94540745  0.55543575  0.14274054  1
  C  C134  1  0.32921404  0.11337528  0.12751999  1
  C  C135  1  0.82901922  0.11058923  0.14003329  1
  C  C136  1  0.23096352  0.34583530  0.13369558  1
  C  C137  1  0.72436137  0.34053557  0.13493781  1
  C  C138  1  0.22238690  0.32246164  0.03139760  1
  C  C139  1  0.71979967  0.31868628  0.03226146  1
  C  C140  1  0.44008239  0.56124181  0.02496320  1
  C  C141  1  0.94447905  0.55269815  0.02669503  1
  C  C142  1  0.33484301  0.09583197  0.02475712  1
  C  C143  1  0.82938761  0.10529836  0.02358955  1
  C  C144  1  0.22023597  0.12123672  0.53288065  1
  C  C145  1  0.72067640  0.12303805  0.53151030  1
  C  C146  1  0.33259073  0.55910636  0.53111598  1
  C  C147  1  0.83479304  0.57226485  0.52526171  1
  C  C148  1  0.44002361  0.32643679  0.52619710  1
  C  C149  1  0.94190115  0.32537500  0.52532487  1
  C  C150  1  0.27290794  0.67670803  0.97480792  1
  C  C151  1  0.78219287  0.68142628  0.98384361  1
  C  C152  1  0.06295885  0.44736396  0.96031241  1
  C  C153  1  0.56272224  0.44974212  0.96226431  1
  C  C154  1  0.15809815  0.86563655  0.96800672  1
  C  C155  1  0.65611036  0.86450299  0.96862761  1
  C  C156  1  0.28450882  0.88748533  0.48836217  1
  C  C157  1  0.77764251  0.87449910  0.48021958  1
  C  C158  1  0.15824230  0.44320382  0.47391263  1
  C  C159  1  0.65551001  0.44121610  0.47301270  1
  C  C160  1  0.06180653  0.67874804  0.46372980  1
  C  C161  1  0.56189289  0.68119652  0.46269435  1
  C  C162  1  0.05240627  0.65320345  0.36120524  1
  C  C163  1  0.54824328  0.65187590  0.36044433  1
  C  C164  1  0.25676578  0.87216451  0.37699444  1
  C  C165  1  0.76634481  0.88378996  0.36662883  1
  C  C166  1  0.17647429  0.46856736  0.36091873  1
  C  C167  1  0.67534361  0.45990730  0.36007941  1
  C  C168  1  0.04773947  0.43987874  0.85820169  1
  C  C169  1  0.55071488  0.44767233  0.85920296  1
  C  C170  1  0.17804576  0.89944507  0.85585975  1
  C  C171  1  0.67206610  0.89027984  0.85608254  1
  C  C172  1  0.27242930  0.65067958  0.86057485  1
  C  C173  1  0.75921693  0.63380833  0.87281521  1
  C  C174  1  0.00787041  0.81351996  0.41342599  1
  C  C175  1  0.50550783  0.81354795  0.41363633  1
  C  C176  1  0.40800698  0.98210847  0.41798477  1
  C  C177  1  0.91009343  0.98838254  0.41909962  1
  C  C178  1  0.08682246  0.17996442  0.41505454  1
  C  C179  1  0.58534813  0.17521508  0.41616107  1
  C  C180  1  0.00358564  0.19765003  0.91396118  1
  C  C181  1  0.50534113  0.20264247  0.91386262  1
  C  C182  1  0.08944127  0.00287848  0.91483772  1
  C  C183  1  0.58827280  0.00142184  0.91645273  1
  C  C184  1  0.41052826  0.82838219  0.92022556  1
  C  C185  1  0.90770916  0.82882272  0.91828925  1
  C  C186  1  0.49489532  0.16465730  0.57807837  1
  C  C187  1  0.99623346  0.16776467  0.58039833  1
  C  C188  1  0.09893118  0.00534758  0.58616617  1
  C  C189  1  0.60062891  0.00605206  0.58598874  1
  C  C190  1  0.40049183  0.80607725  0.58148921  1
  C  C191  1  0.90199602  0.80766814  0.58192132  1
  C  C192  1  0.49351023  0.82615231  0.08018894  1
  C  C193  1  0.99762907  0.82335445  0.08018195  1
  C  C194  1  0.40255079  -0.00240159  0.08210032  1
  C  C195  1  0.90873001  0.99243419  0.07905490  1
  C  C196  1  0.10265630  0.19850520  0.08606665  1
  C  C197  1  0.59833581  0.18680033  0.08506161  1
  C  C198  1  0.33337772  0.15692717  0.75052794  1
  C  C199  1  0.84238346  0.17209141  0.75198773  1
  C  C200  1  0.24736287  0.34698583  0.74807227  1
  C  C201  1  0.74243462  0.32798858  0.74826881  1
  C  C202  1  0.42548327  0.53399853  0.74860026  1
  C  C203  1  0.93597532  0.53074320  0.75025748  1
  C  C204  1  0.34271563  0.50990215  0.25316396  1
  C  C205  1  0.83754561  0.50859038  0.25010085  1
  C  C206  1  0.43335447  0.33724889  0.25077307  1
  C  C207  1  0.92644297  0.32113435  0.24989819  1
  C  C208  1  0.24185918  0.15790340  0.24813384  1
  C  C209  1  0.74570503  0.15532359  0.24905860  1
  C  C210  1  0.33438422  0.51187637  0.91862335  1
  C  C211  1  0.83520333  0.51038420  0.92168392  1
  C  C212  1  0.43308274  0.34074875  0.91652076  1
  C  C213  1  0.93172737  0.33752364  0.91674812  1
  C  C214  1  0.24963369  0.15756625  0.91633167  1
  C  C215  1  0.74833866  0.15448683  0.91516442  1
  C  C216  1  0.33785828  0.15462425  0.42144673  1
  C  C217  1  0.83678820  0.15546417  0.42039577  1
  C  C218  1  0.24768487  0.33925498  0.41492260  1
  C  C219  1  0.74640366  0.33595040  0.41702392  1
  C  C220  1  0.43092943  0.53139731  0.41827950  1
  C  C221  1  0.93279925  0.53017591  0.41651800  1
  C  C222  1  0.17954076  0.48504549  0.08233038  1
  C  C223  1  0.67054270  0.47255285  0.08189465  1
  C  C224  1  0.08347063  0.67928444  0.08790923  1
  C  C225  1  0.57946606  0.68070849  0.08584122  1
  C  C226  1  0.26000387  0.85864174  0.08411938  1
  C  C227  1  0.75039698  0.84033163  0.08786619  1
  C  C228  1  0.17433661  0.86977797  0.58281696  1
  C  C229  1  0.67751564  0.87393923  0.58208141  1
  C  C230  1  0.25730380  0.65281402  0.58629779  1
  C  C231  1  0.75916893  0.65865482  0.58452747  1
  C  C232  1  0.08151244  0.48682304  0.58642159  1
  C  C233  1  0.58106759  0.48310169  0.58605063  1
  C  C234  1  0.15477861  0.83345287  0.24825021  1
  C  C235  1  0.66081277  0.83717993  0.24839170  1
  C  C236  1  0.25135689  0.64193762  0.24720344  1
  C  C237  1  0.75493624  0.65984178  0.25080162  1
  C  C238  1  0.06885456  0.47545441  0.25276502  1
  C  C239  1  0.57549468  0.47054477  0.24955971  1
  C  C240  1  0.15667645  0.48129553  0.75006378  1
  C  C241  1  0.65567306  0.48013070  0.74931789  1
  C  C242  1  0.07797830  0.68306788  0.74797209  1
  C  C243  1  0.56800571  0.66335338  0.75186855  1
  C  C244  1  0.25352714  0.84035194  0.75012628  1
  C  C245  1  0.75210300  0.85635611  0.74732988  1
