# generated using pymatgen
data_Cu2NiC9
_symmetry_space_group_name_H-M   'P 1'
_cell_length_a   5.83490376
_cell_length_b   5.84693238
_cell_length_c   5.61484363
_cell_angle_alpha   89.16816371
_cell_angle_beta   90.10583367
_cell_angle_gamma   119.67464275
_symmetry_Int_Tables_number   1
_chemical_formula_structural   Cu2NiC9
_chemical_formula_sum   'Cu2 Ni1 C9'
_cell_volume   166.41428946
_cell_formula_units_Z   1
loop_
 _symmetry_equiv_pos_site_id
 _symmetry_equiv_pos_as_xyz
  1  'x, y, z'
loop_
 _atom_site_type_symbol
 _atom_site_label
 _atom_site_symmetry_multiplicity
 _atom_site_fract_x
 _atom_site_fract_y
 _atom_site_fract_z
 _atom_site_occupancy
  C  C0  1  0.00000000  0.00000000  0.50000000  1
  Ni  Ni1  1  0.00000000  0.00000000  0.00000000  1
  Cu  Cu2  1  0.66492400  0.33212600  0.67853900  1
  Cu  Cu3  1  0.33507500  0.66787400  0.32146100  1
  C  C4  1  0.66440400  0.33757200  0.36841200  1
  C  C5  1  0.33559600  0.66242800  0.63158700  1
  C  C6  1  0.84050400  0.67626700  0.75577200  1
  C  C7  1  0.31786400  0.15292600  0.75699800  1
  C  C8  1  0.68213400  0.84707400  0.24300200  1
  C  C9  1  0.16301600  0.84557900  0.24688600  1
  C  C10  1  0.15949800  0.32373500  0.24422900  1
  C  C11  1  0.83698400  0.15441900  0.75311400  1
