# generated using pymatgen
data_Cu2Ni4C9
_symmetry_space_group_name_H-M   'P 1'
_cell_length_a   7.45891998
_cell_length_b   7.45891998
_cell_length_c   7.45891998
_cell_angle_alpha   57.66578193
_cell_angle_beta   57.66578193
_cell_angle_gamma   57.66578193
_symmetry_Int_Tables_number   1
_chemical_formula_structural   Cu2Ni4C9
_chemical_formula_sum   'Cu2 Ni4 C9'
_cell_volume   277.69589466
_cell_formula_units_Z   1
loop_
 _symmetry_equiv_pos_site_id
 _symmetry_equiv_pos_as_xyz
  1  'x, y, z'
loop_
 _atom_site_type_symbol
 _atom_site_label
 _atom_site_symmetry_multiplicity
 _atom_site_fract_x
 _atom_site_fract_y
 _atom_site_fract_z
 _atom_site_occupancy
  C  C0  1  0.50000000  0.50000000  0.50000000  1
  Ni  Ni1  1  0.00000000  0.00000000  0.50000000  1
  Ni  Ni2  1  0.00000000  0.50000000  0.00000000  1
  Ni  Ni3  1  0.50000000  0.00000000  0.00000000  1
  Ni  Ni4  1  0.00000000  0.00000000  0.00000000  1
  Cu  Cu5  1  0.35454400  0.35454400  0.35454400  1
  Cu  Cu6  1  0.64545600  0.64545600  0.64545600  1
  C  C7  1  0.24849800  0.24849800  0.75963100  1
  C  C8  1  0.24849800  0.75963100  0.24849800  1
  C  C9  1  0.75963100  0.24849800  0.24849800  1
  C  C10  1  0.23272600  0.23272600  0.23272600  1
  C  C11  1  0.75150200  0.75150200  0.24036900  1
  C  C12  1  0.75150200  0.24036900  0.75150200  1
  C  C13  1  0.24036900  0.75150200  0.75150200  1
  C  C14  1  0.76727400  0.76727400  0.76727400  1
