# generated using pymatgen
data_Cu4NiC
_symmetry_space_group_name_H-M   'P 1'
_cell_length_a   9.30694406
_cell_length_b   9.30694406
_cell_length_c   8.28903700
_cell_angle_alpha   90.00000000
_cell_angle_beta   90.00000000
_cell_angle_gamma   120.00000040
_symmetry_Int_Tables_number   1
_chemical_formula_structural   Cu4NiC
_chemical_formula_sum   'Cu24 Ni6 C6'
_cell_volume   621.79741885
_cell_formula_units_Z   6
loop_
 _symmetry_equiv_pos_site_id
 _symmetry_equiv_pos_as_xyz
  1  'x, y, z'
loop_
 _atom_site_type_symbol
 _atom_site_label
 _atom_site_symmetry_multiplicity
 _atom_site_fract_x
 _atom_site_fract_y
 _atom_site_fract_z
 _atom_site_occupancy
  C  C0  1  0.93375000  0.60388600  0.75000000  1
  C  C1  1  0.32986400  0.93375000  0.25000000  1
  C  C2  1  0.60388600  0.67013600  0.25000000  1
  C  C3  1  0.39611400  0.32986400  0.75000000  1
  C  C4  1  0.67013600  0.06625000  0.75000000  1
  C  C5  1  0.06625000  0.39611400  0.25000000  1
  Ni  Ni6  1  0.86267800  0.31739000  0.25000000  1
  Ni  Ni7  1  0.13732200  0.68261000  0.75000000  1
  Ni  Ni8  1  0.45471200  0.13732200  0.25000000  1
  Ni  Ni9  1  0.68261000  0.54528800  0.25000000  1
  Ni  Ni10  1  0.31739000  0.45471200  0.75000000  1
  Ni  Ni11  1  0.54528800  0.86267800  0.75000000  1
  Cu  Cu12  1  0.12228200  0.42116800  0.46971900  1
  Cu  Cu13  1  0.87771800  0.57883200  0.96971900  1
  Cu  Cu14  1  0.29888600  0.87771800  0.46971900  1
  Cu  Cu15  1  0.57883200  0.70111400  0.46971900  1
  Cu  Cu16  1  0.42116800  0.29888600  0.96971900  1
  Cu  Cu17  1  0.70111400  0.12228200  0.96971900  1
  Cu  Cu18  1  0.09398800  0.21165800  0.25000000  1
  Cu  Cu19  1  0.88233100  0.09398800  0.75000000  1
  Cu  Cu20  1  0.21165800  0.11766900  0.75000000  1
  Cu  Cu21  1  0.78834200  0.88233100  0.25000000  1
  Cu  Cu22  1  0.11766900  0.90601200  0.25000000  1
  Cu  Cu23  1  0.90601200  0.78834200  0.75000000  1
  Cu  Cu24  1  0.36902800  0.51585200  0.25000000  1
  Cu  Cu25  1  0.85317600  0.36902800  0.75000000  1
  Cu  Cu26  1  0.51585200  0.14682400  0.75000000  1
  Cu  Cu27  1  0.48414800  0.85317600  0.25000000  1
  Cu  Cu28  1  0.14682400  0.63097200  0.25000000  1
  Cu  Cu29  1  0.63097200  0.48414800  0.75000000  1
  Cu  Cu30  1  0.12228200  0.42116800  0.03028100  1
  Cu  Cu31  1  0.70111400  0.12228200  0.53028100  1
  Cu  Cu32  1  0.42116800  0.29888600  0.53028100  1
  Cu  Cu33  1  0.57883200  0.70111400  0.03028100  1
  Cu  Cu34  1  0.29888600  0.87771800  0.03028100  1
  Cu  Cu35  1  0.87771800  0.57883200  0.53028100  1
