# generated using pymatgen
data_CuNi11C70
_symmetry_space_group_name_H-M   'P 1'
_cell_length_a   18.58856531
_cell_length_b   9.29230193
_cell_length_c   22.89526407
_cell_angle_alpha   89.92975235
_cell_angle_beta   90.00448269
_cell_angle_gamma   119.97901833
_symmetry_Int_Tables_number   1
_chemical_formula_structural   CuNi11C70
_chemical_formula_sum   'Cu3 Ni33 C210'
_cell_volume   3425.60154286
_cell_formula_units_Z   3
loop_
 _symmetry_equiv_pos_site_id
 _symmetry_equiv_pos_as_xyz
  1  'x, y, z'
loop_
 _atom_site_type_symbol
 _atom_site_label
 _atom_site_symmetry_multiplicity
 _atom_site_fract_x
 _atom_site_fract_y
 _atom_site_fract_z
 _atom_site_occupancy
  C  C0  1  0.32527850  0.99957889  0.24998108  1
  C  C1  1  0.82604242  0.00037501  0.24987758  1
  C  C2  1  0.32380528  0.63940941  0.74916520  1
  C  C3  1  0.82371744  0.64554209  0.74862268  1
  C  C4  1  0.49331403  0.35904813  0.74822535  1
  C  C5  1  0.68007206  0.00571398  0.75110483  1
  C  C6  1  0.15043917  0.32519077  0.58101490  1
  C  C7  1  0.65374309  0.32866847  0.58163547  1
  C  C8  1  0.01398931  0.70451716  0.58459426  1
  C  C9  1  0.51033990  0.68844182  0.58297083  1
  C  C10  1  0.33124397  0.98029309  0.58276018  1
  C  C11  1  0.84011397  0.97437390  0.58551476  1
  C  C12  1  0.14582343  0.95622073  0.07966539  1
  C  C13  1  0.64573758  0.95624636  0.07925996  1
  C  C14  1  0.33250093  0.71136381  0.08359844  1
  C  C15  1  0.83262671  0.71123497  0.08413987  1
  C  C16  1  0.02360383  0.33562188  0.08362436  1
  C  C17  1  0.52326671  0.33513095  0.08373786  1
  C  C18  1  0.48577362  0.68007644  0.91466185  1
  C  C19  1  0.98641871  0.67646769  0.91498909  1
  C  C20  1  0.35406254  0.02621350  0.91504402  1
  C  C21  1  0.85331458  0.02866298  0.91500914  1
  C  C22  1  0.16071877  0.29911919  0.91955098  1
  C  C23  1  0.66054256  0.29384193  0.91594124  1
  C  C24  1  0.47632053  0.28781200  0.41549503  1
  C  C25  1  0.97778522  0.29010994  0.41649968  1
  C  C26  1  0.16784205  0.04393104  0.42176490  1
  C  C27  1  0.66721968  0.04296282  0.41963650  1
  C  C28  1  0.35507616  0.66487114  0.41584880  1
  C  C29  1  0.85635749  0.66450498  0.41626028  1
  C  C30  1  0.00158936  0.99970740  0.50063088  1
  C  C31  1  0.49885780  0.99883732  0.49552276  1
  C  C32  1  0.00012695  0.00171633  0.00020488  1
  C  C33  1  0.49971341  0.99966947  0.99935925  1
  C  C34  1  0.33456758  0.32499083  0.83001362  1
  C  C35  1  0.83975760  0.33464048  0.83196426  1
  C  C36  1  0.33845581  0.34926867  0.33515581  1
  C  C37  1  0.83940572  0.35096360  0.33461701  1
  C  C38  1  0.16391404  0.64991158  0.16567244  1
  C  C39  1  0.66391329  0.64994818  0.16549212  1
  C  C40  1  0.16310008  0.67835941  0.66840987  1
  C  C41  1  0.66712948  0.66707359  0.66712215  1
  C  C42  1  0.99505782  0.99573134  0.35038234  1
  C  C43  1  0.49460051  0.99517767  0.34991693  1
  C  C44  1  0.99487349  0.99213944  0.84695701  1
  C  C45  1  0.50205532  0.00324122  0.84862896  1
  C  C46  1  0.99871229  0.99143828  0.65288131  1
  C  C47  1  0.99708241  0.00475851  0.14933405  1
  C  C48  1  0.49691754  0.00465273  0.14909869  1
  C  C49  1  0.33198321  0.32522877  0.67881353  1
  C  C50  1  0.33612741  0.33614678  0.48252476  1
  C  C51  1  0.83238270  0.32974119  0.48116037  1
  C  C52  1  0.16701010  0.66662644  0.01997148  1
  C  C53  1  0.66764819  0.66649739  0.02074209  1
  C  C54  1  0.49864348  0.99826990  0.65108420  1
  C  C55  1  0.83613168  0.33555474  0.68330376  1
  C  C56  1  0.33836887  0.34705707  0.18517878  1
  C  C57  1  0.83864898  0.34757588  0.18519032  1
  C  C58  1  0.33360567  0.33483657  0.97863083  1
  C  C59  1  0.83339012  0.33298011  0.97864282  1
  C  C60  1  0.16534043  0.66708566  0.51906053  1
  C  C61  1  0.66762217  0.66622838  0.52003211  1
  C  C62  1  0.16498663  0.65233487  0.31503550  1
  C  C63  1  0.66479165  0.65274177  0.31457066  1
  C  C64  1  0.16685605  0.67695705  0.81846537  1
  C  C65  1  0.66608836  0.66853464  0.81582660  1
  Ni  Ni66  1  0.34534977  0.69205523  0.25028522  1
  Ni  Ni67  1  0.84550360  0.69233523  0.25032410  1
  Ni  Ni68  1  0.99945785  0.30799704  0.24972817  1
  Ni  Ni69  1  0.49921961  0.30767015  0.24963685  1
  Ni  Ni70  1  0.65088519  0.30224780  0.74878032  1
  Ni  Ni71  1  0.00154537  0.68820502  0.74967535  1
  Ni  Ni72  1  0.50038799  0.70008488  0.75148678  1
  Ni  Ni73  1  0.34765405  0.99476481  0.75217660  1
  Ni  Ni74  1  0.84569363  0.00154675  0.75020440  1
  Ni  Ni75  1  0.48657549  0.33162732  0.58320877  1
  Ni  Ni76  1  0.98307922  0.33638346  0.58181451  1
  Ni  Ni77  1  0.18184704  0.02951668  0.57869686  1
  Ni  Ni78  1  0.68357961  0.03497442  0.58449817  1
  Ni  Ni79  1  0.33335681  0.63911985  0.58412775  1
  Ni  Ni80  1  0.83170740  0.62748999  0.58191604  1
  Ni  Ni81  1  0.47660447  0.62170783  0.08167868  1
  Ni  Ni82  1  0.97651594  0.62173097  0.08140007  1
  Ni  Ni83  1  0.33326355  0.05245724  0.08443150  1
  Ni  Ni84  1  0.83338691  0.05219942  0.08476809  1
  Ni  Ni85  1  0.19126258  0.32983177  0.08336550  1
  Ni  Ni86  1  0.69143786  0.32946044  0.08335328  1
  Ni  Ni87  1  0.31304844  0.66177653  0.91712746  1
  Ni  Ni88  1  0.81257955  0.66077241  0.91722603  1
  Ni  Ni89  1  0.01902929  0.37386052  0.91836089  1
  Ni  Ni90  1  0.51800029  0.37560743  0.91795838  1
  Ni  Ni91  1  0.16917767  0.96805551  0.91886163  1
  Ni  Ni92  1  0.66935228  0.96465032  0.91895217  1
  Ni  Ni93  1  0.30772009  0.95061410  0.41479323  1
  Ni  Ni94  1  0.80763006  0.94867474  0.41518991  1
  Ni  Ni95  1  0.16648853  0.37767176  0.41881656  1
  Ni  Ni96  1  0.66616549  0.37770303  0.41764014  1
  Ni  Ni97  1  0.02466485  0.66806163  0.41557521  1
  Ni  Ni98  1  0.52642228  0.67023729  0.41690653  1
  Cu  Cu99  1  0.15368588  -0.00005640  0.24984843  1
  Cu  Cu100  1  0.65366232  0.00001063  0.24999131  1
  Cu  Cu101  1  0.15206558  0.31192406  0.75226205  1
  C  C102  1  0.11532127  0.02451052  0.30226007  1
  C  C103  1  0.61527181  0.02424819  0.30255103  1
  C  C104  1  0.40075373  0.76661030  0.30886013  1
  C  C105  1  0.90070231  0.76693008  0.30879220  1
  C  C106  1  0.47859093  0.18802081  0.30666083  1
  C  C107  1  0.97808072  0.18776053  0.30657500  1
  C  C108  1  0.11134155  0.21031596  0.80417059  1
  C  C109  1  0.62059235  0.19306755  0.80722257  1
  C  C110  1  0.48677991  0.77792533  0.80966197  1
  C  C111  1  0.97775534  0.76028276  0.80641003  1
  C  C112  1  0.40214279  0.02559686  0.80989584  1
  C  C113  1  0.89880370  0.03535969  0.80899983  1
  C  C114  1  0.40230279  0.97262938  0.69607345  1
  C  C115  1  0.88174848  0.95363756  0.69389142  1
  C  C116  1  0.10435466  0.23480416  0.69887223  1
  C  C117  1  0.58428142  0.19756194  0.69507160  1
  C  C118  1  0.01827818  0.79697790  0.69123792  1
  C  C119  1  0.51324514  0.83050539  0.69563867  1
  C  C120  1  0.38475976  0.81255849  0.19360220  1
  C  C121  1  0.88443219  0.81228713  0.19344180  1
  C  C122  1  0.01711115  0.23263158  0.19124201  1
  C  C123  1  0.51740058  0.23287999  0.19127316  1
  C  C124  1  0.10312068  0.97562816  0.19742557  1
  C  C125  1  0.60301519  0.97547221  0.19769213  1
  C  C126  1  0.45099028  0.37992800  0.63960047  1
  C  C127  1  0.92789694  0.36067033  0.63568586  1
  C  C128  1  0.24478712  0.10389001  0.63330565  1
  C  C129  1  0.74843565  0.13550379  0.63857926  1
  C  C130  1  0.31060505  0.52295822  0.64142206  1
  C  C131  1  0.81834985  0.50005275  0.63797315  1
  C  C132  1  0.42475117  0.50357741  0.13852588  1
  C  C133  1  0.92474866  0.50380430  0.13831837  1
  C  C134  1  0.32644829  0.15131252  0.14202451  1
  C  C135  1  0.82661766  0.15163030  0.14211334  1
  C  C136  1  0.25086845  0.34212543  0.13835867  1
  C  C137  1  0.75102365  0.34204380  0.13833029  1
  C  C138  1  0.24021317  0.31676537  0.02330780  1
  C  C139  1  0.74072927  0.31689974  0.02323371  1
  C  C140  1  0.41819462  0.52151293  0.02361341  1
  C  C141  1  0.91814782  0.52103401  0.02320542  1
  C  C142  1  0.34124272  0.16781040  0.02535322  1
  C  C143  1  0.84117713  0.16724847  0.02543421  1
  C  C144  1  0.22137676  0.14434674  0.52111295  1
  C  C145  1  0.71377578  0.14431238  0.52558727  1
  C  C146  1  0.35957154  0.56953341  0.52785953  1
  C  C147  1  0.84730237  0.55127519  0.52369665  1
  C  C148  1  0.42824822  0.28342551  0.52601376  1
  C  C149  1  0.92751933  0.29513446  0.52367247  1
  C  C150  1  0.27545710  0.69601327  0.97512134  1
  C  C151  1  0.77633600  0.69684811  0.97516755  1
  C  C152  1  0.07105054  0.44354002  0.97766286  1
  C  C153  1  0.57278387  0.45124179  0.97556603  1
  C  C154  1  0.14840842  0.85591479  0.97638754  1
  C  C155  1  0.65283705  0.85597842  0.97679613  1
  C  C156  1  0.25688307  0.83439260  0.47261092  1
  C  C157  1  0.75853556  0.83567765  0.47487008  1
  C  C158  1  0.15707066  0.47470508  0.47688987  1
  C  C159  1  0.65996842  0.48169466  0.47509234  1
  C  C160  1  0.07998393  0.67854114  0.47440463  1
  C  C161  1  0.58162570  0.68241279  0.47701199  1
  C  C162  1  0.07850591  0.65569028  0.36069530  1
  C  C163  1  0.57944635  0.65724615  0.36186061  1
  C  C164  1  0.25133706  0.85136301  0.35720621  1
  C  C165  1  0.75070364  0.84876003  0.35808095  1
  C  C166  1  0.17393232  0.49653291  0.36184651  1
  C  C167  1  0.67285372  0.49535970  0.36091533  1
  C  C168  1  0.07392347  0.50840817  0.86442901  1
  C  C169  1  0.56880646  0.50065906  0.85992033  1
  C  C170  1  0.18320429  0.86263588  0.86315803  1
  C  C171  1  0.67925695  0.85853870  0.86173993  1
  C  C172  1  0.24936360  0.63557655  0.86027972  1
  C  C173  1  0.74923007  0.63768233  0.85985632  1
  C  C174  1  0.02089512  0.83858314  0.41517567  1
  C  C175  1  0.52206312  0.84031848  0.41632063  1
  C  C176  1  0.39797584  0.96066744  0.41675267  1
  C  C177  1  0.89780973  0.96053826  0.41671341  1
  C  C178  1  0.08309699  0.19810740  0.41532242  1
  C  C179  1  0.58173077  0.19891007  0.41645551  1
  C  C180  1  0.00570732  0.18964579  0.90918576  1
  C  C181  1  0.50417474  0.19088174  0.91134358  1
  C  C182  1  0.09265922  0.99972773  0.90710993  1
  C  C183  1  0.59198649  0.99600123  0.91273475  1
  C  C184  1  0.40622909  0.81727241  0.91130293  1
  C  C185  1  0.90570685  0.81758315  0.91038965  1
  C  C186  1  0.49866215  0.16726034  0.59516694  1
  C  C187  1  0.99899956  0.18346897  0.59352406  1
  C  C188  1  0.08998408  0.00802117  0.58572886  1
  C  C189  1  0.58992800  0.00800931  0.59848655  1
  C  C190  1  0.41714927  0.82843060  0.59537693  1
  C  C191  1  0.90985156  0.81283774  0.58943912  1
  C  C192  1  0.48234673  0.80087085  0.08395033  1
  C  C193  1  0.98206336  0.80077614  0.08365265  1
  C  C194  1  0.41788309  0.04104441  0.08294942  1
  C  C195  1  0.91803220  0.04103623  0.08288087  1
  C  C196  1  0.10203081  0.15960319  0.08389715  1
  C  C197  1  0.60222512  0.15969215  0.08392174  1
  C  C198  1  0.34053379  0.15898324  0.74404005  1
  C  C199  1  0.82960181  0.16032898  0.73907322  1
  C  C200  1  0.23683611  0.33585391  0.74923420  1
  C  C201  1  0.74361597  0.32820921  0.73478714  1
  C  C202  1  0.42014315  0.51757662  0.74403343  1
  C  C203  1  0.91418769  0.50420104  0.73880185  1
  C  C204  1  0.33241750  0.50392960  0.23984265  1
  C  C205  1  0.83233390  0.50397184  0.23977716  1
  C  C206  1  0.41198025  0.31660238  0.24112284  1
  C  C207  1  0.91217563  0.31725313  0.24100262  1
  C  C208  1  0.23872572  0.14797440  0.24405951  1
  C  C209  1  0.73865469  0.14772511  0.24422136  1
  C  C210  1  0.31584626  0.48490765  0.92112104  1
  C  C211  1  0.81612049  0.48521940  0.92023826  1
  C  C212  1  0.42676083  0.36899232  0.92102502  1
  C  C213  1  0.92728885  0.36659167  0.92108055  1
  C  C214  1  0.25805509  0.14714211  0.92170116  1
  C  C215  1  0.75850546  0.14616928  0.92099959  1
  C  C216  1  0.31647144  0.13319239  0.41550426  1
  C  C217  1  0.81312858  0.12801064  0.41568356  1
  C  C218  1  0.25214029  0.37285167  0.41746549  1
  C  C219  1  0.75026185  0.36808003  0.41541481  1
  C  C220  1  0.43656828  0.50244118  0.41666266  1
  C  C221  1  0.93442877  0.50067044  0.41553679  1
  C  C222  1  0.18503755  0.49734333  0.08483764  1
  C  C223  1  0.68529533  0.49691463  0.08491812  1
  C  C224  1  0.06513629  0.63032078  0.08470085  1
  C  C225  1  0.56518321  0.62993198  0.08485709  1
  C  C226  1  0.24996106  0.87139230  0.08490554  1
  C  C227  1  0.75026272  0.87128469  0.08554985  1
  C  C228  1  0.17208138  0.84124741  0.57189716  1
  C  C229  1  0.67591744  0.84877516  0.57890901  1
  C  C230  1  0.25134118  0.66252583  0.57349777  1
  C  C231  1  0.74496348  0.63972202  0.57853131  1
  C  C232  1  0.07431238  0.51103571  0.57849052  1
  C  C233  1  0.57984857  0.49804317  0.57407916  1
  C  C234  1  0.16481918  0.85217719  0.25573754  1
  C  C235  1  0.66474019  0.85205072  0.25600023  1
  C  C236  1  0.25366801  0.68329466  0.25900869  1
  C  C237  1  0.75361714  0.68339751  0.25908166  1
  C  C238  1  0.08090400  0.49592556  0.26022426  1
  C  C239  1  0.58038298  0.49606038  0.26027411  1
  C  C240  1  0.15953892  0.47956187  0.75754875  1
  C  C241  1  0.65653677  0.48602092  0.75528256  1
  C  C242  1  0.08503385  0.67015026  0.76197934  1
  C  C243  1  0.58802009  0.69118242  0.75577781  1
  C  C244  1  0.25809325  0.81404293  0.75693842  1
  C  C245  1  0.75211605  0.83058317  0.76048263  1
