# generated using pymatgen
data_CuNi2C21
_symmetry_space_group_name_H-M   'P 1'
_cell_length_a   5.98652284
_cell_length_b   5.98655830
_cell_length_c   15.42798395
_cell_angle_alpha   83.56232546
_cell_angle_beta   96.43752788
_cell_angle_gamma   119.71189056
_symmetry_Int_Tables_number   1
_chemical_formula_structural   CuNi2C21
_chemical_formula_sum   'Cu1 Ni2 C21'
_cell_volume   476.17198305
_cell_formula_units_Z   1
loop_
 _symmetry_equiv_pos_site_id
 _symmetry_equiv_pos_as_xyz
  1  'x, y, z'
loop_
 _atom_site_type_symbol
 _atom_site_label
 _atom_site_symmetry_multiplicity
 _atom_site_fract_x
 _atom_site_fract_y
 _atom_site_fract_z
 _atom_site_occupancy
  C  C0  1  0.09396500  0.90605800  0.39352900  1
  C  C1  1  0.31927900  0.68072700  0.78924400  1
  C  C2  1  0.62518000  0.37483400  0.63301600  1
  C  C3  1  0.67661100  0.32338500  0.91848900  1
  C  C4  1  0.36589500  0.63410600  0.05266000  1
  C  C5  1  0.72660400  0.27338100  0.21307900  1
  C  C6  1  0.40905600  0.59093700  0.29740400  1
  Ni  Ni7  1  0.99042000  0.00959300  0.81164200  1
  Ni  Ni8  1  0.05120300  0.94878500  0.17149800  1
  Cu  Cu9  1  0.02145900  0.97853500  0.00057800  1
  C  C10  1  0.74952800  0.25044500  0.42597400  1
  C  C11  1  0.23353800  0.76645200  0.58693700  1
  C  C12  1  0.15771700  0.29683400  0.91348300  1
  C  C13  1  0.30936700  0.18589200  0.75770800  1
  C  C14  1  0.22071200  0.25192800  0.24776400  1
  C  C15  1  0.81410200  0.69065400  0.75770600  1
  C  C16  1  0.81608200  0.18396300  0.75477300  1
  C  C17  1  0.87778700  0.65036500  0.08791800  1
  C  C18  1  0.22327800  0.77671700  0.24958400  1
  C  C19  1  0.34963000  0.12219000  0.08791600  1
  C  C20  1  0.87851800  0.12148500  0.08534500  1
  C  C21  1  0.70316600  0.84230000  0.91348000  1
  C  C22  1  0.74806700  0.77928500  0.24776700  1
  C  C23  1  0.15967100  0.84031600  0.91500300  1
