# generated using pymatgen
data_CuNiC16
_symmetry_space_group_name_H-M   'P 1'
_cell_length_a   9.19833189
_cell_length_b   9.19833157
_cell_length_c   24.25477281
_cell_angle_alpha   90.00000000
_cell_angle_beta   90.00000000
_cell_angle_gamma   120.00000118
_symmetry_Int_Tables_number   1
_chemical_formula_structural   CuNiC16
_chemical_formula_sum   'Cu6 Ni6 C96'
_cell_volume   1777.23956787
_cell_formula_units_Z   6
loop_
 _symmetry_equiv_pos_site_id
 _symmetry_equiv_pos_as_xyz
  1  'x, y, z'
loop_
 _atom_site_type_symbol
 _atom_site_label
 _atom_site_symmetry_multiplicity
 _atom_site_fract_x
 _atom_site_fract_y
 _atom_site_fract_z
 _atom_site_occupancy
  C  C0  1  -0.00000000  -0.00000000  0.49793406  1
  C  C1  1  -0.00000000  -0.00000000  0.99793406  1
  C  C2  1  0.66666700  0.33333300  0.83126706  1
  C  C3  1  0.66666700  0.33333300  0.33126706  1
  C  C4  1  0.33333300  0.66666700  0.16460106  1
  C  C5  1  0.33333300  0.66666700  0.66460106  1
  Ni  Ni6  1  -0.00000000  -0.00000000  0.35094553  1
  Ni  Ni7  1  -0.00000000  -0.00000000  0.85094553  1
  Ni  Ni8  1  0.66666700  0.33333300  0.68427853  1
  Ni  Ni9  1  0.66666700  0.33333300  0.18427853  1
  Ni  Ni10  1  0.33333300  0.66666700  0.01761253  1
  Ni  Ni11  1  0.33333300  0.66666700  0.51761253  1
  Cu  Cu12  1  -0.00000000  -0.00000000  0.64924640  1
  Cu  Cu13  1  -0.00000000  -0.00000000  0.14924640  1
  Cu  Cu14  1  0.66666700  0.33333300  0.98257940  1
  Cu  Cu15  1  0.66666700  0.33333300  0.48257940  1
  Cu  Cu16  1  0.33333300  0.66666700  0.31591340  1
  Cu  Cu17  1  0.33333300  0.66666700  0.81591340  1
  C  C18  1  0.29487594  0.00038950  0.25052432  1
  C  C19  1  0.70551355  0.70512406  0.25052432  1
  C  C20  1  0.99961050  0.29448645  0.25052432  1
  C  C21  1  0.29487594  0.29448645  0.75052432  1
  C  C22  1  0.99961050  0.70512406  0.75052432  1
  C  C23  1  0.70551355  0.00038950  0.75052432  1
  C  C24  1  0.96154294  0.33372250  0.58385732  1
  C  C25  1  0.37218055  0.03845706  0.58385732  1
  C  C26  1  0.66627750  0.62781945  0.58385732  1
  C  C27  1  0.96154294  0.62781945  0.08385732  1
  C  C28  1  0.66627750  0.03845706  0.08385732  1
  C  C29  1  0.37218055  0.33372250  0.08385732  1
  C  C30  1  0.62820894  0.66705650  0.91719132  1
  C  C31  1  0.03884655  0.37179106  0.91719132  1
  C  C32  1  0.33294350  0.96115345  0.91719132  1
  C  C33  1  0.62820894  0.96115345  0.41719132  1
  C  C34  1  0.33294350  0.37179106  0.41719132  1
  C  C35  1  0.03884655  0.66705650  0.41719132  1
  C  C36  1  0.21486867  0.02085924  0.29989263  1
  C  C37  1  0.80599057  0.78513133  0.29989263  1
  C  C38  1  0.97914076  0.19400943  0.29989263  1
  C  C39  1  0.21486867  0.19400943  0.79989263  1
  C  C40  1  0.97914076  0.78513133  0.79989263  1
  C  C41  1  0.80599057  0.02085924  0.79989263  1
  C  C42  1  0.78529241  0.97593099  0.70026146  1
  C  C43  1  0.19063857  0.21470759  0.70026146  1
  C  C44  1  0.02406901  0.80936143  0.70026146  1
  C  C45  1  0.78529241  0.80936143  0.20026146  1
  C  C46  1  0.02406901  0.21470759  0.20026146  1
  C  C47  1  0.19063857  0.97593099  0.20026146  1
  C  C48  1  0.88153567  0.35419224  0.63322563  1
  C  C49  1  0.47265757  0.11846433  0.63322563  1
  C  C50  1  0.64580776  0.52734243  0.63322563  1
  C  C51  1  0.88153567  0.52734243  0.13322563  1
  C  C52  1  0.64580776  0.11846433  0.13322563  1
  C  C53  1  0.47265757  0.35419224  0.13322563  1
  C  C54  1  0.45195941  0.30926399  0.03359446  1
  C  C55  1  0.85730557  0.54804059  0.03359446  1
  C  C56  1  0.69073601  0.14269443  0.03359446  1
  C  C57  1  0.45195941  0.14269443  0.53359446  1
  C  C58  1  0.69073601  0.54804059  0.53359446  1
  C  C59  1  0.85730557  0.30926399  0.53359446  1
  C  C60  1  0.54820167  0.68752624  0.96655963  1
  C  C61  1  0.13932357  0.45179833  0.96655963  1
  C  C62  1  0.31247376  0.86067643  0.96655963  1
  C  C63  1  0.54820167  0.86067643  0.46655963  1
  C  C64  1  0.31247376  0.45179833  0.46655963  1
  C  C65  1  0.13932357  0.68752624  0.46655963  1
  C  C66  1  0.11862541  0.64259799  0.36692846  1
  C  C67  1  0.52397157  0.88137459  0.36692846  1
  C  C68  1  0.35740201  0.47602843  0.36692846  1
  C  C69  1  0.11862541  0.47602843  0.86692846  1
  C  C70  1  0.35740201  0.88137459  0.86692846  1
  C  C71  1  0.52397157  0.64259799  0.86692846  1
  C  C72  1  0.01887344  0.81530190  0.41097891  1
  C  C73  1  0.79642846  0.98112656  0.41097891  1
  C  C74  1  0.18469810  0.20357154  0.41097891  1
  C  C75  1  0.01887344  0.20357154  0.91097891  1
  C  C76  1  0.18469810  0.98112656  0.91097891  1
  C  C77  1  0.79642846  0.81530190  0.91097891  1
  C  C78  1  0.97695630  0.17877793  0.58896735  1
  C  C79  1  0.20182163  0.02304370  0.58896735  1
  C  C80  1  0.82122207  0.79817837  0.58896735  1
  C  C81  1  0.97695630  0.79817837  0.08896735  1
  C  C82  1  0.82122207  0.02304370  0.08896735  1
  C  C83  1  0.20182163  0.17877793  0.08896735  1
  C  C84  1  0.68554044  0.14863490  0.74431191  1
  C  C85  1  0.46309546  0.31445956  0.74431191  1
  C  C86  1  0.85136510  0.53690454  0.74431191  1
  C  C87  1  0.68554044  0.53690454  0.24431191  1
  C  C88  1  0.85136510  0.31445956  0.24431191  1
  C  C89  1  0.46309546  0.14863490  0.24431191  1
  C  C90  1  0.64362330  0.51211093  0.92230035  1
  C  C91  1  0.86848863  0.35637670  0.92230035  1
  C  C92  1  0.48788907  0.13151137  0.92230035  1
  C  C93  1  0.64362330  0.13151137  0.42230035  1
  C  C94  1  0.48788907  0.35637670  0.42230035  1
  C  C95  1  0.86848863  0.51211093  0.42230035  1
  C  C96  1  0.35220644  0.48196890  0.07764591  1
  C  C97  1  0.12976146  0.64779356  0.07764591  1
  C  C98  1  0.51803110  0.87023854  0.07764591  1
  C  C99  1  0.35220644  0.87023854  0.57764591  1
  C  C100  1  0.51803110  0.64779356  0.57764591  1
  C  C101  1  0.12976146  0.48196890  0.57764591  1
  C  C102  1  0.31028930  0.84544493  0.25563435  1
  C  C103  1  0.53515463  0.68971070  0.25563435  1
  C  C104  1  0.15455507  0.46484537  0.25563435  1
  C  C105  1  0.31028930  0.46484537  0.75563435  1
  C  C106  1  0.15455507  0.68971070  0.75563435  1
  C  C107  1  0.53515463  0.84544493  0.75563435  1
