# generated using pymatgen
data_Cu2Ni2C11
_symmetry_space_group_name_H-M   'P 1'
_cell_length_a   5.69188600
_cell_length_b   6.94236000
_cell_length_c   6.94236000
_cell_angle_alpha   90.00000000
_cell_angle_beta   90.00000000
_cell_angle_gamma   90.00000000
_symmetry_Int_Tables_number   1
_chemical_formula_structural   Cu2Ni2C11
_chemical_formula_sum   'Cu2 Ni2 C11'
_cell_volume   274.32820022
_cell_formula_units_Z   1
loop_
 _symmetry_equiv_pos_site_id
 _symmetry_equiv_pos_as_xyz
  1  'x, y, z'
loop_
 _atom_site_type_symbol
 _atom_site_label
 _atom_site_symmetry_multiplicity
 _atom_site_fract_x
 _atom_site_fract_y
 _atom_site_fract_z
 _atom_site_occupancy
  C  C0  1  0.50000000  0.25000000  0.75000000  1
  Ni  Ni1  1  0.25376000  0.25000000  0.25000000  1
  Ni  Ni2  1  0.74624000  0.75000000  0.75000000  1
  Cu  Cu3  1  0.00000000  0.25000000  0.75000000  1
  Cu  Cu4  1  0.00000000  0.75000000  0.25000000  1
  C  C5  1  0.31608600  0.75000000  0.75000000  1
  C  C6  1  0.68391400  0.25000000  0.25000000  1
  C  C7  1  0.21915100  0.25000000  0.55868600  1
  C  C8  1  0.18207400  0.96464600  0.25000000  1
  C  C9  1  0.78084900  0.05868600  0.75000000  1
  C  C10  1  0.78084900  0.44131400  0.75000000  1
  C  C11  1  0.81792600  0.75000000  0.46464600  1
  C  C12  1  0.18207400  0.53535400  0.25000000  1
  C  C13  1  0.21915100  0.25000000  0.94131400  1
  C  C14  1  0.81792600  0.75000000  0.03535400  1
