# generated using pymatgen
data_Cu2NiC16
_symmetry_space_group_name_H-M   'P 1'
_cell_length_a   5.93148741
_cell_length_b   6.95195477
_cell_length_c   7.66161462
_cell_angle_alpha   81.59393578
_cell_angle_beta   90.00000000
_cell_angle_gamma   90.00000000
_symmetry_Int_Tables_number   1
_chemical_formula_structural   Cu2NiC16
_chemical_formula_sum   'Cu2 Ni1 C16'
_cell_volume   312.53591210
_cell_formula_units_Z   1
loop_
 _symmetry_equiv_pos_site_id
 _symmetry_equiv_pos_as_xyz
  1  'x, y, z'
loop_
 _atom_site_type_symbol
 _atom_site_label
 _atom_site_symmetry_multiplicity
 _atom_site_fract_x
 _atom_site_fract_y
 _atom_site_fract_z
 _atom_site_occupancy
  C  C0  1  -0.00000000  0.54713360  0.59405910  1
  C  C1  1  -0.00000000  0.98658041  0.00405294  1
  C  C2  1  0.50000000  0.85271575  0.33197942  1
  C  C3  1  0.50000000  0.64482301  0.83856433  1
  C  C4  1  0.50000000  0.41364884  0.27432193  1
  C  C5  1  0.50000000  0.13600619  0.66420697  1
  Ni  Ni6  1  0.50000000  0.19310569  0.02310088  1
  Cu  Cu7  1  -0.00000000  0.49621515  0.03725132  1
  Cu  Cu8  1  -0.00000000  0.02784622  0.44391506  1
  C  C9  1  0.25446923  0.64702639  0.14735922  1
  C  C10  1  0.26269946  0.35001197  0.86795926  1
  C  C11  1  0.27059058  0.12651510  0.25023432  1
  C  C12  1  0.25789435  0.87303956  0.60751384  1
  C  C13  1  0.74553077  0.64702639  0.14735922  1
  C  C14  1  0.74210565  0.87303956  0.60751384  1
  C  C15  1  0.72940942  0.12651510  0.25023432  1
  C  C16  1  0.73730054  0.35001197  0.86795926  1
  C  C17  1  0.50000000  0.95787802  0.93057027  1
  C  C18  1  0.50000000  0.50086108  0.53777049  1
