# generated using pymatgen
data_Cu4NiC14
_symmetry_space_group_name_H-M   'P 1'
_cell_length_a   5.17651940
_cell_length_b   5.17651243
_cell_length_c   9.04117900
_cell_angle_alpha   90.00000000
_cell_angle_beta   90.00000000
_cell_angle_gamma   79.66617176
_symmetry_Int_Tables_number   1
_chemical_formula_structural   Cu4NiC14
_chemical_formula_sum   'Cu4 Ni1 C14'
_cell_volume   238.34050465
_cell_formula_units_Z   1
loop_
 _symmetry_equiv_pos_site_id
 _symmetry_equiv_pos_as_xyz
  1  'x, y, z'
loop_
 _atom_site_type_symbol
 _atom_site_label
 _atom_site_symmetry_multiplicity
 _atom_site_fract_x
 _atom_site_fract_y
 _atom_site_fract_z
 _atom_site_occupancy
  Ni  Ni0  1  0.29981200  0.29981300  0.00000000  1
  Cu  Cu1  1  0.01333400  0.01333500  0.33297600  1
  Cu  Cu2  1  0.01333400  0.01333500  0.66702400  1
  Cu  Cu3  1  0.58025700  0.58025400  0.17622200  1
  Cu  Cu4  1  0.58025700  0.58025400  0.82377800  1
  C  C5  1  0.96508100  0.96507900  0.00000000  1
  C  C6  1  0.54673500  0.54673600  0.50000000  1
  C  C7  1  0.14442400  0.14442600  0.16122600  1
  C  C8  1  0.14442400  0.14442600  0.83877400  1
  C  C9  1  0.14137300  0.14138100  0.50000000  1
  C  C10  1  0.31559000  0.67869300  0.00000000  1
  C  C11  1  0.31384500  0.68688100  0.33793300  1
  C  C12  1  0.31384500  0.68688100  0.66206700  1
  C  C13  1  0.68687600  0.31384300  0.33793200  1
  C  C14  1  0.68687600  0.31384300  0.66206800  1
  C  C15  1  0.67869200  0.31558700  0.00000000  1
  C  C16  1  0.77102900  0.77102600  0.50000000  1
  C  C17  1  0.81203000  0.81202600  0.18330000  1
  C  C18  1  0.81203000  0.81202600  0.81670000  1
