# generated using pymatgen
data_Cu4NiC12
_symmetry_space_group_name_H-M   'P 1'
_cell_length_a   3.70225400
_cell_length_b   10.32285400
_cell_length_c   5.48382514
_cell_angle_alpha   90.00000000
_cell_angle_beta   70.27627632
_cell_angle_gamma   90.00000000
_symmetry_Int_Tables_number   1
_chemical_formula_structural   Cu4NiC12
_chemical_formula_sum   'Cu4 Ni1 C12'
_cell_volume   197.28401777
_cell_formula_units_Z   1
loop_
 _symmetry_equiv_pos_site_id
 _symmetry_equiv_pos_as_xyz
  1  'x, y, z'
loop_
 _atom_site_type_symbol
 _atom_site_label
 _atom_site_symmetry_multiplicity
 _atom_site_fract_x
 _atom_site_fract_y
 _atom_site_fract_z
 _atom_site_occupancy
  Ni  Ni0  1  0.50275100  0.75000000  0.99457100  1
  C  C1  1  0.19099200  0.25000000  0.61797500  1
  C  C2  1  0.80207500  0.75000000  0.39550400  1
  Cu  Cu3  1  0.13893300  0.54516500  0.72195900  1
  Cu  Cu4  1  0.13893300  0.95483500  0.72195900  1
  Cu  Cu5  1  0.87813100  0.06771600  0.24357700  1
  Cu  Cu6  1  0.87813100  0.43228400  0.24357700  1
  C  C7  1  0.05367100  0.11781500  0.89198900  1
  C  C8  1  0.05367100  0.38218500  0.89198900  1
  C  C9  1  0.65779800  0.88692900  0.68419700  1
  C  C10  1  0.65779800  0.61307100  0.68419700  1
  C  C11  1  0.29718500  0.75000000  0.40543200  1
  C  C12  1  0.77099300  0.25000000  0.45825200  1
  C  C13  1  0.30434300  0.06016700  0.39120400  1
  C  C14  1  0.30434300  0.43983300  0.39120400  1
  C  C15  1  0.95298300  0.62021300  0.09370700  1
  C  C16  1  0.95298300  0.87978700  0.09370700  1
