# generated using pymatgen
data_Cu2Ni4C7
_symmetry_space_group_name_H-M   'P 1'
_cell_length_a   3.33760601
_cell_length_b   3.33789478
_cell_length_c   38.06773700
_cell_angle_alpha   89.99969305
_cell_angle_beta   90.00006294
_cell_angle_gamma   120.00407441
_symmetry_Int_Tables_number   1
_chemical_formula_structural   Cu2Ni4C7
_chemical_formula_sum   'Cu2 Ni4 C7'
_cell_volume   367.26333222
_cell_formula_units_Z   1
loop_
 _symmetry_equiv_pos_site_id
 _symmetry_equiv_pos_as_xyz
  1  'x, y, z'
loop_
 _atom_site_type_symbol
 _atom_site_label
 _atom_site_symmetry_multiplicity
 _atom_site_fract_x
 _atom_site_fract_y
 _atom_site_fract_z
 _atom_site_occupancy
  C  C0  1  0.63030200  0.32581300  0.86804100  1
  C  C1  1  0.66661200  0.33327400  0.04395400  1
  C  C2  1  0.66661300  0.33326500  0.14372600  1
  C  C3  1  0.33332600  0.66661700  0.09379300  1
  C  C4  1  0.33332100  0.66661500  0.46964600  1
  C  C5  1  0.66663700  0.33334000  0.28185700  1
  C  C6  1  0.66663500  0.33334600  0.65753300  1
  Ni  Ni7  1  0.33334400  0.66668300  0.32567600  1
  Ni  Ni8  1  0.33334900  0.66669500  0.70156600  1
  Ni  Ni9  1  0.33335200  0.66669400  0.23796700  1
  Ni  Ni10  1  0.33334700  0.66670800  0.61343500  1
  Cu  Cu11  1  0.66662700  0.33326700  0.42970300  1
  Cu  Cu12  1  0.66662100  0.33326000  0.50953800  1
