# generated using pymatgen
data_Cu2NiC10
_symmetry_space_group_name_H-M   'P 1'
_cell_length_a   4.97004272
_cell_length_b   4.97057124
_cell_length_c   6.53438551
_cell_angle_alpha   93.50108417
_cell_angle_beta   93.49529362
_cell_angle_gamma   67.79951663
_symmetry_Int_Tables_number   1
_chemical_formula_structural   Cu2NiC10
_chemical_formula_sum   'Cu2 Ni1 C10'
_cell_volume   149.05387857
_cell_formula_units_Z   1
loop_
 _symmetry_equiv_pos_site_id
 _symmetry_equiv_pos_as_xyz
  1  'x, y, z'
loop_
 _atom_site_type_symbol
 _atom_site_label
 _atom_site_symmetry_multiplicity
 _atom_site_fract_x
 _atom_site_fract_y
 _atom_site_fract_z
 _atom_site_occupancy
  Ni  Ni0  1  0.50000000  0.50000000  0.00000000  1
  Cu  Cu1  1  0.00000000  0.00000000  0.00000000  1
  Cu  Cu2  1  0.00000000  0.00000000  0.50000000  1
  C  C3  1  0.66572000  0.66570700  0.71454500  1
  C  C4  1  0.33428000  0.33429300  0.28545500  1
  C  C5  1  0.32214300  0.76757000  0.74365900  1
  C  C6  1  0.75501700  0.75507300  0.52514100  1
  C  C7  1  0.67785700  0.23243000  0.25634100  1
  C  C8  1  0.23223500  0.23217500  0.07322400  1
  C  C9  1  0.24498300  0.24492700  0.47485900  1
  C  C10  1  0.76776500  0.76782500  0.92677600  1
  C  C11  1  0.76760500  0.32216700  0.74361800  1
  C  C12  1  0.23239500  0.67783300  0.25638200  1
