# generated using pymatgen
data_Cu14NiC6
_symmetry_space_group_name_H-M   'P 1'
_cell_length_a   11.01913147
_cell_length_b   11.01913147
_cell_length_c   13.14205300
_cell_angle_alpha   90.00000000
_cell_angle_beta   90.00000000
_cell_angle_gamma   92.95075221
_symmetry_Int_Tables_number   1
_chemical_formula_structural   Cu14NiC6
_chemical_formula_sum   'Cu28 Ni2 C12'
_cell_volume   1593.60892159
_cell_formula_units_Z   2
loop_
 _symmetry_equiv_pos_site_id
 _symmetry_equiv_pos_as_xyz
  1  'x, y, z'
loop_
 _atom_site_type_symbol
 _atom_site_label
 _atom_site_symmetry_multiplicity
 _atom_site_fract_x
 _atom_site_fract_y
 _atom_site_fract_z
 _atom_site_occupancy
  C  C0  1  0.62665200  0.62665200  0.09241900  1
  C  C1  1  0.87334800  0.87334800  0.59241900  1
  C  C2  1  0.12665200  0.12665200  0.40758100  1
  C  C3  1  0.37334800  0.37334800  0.90758100  1
  C  C4  1  0.45359200  0.66501600  0.89142600  1
  C  C5  1  0.04640800  0.83498400  0.39142600  1
  C  C6  1  0.16501600  0.95359200  0.60857400  1
  C  C7  1  0.33498400  0.54640800  0.10857400  1
  C  C8  1  0.54640800  0.33498400  0.10857400  1
  C  C9  1  0.95359200  0.16501600  0.60857400  1
  C  C10  1  0.83498400  0.04640800  0.39142600  1
  C  C11  1  0.66501600  0.45359200  0.89142600  1
  Ni  Ni12  1  0.50000000  0.50000000  0.00000000  1
  Ni  Ni13  1  0.00000000  0.00000000  0.50000000  1
  Cu  Cu14  1  0.10636600  0.35453400  0.51104300  1
  Cu  Cu15  1  0.39363400  0.14546600  0.01104300  1
  Cu  Cu16  1  0.10746900  0.60746900  0.25000000  1
  Cu  Cu17  1  0.39253100  0.89253100  0.75000000  1
  Cu  Cu18  1  0.89253100  0.39253100  0.75000000  1
  Cu  Cu19  1  0.60746900  0.10746900  0.25000000  1
  Cu  Cu20  1  0.14354700  0.14354700  0.76153700  1
  Cu  Cu21  1  0.35645300  0.35645300  0.26153700  1
  Cu  Cu22  1  0.64354700  0.64354700  0.73846300  1
  Cu  Cu23  1  0.85645300  0.85645300  0.23846300  1
  Cu  Cu24  1  0.75148100  0.24851900  0.00000000  1
  Cu  Cu25  1  0.74851900  0.25148100  0.50000000  1
  Cu  Cu26  1  0.24851900  0.75148100  0.00000000  1
  Cu  Cu27  1  0.25148100  0.74851900  0.50000000  1
  Cu  Cu28  1  0.64546600  0.89363400  0.48895700  1
  Cu  Cu29  1  0.85453400  0.60636600  0.98895700  1
  Cu  Cu30  1  0.60636600  0.85453400  0.98895700  1
  Cu  Cu31  1  0.89363400  0.64546600  0.48895700  1
  Cu  Cu32  1  0.35453400  0.10636600  0.51104300  1
  Cu  Cu33  1  0.14546600  0.39363400  0.01104300  1
  Cu  Cu34  1  0.21288400  0.96623600  0.25476200  1
  Cu  Cu35  1  0.28711600  0.53376400  0.75476200  1
  Cu  Cu36  1  0.46623600  0.71288400  0.24523800  1
  Cu  Cu37  1  0.03376400  0.78711600  0.74523800  1
  Cu  Cu38  1  0.78711600  0.03376400  0.74523800  1
  Cu  Cu39  1  0.71288400  0.46623600  0.24523800  1
  Cu  Cu40  1  0.53376400  0.28711600  0.75476200  1
  Cu  Cu41  1  0.96623600  0.21288400  0.25476200  1
