# generated using pymatgen
data_Cu2(NiC3)3
_symmetry_space_group_name_H-M   'P 1'
_cell_length_a   5.74955547
_cell_length_b   5.71437255
_cell_length_c   6.71235586
_cell_angle_alpha   88.44849759
_cell_angle_beta   86.40902286
_cell_angle_gamma   87.66501941
_symmetry_Int_Tables_number   1
_chemical_formula_structural   Cu2(NiC3)3
_chemical_formula_sum   'Cu2 Ni3 C9'
_cell_volume   219.85287738
_cell_formula_units_Z   1
loop_
 _symmetry_equiv_pos_site_id
 _symmetry_equiv_pos_as_xyz
  1  'x, y, z'
loop_
 _atom_site_type_symbol
 _atom_site_label
 _atom_site_symmetry_multiplicity
 _atom_site_fract_x
 _atom_site_fract_y
 _atom_site_fract_z
 _atom_site_occupancy
  C  C0  1  0.03962100  0.53152800  0.20607000  1
  Ni  Ni1  1  0.52113100  0.77524400  0.00332800  1
  Ni  Ni2  1  0.72425200  0.02341700  0.50356900  1
  Ni  Ni3  1  0.00349100  0.47077100  0.71137800  1
  Cu  Cu4  1  0.99008700  0.00665800  0.01414700  1
  Cu  Cu5  1  0.50665600  0.50665300  0.49180700  1
  C  C6  1  0.14588300  0.74916100  0.93926700  1
  C  C7  1  0.15112500  0.21459500  0.10891900  1
  C  C8  1  0.36426200  0.29106800  0.62371100  1
  C  C9  1  0.31875800  0.65152900  0.33697800  1
  C  C10  1  0.75172700  0.38165500  0.35836400  1
  C  C11  1  0.63793300  0.69245300  0.65327500  1
  C  C12  1  0.81631200  0.12416500  0.83643000  1
  C  C13  1  0.82042700  0.85193800  0.20234300  1
