# generated using pymatgen
data_Cu3Ni4C31
_symmetry_space_group_name_H-M   'P 1'
_cell_length_a   9.25778359
_cell_length_b   9.26159913
_cell_length_c   23.84121444
_cell_angle_alpha   89.95910356
_cell_angle_beta   90.04919533
_cell_angle_gamma   119.91638187
_symmetry_Int_Tables_number   1
_chemical_formula_structural   Cu3Ni4C31
_chemical_formula_sum   'Cu9 Ni12 C93'
_cell_volume   1771.80997624
_cell_formula_units_Z   3
loop_
 _symmetry_equiv_pos_site_id
 _symmetry_equiv_pos_as_xyz
  1  'x, y, z'
loop_
 _atom_site_type_symbol
 _atom_site_label
 _atom_site_symmetry_multiplicity
 _atom_site_fract_x
 _atom_site_fract_y
 _atom_site_fract_z
 _atom_site_occupancy
  Ni  Ni0  1  0.64378445  0.00157851  0.25234597  1
  Ni  Ni1  1  0.35749983  0.35578857  0.25206375  1
  Ni  Ni2  1  0.99870676  0.64113625  0.25291028  1
  Ni  Ni3  1  0.30618427  0.34276810  0.58483175  1
  Ni  Ni4  1  0.66254110  0.96436611  0.58460761  1
  Ni  Ni5  1  0.29413605  0.96104078  0.08498273  1
  Ni  Ni6  1  0.00024281  0.99020369  0.50386117  1
  Ni  Ni7  1  0.98834319  0.00004031  0.98987459  1
  Ni  Ni8  1  0.66621265  0.33292205  0.82858309  1
  Ni  Ni9  1  0.66740873  0.33366521  0.32917411  1
  Ni  Ni10  1  0.33337060  0.65594154  0.17879866  1
  Ni  Ni11  1  0.31966757  0.66638108  0.66173279  1
  Cu  Cu12  1  0.00087425  0.00058105  0.34767844  1
  Cu  Cu13  1  0.00168099  0.00031692  0.85419264  1
  Cu  Cu14  1  0.00157078  0.99114819  0.64404942  1
  Cu  Cu15  1  0.99286582  0.00099633  0.15224625  1
  Cu  Cu16  1  0.66975419  0.33691032  0.68305494  1
  Cu  Cu17  1  0.67058352  0.33734745  0.18626054  1
  Cu  Cu18  1  0.33398175  0.66062098  0.01514942  1
  Cu  Cu19  1  0.32488288  0.66652412  0.51837494  1
  Cu  Cu20  1  0.33315391  0.66795597  0.31743129  1
  C  C21  1  0.66840927  0.33445235  0.97021100  1
  C  C22  1  0.67023351  0.33599124  0.48874228  1
  C  C23  1  0.33385697  0.66725129  0.82466879  1
  C  C24  1  0.29538959  0.99824159  0.24664864  1
  C  C25  1  0.70226011  0.70451731  0.25071583  1
  C  C26  1  0.00233796  0.29754193  0.25048600  1
  C  C27  1  0.96000048  0.33178365  0.58460283  1
  C  C28  1  0.37819910  0.04470721  0.58366021  1
  C  C29  1  0.66600520  0.62579409  0.58276381  1
  C  C30  1  0.62608909  0.66562616  0.91825467  1
  C  C31  1  0.03991170  0.37445034  0.91802268  1
  C  C32  1  0.33477245  0.95914372  0.92108901  1
  C  C33  1  0.29791032  0.30917473  0.75171077  1
  C  C34  1  0.01137917  0.70238172  0.75318862  1
  C  C35  1  0.69112515  0.98888764  0.75183328  1
  C  C36  1  0.95572995  0.62463561  0.07891364  1
  C  C37  1  0.66710330  0.04831247  0.07896098  1
  C  C38  1  0.37969944  0.32996768  0.07937472  1
  C  C39  1  0.63566127  0.97786698  0.41950553  1
  C  C40  1  0.34288578  0.36475139  0.41935776  1
  C  C41  1  0.02053081  0.65737180  0.41783105  1
  C  C42  1  0.20963956  0.03701777  0.29954199  1
  C  C43  1  0.82295250  0.78393653  0.30466423  1
  C  C44  1  0.96008780  0.17675516  0.30451344  1
  C  C45  1  0.20853125  0.20069576  0.79934036  1
  C  C46  1  0.99195461  0.78804990  0.80159410  1
  C  C47  1  0.79947569  0.00712882  0.79943814  1
  C  C48  1  0.76309779  0.96741876  0.69861117  1
  C  C49  1  0.20482100  0.23621616  0.69845083  1
  C  C50  1  0.03226698  0.79898706  0.70090564  1
  C  C51  1  0.77989600  0.82261246  0.19529363  1
  C  C52  1  0.04251928  0.22003379  0.19496910  1
  C  C53  1  0.18794557  0.96297229  0.18786702  1
  C  C54  1  0.87782433  0.36089764  0.63895046  1
  C  C55  1  0.49161432  0.12415323  0.63815882  1
  C  C56  1  0.62719510  0.50860064  0.63660368  1
  C  C57  1  0.87960270  0.53568937  0.13188337  1
  C  C58  1  0.65148015  0.12494099  0.13149597  1
  C  C59  1  0.46878841  0.34343287  0.13235880  1
  C  C60  1  0.47900173  0.32128629  0.03086582  1
  C  C61  1  0.85072661  0.52630184  0.03021886  1
  C  C62  1  0.67714455  0.15534056  0.03006775  1
  C  C63  1  0.48487240  0.17112518  0.52770792  1
  C  C64  1  0.68695004  0.51999829  0.52714915  1
  C  C65  1  0.83472419  0.31533866  0.52835356  1
  C  C66  1  0.54501868  0.68911644  0.97325778  1
  C  C67  1  0.14348434  0.45654505  0.97305819  1
  C  C68  1  0.31417648  0.86369332  0.97869608  1
  C  C69  1  0.54816223  0.87375497  0.46877547  1
  C  C70  1  0.32594814  0.45166853  0.46870289  1
  C  C71  1  0.12791277  0.67405464  0.46591162  1
  C  C72  1  0.09446739  0.63662722  0.36533070  1
  C  C73  1  0.53777774  0.90085320  0.36763309  1
  C  C74  1  0.36211876  0.46220309  0.36753666  1
  C  C75  1  0.14110590  0.50488968  0.86281917  1
  C  C76  1  0.36356871  0.85513471  0.86635622  1
  C  C77  1  0.49461386  0.63471136  0.86305364  1
  C  C78  1  0.00226545  0.80671463  0.41610461  1
  C  C79  1  0.80326798  0.99600344  0.41667724  1
  C  C80  1  0.19412102  0.19661691  0.41646305  1
  C  C81  1  0.00166352  0.19012300  0.90629119  1
  C  C82  1  0.18842609  0.99595851  0.90731026  1
  C  C83  1  0.80975249  0.81189278  0.90608034  1
  C  C84  1  0.95865972  0.15414047  0.58545702  1
  C  C85  1  0.20409793  0.04866555  0.58431928  1
  C  C86  1  0.83011308  0.81002027  0.58448880  1
  C  C87  1  0.97238332  0.79315907  0.07840359  1
  C  C88  1  0.81689022  0.03065656  0.07915407  1
  C  C89  1  0.21645808  0.17131900  0.07889211  1
  C  C90  1  0.67019008  0.13779823  0.74969940  1
  C  C91  1  0.46777441  0.32997476  0.74973416  1
  C  C92  1  0.86291308  0.53301924  0.74992917  1
  C  C93  1  0.67836809  0.51799159  0.24373262  1
  C  C94  1  0.84006076  0.32226349  0.24349186  1
  C  C95  1  0.48309681  0.16053290  0.24205399  1
  C  C96  1  0.63353470  0.48624325  0.92697401  1
  C  C97  1  0.85295276  0.36700685  0.92644176  1
  C  C98  1  0.51449552  0.14732674  0.92768438  1
  C  C99  1  0.64935659  0.14679736  0.42521157  1
  C  C100  1  0.49824075  0.35121044  0.42494519  1
  C  C101  1  0.85275962  0.50224569  0.42467595  1
  C  C102  1  0.35634668  0.47603799  0.07641847  1
  C  C103  1  0.12691214  0.64725754  0.07693265  1
  C  C104  1  0.51130588  0.88312955  0.07620237  1
  C  C105  1  0.36622825  0.86674303  0.57352744  1
  C  C106  1  0.50283889  0.64428394  0.57186617  1
  C  C107  1  0.14880921  0.48183589  0.57529491  1
  C  C108  1  0.31450107  0.83289996  0.25659897  1
  C  C109  1  0.51600848  0.68231395  0.25833370  1
  C  C110  1  0.16640470  0.48314508  0.25839614  1
  C  C111  1  0.31162615  0.47825328  0.75946222  1
  C  C112  1  0.16708515  0.68826143  0.76000249  1
  C  C113  1  0.52108802  0.83429001  0.75986604  1
