# generated using pymatgen
data_Cu2Ni2C9
_symmetry_space_group_name_H-M   'P 1'
_cell_length_a   3.38994400
_cell_length_b   3.38978678
_cell_length_c   46.79418913
_cell_angle_alpha   89.99425186
_cell_angle_beta   89.99787629
_cell_angle_gamma   120.00106338
_symmetry_Int_Tables_number   1
_chemical_formula_structural   Cu2Ni2C9
_chemical_formula_sum   'Cu2 Ni2 C9'
_cell_volume   465.67487324
_cell_formula_units_Z   1
loop_
 _symmetry_equiv_pos_site_id
 _symmetry_equiv_pos_as_xyz
  1  'x, y, z'
loop_
 _atom_site_type_symbol
 _atom_site_label
 _atom_site_symmetry_multiplicity
 _atom_site_fract_x
 _atom_site_fract_y
 _atom_site_fract_z
 _atom_site_occupancy
  C  C0  1  0.99990400  0.99999100  0.37863200  1
  C  C1  1  0.33327000  0.66659000  0.31570100  1
  C  C2  1  0.33324000  0.66649400  0.69768900  1
  C  C3  1  0.33336600  0.66674900  0.23520100  1
  C  C4  1  0.33338700  0.66671400  0.61713900  1
  Ni  Ni5  1  0.33336600  0.66667800  0.09375300  1
  Ni  Ni6  1  0.66666300  0.33335800  0.27521800  1
  Cu  Cu7  1  0.33334600  0.66667200  0.47928000  1
  Cu  Cu8  1  0.66665400  0.33327800  0.65741800  1
  C  C9  1  0.66675900  0.33343900  0.05848100  1
  C  C10  1  0.66664500  0.33330900  0.12901500  1
  C  C11  1  0.66674200  0.33341500  0.44700800  1
  C  C12  1  0.66665900  0.33331200  0.51136400  1
