# generated using pymatgen
data_Cu12Ni3C67
_symmetry_space_group_name_H-M   'P 1'
_cell_length_a   18.32223640
_cell_length_b   9.15660133
_cell_length_c   22.45602367
_cell_angle_alpha   90.03523423
_cell_angle_beta   89.91084999
_cell_angle_gamma   119.99890375
_symmetry_Int_Tables_number   1
_chemical_formula_structural   Cu12Ni3C67
_chemical_formula_sum   'Cu36 Ni9 C201'
_cell_volume   3262.72553057
_cell_formula_units_Z   3
loop_
 _symmetry_equiv_pos_site_id
 _symmetry_equiv_pos_as_xyz
  1  'x, y, z'
loop_
 _atom_site_type_symbol
 _atom_site_label
 _atom_site_symmetry_multiplicity
 _atom_site_fract_x
 _atom_site_fract_y
 _atom_site_fract_z
 _atom_site_occupancy
  C  C0  1  0.31995236  0.01435057  0.24730389  1
  C  C1  1  0.81667479  0.01088846  0.24516380  1
  C  C2  1  0.18908290  0.36728003  0.24515727  1
  C  C3  1  0.68714235  0.35989763  0.24734301  1
  C  C4  1  0.99465402  0.62063844  0.24615116  1
  C  C5  1  0.49208350  0.62610373  0.24669326  1
  C  C6  1  0.31651619  0.62255969  0.74650510  1
  C  C7  1  0.81628138  0.62222476  0.74684255  1
  C  C8  1  0.99436205  0.36724308  0.74704839  1
  C  C9  1  0.49417962  0.36688289  0.74678152  1
  C  C10  1  0.18961579  0.01085149  0.74663529  1
  C  C11  1  0.68917391  0.01063694  0.74662581  1
  C  C12  1  0.15417559  0.34925735  0.57963524  1
  C  C13  1  0.65306152  0.34780686  0.57970329  1
  C  C14  1  0.02065475  0.69326695  0.57958311  1
  C  C15  1  0.52020344  0.69251419  0.57962359  1
  C  C16  1  0.32547085  0.95739732  0.57926598  1
  C  C17  1  0.82635934  0.95966887  0.58062157  1
  C  C18  1  0.15457392  0.95945322  0.07975453  1
  C  C19  1  0.65380318  0.95893626  0.07991739  1
  C  C20  1  0.32617281  0.69358011  0.08066246  1
  C  C21  1  0.82552785  0.69231236  0.08032687  1
  C  C22  1  0.02024773  0.34820740  0.07939406  1
  C  C23  1  0.52011350  0.34794235  0.07984451  1
  C  C24  1  0.34810030  0.02713668  0.91957375  1
  C  C25  1  0.84799539  0.02714524  0.91954619  1
  C  C26  1  0.48528842  0.29110589  0.41455434  1
  C  C27  1  0.65941622  0.02787139  0.41433423  1
  C  C28  1  0.35342726  0.68084363  0.41484577  1
  C  C29  1  0.84851059  0.67014663  0.41752302  1
  C  C30  1  0.00539159  0.01018290  0.49666554  1
  C  C31  1  0.49929294  0.99973698  0.49335887  1
  C  C32  1  0.00497400  0.99983967  0.99739011  1
  C  C33  1  0.50490998  0.00002360  0.99803559  1
  C  C34  1  0.33305662  0.34002200  0.83322656  1
  C  C35  1  0.83299125  0.33999299  0.83324514  1
  C  C36  1  0.33081064  0.32874629  0.32954327  1
  C  C37  1  0.83556676  0.33062264  0.32981104  1
  C  C38  1  0.16741611  0.66729360  0.15989843  1
  C  C39  1  0.66608266  0.66646075  0.15957281  1
  C  C40  1  0.16721975  0.66733533  0.66019960  1
  C  C41  1  0.66635233  0.66629531  0.66069376  1
  C  C42  1  0.00251907  0.00383802  0.35397106  1
  C  C43  1  0.00170442  0.00023895  0.85460337  1
  C  C44  1  0.50166803  0.00012370  0.85457252  1
  C  C45  1  0.00007367  0.99973871  0.64542537  1
  C  C46  1  0.49989000  0.99988811  0.64477946  1
  C  C47  1  0.99993262  0.00015075  0.14486455  1
  C  C48  1  0.49986741  0.00009301  0.14624705  1
  C  C49  1  0.33349931  0.33739639  0.97856498  1
  C  C50  1  0.83336462  0.33711203  0.97862914  1
  C  C51  1  0.33035884  0.32855679  0.47900320  1
  C  C52  1  0.83636970  0.33458794  0.47899449  1
  C  C53  1  0.16704005  0.66811338  0.31462272  1
  C  C54  1  0.66603310  0.66584975  0.31340792  1
  C  C55  1  0.16632191  0.66552853  0.81531043  1
  C  C56  1  0.66612031  0.66530332  0.81531307  1
  Ni  Ni57  1  0.49939701  0.99960884  0.34971039  1
  Ni  Ni58  1  0.33322780  0.33308482  0.68566987  1
  Ni  Ni59  1  0.83334252  0.33317633  0.68586194  1
  Ni  Ni60  1  0.33272375  0.33294029  0.18306364  1
  Ni  Ni61  1  0.83384473  0.33400004  0.18406453  1
  Ni  Ni62  1  0.16582830  0.66519969  0.01403542  1
  Ni  Ni63  1  0.66580812  0.66515037  0.01391941  1
  Ni  Ni64  1  0.16368134  0.66335904  0.51446781  1
  Ni  Ni65  1  0.66869882  0.66972417  0.51583388  1
  Cu  Cu66  1  0.14355512  0.99477633  0.24989067  1
  Cu  Cu67  1  0.64663498  0.99862297  0.25104861  1
  Cu  Cu68  1  0.35171467  0.70644220  0.25101846  1
  Cu  Cu69  1  0.85503994  0.71279251  0.25129212  1
  Cu  Cu70  1  0.00210743  0.29081633  0.25066958  1
  Cu  Cu71  1  0.50086198  0.29559937  0.25098783  1
  Cu  Cu72  1  0.14342240  0.29132660  0.75034294  1
  Cu  Cu73  1  0.64327139  0.29099306  0.75021018  1
  Cu  Cu74  1  0.00197720  0.71320409  0.75072300  1
  Cu  Cu75  1  0.50195908  0.71348658  0.75054343  1
  Cu  Cu76  1  0.35463073  0.99603126  0.75124303  1
  Cu  Cu77  1  0.85446741  0.99587011  0.75131066  1
  Cu  Cu78  1  0.47918418  0.33253442  0.58462294  1
  Cu  Cu79  1  0.97961659  0.33201832  0.58557669  1
  Cu  Cu80  1  0.18631883  0.04009427  0.58572620  1
  Cu  Cu81  1  0.68731322  0.04295794  0.58436807  1
  Cu  Cu82  1  0.33351818  0.62598446  0.58450847  1
  Cu  Cu83  1  0.83421283  0.62672971  0.58499450  1
  Cu  Cu84  1  0.47985893  0.62757005  0.08435667  1
  Cu  Cu85  1  0.97960902  0.62637339  0.08488699  1
  Cu  Cu86  1  0.33379270  0.04065191  0.08396501  1
  Cu  Cu87  1  0.83400443  0.04091078  0.08360342  1
  Cu  Cu88  1  0.18647296  0.33166051  0.08406480  1
  Cu  Cu89  1  0.68687152  0.33221223  0.08475250  1
  Cu  Cu90  1  0.31414757  0.66479039  0.91666593  1
  Cu  Cu91  1  0.81414024  0.66486400  0.91665854  1
  Cu  Cu92  1  0.01860908  0.37151210  0.91750156  1
  Cu  Cu93  1  0.51856291  0.37128760  0.91749597  1
  Cu  Cu94  1  0.16626485  0.96265421  0.91773632  1
  Cu  Cu95  1  0.66625997  0.96273625  0.91767799  1
  Cu  Cu96  1  0.31270113  0.96198838  0.41823797  1
  Cu  Cu97  1  0.81487002  0.96323941  0.41637984  1
  Cu  Cu98  1  0.16616288  0.37133626  0.41759251  1
  Cu  Cu99  1  0.66769717  0.37222126  0.41796454  1
  Cu  Cu100  1  0.01950889  0.66685646  0.41709756  1
  Cu  Cu101  1  0.51853717  0.66463597  0.41829425  1
  C  C102  1  0.09156879  0.01517124  0.30495233  1
  C  C103  1  0.61009196  0.03468823  0.31047194  1
  C  C104  1  0.40668937  0.77883763  0.31031484  1
  C  C105  1  0.91438052  0.81062292  0.30791976  1
  C  C106  1  0.48320525  0.18721389  0.31053178  1
  C  C107  1  0.99079749  0.16503376  0.30535787  1
  C  C108  1  0.09158200  0.16700229  0.80481836  1
  C  C109  1  0.59168079  0.16705864  0.80486035  1
  C  C110  1  0.49065654  0.81580823  0.80510825  1
  C  C111  1  0.99055861  0.81581333  0.80507613  1
  C  C112  1  0.41420586  0.01817506  0.80747645  1
  C  C113  1  0.91422375  0.01823187  0.80742259  1
  C  C114  1  0.40148989  0.96705902  0.69204942  1
  C  C115  1  0.90132472  0.96710504  0.69197067  1
  C  C116  1  0.08290542  0.19927972  0.69080256  1
  C  C117  1  0.58305484  0.19940517  0.69066806  1
  C  C118  1  0.01683485  0.83447295  0.69105145  1
  C  C119  1  0.51706070  0.83472581  0.69095518  1
  C  C120  1  0.40139830  0.83517386  0.19296241  1
  C  C121  1  0.90146519  0.83547013  0.19220196  1
  C  C122  1  0.01679394  0.19869151  0.19118269  1
  C  C123  1  0.51617966  0.19752763  0.19293690  1
  C  C124  1  0.08277505  0.96634339  0.19076482  1
  C  C125  1  0.58264082  0.96822282  0.19296024  1
  C  C126  1  0.44357230  0.36904624  0.64515771  1
  C  C127  1  0.94423384  0.36910925  0.64594710  1
  C  C128  1  0.23994046  0.11056267  0.64618775  1
  C  C129  1  0.74137466  0.11322151  0.64475387  1
  C  C130  1  0.31540082  0.51805244  0.64497867  1
  C  C131  1  0.81570419  0.51825650  0.64520385  1
  C  C132  1  0.44452886  0.52121541  0.14478882  1
  C  C133  1  0.94513125  0.52081088  0.14600461  1
  C  C134  1  0.31458419  0.11014226  0.14460514  1
  C  C135  1  0.81695576  0.11332325  0.14411428  1
  C  C136  1  0.23873993  0.36713691  0.14490125  1
  C  C137  1  0.74044801  0.37148439  0.14555441  1
  C  C138  1  0.23711950  0.30041600  0.02798979  1
  C  C139  1  0.73747369  0.30083658  0.02846462  1
  C  C140  1  0.41385481  0.52518262  0.02810240  1
  C  C141  1  0.91357476  0.52442592  0.02878545  1
  C  C142  1  0.34942940  0.16738231  0.02599099  1
  C  C143  1  0.84978957  0.16733399  0.02558678  1
  C  C144  1  0.23672791  0.17259648  0.52924915  1
  C  C145  1  0.73565701  0.16975949  0.52620582  1
  C  C146  1  0.34943942  0.53043096  0.52642687  1
  C  C147  1  0.84941749  0.53041350  0.52673585  1
  C  C148  1  0.41519471  0.30129747  0.52686734  1
  C  C149  1  0.91423442  0.30271225  0.52873993  1
  C  C150  1  0.28209231  0.71672901  0.97527775  1
  C  C151  1  0.78218483  0.71688946  0.97529967  1
  C  C152  1  0.07095562  0.43690083  0.97780875  1
  C  C153  1  0.57105406  0.43682402  0.97774003  1
  C  C154  1  0.14830281  0.85848176  0.97818134  1
  C  C155  1  0.64862062  0.85877100  0.97810103  1
  C  C156  1  0.27572982  0.84851541  0.47702071  1
  C  C157  1  0.78351980  0.85211903  0.47610313  1
  C  C158  1  0.14755744  0.43575116  0.47883118  1
  C  C159  1  0.65059976  0.44813799  0.47721550  1
  C  C160  1  0.06937821  0.70387335  0.47856200  1
  C  C161  1  0.57534814  0.70350428  0.47684968  1
  C  C162  1  0.06901099  0.64076692  0.35938117  1
  C  C163  1  0.56909499  0.63629949  0.36006522  1
  C  C164  1  0.25086504  0.86082268  0.35943072  1
  C  C165  1  0.74965557  0.86449068  0.35935289  1
  C  C166  1  0.18119631  0.50091414  0.36029218  1
  C  C167  1  0.68286833  0.50210258  0.35993472  1
  C  C168  1  0.06957068  0.49745397  0.85948253  1
  C  C169  1  0.56954140  0.49746738  0.85948910  1
  C  C170  1  0.18105126  0.86130434  0.86013823  1
  C  C171  1  0.68123575  0.86162364  0.86007675  1
  C  C172  1  0.25110196  0.64037278  0.85868916  1
  C  C173  1  0.75116469  0.64051316  0.85867532  1
  C  C174  1  0.00169512  0.82441039  0.40625847  1
  C  C175  1  0.50451036  0.82449749  0.41310441  1
  C  C176  1  0.40695327  0.98990940  0.41312173  1
  C  C177  1  0.90741637  0.98210320  0.40518076  1
  C  C178  1  0.08628478  0.18211398  0.40582264  1
  C  C179  1  0.58742170  0.18481948  0.41307882  1
  C  C180  1  0.00218158  0.17930773  0.90612560  1
  C  C181  1  0.50216562  0.17924689  0.90607796  1
  C  C182  1  0.08563078  0.98903711  0.90576646  1
  C  C183  1  0.58565337  0.98901728  0.90576704  1
  C  C184  1  0.40670972  0.83253729  0.90481657  1
  C  C185  1  0.90673489  0.83266466  0.90482364  1
  C  C186  1  0.48250509  0.15302801  0.58883995  1
  C  C187  1  0.98247127  0.15253506  0.58860958  1
  C  C188  1  0.09371839  0.03473002  0.58890436  1
  C  C189  1  0.59426945  0.03515878  0.58873514  1
  C  C190  1  0.42326066  0.81215832  0.58907230  1
  C  C191  1  0.92373471  0.81276062  0.58884492  1
  C  C192  1  0.48305317  0.81356289  0.08839889  1
  C  C193  1  0.98243525  0.81178594  0.08861361  1
  C  C194  1  0.42363565  0.03419745  0.08912526  1
  C  C195  1  0.92358900  0.03329046  0.08856733  1
  C  C196  1  0.09347417  0.15249658  0.08830785  1
  C  C197  1  0.59394712  0.15305644  0.08898607  1
  C  C198  1  0.34467516  0.16193950  0.75053589  1
  C  C199  1  0.84460324  0.16185944  0.75048339  1
  C  C200  1  0.23593349  0.31053092  0.75044370  1
  C  C201  1  0.73591997  0.31032078  0.75038429  1
  C  C202  1  0.41895243  0.52824483  0.75043777  1
  C  C203  1  0.91886128  0.52825515  0.75044007  1
  C  C204  1  0.33704924  0.51782206  0.24600326  1
  C  C205  1  0.84513915  0.52736728  0.25083658  1
  C  C206  1  0.42061165  0.32331419  0.24615270  1
  C  C207  1  0.91950014  0.31031780  0.25059746  1
  C  C208  1  0.23595860  0.15941480  0.25037316  1
  C  C209  1  0.74086390  0.15939563  0.24626735  1
  C  C210  1  0.32153697  0.49383134  0.92214163  1
  C  C211  1  0.82166736  0.49403778  0.92226402  1
  C  C212  1  0.42331381  0.34940459  0.92147940  1
  C  C213  1  0.92336444  0.34975150  0.92148218  1
  C  C214  1  0.25554093  0.14525281  0.92128482  1
  C  C215  1  0.75553377  0.14557773  0.92136530  1
  C  C216  1  0.31989262  0.14987275  0.42266684  1
  C  C217  1  0.81744605  0.14587851  0.42193746  1
  C  C218  1  0.25609869  0.36817229  0.42198780  1
  C  C219  1  0.75657175  0.36484543  0.42188748  1
  C  C220  1  0.42644564  0.48656190  0.42212877  1
  C  C221  1  0.92400717  0.49603364  0.42192061  1
  C  C222  1  0.17240440  0.49180929  0.07810299  1
  C  C223  1  0.67246114  0.49180268  0.07811780  1
  C  C224  1  0.07390455  0.65581569  0.07911696  1
  C  C225  1  0.57425421  0.65698940  0.07862717  1
  C  C226  1  0.25428194  0.85098312  0.07860132  1
  C  C227  1  0.75439576  0.85139384  0.07866242  1
  C  C228  1  0.17118163  0.85134619  0.57968672  1
  C  C229  1  0.67271148  0.85409857  0.57893628  1
  C  C230  1  0.25400657  0.65611673  0.57910690  1
  C  C231  1  0.75501777  0.65769257  0.57999433  1
  C  C232  1  0.07379670  0.49117377  0.57981968  1
  C  C233  1  0.57389634  0.49120847  0.57943809  1
  C  C234  1  0.14793665  0.81920677  0.25642893  1
  C  C235  1  0.65079468  0.82046307  0.25529984  1
  C  C236  1  0.25894938  0.70014912  0.25487222  1
  C  C237  1  0.76227556  0.70234652  0.25726458  1
  C  C238  1  0.08922530  0.47569131  0.25735823  1
  C  C239  1  0.59082348  0.48102448  0.25528044  1
  C  C240  1  0.14886814  0.47708928  0.75627041  1
  C  C241  1  0.64902354  0.47715813  0.75628807  1
  C  C242  1  0.08929272  0.70217076  0.75695598  1
  C  C243  1  0.58930690  0.70212613  0.75696138  1
  C  C244  1  0.26118538  0.82113482  0.75639143  1
  C  C245  1  0.76114400  0.82101955  0.75625869  1
