# generated using pymatgen
data_Cu12Ni3C
_symmetry_space_group_name_H-M   'P 1'
_cell_length_a   10.61973600
_cell_length_b   10.61973600
_cell_length_c   10.61973600
_cell_angle_alpha   90.00000000
_cell_angle_beta   90.00000000
_cell_angle_gamma   90.00000000
_symmetry_Int_Tables_number   1
_chemical_formula_structural   Cu12Ni3C
_chemical_formula_sum   'Cu96 Ni24 C8'
_cell_volume   1197.68100498
_cell_formula_units_Z   8
loop_
 _symmetry_equiv_pos_site_id
 _symmetry_equiv_pos_as_xyz
  1  'x, y, z'
loop_
 _atom_site_type_symbol
 _atom_site_label
 _atom_site_symmetry_multiplicity
 _atom_site_fract_x
 _atom_site_fract_y
 _atom_site_fract_z
 _atom_site_occupancy
  C  C0  1  0.21725200  0.21725200  0.21725200  1
  C  C1  1  0.71725200  0.28274800  0.78274800  1
  C  C2  1  0.78274800  0.71725200  0.28274800  1
  C  C3  1  0.28274800  0.78274800  0.71725200  1
  C  C4  1  0.78274800  0.78274800  0.78274800  1
  C  C5  1  0.28274800  0.71725200  0.21725200  1
  C  C6  1  0.21725200  0.28274800  0.71725200  1
  C  C7  1  0.71725200  0.21725200  0.28274800  1
  Ni  Ni8  1  0.19212800  0.24771500  0.96787100  1
  Ni  Ni9  1  0.69212800  0.25228500  0.03212900  1
  Ni  Ni10  1  0.80787200  0.74771500  0.53212900  1
  Ni  Ni11  1  0.30787200  0.75228500  0.46787100  1
  Ni  Ni12  1  0.24771500  0.96787100  0.19212800  1
  Ni  Ni13  1  0.25228500  0.03212900  0.69212800  1
  Ni  Ni14  1  0.74771500  0.53212900  0.80787200  1
  Ni  Ni15  1  0.75228500  0.46787100  0.30787200  1
  Ni  Ni16  1  0.96787100  0.19212800  0.24771500  1
  Ni  Ni17  1  0.03212900  0.69212800  0.25228500  1
  Ni  Ni18  1  0.53212900  0.80787200  0.74771500  1
  Ni  Ni19  1  0.46787100  0.30787200  0.75228500  1
  Ni  Ni20  1  0.80787200  0.75228500  0.03212900  1
  Ni  Ni21  1  0.30787200  0.74771500  0.96787100  1
  Ni  Ni22  1  0.19212800  0.25228500  0.46787100  1
  Ni  Ni23  1  0.69212800  0.24771500  0.53212900  1
  Ni  Ni24  1  0.75228500  0.03212900  0.80787200  1
  Ni  Ni25  1  0.74771500  0.96787100  0.30787200  1
  Ni  Ni26  1  0.25228500  0.46787100  0.19212800  1
  Ni  Ni27  1  0.24771500  0.53212900  0.69212800  1
  Ni  Ni28  1  0.03212900  0.80787200  0.75228500  1
  Ni  Ni29  1  0.96787100  0.30787200  0.74771500  1
  Ni  Ni30  1  0.46787100  0.19212800  0.25228500  1
  Ni  Ni31  1  0.53212900  0.69212800  0.24771500  1
  Cu  Cu32  1  0.29197000  0.25483300  0.02579200  1
  Cu  Cu33  1  0.79197000  0.24516700  0.97420800  1
  Cu  Cu34  1  0.70803000  0.75483300  0.47420800  1
  Cu  Cu35  1  0.20803000  0.74516700  0.52579200  1
  Cu  Cu36  1  0.25483300  0.02579200  0.29197000  1
  Cu  Cu37  1  0.24516700  0.97420800  0.79197000  1
  Cu  Cu38  1  0.75483300  0.47420800  0.70803000  1
  Cu  Cu39  1  0.74516700  0.52579200  0.20803000  1
  Cu  Cu40  1  0.02579200  0.29197000  0.25483300  1
  Cu  Cu41  1  0.97420800  0.79197000  0.24516700  1
  Cu  Cu42  1  0.47420800  0.70803000  0.75483300  1
  Cu  Cu43  1  0.52579200  0.20803000  0.74516700  1
  Cu  Cu44  1  0.70803000  0.74516700  0.97420800  1
  Cu  Cu45  1  0.20803000  0.75483300  0.02579200  1
  Cu  Cu46  1  0.29197000  0.24516700  0.52579200  1
  Cu  Cu47  1  0.79197000  0.25483300  0.47420800  1
  Cu  Cu48  1  0.74516700  0.97420800  0.70803000  1
  Cu  Cu49  1  0.75483300  0.02579200  0.20803000  1
  Cu  Cu50  1  0.24516700  0.52579200  0.29197000  1
  Cu  Cu51  1  0.25483300  0.47420800  0.79197000  1
  Cu  Cu52  1  0.97420800  0.70803000  0.74516700  1
  Cu  Cu53  1  0.02579200  0.20803000  0.75483300  1
  Cu  Cu54  1  0.52579200  0.29197000  0.24516700  1
  Cu  Cu55  1  0.47420800  0.79197000  0.25483300  1
  Cu  Cu56  1  0.10117200  0.22431000  0.03567900  1
  Cu  Cu57  1  0.60117200  0.27569000  0.96432100  1
  Cu  Cu58  1  0.89882800  0.72431000  0.46432100  1
  Cu  Cu59  1  0.39882800  0.77569000  0.53567900  1
  Cu  Cu60  1  0.22431000  0.03567900  0.10117200  1
  Cu  Cu61  1  0.27569000  0.96432100  0.60117200  1
  Cu  Cu62  1  0.72431000  0.46432100  0.89882800  1
  Cu  Cu63  1  0.77569000  0.53567900  0.39882800  1
  Cu  Cu64  1  0.03567900  0.10117200  0.22431000  1
  Cu  Cu65  1  0.96432100  0.60117200  0.27569000  1
  Cu  Cu66  1  0.46432100  0.89882800  0.72431000  1
  Cu  Cu67  1  0.53567900  0.39882800  0.77569000  1
  Cu  Cu68  1  0.89882800  0.77569000  0.96432100  1
  Cu  Cu69  1  0.39882800  0.72431000  0.03567900  1
  Cu  Cu70  1  0.10117200  0.27569000  0.53567900  1
  Cu  Cu71  1  0.60117200  0.22431000  0.46432100  1
  Cu  Cu72  1  0.77569000  0.96432100  0.89882800  1
  Cu  Cu73  1  0.72431000  0.03567900  0.39882800  1
  Cu  Cu74  1  0.27569000  0.53567900  0.10117200  1
  Cu  Cu75  1  0.22431000  0.46432100  0.60117200  1
  Cu  Cu76  1  0.96432100  0.89882800  0.77569000  1
  Cu  Cu77  1  0.03567900  0.39882800  0.72431000  1
  Cu  Cu78  1  0.53567900  0.10117200  0.27569000  1
  Cu  Cu79  1  0.46432100  0.60117200  0.22431000  1
  Cu  Cu80  1  0.17322000  0.35019700  0.91808100  1
  Cu  Cu81  1  0.67322000  0.14980300  0.08191900  1
  Cu  Cu82  1  0.82678000  0.85019700  0.58191900  1
  Cu  Cu83  1  0.32678000  0.64980300  0.41808100  1
  Cu  Cu84  1  0.35019700  0.91808100  0.17322000  1
  Cu  Cu85  1  0.14980300  0.08191900  0.67322000  1
  Cu  Cu86  1  0.85019700  0.58191900  0.82678000  1
  Cu  Cu87  1  0.64980300  0.41808100  0.32678000  1
  Cu  Cu88  1  0.91808100  0.17322000  0.35019700  1
  Cu  Cu89  1  0.08191900  0.67322000  0.14980300  1
  Cu  Cu90  1  0.58191900  0.82678000  0.85019700  1
  Cu  Cu91  1  0.41808100  0.32678000  0.64980300  1
  Cu  Cu92  1  0.82678000  0.64980300  0.08191900  1
  Cu  Cu93  1  0.32678000  0.85019700  0.91808100  1
  Cu  Cu94  1  0.17322000  0.14980300  0.41808100  1
  Cu  Cu95  1  0.67322000  0.35019700  0.58191900  1
  Cu  Cu96  1  0.64980300  0.08191900  0.82678000  1
  Cu  Cu97  1  0.85019700  0.91808100  0.32678000  1
  Cu  Cu98  1  0.14980300  0.41808100  0.17322000  1
  Cu  Cu99  1  0.35019700  0.58191900  0.67322000  1
  Cu  Cu100  1  0.08191900  0.82678000  0.64980300  1
  Cu  Cu101  1  0.91808100  0.32678000  0.85019700  1
  Cu  Cu102  1  0.41808100  0.17322000  0.14980300  1
  Cu  Cu103  1  0.58191900  0.67322000  0.35019700  1
  Cu  Cu104  1  0.20248300  0.16099000  0.89204400  1
  Cu  Cu105  1  0.70248300  0.33901000  0.10795600  1
  Cu  Cu106  1  0.79751700  0.66099000  0.60795600  1
  Cu  Cu107  1  0.29751700  0.83901000  0.39204400  1
  Cu  Cu108  1  0.16099000  0.89204400  0.20248300  1
  Cu  Cu109  1  0.33901000  0.10795600  0.70248300  1
  Cu  Cu110  1  0.66099000  0.60795600  0.79751700  1
  Cu  Cu111  1  0.83901000  0.39204400  0.29751700  1
  Cu  Cu112  1  0.89204400  0.20248300  0.16099000  1
  Cu  Cu113  1  0.10795600  0.70248300  0.33901000  1
  Cu  Cu114  1  0.60795600  0.79751700  0.66099000  1
  Cu  Cu115  1  0.39204400  0.29751700  0.83901000  1
  Cu  Cu116  1  0.79751700  0.83901000  0.10795600  1
  Cu  Cu117  1  0.29751700  0.66099000  0.89204400  1
  Cu  Cu118  1  0.20248300  0.33901000  0.39204400  1
  Cu  Cu119  1  0.70248300  0.16099000  0.60795600  1
  Cu  Cu120  1  0.83901000  0.10795600  0.79751700  1
  Cu  Cu121  1  0.66099000  0.89204400  0.29751700  1
  Cu  Cu122  1  0.33901000  0.39204400  0.20248300  1
  Cu  Cu123  1  0.16099000  0.60795600  0.70248300  1
  Cu  Cu124  1  0.10795600  0.79751700  0.83901000  1
  Cu  Cu125  1  0.89204400  0.29751700  0.66099000  1
  Cu  Cu126  1  0.39204400  0.20248300  0.33901000  1
  Cu  Cu127  1  0.60795600  0.70248300  0.16099000  1
