# generated using pymatgen
data_Cu2Ni2C37
_symmetry_space_group_name_H-M   'P 1'
_cell_length_a   18.09865838
_cell_length_b   8.96272358
_cell_length_c   21.96534675
_cell_angle_alpha   89.93034440
_cell_angle_beta   90.19203015
_cell_angle_gamma   119.66530267
_symmetry_Int_Tables_number   1
_chemical_formula_structural   Cu2Ni2C37
_chemical_formula_sum   'Cu12 Ni12 C222'
_cell_volume   3096.04627087
_cell_formula_units_Z   6
loop_
 _symmetry_equiv_pos_site_id
 _symmetry_equiv_pos_as_xyz
  1  'x, y, z'
loop_
 _atom_site_type_symbol
 _atom_site_label
 _atom_site_symmetry_multiplicity
 _atom_site_fract_x
 _atom_site_fract_y
 _atom_site_fract_z
 _atom_site_occupancy
  C  C0  1  0.81168323  0.99791185  0.24927736  1
  C  C1  1  0.18602946  0.36116498  0.25358660  1
  C  C2  1  0.68290052  0.36139257  0.25267789  1
  C  C3  1  0.00545173  0.64376825  0.24436825  1
  C  C4  1  0.50354428  0.63983546  0.23995218  1
  C  C5  1  0.31933823  0.62407510  0.75234114  1
  C  C6  1  0.00354997  0.36739533  0.74047375  1
  C  C7  1  0.50320958  0.36946515  0.74373216  1
  C  C8  1  0.18651278  0.01063557  0.75185963  1
  C  C9  1  0.67802283  0.99873386  0.75129236  1
  C  C10  1  0.14993439  0.32841796  0.58306180  1
  C  C11  1  0.65196417  0.32661072  0.58049395  1
  C  C12  1  0.32995217  0.97624698  0.59169357  1
  C  C13  1  0.83160861  0.97962014  0.58664033  1
  C  C14  1  0.15518811  0.98202382  0.07362143  1
  C  C15  1  0.64808477  0.96820717  0.07614579  1
  C  C16  1  0.33312173  0.68417949  0.08213288  1
  C  C17  1  0.82677097  0.68267744  0.08336527  1
  C  C18  1  0.48018837  0.67164289  0.91841403  1
  C  C19  1  0.98509101  0.67310655  0.91632360  1
  C  C20  1  0.34858497  0.03916491  0.91068094  1
  C  C21  1  0.84622034  0.02844548  0.91144635  1
  C  C22  1  0.16830242  0.28151965  0.91494563  1
  C  C23  1  0.66591314  0.28043099  0.91578700  1
  C  C24  1  0.48603133  0.29904456  0.42020850  1
  C  C25  1  0.98227020  0.29523768  0.43041863  1
  C  C26  1  0.16843926  0.05624283  0.42022706  1
  C  C27  1  0.66733571  0.05312630  0.41877123  1
  C  C28  1  0.34894331  0.66331572  0.41706834  1
  C  C29  1  0.84681766  0.65824095  0.41696811  1
  C  C30  1  0.00771943  0.00634600  0.50479202  1
  C  C31  1  0.50864107  0.99927325  0.50358378  1
  C  C32  1  0.00876384  0.02083584  0.00001089  1
  C  C33  1  0.50722964  0.00776706  0.00043283  1
  C  C34  1  0.33038682  0.33526815  0.82985194  1
  C  C35  1  0.82220696  0.33488063  0.82956791  1
  C  C36  1  0.32516575  0.31248642  0.33098403  1
  C  C37  1  0.82090098  0.32362424  0.33539214  1
  C  C38  1  0.17049501  0.67121217  0.16505770  1
  C  C39  1  0.65601971  0.64713586  0.16433675  1
  C  C40  1  0.15796111  0.66424212  0.66664328  1
  C  C41  1  0.66275386  0.66879513  0.66852759  1
  Ni  Ni42  1  0.02051466  0.03071474  0.34791141  1
  Ni  Ni43  1  0.51630286  0.03144581  0.34809165  1
  Ni  Ni44  1  0.01368559  0.99795700  0.84774153  1
  Ni  Ni45  1  0.52260278  0.99230316  0.84114877  1
  Ni  Ni46  1  0.32575136  0.32663990  0.68378138  1
  Ni  Ni47  1  0.81477129  0.31819070  0.17618872  1
  Ni  Ni48  1  0.32286648  0.32662760  0.99038549  1
  Ni  Ni49  1  0.81807298  0.30480437  0.98578297  1
  Ni  Ni50  1  0.31777050  0.33351086  0.48914416  1
  Ni  Ni51  1  0.82314111  0.32073548  0.49256229  1
  Ni  Ni52  1  0.66321046  0.66426745  0.31769301  1
  Ni  Ni53  1  0.16544237  0.66569625  0.81626687  1
  Cu  Cu54  1  0.01202996  0.02606797  0.64770108  1
  Cu  Cu55  1  0.52166891  0.01017714  0.65809408  1
  Cu  Cu56  1  0.01414426  0.00759854  0.15189847  1
  Cu  Cu57  1  0.51264523  -0.00005282  0.14616437  1
  Cu  Cu58  1  0.82408215  0.31431744  0.67640546  1
  Cu  Cu59  1  0.32416492  0.32988501  0.17556758  1
  Cu  Cu60  1  0.16313786  0.65406859  0.01495234  1
  Cu  Cu61  1  0.64389385  0.64508353  0.02272207  1
  Cu  Cu62  1  0.14844239  0.64546939  0.52586734  1
  Cu  Cu63  1  0.66057942  0.66465659  0.51751972  1
  Cu  Cu64  1  0.17634260  0.68703003  0.31658951  1
  Cu  Cu65  1  0.66497253  0.66715092  0.81093462  1
  C  C66  1  0.15671850  0.00100546  0.24932712  1
  C  C67  1  0.65093382  0.99572149  0.25225197  1
  C  C68  1  0.14841188  0.30569759  0.75305952  1
  C  C69  1  0.65815941  0.31240138  0.74913053  1
  C  C70  1  0.49691132  0.69221343  0.75298352  1
  C  C71  1  0.97498908  0.32859833  0.58502888  1
  C  C72  1  0.18160899  0.02524830  0.58320723  1
  C  C73  1  0.67841786  0.01965033  0.58114848  1
  C  C74  1  0.47416535  0.62029557  0.08509415  1
  C  C75  1  0.17791027  0.33658412  0.08290695  1
  C  C76  1  0.67927045  0.33986395  0.08222663  1
  C  C77  1  0.16859488  0.95583465  0.91786617  1
  C  C78  1  0.66868613  0.94906917  0.91752388  1
  C  C79  1  0.16711549  0.38860153  0.41603070  1
  C  C80  1  0.66872554  0.38129127  0.41707619  1
  C  C81  1  0.35332919  0.71045444  0.25171863  1
  C  C82  1  0.86081866  0.71777640  0.24912903  1
  C  C83  1  0.99946582  0.29386338  0.24985522  1
  C  C84  1  0.49329732  0.28382725  0.24875595  1
  C  C85  1  0.99370378  0.70330083  0.74848745  1
  C  C86  1  0.35899577  0.99893906  0.74931046  1
  C  C87  1  0.85473987  0.99850180  0.75089309  1
  C  C88  1  0.48183212  0.33433764  0.58147916  1
  C  C89  1  0.33702067  0.64304342  0.58250019  1
  C  C90  1  0.83432709  0.63317471  0.58285422  1
  C  C91  1  0.98093525  0.62833650  0.08494020  1
  C  C92  1  0.33474482  0.03567138  0.08357372  1
  C  C93  1  0.84010152  0.03630898  0.08561218  1
  C  C94  1  0.31378770  0.66923998  0.91765515  1
  C  C95  1  0.81343749  0.66835484  0.91670052  1
  C  C96  1  0.01572658  0.36992391  0.91799630  1
  C  C97  1  0.51960434  0.37044152  0.91436035  1
  C  C98  1  0.31521957  0.96237382  0.41712466  1
  C  C99  1  0.81577670  0.96056316  0.41499849  1
  C  C100  1  0.02139655  0.66895557  0.41346156  1
  C  C101  1  0.51600225  0.66315107  0.41674008  1
  C  C102  1  0.12167406  0.04960957  0.31008367  1
  C  C103  1  0.61398868  0.03336752  0.31424772  1
  C  C104  1  0.40119514  0.79581534  0.30766544  1
  C  C105  1  0.90867798  0.80624485  0.30510551  1
  C  C106  1  0.48431730  0.19779135  0.30868816  1
  C  C107  1  0.98410091  0.19383667  0.30717320  1
  C  C108  1  0.10903387  0.19540651  0.81512448  1
  C  C109  1  0.62262377  0.19368152  0.81015416  1
  C  C110  1  0.47157023  0.75735645  0.81492572  1
  C  C111  1  0.98391716  0.76943865  0.80856384  1
  C  C112  1  0.40660632  0.01033936  0.80573417  1
  C  C113  1  0.90350032  0.01194665  0.80690405  1
  C  C114  1  0.40442003  0.98794497  0.69349296  1
  C  C115  1  0.89640950  0.98307309  0.69502548  1
  C  C116  1  0.08502512  0.21608269  0.69371228  1
  C  C117  1  0.59154694  0.23029854  0.69043593  1
  C  C118  1  -0.00036159  0.81799737  0.69793785  1
  C  C119  1  0.51787232  0.83080882  0.69777096  1
  C  C120  1  0.39437045  0.80784884  0.19569085  1
  C  C121  1  0.90451013  0.82423597  0.19334397  1
  C  C122  1  0.00936517  0.19845644  0.19770116  1
  C  C123  1  0.50000455  0.18221773  0.19806893  1
  C  C124  1  0.08819175  0.94954092  0.19207866  1
  C  C125  1  0.58774035  0.96272403  0.19348911  1
  C  C126  1  0.44217147  0.35210307  0.63694318  1
  C  C127  1  0.92823370  0.35121727  0.64551291  1
  C  C128  1  0.24597439  0.10701579  0.64119007  1
  C  C129  1  0.74287093  0.10279197  0.64010542  1
  C  C130  1  0.32715894  0.53556868  0.63596199  1
  C  C131  1  0.81895218  0.51109271  0.63361591  1
  C  C132  1  0.42837372  0.50584192  0.14656348  1
  C  C133  1  0.94013769  0.52963533  0.14095497  1
  C  C134  1  0.31861284  0.12480354  0.13502766  1
  C  C135  1  0.83320449  0.12574203  0.14063280  1
  C  C136  1  0.24113875  0.38043733  0.14268785  1
  C  C137  1  0.74029609  0.39333843  0.14314357  1
  C  C138  1  0.21261104  0.28459654  0.02337442  1
  C  C139  1  0.71950572  0.29060383  0.02435789  1
  C  C140  1  0.41912990  0.53961863  0.02361607  1
  C  C141  1  0.93146186  0.54463749  0.02920998  1
  C  C142  1  0.34727217  0.12814266  0.02559943  1
  C  C143  1  0.85404540  0.13881709  0.02947813  1
  C  C144  1  0.21614967  0.14415046  0.52159235  1
  C  C145  1  0.71383212  0.13628719  0.52033243  1
  C  C146  1  0.35113211  0.57007633  0.52526544  1
  C  C147  1  0.84769001  0.56746994  0.52426257  1
  C  C148  1  0.43292899  0.32353143  0.52534999  1
  C  C149  1  0.92147699  0.30383719  0.52268667  1
  C  C150  1  0.26804318  0.67743881  0.97397880  1
  C  C151  1  0.77493526  0.68750948  0.97339967  1
  C  C152  1  0.07480672  0.45172019  0.97102448  1
  C  C153  1  0.57477620  0.44962991  0.96916713  1
  C  C154  1  0.15495766  0.83181288  0.97895403  1
  C  C155  1  0.65912244  0.83528660  0.97943823  1
  C  C156  1  0.27359005  0.85983809  0.47145559  1
  C  C157  1  0.77136913  0.85790732  0.47038840  1
  C  C158  1  0.15566614  0.48480086  0.47598429  1
  C  C159  1  0.65599614  0.48101355  0.47682928  1
  C  C160  1  0.07604464  0.69703580  0.46759888  1
  C  C161  1  0.57520014  0.69688438  0.46909743  1
  C  C162  1  0.06358141  0.65290413  0.35700567  1
  C  C163  1  0.55293529  0.64223735  0.35939838  1
  C  C164  1  0.25947877  0.88768888  0.36153603  1
  C  C165  1  0.76558312  0.88105376  0.35895066  1
  C  C166  1  0.17859380  0.50390132  0.35358627  1
  C  C167  1  0.68157623  0.48958303  0.35397195  1
  C  C168  1  0.05334751  0.46606964  0.86128597  1
  C  C169  1  0.56206706  0.47277986  0.85903896  1
  C  C170  1  0.18075564  0.87062995  0.85567694  1
  C  C171  1  0.68356695  0.85789030  0.85734652  1
  C  C172  1  0.26320258  0.64923237  0.86232818  1
  C  C173  1  0.75738074  0.63790985  0.86313503  1
  C  C174  1  0.00914327  0.82190268  0.41097504  1
  C  C175  1  0.50216370  0.81348849  0.41525543  1
  C  C176  1  0.39837212  0.96812538  0.41030701  1
  C  C177  1  0.90014507  0.96864119  0.41384979  1
  C  C178  1  0.08051621  0.19751106  0.41618688  1
  C  C179  1  0.58031022  0.19206943  0.41913566  1
  C  C180  1  0.00067713  0.19143926  0.91656275  1
  C  C181  1  0.50757232  0.19440834  0.91142091  1
  C  C182  1  0.08020172  0.96862877  0.91952643  1
  C  C183  1  0.58310204  0.96913460  0.91795599  1
  C  C184  1  0.39640408  0.83070183  0.91888392  1
  C  C185  1  0.89837613  0.82845917  0.91087086  1
  C  C186  1  0.48785194  0.17263542  0.58283372  1
  C  C187  1  0.98198219  0.14965404  0.58894159  1
  C  C188  1  0.08705004  0.00831737  0.59176575  1
  C  C189  1  0.58709165  0.01648053  0.59016506  1
  C  C190  1  0.40890000  0.82159832  0.58779914  1
  C  C191  1  0.90754076  0.80687886  0.59271499  1
  C  C192  1  0.48230440  0.81422899  0.08982926  1
  C  C193  1  0.98555316  0.80374565  0.08676808  1
  C  C194  1  0.40829031  0.00920768  0.09396696  1
  C  C195  1  0.91290409  0.00177279  0.09113078  1
  C  C196  1  0.08513844  0.16020789  0.09280451  1
  C  C197  1  0.58575593  0.16614331  0.09010582  1
  C  C198  1  0.34978001  0.15483074  0.74793672  1
  C  C199  1  0.84807229  0.16028419  0.74952674  1
  C  C200  1  0.24139465  0.31891163  0.74662481  1
  C  C201  1  0.74895070  0.31436398  0.73690531  1
  C  C202  1  0.41742289  0.50075686  0.74156101  1
  C  C203  1  0.92066847  0.52662312  0.74360570  1
  C  C204  1  0.34559640  0.53452574  0.25099667  1
  C  C205  1  0.85654315  0.54722888  0.24743144  1
  C  C206  1  0.41978015  0.31308284  0.24416180  1
  C  C207  1  0.92616473  0.32256958  0.24244244  1
  C  C208  1  0.24838051  0.17719720  0.23715510  1
  C  C209  1  0.74651313  0.16770094  0.24558353  1
  C  C210  1  0.32500515  0.51610211  0.91937144  1
  C  C211  1  0.82835960  0.51761492  0.91905583  1
  C  C212  1  0.43649219  0.36314847  0.91874175  1
  C  C213  1  0.93348098  0.36728738  0.92619641  1
  C  C214  1  0.25476883  0.14646817  0.92190893  1
  C  C215  1  0.75544202  0.14071932  0.91741114  1
  C  C216  1  0.32960556  0.14107532  0.41958816  1
  C  C217  1  0.82750452  0.13684469  0.41694875  1
  C  C218  1  0.25364755  0.37029063  0.41639880  1
  C  C219  1  0.75506652  0.36312315  0.42144590  1
  C  C220  1  0.43303003  0.50286170  0.42417672  1
  C  C221  1  0.93756720  0.51121348  0.41653205  1
  C  C222  1  0.17425230  0.51727320  0.07567859  1
  C  C223  1  0.67637998  0.51964980  0.07227144  1
  C  C224  1  0.07031953  0.65975226  0.08293482  1
  C  C225  1  0.57290593  0.65752485  0.08400868  1
  C  C226  1  0.25530223  0.86110428  0.08193555  1
  C  C227  1  0.75976696  0.86784734  0.08291597  1
  C  C228  1  0.17810134  0.83826555  0.57358502  1
  C  C229  1  0.67511337  0.83185839  0.57428720  1
  C  C230  1  0.25559888  0.64974035  0.57869007  1
  C  C231  1  0.75446739  0.64760699  0.58076507  1
  C  C232  1  0.07408150  0.48831062  0.58432329  1
  C  C233  1  0.57165943  0.48521210  0.57934985  1
  C  C234  1  0.15857146  0.81741725  0.25663010  1
  C  C235  1  0.65872391  0.81924124  0.25422303  1
  C  C236  1  0.26383699  0.68353243  0.25201246  1
  C  C237  1  0.77388099  0.69506673  0.24742179  1
  C  C238  1  0.07998985  0.46368941  0.25121052  1
  C  C239  1  0.57390620  0.45488913  0.24749509  1
  C  C240  1  0.15707568  0.49830738  0.75456834  1
  C  C241  1  0.66365793  0.49938667  0.75712659  1
  C  C242  1  0.07473350  0.69567114  0.74735807  1
  C  C243  1  0.58743173  0.68720432  0.75523639  1
  C  C244  1  0.27280934  0.84300709  0.74739355  1
  C  C245  1  0.76661099  0.84871529  0.75134282  1
