# generated using pymatgen
data_CuNi2C7
_symmetry_space_group_name_H-M   'P 1'
_cell_length_a   3.35114347
_cell_length_b   3.35067406
_cell_length_c   36.41194111
_cell_angle_alpha   90.20105285
_cell_angle_beta   89.87659590
_cell_angle_gamma   120.03478974
_symmetry_Int_Tables_number   1
_chemical_formula_structural   CuNi2C7
_chemical_formula_sum   'Cu1 Ni2 C7'
_cell_volume   353.95218216
_cell_formula_units_Z   1
loop_
 _symmetry_equiv_pos_site_id
 _symmetry_equiv_pos_as_xyz
  1  'x, y, z'
loop_
 _atom_site_type_symbol
 _atom_site_label
 _atom_site_symmetry_multiplicity
 _atom_site_fract_x
 _atom_site_fract_y
 _atom_site_fract_z
 _atom_site_occupancy
  C  C0  1  0.99892100  0.00341600  0.24182300  1
  C  C1  1  0.66686600  0.33222300  0.52636300  1
  C  C2  1  0.66631100  0.33471800  0.63105500  1
  Ni  Ni3  1  0.33339500  0.66725100  0.10825200  1
  Ni  Ni4  1  0.66692900  0.33176300  0.35283200  1
  Cu  Cu5  1  0.33339100  0.66658100  0.57872000  1
  C  C6  1  0.66675900  0.33266300  0.06263100  1
  C  C7  1  0.66650200  0.33529800  0.15429900  1
  C  C8  1  0.33338100  0.66710100  0.39407400  1
  C  C9  1  0.33414500  0.66218400  0.31029200  1
