# generated using pymatgen
data_Cu2NiC10
_symmetry_space_group_name_H-M   'P 1'
_cell_length_a   6.00768226
_cell_length_b   6.67239559
_cell_length_c   9.49314915
_cell_angle_alpha   123.31852445
_cell_angle_beta   108.44668586
_cell_angle_gamma   89.99998881
_symmetry_Int_Tables_number   1
_chemical_formula_structural   Cu2NiC10
_chemical_formula_sum   'Cu2 Ni1 C10'
_cell_volume   294.31043677
_cell_formula_units_Z   1
loop_
 _symmetry_equiv_pos_site_id
 _symmetry_equiv_pos_as_xyz
  1  'x, y, z'
loop_
 _atom_site_type_symbol
 _atom_site_label
 _atom_site_symmetry_multiplicity
 _atom_site_fract_x
 _atom_site_fract_y
 _atom_site_fract_z
 _atom_site_occupancy
  C  C0  1  0.15592476  0.77992804  0.31184952  1
  C  C1  1  0.84407524  0.22007196  0.68815048  1
  Ni  Ni2  1  0.00000000  0.00000000  0.00000000  1
  Cu  Cu3  1  0.38580286  0.66662515  0.77160573  1
  Cu  Cu4  1  0.61419714  0.33337485  0.22839427  1
  C  C5  1  0.66448485  0.17072406  0.32897069  1
  C  C6  1  0.71309043  0.73513118  0.88229137  1
  C  C7  1  0.16920094  0.73513118  0.88229137  1
  C  C8  1  0.33551515  0.82927594  0.67102931  1
  C  C9  1  0.31969790  0.33843300  0.63939480  1
  C  C10  1  0.28690957  0.26486882  0.11770863  1
  C  C11  1  0.83079906  0.26486882  0.11770863  1
  C  C12  1  0.68030210  0.66156700  0.36060520  1
