# generated using pymatgen
data_Cu2NiC
_symmetry_space_group_name_H-M   'P 1'
_cell_length_a   7.41637670
_cell_length_b   7.41637670
_cell_length_c   7.41637670
_cell_angle_alpha   104.89861527
_cell_angle_beta   104.89861527
_cell_angle_gamma   119.06366226
_symmetry_Int_Tables_number   1
_chemical_formula_structural   Cu2NiC
_chemical_formula_sum   'Cu4 Ni2 C2'
_cell_volume   307.31884212
_cell_formula_units_Z   2
loop_
 _symmetry_equiv_pos_site_id
 _symmetry_equiv_pos_as_xyz
  1  'x, y, z'
loop_
 _atom_site_type_symbol
 _atom_site_label
 _atom_site_symmetry_multiplicity
 _atom_site_fract_x
 _atom_site_fract_y
 _atom_site_fract_z
 _atom_site_occupancy
  C  C0  1  0.75000000  0.75000000  0.00000000  1
  C  C1  1  0.25000000  0.25000000  0.00000000  1
  Ni  Ni2  1  0.75000000  0.25000000  0.50000000  1
  Ni  Ni3  1  0.25000000  0.75000000  0.50000000  1
  Cu  Cu4  1  0.83064700  0.66935300  0.50000000  1
  Cu  Cu5  1  0.66935300  0.16935300  0.83870700  1
  Cu  Cu6  1  0.33064700  0.83064700  0.16129300  1
  Cu  Cu7  1  0.16935300  0.33064700  0.50000000  1
