# generated using pymatgen
data_Cu4NiC
_symmetry_space_group_name_H-M   'P 1'
_cell_length_a   4.77952000
_cell_length_b   6.56590400
_cell_length_c   9.72979500
_cell_angle_alpha   90.00000000
_cell_angle_beta   90.00000000
_cell_angle_gamma   90.00000000
_symmetry_Int_Tables_number   1
_chemical_formula_structural   Cu4NiC
_chemical_formula_sum   'Cu16 Ni4 C4'
_cell_volume   305.33915682
_cell_formula_units_Z   4
loop_
 _symmetry_equiv_pos_site_id
 _symmetry_equiv_pos_as_xyz
  1  'x, y, z'
loop_
 _atom_site_type_symbol
 _atom_site_label
 _atom_site_symmetry_multiplicity
 _atom_site_fract_x
 _atom_site_fract_y
 _atom_site_fract_z
 _atom_site_occupancy
  C  C0  1  0.75000000  0.91691800  0.85364700  1
  C  C1  1  0.75000000  0.58308200  0.35364700  1
  C  C2  1  0.25000000  0.08308200  0.14635300  1
  C  C3  1  0.25000000  0.41691800  0.64635300  1
  Ni  Ni4  1  0.25000000  0.34736600  0.36142300  1
  Ni  Ni5  1  0.25000000  0.15263400  0.86142300  1
  Ni  Ni6  1  0.75000000  0.65263400  0.63857700  1
  Ni  Ni7  1  0.75000000  0.84736600  0.13857700  1
  Cu  Cu8  1  0.45936800  0.32259400  0.29001700  1
  Cu  Cu9  1  0.04063200  0.17740600  0.79001700  1
  Cu  Cu10  1  0.95936800  0.67740600  0.70998300  1
  Cu  Cu11  1  0.54063200  0.82259400  0.20998300  1
  Cu  Cu12  1  0.54063200  0.67740600  0.70998300  1
  Cu  Cu13  1  0.95936800  0.82259400  0.20998300  1
  Cu  Cu14  1  0.04063200  0.32259400  0.29001700  1
  Cu  Cu15  1  0.45936800  0.17740600  0.79001700  1
  Cu  Cu16  1  0.25000000  0.22000300  0.45339100  1
  Cu  Cu17  1  0.25000000  0.27999700  0.95339100  1
  Cu  Cu18  1  0.75000000  0.77999700  0.54660900  1
  Cu  Cu19  1  0.75000000  0.72000300  0.04660900  1
  Cu  Cu20  1  0.25000000  0.52288700  0.40657500  1
  Cu  Cu21  1  0.25000000  0.97711300  0.90657500  1
  Cu  Cu22  1  0.75000000  0.47711300  0.59342500  1
  Cu  Cu23  1  0.75000000  0.02288700  0.09342500  1
