# generated using pymatgen
data_CuNi11C70
_symmetry_space_group_name_H-M   'P 1'
_cell_length_a   18.63232781
_cell_length_b   9.31485666
_cell_length_c   22.89346657
_cell_angle_alpha   89.87710489
_cell_angle_beta   90.00494405
_cell_angle_gamma   119.99686603
_symmetry_Int_Tables_number   1
_chemical_formula_structural   CuNi11C70
_chemical_formula_sum   'Cu3 Ni33 C210'
_cell_volume   3441.10493976
_cell_formula_units_Z   3
loop_
 _symmetry_equiv_pos_site_id
 _symmetry_equiv_pos_as_xyz
  1  'x, y, z'
loop_
 _atom_site_type_symbol
 _atom_site_label
 _atom_site_symmetry_multiplicity
 _atom_site_fract_x
 _atom_site_fract_y
 _atom_site_fract_z
 _atom_site_occupancy
  C  C0  1  0.32461210  0.99943794  0.25008284  1
  C  C1  1  0.82549037  0.00042243  0.24997872  1
  C  C2  1  0.32362970  0.63918654  0.74911729  1
  C  C3  1  0.82320364  0.64469050  0.74803999  1
  C  C4  1  0.49333565  0.35951919  0.74761014  1
  C  C5  1  0.67988221  0.00650863  0.75062104  1
  C  C6  1  0.15051671  0.32590386  0.58100637  1
  C  C7  1  0.65361936  0.32809168  0.58201380  1
  C  C8  1  0.01403234  0.70456633  0.58493221  1
  C  C9  1  0.51033524  0.68849009  0.58341494  1
  C  C10  1  0.33130864  0.98132896  0.58293614  1
  C  C11  1  0.84000366  0.97412261  0.58626326  1
  C  C12  1  0.14555409  0.95529912  0.07959932  1
  C  C13  1  0.64546347  0.95530172  0.07901624  1
  C  C14  1  0.33245343  0.71331219  0.08358323  1
  C  C15  1  0.83260618  0.71305935  0.08421021  1
  C  C16  1  0.02442558  0.33584572  0.08365453  1
  C  C17  1  0.52406811  0.33531752  0.08368873  1
  C  C18  1  0.48539759  0.68005042  0.91395604  1
  C  C19  1  0.98585013  0.67606153  0.91433862  1
  C  C20  1  0.35463657  0.02644598  0.91451487  1
  C  C21  1  0.85362358  0.02901285  0.91427858  1
  C  C22  1  0.16073470  0.29976224  0.91931761  1
  C  C23  1  0.66052564  0.29351835  0.91514144  1
  C  C24  1  0.47541038  0.28599651  0.41565120  1
  C  C25  1  0.97696444  0.28856944  0.41665492  1
  C  C26  1  0.16807100  0.04495769  0.42222996  1
  C  C27  1  0.66727511  0.04377793  0.42004932  1
  C  C28  1  0.35574253  0.66480383  0.41604256  1
  C  C29  1  0.85705002  0.66418216  0.41643272  1
  C  C30  1  0.00170736  0.99938464  0.50098437  1
  C  C31  1  0.49878989  0.99889679  0.49583512  1
  C  C32  1  -0.00001556  0.00195459  0.99995204  1
  C  C33  1  0.49952598  0.99953410  0.99889581  1
  C  C34  1  0.33457484  0.32376212  0.82975743  1
  C  C35  1  0.84026132  0.33440322  0.83166929  1
  C  C36  1  0.33866539  0.35054646  0.33510547  1
  C  C37  1  0.83969737  0.35240413  0.33447874  1
  C  C38  1  0.16351472  0.64843560  0.16615836  1
  C  C39  1  0.66348364  0.64842757  0.16589064  1
  C  C40  1  0.16266249  0.67912257  0.66892474  1
  C  C41  1  0.66696600  0.66672292  0.66726564  1
  C  C42  1  0.99489439  0.99523368  0.35046672  1
  C  C43  1  0.49444897  0.99453322  0.34993290  1
  C  C44  1  0.99483867  0.99250327  0.84639066  1
  C  C45  1  0.50239796  0.00361176  0.84827269  1
  C  C46  1  0.99876237  0.99118445  0.65322686  1
  C  C47  1  0.99730507  0.00528407  0.14927026  1
  C  C48  1  0.49713459  0.00521911  0.14901459  1
  C  C49  1  0.33185234  0.32500370  0.67846683  1
  C  C50  1  0.33664427  0.33664922  0.48247861  1
  C  C51  1  0.83223991  0.32905514  0.48108866  1
  C  C52  1  0.16706932  0.66665063  0.02031349  1
  C  C53  1  0.66793765  0.66651745  0.02102435  1
  C  C54  1  0.49835873  0.99794001  0.65163946  1
  C  C55  1  0.83638810  0.33568591  0.68288671  1
  C  C56  1  0.33873851  0.34850558  0.18531733  1
  C  C57  1  0.83908386  0.34911576  0.18531670  1
  C  C58  1  0.33377751  0.33525538  0.97853785  1
  C  C59  1  0.83332901  0.33268885  0.97854203  1
  C  C60  1  0.16544327  0.66788870  0.51908637  1
  C  C61  1  0.66776716  0.66629670  0.52013754  1
  C  C62  1  0.16471291  0.65099329  0.31500248  1
  C  C63  1  0.66445618  0.65126682  0.31448315  1
  C  C64  1  0.16692446  0.67794620  0.81914363  1
  C  C65  1  0.66610583  0.66902761  0.81619970  1
  Ni  Ni66  1  0.34522111  0.69284800  0.25023803  1
  Ni  Ni67  1  0.84537622  0.69312302  0.25029502  1
  Ni  Ni68  1  0.99901624  0.30733357  0.24964855  1
  Ni  Ni69  1  0.49874020  0.30692905  0.24955989  1
  Ni  Ni70  1  0.65130846  0.30346159  0.74907387  1
  Ni  Ni71  1  0.00146000  0.68717254  0.74971222  1
  Ni  Ni72  1  0.50008535  0.69850688  0.75188079  1
  Ni  Ni73  1  0.34714801  0.99471094  0.75268936  1
  Ni  Ni74  1  0.84514440  0.00119146  0.75034484  1
  Ni  Ni75  1  0.48669157  0.33124155  0.58309190  1
  Ni  Ni76  1  0.98360559  0.33605684  0.58137509  1
  Ni  Ni77  1  0.18155043  0.02992375  0.57809583  1
  Ni  Ni78  1  0.68316365  0.03425021  0.58419226  1
  Ni  Ni79  1  0.33350063  0.63963795  0.58414112  1
  Ni  Ni80  1  0.83189632  0.62830052  0.58146898  1
  Ni  Ni81  1  0.47738712  0.62327181  0.08142787  1
  Ni  Ni82  1  0.97721040  0.62317284  0.08104493  1
  Ni  Ni83  1  0.33333114  0.05194675  0.08467286  1
  Ni  Ni84  1  0.83345871  0.05149369  0.08509012  1
  Ni  Ni85  1  0.19084897  0.32952326  0.08319268  1
  Ni  Ni86  1  0.69101735  0.32911329  0.08320332  1
  Ni  Ni87  1  0.31351513  0.66214962  0.91745710  1
  Ni  Ni88  1  0.81297793  0.66101741  0.91750617  1
  Ni  Ni89  1  0.01886713  0.37313213  0.91896416  1
  Ni  Ni90  1  0.51781661  0.37502250  0.91835503  1
  Ni  Ni91  1  0.16894911  0.96931583  0.91945996  1
  Ni  Ni92  1  0.66915990  0.96513229  0.91946657  1
  Ni  Ni93  1  0.30828300  0.95177087  0.41436980  1
  Ni  Ni94  1  0.80806326  0.94943293  0.41487352  1
  Ni  Ni95  1  0.16653409  0.37613363  0.41923073  1
  Ni  Ni96  1  0.66619382  0.37624240  0.41791252  1
  Ni  Ni97  1  0.02414038  0.66800996  0.41553949  1
  Ni  Ni98  1  0.52617500  0.67048139  0.41709641  1
  Cu  Cu99  1  0.15424817  -0.00014325  0.24958054  1
  Cu  Cu100  1  0.65413567  0.00004319  0.24977967  1
  Cu  Cu101  1  0.15317737  0.31293585  0.75212162  1
  C  C102  1  0.11414515  0.02173799  0.30279522  1
  C  C103  1  0.61419443  0.02150772  0.30312957  1
  C  C104  1  0.40013260  0.76611860  0.30941743  1
  C  C105  1  0.90011657  0.76656137  0.30935286  1
  C  C106  1  0.47838565  0.18706063  0.30685240  1
  C  C107  1  0.97783696  0.18685179  0.30677522  1
  C  C108  1  0.11105334  0.21146056  0.80452399  1
  C  C109  1  0.62101903  0.19421982  0.80780378  1
  C  C110  1  0.48743534  0.77739522  0.81033555  1
  C  C111  1  0.97793708  0.76001252  0.80658221  1
  C  C112  1  0.40106465  0.02380213  0.81083875  1
  C  C113  1  0.89788111  0.03414670  0.80951299  1
  C  C114  1  0.40261382  0.97436061  0.69678324  1
  C  C115  1  0.88165006  0.95338173  0.69400405  1
  C  C116  1  0.10531338  0.23272523  0.69842559  1
  C  C117  1  0.58485898  0.19706409  0.69555985  1
  C  C118  1  0.01813166  0.79541893  0.69080803  1
  C  C119  1  0.51189979  0.82865033  0.69621416  1
  C  C120  1  0.38507016  0.81354098  0.19337925  1
  C  C121  1  0.88472697  0.81327865  0.19321264  1
  C  C122  1  0.01657690  0.23289615  0.19068644  1
  C  C123  1  0.51690615  0.23327145  0.19072313  1
  C  C124  1  0.10362577  0.97863061  0.19693014  1
  C  C125  1  0.60354115  0.97852211  0.19730739  1
  C  C126  1  0.45094293  0.37984300  0.63947115  1
  C  C127  1  0.92720575  0.35819749  0.63497579  1
  C  C128  1  0.24533464  0.10434220  0.63237489  1
  C  C129  1  0.74784016  0.13544465  0.63815717  1
  C  C130  1  0.31057005  0.52272681  0.64144709  1
  C  C131  1  0.81934504  0.50162873  0.63750585  1
  C  C132  1  0.42481568  0.50624699  0.13848053  1
  C  C133  1  0.92479600  0.50653083  0.13822729  1
  C  C134  1  0.32794654  0.15195359  0.14224368  1
  C  C135  1  0.82815273  0.15224657  0.14236509  1
  C  C136  1  0.25039200  0.33945559  0.13787822  1
  C  C137  1  0.75059600  0.33940316  0.13787543  1
  C  C138  1  0.24037149  0.31910136  0.02298297  1
  C  C139  1  0.74100713  0.31921494  0.02292353  1
  C  C140  1  0.41946422  0.52188528  0.02336117  1
  C  C141  1  0.91938799  0.52124753  0.02288481  1
  C  C142  1  0.33992349  0.16673669  0.02543805  1
  C  C143  1  0.83984209  0.16600592  0.02554530  1
  C  C144  1  0.22105555  0.14381750  0.52006716  1
  C  C145  1  0.71341384  0.14382456  0.52495206  1
  C  C146  1  0.35968825  0.56970395  0.52768553  1
  C  C147  1  0.84695877  0.55144283  0.52296682  1
  C  C148  1  0.42844888  0.28320879  0.52558223  1
  C  C149  1  0.92820417  0.29513233  0.52291775  1
  C  C150  1  0.27535896  0.69489735  0.97576336  1
  C  C151  1  0.77666028  0.69615977  0.97580649  1
  C  C152  1  0.07040717  0.44255312  0.97868602  1
  C  C153  1  0.57223611  0.45113251  0.97631936  1
  C  C154  1  0.14842895  0.85717117  0.97722641  1
  C  C155  1  0.65346487  0.85741675  0.97770578  1
  C  C156  1  0.25611587  0.83593155  0.47227954  1
  C  C157  1  0.75794639  0.83707140  0.47469425  1
  C  C158  1  0.15790258  0.47358130  0.47733003  1
  C  C159  1  0.66129091  0.48170471  0.47516579  1
  C  C160  1  0.07873955  0.67531373  0.47442497  1
  C  C161  1  0.58051278  0.67976033  0.47731045  1
  C  C162  1  0.07915084  0.65796674  0.36104647  1
  C  C163  1  0.58017439  0.65950592  0.36233245  1
  C  C164  1  0.25271544  0.85112856  0.35687255  1
  C  C165  1  0.75196615  0.84817338  0.35785920  1
  C  C166  1  0.17263741  0.49381346  0.36201193  1
  C  C167  1  0.67147049  0.49231339  0.36087287  1
  C  C168  1  0.07474597  0.50876674  0.86546275  1
  C  C169  1  0.56907409  0.49950215  0.86038381  1
  C  C170  1  0.18251052  0.86276909  0.86374374  1
  C  C171  1  0.67805721  0.85761491  0.86239632  1
  C  C172  1  0.25028099  0.63762271  0.86073492  1
  C  C173  1  0.74991424  0.63985095  0.86021545  1
  C  C174  1  0.02165437  0.83989531  0.41539114  1
  C  C175  1  0.52283091  0.84170879  0.41660761  1
  C  C176  1  0.39799523  0.95952140  0.41701320  1
  C  C177  1  0.89786388  0.95938014  0.41707628  1
  C  C178  1  0.08252670  0.19693949  0.41588886  1
  C  C179  1  0.58121887  0.19804326  0.41700037  1
  C  C180  1  0.00545619  0.18899771  0.90901724  1
  C  C181  1  0.50373103  0.19005905  0.91140308  1
  C  C182  1  0.09275658  0.00186071  0.90717182  1
  C  C183  1  0.59209061  0.99741822  0.91312829  1
  C  C184  1  0.40690216  0.81731984  0.91144548  1
  C  C185  1  0.90638053  0.81766152  0.91041064  1
  C  C186  1  0.49963208  0.16862287  0.59462199  1
  C  C187  1  0.99974923  0.18363623  0.59387220  1
  C  C188  1  0.08939540  0.00708994  0.58539363  1
  C  C189  1  0.58967494  0.00623204  0.59841869  1
  C  C190  1  0.41632788  0.82874420  0.59503065  1
  C  C191  1  0.90992622  0.81399777  0.58931903  1
  C  C192  1  0.48201486  0.80155850  0.08335483  1
  C  C193  1  0.98166784  0.80138546  0.08299608  1
  C  C194  1  0.41844207  0.04239477  0.08246024  1
  C  C195  1  0.91865060  0.04238363  0.08241175  1
  C  C196  1  0.10198757  0.15821202  0.08355591  1
  C  C197  1  0.60221163  0.15837243  0.08359687  1
  C  C198  1  0.34031887  0.15900912  0.74393461  1
  C  C199  1  0.82813020  0.15824271  0.73967396  1
  C  C200  1  0.23770535  0.33639981  0.74978649  1
  C  C201  1  0.74393289  0.33023818  0.73484695  1
  C  C202  1  0.41993077  0.51630051  0.74408544  1
  C  C203  1  0.91485327  0.50341292  0.73912702  1
  C  C204  1  0.33132961  0.50436498  0.24012306  1
  C  C205  1  0.83126132  0.50447976  0.24008601  1
  C  C206  1  0.41229687  0.31750164  0.24184074  1
  C  C207  1  0.91254592  0.31828816  0.24169331  1
  C  C208  1  0.23898240  0.14823812  0.24511740  1
  C  C209  1  0.73900684  0.14809572  0.24532580  1
  C  C210  1  0.31523784  0.48448140  0.92006043  1
  C  C211  1  0.81564453  0.48494165  0.91899047  1
  C  C212  1  0.42728066  0.37036873  0.91997929  1
  C  C213  1  0.92782948  0.36752720  0.92008064  1
  C  C214  1  0.25821681  0.14625461  0.92079345  1
  C  C215  1  0.75865903  0.14491692  0.92002382  1
  C  C216  1  0.31634441  0.13379863  0.41488997  1
  C  C217  1  0.81261513  0.12785499  0.41527538  1
  C  C218  1  0.25281938  0.37381432  0.41738985  1
  C  C219  1  0.75070133  0.36839153  0.41505238  1
  C  C220  1  0.43663741  0.50188607  0.41618106  1
  C  C221  1  0.93429018  0.49982942  0.41497323  1
  C  C222  1  0.18553740  0.49795435  0.08544101  1
  C  C223  1  0.68584818  0.49753044  0.08551300  1
  C  C224  1  0.06531709  0.62985520  0.08500955  1
  C  C225  1  0.56543704  0.62944528  0.08519843  1
  C  C226  1  0.24966869  0.87141639  0.08534396  1
  C  C227  1  0.75003353  0.87119289  0.08612710  1
  C  C228  1  0.17107951  0.84152323  0.57198610  1
  C  C229  1  0.67581882  0.84885718  0.57993358  1
  C  C230  1  0.25226438  0.66484267  0.57387931  1
  C  C231  1  0.74516123  0.63936257  0.57947849  1
  C  C232  1  0.07385178  0.51131257  0.57967788  1
  C  C233  1  0.58001151  0.49666405  0.57445367  1
  C  C234  1  0.16508124  0.85223811  0.25459581  1
  C  C235  1  0.66502927  0.85205966  0.25492752  1
  C  C236  1  0.25352422  0.68250898  0.25820882  1
  C  C237  1  0.75348841  0.68267100  0.25833325  1
  C  C238  1  0.07977288  0.49546613  0.25987862  1
  C  C239  1  0.57918931  0.49561465  0.25996268  1
  C  C240  1  0.16011347  0.47994215  0.75644162  1
  C  C241  1  0.65666147  0.48637534  0.75410420  1
  C  C242  1  0.08447329  0.66846997  0.76193751  1
  C  C243  1  0.58772405  0.69125149  0.75476071  1
  C  C244  1  0.25835463  0.81405759  0.75609358  1
  C  C245  1  0.75170340  0.83125606  0.76020175  1
