# generated using pymatgen
data_Cu11NiC58
_symmetry_space_group_name_H-M   'P 1'
_cell_length_a   17.69076500
_cell_length_b   8.86682408
_cell_length_c   23.06806025
_cell_angle_alpha   89.79018543
_cell_angle_beta   89.97312991
_cell_angle_gamma   119.94482161
_symmetry_Int_Tables_number   1
_chemical_formula_structural   Cu11NiC58
_chemical_formula_sum   'Cu33 Ni3 C174'
_cell_volume   3135.40164769
_cell_formula_units_Z   3
loop_
 _symmetry_equiv_pos_site_id
 _symmetry_equiv_pos_as_xyz
  1  'x, y, z'
loop_
 _atom_site_type_symbol
 _atom_site_label
 _atom_site_symmetry_multiplicity
 _atom_site_fract_x
 _atom_site_fract_y
 _atom_site_fract_z
 _atom_site_occupancy
  C  C0  1  0.99521362  0.98532455  0.48941999  1
  C  C1  1  0.49820219  0.00219312  0.99948783  1
  C  C2  1  0.33107309  0.32529144  0.83718765  1
  C  C3  1  0.84224127  0.34345933  0.83174142  1
  C  C4  1  0.33710327  0.33277976  0.32994355  1
  C  C5  1  0.84034953  0.34105835  0.34145428  1
  C  C6  1  0.49949665  0.00844465  0.35609521  1
  C  C7  1  0.49677705  0.00644473  0.85462265  1
  C  C8  1  0.99977726  0.99551442  0.64987948  1
  C  C9  1  0.50059445  0.00209598  0.64001520  1
  C  C10  1  0.00098898  0.00226345  0.14497429  1
  C  C11  1  0.50038267  0.00877066  0.14980687  1
  C  C12  1  0.16333116  0.66380111  0.01842594  1
  C  C13  1  0.66489180  0.65583811  0.02131493  1
  C  C14  1  0.16053808  0.66619008  0.52036928  1
  C  C15  1  0.15772096  0.66049097  0.31291341  1
  C  C16  1  0.66640124  0.66272397  0.31141079  1
  C  C17  1  0.66402633  0.65926488  0.81169272  1
  C  C18  1  0.99676610  0.98467753  0.35577340  1
  C  C19  1  0.00569882  0.00462274  0.85353555  1
  C  C20  1  0.33097488  0.33111437  0.68227971  1
  C  C21  1  0.83569807  0.33842577  0.67818984  1
  C  C22  1  0.33800372  0.33034683  0.18537158  1
  C  C23  1  0.83533783  0.33485884  0.18375088  1
  C  C24  1  0.33537755  0.32755747  0.97946689  1
  C  C25  1  0.83985916  0.33934845  0.98272036  1
  C  C26  1  0.33753421  0.34065410  0.48461847  1
  C  C27  1  0.83830283  0.34172973  0.48012336  1
  C  C28  1  0.67014293  0.67472444  0.52173343  1
  C  C29  1  0.15980285  0.66063410  0.81120668  1
  Ni  Ni30  1  0.49379846  0.29477780  0.25081145  1
  Ni  Ni31  1  0.51483926  0.37526752  0.91737688  1
  Ni  Ni32  1  0.01200135  0.66570787  0.41734708  1
  Cu  Cu33  1  0.14578467  0.00771720  0.25112005  1
  Cu  Cu34  1  0.64945182  0.00867728  0.25033054  1
  Cu  Cu35  1  0.35390714  0.70486250  0.25131324  1
  Cu  Cu36  1  0.85720951  0.70491002  0.25022431  1
  Cu  Cu37  1  0.99552934  0.28242791  0.25148286  1
  Cu  Cu38  1  0.14864761  0.29388808  0.75246710  1
  Cu  Cu39  1  0.64824840  0.28713024  0.74885672  1
  Cu  Cu40  1  0.99747962  0.70193384  0.75347792  1
  Cu  Cu41  1  0.49704346  0.70658719  0.74937194  1
  Cu  Cu42  1  0.35156931  0.00004309  0.74843212  1
  Cu  Cu43  1  0.85642853  0.00972835  0.75280516  1
  Cu  Cu44  1  0.47862527  0.34368783  0.58290549  1
  Cu  Cu45  1  0.97640695  0.32744340  0.58401841  1
  Cu  Cu46  1  0.19053064  0.04920771  0.58314996  1
  Cu  Cu47  1  0.69388632  0.04590316  0.58254903  1
  Cu  Cu48  1  0.33173418  0.61646714  0.58323227  1
  Cu  Cu49  1  0.83106986  0.62182128  0.58336326  1
  Cu  Cu50  1  0.47637934  0.62426966  0.08227210  1
  Cu  Cu51  1  0.97565486  0.61924615  0.08375954  1
  Cu  Cu52  1  0.33247928  0.04214818  0.08197709  1
  Cu  Cu53  1  0.83276741  0.04904933  0.08362473  1
  Cu  Cu54  1  0.19370389  0.33592487  0.08319389  1
  Cu  Cu55  1  0.69159860  0.32882865  0.08272488  1
  Cu  Cu56  1  0.30863419  0.65972777  0.91481713  1
  Cu  Cu57  1  0.81537518  0.66752580  0.91622800  1
  Cu  Cu58  1  0.01830514  0.37183471  0.91413588  1
  Cu  Cu59  1  0.16591661  0.95751732  0.91341761  1
  Cu  Cu60  1  0.66985999  0.96264989  0.91653652  1
  Cu  Cu61  1  0.31012081  0.96091604  0.41717390  1
  Cu  Cu62  1  0.81156557  0.95853066  0.41832601  1
  Cu  Cu63  1  0.16958918  0.37546505  0.41695909  1
  Cu  Cu64  1  0.66878432  0.37970000  0.41933751  1
  Cu  Cu65  1  0.51984389  0.66039992  0.41823569  1
  C  C66  1  0.10392912  0.02966877  0.30215259  1
  C  C67  1  0.60448320  0.02803638  0.30165904  1
  C  C68  1  0.41063444  0.79146110  0.30236644  1
  C  C69  1  0.91034779  0.78485444  0.30131114  1
  C  C70  1  0.48544481  0.16734358  0.30569000  1
  C  C71  1  0.98501729  0.17812537  0.30282723  1
  C  C72  1  0.10781426  0.18247185  0.80362230  1
  C  C73  1  0.60370814  0.17864998  0.80167227  1
  C  C74  1  0.48724504  0.79345806  0.80202332  1
  C  C75  1  0.98293125  0.78503747  0.80391479  1
  C  C76  1  0.40992065  0.02610681  0.80132058  1
  C  C77  1  0.91018370  0.03276500  0.80370049  1
  C  C78  1  0.39846440  0.98025436  0.69766979  1
  C  C79  1  0.89692252  0.98115373  0.69941579  1
  C  C80  1  0.09224176  0.20236477  0.69936679  1
  C  C81  1  0.59277230  0.20372331  0.69792274  1
  C  C82  1  0.00857808  0.81349077  0.69967847  1
  C  C83  1  0.50897107  0.81630692  0.69781334  1
  C  C84  1  0.39769222  0.81413334  0.19853220  1
  C  C85  1  0.89856600  0.81491876  0.19687498  1
  C  C86  1  0.00752591  0.19900316  0.19798884  1
  C  C87  1  0.51098462  0.20109510  0.19400565  1
  C  C88  1  0.09002566  0.97695287  0.19781037  1
  C  C89  1  0.59450731  0.97811788  0.19753811  1
  C  C90  1  0.43853982  0.36692303  0.63562012  1
  C  C91  1  0.94111519  0.35777550  0.63717527  1
  C  C92  1  0.24026790  0.12376845  0.63604319  1
  C  C93  1  0.74439143  0.12212053  0.63602688  1
  C  C94  1  0.31766365  0.51371892  0.63580511  1
  C  C95  1  0.81948023  0.52146996  0.63720981  1
  C  C96  1  0.44045087  0.52308166  0.13523487  1
  C  C97  1  0.93934137  0.51377732  0.13597998  1
  C  C98  1  0.31799657  0.11292985  0.13481934  1
  C  C99  1  0.81716577  0.12253022  0.13585744  1
  C  C100  1  0.24544847  0.36666122  0.13567720  1
  C  C101  1  0.74015797  0.34978409  0.13580581  1
  C  C102  1  0.22930177  0.30160713  0.03099401  1
  C  C103  1  0.73011498  0.30485180  0.02985600  1
  C  C104  1  0.42395192  0.54898410  0.03020070  1
  C  C105  1  0.92317035  0.54939022  0.03149222  1
  C  C106  1  0.34995515  0.14923648  0.02998436  1
  C  C107  1  0.85058665  0.15594189  0.03139204  1
  C  C108  1  0.22734009  0.15356237  0.53055621  1
  C  C109  1  0.72957038  0.15734850  0.53134082  1
  C  C110  1  0.35012443  0.54587762  0.53135799  1
  C  C111  1  0.85136083  0.55087551  0.53222909  1
  C  C112  1  0.42270251  0.30006659  0.53132287  1
  C  C113  1  0.92399464  0.29590161  0.53224883  1
  C  C114  1  0.27000805  0.69128239  0.96828653  1
  C  C115  1  0.77121583  0.68981129  0.96888146  1
  C  C116  1  0.07350615  0.46219967  0.96787533  1
  C  C117  1  0.57887413  0.46845678  0.97334058  1
  C  C118  1  0.15625580  0.84606646  0.96752865  1
  C  C119  1  0.65751430  0.85512180  0.96881599  1
  C  C120  1  0.27005408  0.85362926  0.46952390  1
  C  C121  1  0.77139929  0.84937594  0.46989944  1
  C  C122  1  0.16151959  0.46736711  0.46908096  1
  C  C123  1  0.65253109  0.45503246  0.47004363  1
  C  C124  1  0.07703149  0.68480890  0.47274420  1
  C  C125  1  0.57185587  0.68875373  0.46988250  1
  C  C126  1  0.06632863  0.64475986  0.36065896  1
  C  C127  1  0.56360170  0.63846014  0.36519755  1
  C  C128  1  0.25746238  0.87336022  0.36475152  1
  C  C129  1  0.75803515  0.86771061  0.36483029  1
  C  C130  1  0.18219381  0.48768338  0.36416868  1
  C  C131  1  0.67931706  0.48636320  0.36548452  1
  C  C132  1  0.05911273  0.48426509  0.86353946  1
  C  C133  1  0.56882089  0.49404383  0.86049234  1
  C  C134  1  0.18154952  0.87551409  0.86311744  1
  C  C135  1  0.68039620  0.87783396  0.86391617  1
  C  C136  1  0.25916190  0.64643759  0.86306710  1
  C  C137  1  0.75701113  0.64281855  0.86476353  1
  C  C138  1  0.01310348  0.84792737  0.41538683  1
  C  C139  1  0.51082997  0.81698859  0.40645775  1
  C  C140  1  0.39677976  0.97158148  0.41104518  1
  C  C141  1  0.90001274  0.98223099  0.41118928  1
  C  C142  1  0.08903417  0.20903283  0.41179591  1
  C  C143  1  0.58912334  0.20244865  0.40915079  1
  C  C144  1  0.01256280  0.20218408  0.91034573  1
  C  C145  1  0.51143424  0.18487449  0.91092113  1
  C  C146  1  0.08486511  0.96392212  0.91024703  1
  C  C147  1  0.58778292  0.97263182  0.91023803  1
  C  C148  1  0.39935218  0.82187380  0.91125889  1
  C  C149  1  0.89945030  0.82263231  0.90870813  1
  C  C150  1  0.48752262  0.18061789  0.59313799  1
  C  C151  1  0.98919595  0.17208264  0.59213710  1
  C  C152  1  0.09935374  0.02232632  0.59026520  1
  C  C153  1  0.60266950  0.02676634  0.59345004  1
  C  C154  1  0.41078416  0.79580949  0.59215152  1
  C  C155  1  0.91241728  0.80430297  0.59259709  1
  C  C156  1  0.49001476  0.80586929  0.08876235  1
  C  C157  1  0.98811710  0.79785265  0.09291581  1
  C  C158  1  0.41074163  0.01459335  0.08857733  1
  C  C159  1  0.91090406  0.02628521  0.09328906  1
  C  C160  1  0.10299012  0.18199929  0.09332862  1
  C  C161  1  0.60048372  0.17179824  0.08740878  1
  C  C162  1  0.34692000  0.16058778  0.74371461  1
  C  C163  1  0.84433144  0.16055603  0.74398950  1
  C  C164  1  0.23578116  0.31092619  0.74349180  1
  C  C165  1  0.73445750  0.30518752  0.74420218  1
  C  C166  1  0.42133988  0.53251938  0.74417135  1
  C  C167  1  0.91932260  0.52830594  0.74436316  1
  C  C168  1  0.34357840  0.53267809  0.24481702  1
  C  C169  1  0.84467154  0.52929295  0.24156224  1
  C  C170  1  0.40842434  0.31102051  0.24705400  1
  C  C171  1  0.92015456  0.30817635  0.24328677  1
  C  C172  1  0.23169751  0.16061889  0.24187842  1
  C  C173  1  0.73518707  0.16382579  0.24376039  1
  C  C174  1  0.31885878  0.50758755  0.92307596  1
  C  C175  1  0.81915192  0.50537300  0.92203936  1
  C  C176  1  0.42053161  0.35491913  0.91946109  1
  C  C177  1  0.93103784  0.35626429  0.92291775  1
  C  C178  1  0.24256956  0.13134227  0.92265301  1
  C  C179  1  0.74561219  0.13726286  0.92210954  1
  C  C180  1  0.32074935  0.13477130  0.42215517  1
  C  C181  1  0.81412635  0.12706857  0.42112814  1
  C  C182  1  0.24830640  0.35919975  0.42208449  1
  C  C183  1  0.74476941  0.35654371  0.42202302  1
  C  C184  1  0.43181265  0.50445522  0.42136794  1
  C  C185  1  0.92093895  0.48671548  0.41925235  1
  C  C186  1  0.17923153  0.48768388  0.07307334  1
  C  C187  1  0.68070120  0.48603011  0.07705620  1
  C  C188  1  0.06503609  0.64325535  0.07477212  1
  C  C189  1  0.56688722  0.64954435  0.07399170  1
  C  C190  1  0.25556860  0.86391817  0.07270000  1
  C  C191  1  0.75694685  0.87130454  0.07431096  1
  C  C192  1  0.18080350  0.87239505  0.57614097  1
  C  C193  1  0.67814987  0.86886720  0.57538433  1
  C  C194  1  0.25616098  0.64235085  0.57418910  1
  C  C195  1  0.75587900  0.64647072  0.57594859  1
  C  C196  1  0.06644118  0.48104438  0.57619216  1
  C  C197  1  0.56618582  0.49093721  0.57454189  1
  C  C198  1  0.15428849  0.84755963  0.25622749  1
  C  C199  1  0.65697712  0.85127133  0.25787999  1
  C  C200  1  0.26963780  0.69868953  0.25851414  1
  C  C201  1  0.77048004  0.69430754  0.25580169  1
  C  C202  1  0.07785193  0.45672862  0.25490578  1
  C  C203  1  0.58346165  0.47897410  0.26087498  1
  C  C204  1  0.15400623  0.46379397  0.75679958  1
  C  C205  1  0.65528034  0.46063934  0.75622662  1
  C  C206  1  0.07795132  0.69322450  0.75661509  1
  C  C207  1  0.57883566  0.69796999  0.75609070  1
  C  C208  1  0.26840453  0.84356410  0.75688920  1
  C  C209  1  0.76906867  0.84757481  0.75900141  1
