# generated using pymatgen
data_Cu2NiC13
_symmetry_space_group_name_H-M   'P 1'
_cell_length_a   5.08058100
_cell_length_b   6.17498500
_cell_length_c   10.75136457
_cell_angle_alpha   89.47254392
_cell_angle_beta   90.00000000
_cell_angle_gamma   90.00000000
_symmetry_Int_Tables_number   1
_chemical_formula_structural   Cu2NiC13
_chemical_formula_sum   'Cu4 Ni2 C26'
_cell_volume   337.28301588
_cell_formula_units_Z   2
loop_
 _symmetry_equiv_pos_site_id
 _symmetry_equiv_pos_as_xyz
  1  'x, y, z'
loop_
 _atom_site_type_symbol
 _atom_site_label
 _atom_site_symmetry_multiplicity
 _atom_site_fract_x
 _atom_site_fract_y
 _atom_site_fract_z
 _atom_site_occupancy
  C  C0  1  0.45159400  0.99767000  0.66373100  1
  C  C1  1  0.94790200  0.25067300  0.07487100  1
  C  C2  1  0.05209800  0.25067300  0.57487100  1
  C  C3  1  0.54840600  0.99767000  0.16373100  1
  C  C4  1  0.54502200  0.75044500  0.92577600  1
  C  C5  1  0.45497800  0.75044500  0.42577600  1
  C  C6  1  0.44737400  0.50202600  0.66442100  1
  C  C7  1  0.55262600  0.50202600  0.16442100  1
  C  C8  1  0.94185600  0.49650700  0.83610800  1
  C  C9  1  0.05814400  0.49650700  0.33610800  1
  Ni  Ni10  1  0.04872400  0.00750100  0.32726500  1
  Ni  Ni11  1  0.95127600  0.00750100  0.82726500  1
  Cu  Cu12  1  0.05325700  0.74379000  0.08850300  1
  Cu  Cu13  1  0.44325100  0.25415800  0.91352900  1
  Cu  Cu14  1  0.94674300  0.74379000  0.58850300  1
  Cu  Cu15  1  0.55674900  0.25415800  0.41352900  1
  C  C16  1  0.94365400  0.73723600  0.95357300  1
  C  C17  1  0.47109000  0.04447900  0.34351300  1
  C  C18  1  0.05556700  0.95447600  0.65050800  1
  C  C19  1  0.94443300  0.95447600  0.15050800  1
  C  C20  1  0.55192100  0.25241400  0.04864900  1
  C  C21  1  0.36014600  0.74908000  0.08863800  1
  C  C22  1  0.63985400  0.74908000  0.58863800  1
  C  C23  1  0.05634600  0.73723600  0.45357400  1
  C  C24  1  0.04674900  0.54113400  0.66164200  1
  C  C25  1  0.95325100  0.54113400  0.16164200  1
  C  C26  1  0.54447800  0.45745100  0.84121500  1
  C  C27  1  0.45552200  0.45745100  0.34121500  1
  C  C28  1  0.13550900  0.26096000  0.91805800  1
  C  C29  1  0.86449100  0.26096000  0.41805800  1
  C  C30  1  0.44807900  0.25241400  0.54864900  1
  C  C31  1  0.52891000  0.04447900  0.84351300  1
