# generated using pymatgen
data_Cu3Ni3C32
_symmetry_space_group_name_H-M   'P 1'
_cell_length_a   8.84244029
_cell_length_b   8.82730878
_cell_length_c   22.35274539
_cell_angle_alpha   88.74310294
_cell_angle_beta   92.04705780
_cell_angle_gamma   119.55349476
_symmetry_Int_Tables_number   1
_chemical_formula_structural   Cu3Ni3C32
_chemical_formula_sum   'Cu9 Ni9 C96'
_cell_volume   1516.75642319
_cell_formula_units_Z   3
loop_
 _symmetry_equiv_pos_site_id
 _symmetry_equiv_pos_as_xyz
  1  'x, y, z'
loop_
 _atom_site_type_symbol
 _atom_site_label
 _atom_site_symmetry_multiplicity
 _atom_site_fract_x
 _atom_site_fract_y
 _atom_site_fract_z
 _atom_site_occupancy
  C  C0  1  0.64241994  0.00470689  0.24309367  1
  C  C1  1  0.37151405  0.35478716  0.25100016  1
  C  C2  1  0.98358861  0.63347424  0.25079789  1
  C  C3  1  0.99157363  0.36189961  0.75597023  1
  C  C4  1  0.38318908  0.01095063  0.75760754  1
  C  C5  1  0.71025861  0.67936215  0.40947108  1
  C  C6  1  0.00864064  0.02203071  0.49831822  1
  C  C7  1  0.00518749  0.00703256  0.99994386  1
  C  C8  1  0.65667754  0.33424571  0.83469519  1
  C  C9  1  0.65090263  0.32006333  0.32950563  1
  C  C10  1  0.34674162  0.68063378  0.15926059  1
  C  C11  1  0.35267784  0.66445930  0.66901346  1
  C  C12  1  0.00718240  0.01101223  0.35931748  1
  C  C13  1  0.65976537  0.32847133  0.68394892  1
  C  C14  1  0.65815139  0.32085254  0.17081632  1
  Ni  Ni15  1  0.28454749  0.98884271  0.24839053  1
  Ni  Ni16  1  0.70266116  0.70028754  0.25314875  1
  Ni  Ni17  1  0.28896014  0.29893351  0.75477709  1
  Ni  Ni18  1  0.70984303  0.98191268  0.75849185  1
  Ni  Ni19  1  0.66310829  0.01327309  0.08347627  1
  Ni  Ni20  1  0.05199507  0.39304815  0.91700981  1
  Ni  Ni21  1  0.32501188  0.95101167  0.91397260  1
  Ni  Ni22  1  0.61600843  0.95880985  0.42062880  1
  Ni  Ni23  1  0.33538720  0.38878426  0.42023039  1
  Cu  Cu24  1  0.02958284  0.04631304  0.86004853  1
  Cu  Cu25  1  0.98317533  0.01407426  0.65969358  1
  Cu  Cu26  1  0.97193995  0.96628618  0.14843615  1
  Cu  Cu27  1  0.67358662  0.29068658  0.97403743  1
  Cu  Cu28  1  0.64236985  0.31156521  0.47423449  1
  Cu  Cu29  1  0.33102328  0.67431235  0.01388272  1
  Cu  Cu30  1  0.34195642  0.66741984  0.51378820  1
  Cu  Cu31  1  0.36909289  0.69193441  0.31286224  1
  Cu  Cu32  1  0.34456882  0.66726290  0.81917610  1
  C  C33  1  0.01012818  0.29976225  0.24747979  1
  C  C34  1  0.00660346  0.72418952  0.75167213  1
  C  C35  1  0.97391833  0.33925339  0.58155651  1
  C  C36  1  0.35676862  0.01979612  0.57986842  1
  C  C37  1  0.66847447  0.64468156  0.58003068  1
  C  C38  1  0.97144220  0.63435580  0.07954270  1
  C  C39  1  0.35939541  0.33455173  0.07818900  1
  C  C40  1  0.62468241  0.66219482  0.91936846  1
  C  C41  1  0.04322494  0.65197807  0.42030322  1
  C  C42  1  0.22132521  0.05304097  0.30487054  1
  C  C43  1  0.80979150  0.77339085  0.31447003  1
  C  C44  1  0.97224748  0.19554709  0.30222567  1
  C  C45  1  0.20010348  0.16486177  0.81028321  1
  C  C46  1  0.98523949  0.80358982  0.80432343  1
  C  C47  1  0.84706053  0.01303895  0.81373235  1
  C  C48  1  0.78246939  0.94890606  0.69381197  1
  C  C49  1  0.15409436  0.21000756  0.69358839  1
  C  C50  1  0.03421447  0.83569773  0.69398714  1
  C  C51  1  0.79039804  0.83364949  0.19421036  1
  C  C52  1  0.03656482  0.21483139  0.19470539  1
  C  C53  1  0.14873426  0.95319469  0.18809854  1
  C  C54  1  0.90638137  0.36371573  0.63776749  1
  C  C55  1  0.45939235  0.08511108  0.63617978  1
  C  C56  1  0.64387974  0.54106195  0.63443315  1
  C  C57  1  0.91264779  0.54899902  0.13784017  1
  C  C58  1  0.61895444  0.06440157  0.14552901  1
  C  C59  1  0.44797180  0.36680207  0.13759510  1
  C  C60  1  0.45805389  0.31229892  0.02940730  1
  C  C61  1  0.84990623  0.54207539  0.02860804  1
  C  C62  1  0.70583582  0.15991376  0.02746133  1
  C  C63  1  0.44767586  0.14069460  0.52797708  1
  C  C64  1  0.68888702  0.56182762  0.52608173  1
  C  C65  1  0.85663968  0.31300073  0.52874703  1
  C  C66  1  0.53981249  0.69333962  0.96983076  1
  C  C67  1  0.17740640  0.48249207  0.97435971  1
  C  C68  1  0.29779143  0.83344756  0.97275621  1
  C  C69  1  0.51138856  0.83995370  0.47754550  1
  C  C70  1  0.31359907  0.48059099  0.47952501  1
  C  C71  1  0.15025015  0.67363873  0.47674146  1
  C  C72  1  0.12029494  0.63094436  0.36591255  1
  C  C73  1  0.50499043  0.88390138  0.35638505  1
  C  C74  1  0.37266959  0.51409477  0.35849470  1
  C  C75  1  0.13547026  0.50572295  0.85482904  1
  C  C76  1  0.36573173  0.86892383  0.85426263  1
  C  C77  1  0.51245922  0.62786572  0.86164411  1
  C  C78  1  0.02071007  0.80502433  0.42039868  1
  C  C79  1  0.79832138  0.96487837  0.42438468  1
  C  C80  1  0.18374788  0.19599884  0.42469264  1
  C  C81  1  0.02598137  0.19401319  0.91360378  1
  C  C82  1  0.14506486  0.96684973  0.90784431  1
  C  C83  1  0.79620637  0.81736060  0.91293726  1
  C  C84  1  0.98803066  0.17339781  0.58583277  1
  C  C85  1  0.18457865  0.00716058  0.58317016  1
  C  C86  1  0.82768676  0.82173974  0.58473526  1
  C  C87  1  0.98814810  0.81359279  0.08153098  1
  C  C88  1  0.85210223  0.00987272  0.08871790  1
  C  C89  1  0.18605440  0.17529888  0.08087540  1
  C  C90  1  0.69819410  0.15897184  0.75312385  1
  C  C91  1  0.47265430  0.30844045  0.74960729  1
  C  C92  1  0.85842792  0.54658628  0.74470004  1
  C  C93  1  0.67349144  0.50790239  0.24366380  1
  C  C94  1  0.86242470  0.33334793  0.23902654  1
  C  C95  1  0.48384500  0.14503884  0.24351548  1
  C  C96  1  0.63733554  0.50094263  0.92553341  1
  C  C97  1  0.85250380  0.36882043  0.92304202  1
  C  C98  1  0.50007646  0.15160943  0.92197597  1
  C  C99  1  0.63128689  0.15348888  0.42452729  1
  C  C100  1  0.52933195  0.39101927  0.42526127  1
  C  C101  1  0.86711523  0.49075940  0.42509577  1
  C  C102  1  0.34195371  0.49571033  0.06943153  1
  C  C103  1  0.14867165  0.65288153  0.07263971  1
  C  C104  1  0.49374754  0.82279064  0.06624110  1
  C  C105  1  0.33704389  0.84054576  0.57228239  1
  C  C106  1  0.50385779  0.66209989  0.57643450  1
  C  C107  1  0.15098715  0.49684683  0.57522325  1
  C  C108  1  0.28069842  0.79673886  0.25826256  1
  C  C109  1  0.50933102  0.69590997  0.25396697  1
  C  C110  1  0.17460794  0.47166896  0.25366081  1
  C  C111  1  0.29020274  0.48585014  0.76071074  1
  C  C112  1  0.17067242  0.71189548  0.75243599  1
  C  C113  1  0.51057783  0.81283512  0.76230330  1
