# generated using pymatgen
data_Cu6NiC12
_symmetry_space_group_name_H-M   'P 1'
_cell_length_a   5.10570408
_cell_length_b   7.51923379
_cell_length_c   5.71075161
_cell_angle_alpha   98.07009398
_cell_angle_beta   98.63582523
_cell_angle_gamma   84.55436856
_symmetry_Int_Tables_number   1
_chemical_formula_structural   Cu6NiC12
_chemical_formula_sum   'Cu6 Ni1 C12'
_cell_volume   213.99807817
_cell_formula_units_Z   1
loop_
 _symmetry_equiv_pos_site_id
 _symmetry_equiv_pos_as_xyz
  1  'x, y, z'
loop_
 _atom_site_type_symbol
 _atom_site_label
 _atom_site_symmetry_multiplicity
 _atom_site_fract_x
 _atom_site_fract_y
 _atom_site_fract_z
 _atom_site_occupancy
  Ni  Ni0  1  0.50379001  0.16159686  0.16240912  1
  Cu  Cu1  1  0.43410371  0.96783176  0.54275325  1
  Cu  Cu2  1  0.53232265  0.67198135  0.14258719  1
  Cu  Cu3  1  0.55601674  0.35149427  0.77553370  1
  Cu  Cu4  1  0.98771311  0.66355992  0.67676150  1
  Cu  Cu5  1  0.99483166  0.32959408  0.33864544  1
  Cu  Cu6  1  0.98952022  0.98343264  0.99546897  1
  C  C7  1  0.85353967  0.42734194  0.62826787  1
  C  C8  1  0.84811295  0.75897623  0.96524403  1
  C  C9  1  0.87410144  0.09884229  0.29321354  1
  C  C10  1  0.64592928  0.08999255  0.83419738  1
  C  C11  1  0.65981973  0.74832512  0.47811957  1
  C  C12  1  0.66794523  0.41264015  0.12688918  1
  C  C13  1  0.33359123  0.57140810  0.84171785  1
  C  C14  1  0.35104200  0.23124852  0.48491251  1
  C  C15  1  0.34031729  0.91590040  0.18611721  1
  C  C16  1  0.13136516  0.89375430  0.71069610  1
  C  C17  1  0.13516877  0.56561864  0.36723827  1
  C  C18  1  0.14688014  0.22789387  0.00875135  1
