# generated using pymatgen
data_Cu6NiC12
_symmetry_space_group_name_H-M   'P 1'
_cell_length_a   8.35097642
_cell_length_b   5.71082852
_cell_length_c   5.89933967
_cell_angle_alpha   66.99204691
_cell_angle_beta   63.09039180
_cell_angle_gamma   64.19916399
_symmetry_Int_Tables_number   1
_chemical_formula_structural   Cu6NiC12
_chemical_formula_sum   'Cu6 Ni1 C12'
_cell_volume   219.18695386
_cell_formula_units_Z   1
loop_
 _symmetry_equiv_pos_site_id
 _symmetry_equiv_pos_as_xyz
  1  'x, y, z'
loop_
 _atom_site_type_symbol
 _atom_site_label
 _atom_site_symmetry_multiplicity
 _atom_site_fract_x
 _atom_site_fract_y
 _atom_site_fract_z
 _atom_site_occupancy
  Ni  Ni0  1  0.50359016  0.99632335  0.49600050  1
  Cu  Cu1  1  0.88149085  0.67785568  0.67561338  1
  Cu  Cu2  1  0.68136156  0.36569849  0.33059571  1
  Cu  Cu3  1  0.32515965  0.62761437  0.66153984  1
  Cu  Cu4  1  0.12538269  0.31648351  0.31730129  1
  Cu  Cu5  1  0.50298839  0.99663047  0.99606901  1
  Cu  Cu6  1  0.00365419  0.99717492  0.99640441  1
  C  C7  1  0.67408847  0.02687073  0.63204818  1
  C  C8  1  0.32678076  0.35225670  0.97029696  1
  C  C9  1  0.59623142  0.58208322  0.54849435  1
  C  C10  1  0.94582139  0.23221708  0.21286790  1
  C  C11  1  0.06070194  0.76248211  0.77997074  1
  C  C12  1  0.41019932  0.41112821  0.44374568  1
  C  C13  1  0.33250579  0.96668668  0.36030030  1
  C  C14  1  0.67951494  0.64116420  0.02190795  1
  C  C15  1  0.00326194  0.30053039  0.68807529  1
  C  C16  1  0.00471368  0.69395155  0.30482794  1
  C  C17  1  0.32043278  0.88681454  0.85098320  1
  C  C18  1  0.68693508  0.10650981  0.14152837  1
