# generated using pymatgen
data_CuNiC11
_symmetry_space_group_name_H-M   'P 1'
_cell_length_a   9.34650283
_cell_length_b   9.35283594
_cell_length_c   23.67742417
_cell_angle_alpha   90.44973842
_cell_angle_beta   89.96181700
_cell_angle_gamma   119.99006857
_symmetry_Int_Tables_number   1
_chemical_formula_structural   CuNiC11
_chemical_formula_sum   'Cu9 Ni9 C99'
_cell_volume   1792.60477034
_cell_formula_units_Z   9
loop_
 _symmetry_equiv_pos_site_id
 _symmetry_equiv_pos_as_xyz
  1  'x, y, z'
loop_
 _atom_site_type_symbol
 _atom_site_label
 _atom_site_symmetry_multiplicity
 _atom_site_fract_x
 _atom_site_fract_y
 _atom_site_fract_z
 _atom_site_occupancy
  C  C0  1  0.65215561  0.01181125  0.25784146  1
  C  C1  1  0.00009074  0.61926995  0.24719595  1
  C  C2  1  0.62812951  0.63656978  0.74475928  1
  C  C3  1  0.37020933  0.01447455  0.75885779  1
  C  C4  1  0.66676293  0.94918775  0.58468629  1
  C  C5  1  0.97851824  0.68811331  0.92249903  1
  C  C6  1  0.68608850  0.01090175  0.91138167  1
  C  C7  1  0.95841468  0.30185584  0.40916201  1
  C  C8  1  0.70746284  0.68822254  0.42573208  1
  C  C9  1  0.99507480  0.96788390  0.50151256  1
  C  C10  1  0.00781062  0.97798921  0.99814020  1
  C  C11  1  0.64090948  0.31486043  0.83123809  1
  C  C12  1  0.67121586  0.31750509  0.33502270  1
  C  C13  1  0.29438583  0.63029809  0.16029809  1
  C  C14  1  0.33636286  0.63531040  0.66862832  1
  C  C15  1  0.99891555  0.00321560  0.35154621  1
  C  C16  1  0.00959905  0.01370726  0.84986246  1
  C  C17  1  0.99598307  0.00149824  0.65163044  1
  C  C18  1  0.00277364  0.00401362  0.14335741  1
  C  C19  1  0.66375892  0.33843451  0.68524358  1
  C  C20  1  0.67866211  0.33993305  0.18050185  1
  C  C21  1  0.33262722  0.67489138  0.01821390  1
  C  C22  1  0.33651028  0.67333519  0.51658558  1
  C  C23  1  0.32180386  0.66270506  0.31988609  1
  C  C24  1  0.66162646  0.34539062  0.97995892  1
  C  C25  1  0.67313526  0.34296262  0.48248057  1
  C  C26  1  0.35436253  0.67150420  0.81685374  1
  Ni  Ni27  1  0.00093906  0.30001653  0.25066224  1
  Ni  Ni28  1  0.29746420  0.30232687  0.74937266  1
  Ni  Ni29  1  0.69772456  0.00025742  0.75164162  1
  Ni  Ni30  1  0.66825192  0.63621847  0.58387001  1
  Ni  Ni31  1  0.96649116  0.63238008  0.08313442  1
  Ni  Ni32  1  0.63259721  0.66825511  0.91807381  1
  Ni  Ni33  1  0.33646066  0.96394840  0.91620698  1
  Ni  Ni34  1  0.63218570  0.97029102  0.41631545  1
  Ni  Ni35  1  0.02995259  0.66562861  0.41735089  1
  Cu  Cu36  1  0.29676922  0.99965236  0.24960102  1
  Cu  Cu37  1  0.70331234  0.70458342  0.24968431  1
  Cu  Cu38  1  0.00647911  0.70507155  0.75176206  1
  Cu  Cu39  1  0.95831292  0.33263467  0.58174370  1
  Cu  Cu40  1  0.37507016  0.04391848  0.58186672  1
  Cu  Cu41  1  0.66731073  0.04111832  0.08174074  1
  Cu  Cu42  1  0.37493005  0.33350739  0.08233028  1
  Cu  Cu43  1  0.03602426  0.37634849  0.91742303  1
  Cu  Cu44  1  0.33932260  0.37123741  0.41795157  1
  C  C45  1  0.21883885  0.01828190  0.30112739  1
  C  C46  1  0.80445227  0.77825196  0.30192757  1
  C  C47  1  0.97698379  0.19737263  0.30966859  1
  C  C48  1  0.21952637  0.17790385  0.80231069  1
  C  C49  1  0.97646975  0.77841868  0.80298162  1
  C  C50  1  0.80102741  0.01733963  0.80873049  1
  C  C51  1  0.77612659  0.96155961  0.69490649  1
  C  C52  1  0.19055449  0.21467556  0.69240321  1
  C  C53  1  0.03372371  0.81108412  0.70190582  1
  C  C54  1  0.78971642  0.80862867  0.20066451  1
  C  C55  1  0.01012790  0.19363813  0.19750232  1
  C  C56  1  0.19257483  0.97534579  0.19949453  1
  C  C57  1  0.87694619  0.34953257  0.63204690  1
  C  C58  1  0.47143636  0.11819569  0.63433215  1
  C  C59  1  0.65883383  0.53571216  0.64065419  1
  C  C60  1  0.87896267  0.53477549  0.14217047  1
  C  C61  1  0.64862170  0.11752418  0.13480976  1
  C  C62  1  0.46888597  0.34614948  0.13394832  1
  C  C63  1  0.46238449  0.31651832  0.03167388  1
  C  C64  1  0.84211044  0.51961568  0.02842926  1
  C  C65  1  0.67851112  0.14204256  0.03209612  1
  C  C66  1  0.46749879  0.14748881  0.53253772  1
  C  C67  1  0.67483156  0.52658951  0.52738207  1
  C  C68  1  0.85470105  0.31504486  0.52998106  1
  C  C69  1  0.53885269  0.69271076  0.97058966  1
  C  C70  1  0.13415352  0.45005792  0.96875992  1
  C  C71  1  0.30038499  0.84054253  0.96857401  1
  C  C72  1  0.54841617  0.84668179  0.46981389  1
  C  C73  1  0.31069597  0.44734369  0.46796263  1
  C  C74  1  0.14266672  0.67901885  0.47058991  1
  C  C75  1  0.09848117  0.62245452  0.35926704  1
  C  C76  1  0.53063610  0.88948102  0.35710490  1
  C  C77  1  0.37028880  0.47578582  0.36741585  1
  C  C78  1  0.11672443  0.48022642  0.86716029  1
  C  C79  1  0.36422092  0.87374364  0.85879513  1
  C  C80  1  0.52070751  0.64175500  0.85967084  1
  C  C81  1  0.99530811  0.81960047  0.41234904  1
  C  C82  1  0.82174827  0.99760588  0.41308768  1
  C  C83  1  0.19186431  0.20621255  0.41059303  1
  C  C84  1  0.00555613  0.20613285  0.91167824  1
  C  C85  1  0.17173399  0.98019863  0.91099486  1
  C  C86  1  0.81788457  0.82859592  0.91241506  1
  C  C87  1  0.96341266  0.17580685  0.58331272  1
  C  C88  1  0.20966806  0.02577388  0.58396081  1
  C  C89  1  0.83371468  0.82239872  0.58109160  1
  C  C90  1  0.97731536  0.81307406  0.08282672  1
  C  C91  1  0.82028807  0.03021399  0.08459901  1
  C  C92  1  0.20984775  0.18237658  0.08352251  1
  C  C93  1  0.66068345  0.15276845  0.74536439  1
  C  C94  1  0.49002618  0.33670592  0.74615703  1
  C  C95  1  0.85779282  0.54025098  0.74434097  1
  C  C96  1  0.68320790  0.53690823  0.24450160  1
  C  C97  1  0.82669485  0.31271019  0.24799710  1
  C  C98  1  0.46566836  0.14504080  0.24450538  1
  C  C99  1  0.65539207  0.50142571  0.92328476  1
  C  C100  1  0.86829361  0.36372370  0.92252158  1
  C  C101  1  0.51540953  0.14119284  0.92541720  1
  C  C102  1  0.65523850  0.15697278  0.42680549  1
  C  C103  1  0.48954017  0.35527887  0.42470003  1
  C  C104  1  0.84024817  0.49521286  0.42519911  1
  C  C105  1  0.35952680  0.48227412  0.07815392  1
  C  C106  1  0.14524381  0.64220863  0.08085902  1
  C  C107  1  0.52134172  0.87363449  0.07906477  1
  C  C108  1  0.36444112  0.87976476  0.57694573  1
  C  C109  1  0.50419078  0.65910833  0.58072400  1
  C  C110  1  0.12460976  0.47664772  0.57651547  1
  C  C111  1  0.31375280  0.84818411  0.25360270  1
  C  C112  1  0.54090044  0.69563306  0.25492851  1
  C  C113  1  0.15994395  0.49059514  0.25156143  1
  C  C114  1  0.31541599  0.48761056  0.75828908  1
  C  C115  1  0.15671486  0.69057032  0.75828394  1
  C  C116  1  0.50905561  0.82695651  0.75664951  1
