# generated using pymatgen
data_Cu2Ni3C32
_symmetry_space_group_name_H-M   'P 1'
_cell_length_a   17.40043124
_cell_length_b   8.68625146
_cell_length_c   22.42626963
_cell_angle_alpha   90.22517179
_cell_angle_beta   89.67322899
_cell_angle_gamma   119.90328966
_symmetry_Int_Tables_number   1
_chemical_formula_structural   Cu2Ni3C32
_chemical_formula_sum   'Cu12 Ni18 C192'
_cell_volume   2938.29285720
_cell_formula_units_Z   6
loop_
 _symmetry_equiv_pos_site_id
 _symmetry_equiv_pos_as_xyz
  1  'x, y, z'
loop_
 _atom_site_type_symbol
 _atom_site_label
 _atom_site_symmetry_multiplicity
 _atom_site_fract_x
 _atom_site_fract_y
 _atom_site_fract_z
 _atom_site_occupancy
  Ni  Ni0  1  0.00450886  0.64191142  0.25514927  1
  Ni  Ni1  1  0.50301595  0.36726313  0.74281367  1
  Ni  Ni2  1  0.16196204  0.30858463  0.91101133  1
  Ni  Ni3  1  0.66120954  0.30360255  0.91035752  1
  Ni  Ni4  1  0.16233543  0.02151371  0.41674403  1
  Ni  Ni5  1  0.66087307  0.01086690  0.41658291  1
  Ni  Ni6  1  0.99349265  0.98644798  0.49819378  1
  Ni  Ni7  1  0.49202768  0.99984772  0.50063745  1
  Ni  Ni8  1  0.99333672  0.99886947  0.99530017  1
  Ni  Ni9  1  0.49356616  0.00028678  0.99574460  1
  Ni  Ni10  1  0.33303389  0.33230633  0.82956025  1
  Ni  Ni11  1  0.84062483  0.33552969  0.83329420  1
  Ni  Ni12  1  0.34194728  0.34823989  0.33691786  1
  Ni  Ni13  1  0.83071970  0.32982978  0.33481685  1
  Ni  Ni14  1  0.17532479  0.68132739  0.17087388  1
  Ni  Ni15  1  0.66491354  0.67883832  0.17126566  1
  Ni  Ni16  1  0.16862883  0.65488984  0.66943125  1
  Ni  Ni17  1  0.66596754  0.65514640  0.66541469  1
  Cu  Cu18  1  0.00208724  0.01142861  0.64763601  1
  Cu  Cu19  1  0.50599309  0.02052817  0.64585163  1
  Cu  Cu20  1  0.00693379  0.99863447  0.14894271  1
  Cu  Cu21  1  0.50195693  0.99145558  0.14850362  1
  Cu  Cu22  1  0.82957503  0.33557348  0.69136824  1
  Cu  Cu23  1  0.33043329  0.32593240  0.19256764  1
  Cu  Cu24  1  0.16050417  0.65269768  0.01530018  1
  Cu  Cu25  1  0.66334778  0.65337712  0.01568524  1
  Cu  Cu26  1  0.16487278  0.67382768  0.51632623  1
  Cu  Cu27  1  0.65049418  0.65205586  0.52080520  1
  Cu  Cu28  1  0.65871651  0.67043708  0.31591207  1
  Cu  Cu29  1  0.15905094  0.64651926  0.81377816  1
  C  C30  1  0.00194687  0.99391676  0.35312494  1
  C  C31  1  0.50619060  0.99577644  0.34993869  1
  C  C32  1  0.00675216  0.02083283  0.84689488  1
  C  C33  1  0.50168379  0.01315904  0.84876057  1
  C  C34  1  0.32883785  0.33423941  0.68259340  1
  C  C35  1  0.82612117  0.32051687  0.18746425  1
  C  C36  1  0.34072326  0.33348671  0.97853574  1
  C  C37  1  0.83643670  0.33025369  0.98084954  1
  C  C38  1  0.34660798  0.35003795  0.48468999  1
  C  C39  1  0.84038303  0.34601537  0.47959821  1
  C  C40  1  0.16295342  0.67167482  0.31822911  1
  C  C41  1  0.65949290  0.65433522  0.81525235  1
  C  C42  1  0.14633573  0.99475729  0.25573847  1
  C  C43  1  0.65039313  0.00865425  0.25066845  1
  C  C44  1  0.15290555  0.29127383  0.74967484  1
  C  C45  1  0.64710880  0.29933110  0.75577792  1
  C  C46  1  0.47117394  0.32994251  0.58694102  1
  C  C47  1  0.00972658  0.35615935  0.91658346  1
  C  C48  1  0.51504944  0.36558961  0.91362714  1
  C  C49  1  0.01508225  0.66295704  0.41420208  1
  C  C50  1  0.50950981  0.66530236  0.41653319  1
  C  C51  1  0.35167467  0.71457787  0.25448466  1
  C  C52  1  0.85492781  0.70675012  0.24901680  1
  C  C53  1  0.00076876  0.29022030  0.25155844  1
  C  C54  1  0.50117445  0.28293042  0.25236360  1
  C  C55  1  0.00072444  0.72014941  0.75260146  1
  C  C56  1  0.50200231  0.71750702  0.75389113  1
  C  C57  1  0.35458773  -0.00078316  0.75159520  1
  C  C58  1  0.85153923  0.98908923  0.75467802  1
  C  C59  1  0.97522634  0.33274115  0.58093501  1
  C  C60  1  0.19314218  0.05386206  0.58089454  1
  C  C61  1  0.69489292  0.05233333  0.57933844  1
  C  C62  1  0.33138173  0.61348787  0.58332993  1
  C  C63  1  0.83435488  0.62132468  0.58023595  1
  C  C64  1  0.47482732  0.61739373  0.08087903  1
  C  C65  1  0.97040191  0.60901759  0.08456979  1
  C  C66  1  0.33278001  0.04603172  0.08040072  1
  C  C67  1  0.83313347  0.05295124  0.08380683  1
  C  C68  1  0.19242508  0.33498508  0.08014434  1
  C  C69  1  0.69584250  0.33520433  0.08191834  1
  C  C70  1  0.31919534  0.66898947  0.91766459  1
  C  C71  1  0.81567202  0.66969527  0.91534648  1
  C  C72  1  0.16709500  0.96655655  0.91777679  1
  C  C73  1  0.66573904  0.95624883  0.91541823  1
  C  C74  1  0.31543641  0.96003412  0.41348419  1
  C  C75  1  0.81963192  0.96716226  0.41747052  1
  C  C76  1  0.16400503  0.37511598  0.41332354  1
  C  C77  1  0.66700035  0.36719350  0.41662629  1
  C  C78  1  0.09553957  0.02426631  0.31145629  1
  C  C79  1  0.60347704  0.03383346  0.31011861  1
  C  C80  1  0.41011347  0.80772800  0.30521215  1
  C  C81  1  0.91189077  0.79183168  0.30199806  1
  C  C82  1  0.48858989  0.17120597  0.30496618  1
  C  C83  1  0.98249418  0.17431536  0.30383596  1
  C  C84  1  0.10750140  0.17548487  0.81071102  1
  C  C85  1  0.60044931  0.17402570  0.81365324  1
  C  C86  1  0.48799677  0.80532075  0.80667386  1
  C  C87  1  0.98869335  0.80847628  0.80569358  1
  C  C88  1  0.41147105  0.02316986  0.80468344  1
  C  C89  1  0.91038385  0.01450089  0.80590351  1
  C  C90  1  0.39192481  0.96631474  0.69738572  1
  C  C91  1  0.88590430  0.95433319  0.69873831  1
  C  C92  1  0.08723463  0.19886341  0.69269842  1
  C  C93  1  0.58468437  0.21539428  0.69725673  1
  C  C94  1  0.00643332  0.81428440  0.69698443  1
  C  C95  1  0.51370881  0.81611424  0.69875119  1
  C  C96  1  0.38559321  0.81606387  0.19804883  1
  C  C97  1  0.89323805  0.81729458  0.19501508  1
  C  C98  1  0.01292239  0.21038081  0.19648870  1
  C  C99  1  0.50682853  0.19953284  0.19621905  1
  C  C100  1  0.08422608  0.95200335  0.19539730  1
  C  C101  1  0.58774675  0.97326522  0.19179244  1
  C  C102  1  0.42561377  0.35253852  0.64848982  1
  C  C103  1  0.93665867  0.35337062  0.63661993  1
  C  C104  1  0.24478860  0.14258799  0.63449776  1
  C  C105  1  0.74455284  0.13893690  0.63401961  1
  C  C106  1  0.31819515  0.50670931  0.63779877  1
  C  C107  1  0.82438714  0.52095482  0.63565038  1
  C  C108  1  0.43588357  0.51988365  0.13636840  1
  C  C109  1  0.92926957  0.50768320  0.14029038  1
  C  C110  1  0.32304853  0.12725836  0.13581890  1
  C  C111  1  0.82495493  0.14143958  0.13846649  1
  C  C112  1  0.24245027  0.35107934  0.13466525  1
  C  C113  1  0.74919623  0.35260978  0.13513415  1
  C  C114  1  0.23659786  0.31861715  0.02569369  1
  C  C115  1  0.73773215  0.31631846  0.02591496  1
  C  C116  1  0.42056378  0.52463201  0.02805363  1
  C  C117  1  0.91736184  0.52050257  0.03110147  1
  C  C118  1  0.34099729  0.15568826  0.02753422  1
  C  C119  1  0.84133191  0.15762461  0.02954733  1
  C  C120  1  0.23251787  0.15454219  0.52461982  1
  C  C121  1  0.73908175  0.16043438  0.52509132  1
  C  C122  1  0.33741369  0.52426600  0.52843034  1
  C  C123  1  0.84344039  0.52818068  0.52728406  1
  C  C124  1  0.41412711  0.30680818  0.52785196  1
  C  C125  1  0.92121765  0.31629710  0.52810691  1
  C  C126  1  0.28103474  0.70823009  0.97106668  1
  C  C127  1  0.78068626  0.70961969  0.97042637  1
  C  C128  1  0.07969094  0.44333021  0.97333454  1
  C  C129  1  0.58338295  0.44926487  0.97146242  1
  C  C130  1  0.15467334  0.85743194  0.97144221  1
  C  C131  1  0.65492714  0.85243172  0.96993997  1
  C  C132  1  0.28047775  0.85129194  0.46818248  1
  C  C133  1  0.78335761  0.85452955  0.47026011  1
  C  C134  1  0.15220002  0.45516547  0.46816921  1
  C  C135  1  0.65522190  0.45133394  0.47011404  1
  C  C136  1  0.08450937  0.71517523  0.47043020  1
  C  C137  1  0.58005084  0.71802293  0.47174448  1
  C  C138  1  0.06308463  0.63162553  0.35592580  1
  C  C139  1  0.55549003  0.62775350  0.35872969  1
  C  C140  1  0.25427715  0.86736117  0.36257941  1
  C  C141  1  0.76193783  0.88940379  0.36461089  1
  C  C142  1  0.18021753  0.49185287  0.36102226  1
  C  C143  1  0.68704381  0.47873436  0.36343136  1
  C  C144  1  0.05725110  0.48604157  0.86034698  1
  C  C145  1  0.56515356  0.49750418  0.85763760  1
  C  C146  1  0.18709104  0.89371088  0.86496247  1
  C  C147  1  0.68397034  0.87636042  0.86287570  1
  C  C148  1  0.26087295  0.63072841  0.86565679  1
  C  C149  1  0.75488129  0.63516623  0.86459422  1
  C  C150  1  0.00618199  0.84329350  0.40728557  1
  C  C151  1  0.50422963  0.84742386  0.40665682  1
  C  C152  1  0.40536357  0.99194309  0.40252306  1
  C  C153  1  0.91018581  0.99785765  0.40504253  1
  C  C154  1  0.08127844  0.19851218  0.40658080  1
  C  C155  1  0.58474041  0.19127559  0.40961663  1
  C  C156  1  0.00469639  0.16369575  0.90623811  1
  C  C157  1  0.50500560  0.16687810  0.90651273  1
  C  C158  1  0.08530057  0.97914303  0.91148295  1
  C  C159  1  0.58443024  0.96996686  0.90929121  1
  C  C160  1  0.40899496  0.81971551  0.90747037  1
  C  C161  1  0.90586879  0.81707108  0.90528580  1
  C  C162  1  0.48243584  0.15344465  0.58727958  1
  C  C163  1  0.98122293  0.16762436  0.58236016  1
  C  C164  1  0.10208321  0.02765470  0.58493120  1
  C  C165  1  0.60486337  0.02865570  0.58211930  1
  C  C166  1  0.41321722  0.78640620  0.58755695  1
  C  C167  1  0.91622267  0.79733832  0.58333718  1
  C  C168  1  0.48106643  0.79454434  0.08222739  1
  C  C169  1  0.97800447  0.78720323  0.08665478  1
  C  C170  1  0.41361608  0.03051225  0.08284948  1
  C  C171  1  0.91393594  0.03718270  0.08703992  1
  C  C172  1  0.10245730  0.17463752  0.08305862  1
  C  C173  1  0.60621797  0.17755863  0.08508247  1
  C  C174  1  0.35134214  0.16646464  0.74734477  1
  C  C175  1  0.84734453  0.15485444  0.74912793  1
  C  C176  1  0.24997332  0.30786974  0.73941677  1
  C  C177  1  0.74443138  0.31621690  0.74975270  1
  C  C178  1  0.42452049  0.53452232  0.75029203  1
  C  C179  1  0.92351973  0.53789618  0.75016239  1
  C  C180  1  0.34695090  0.53964248  0.24870659  1
  C  C181  1  0.85424432  0.53359169  0.24069144  1
  C  C182  1  0.42358214  0.31061765  0.24934673  1
  C  C183  1  0.92413465  0.32260734  0.24355157  1
  C  C184  1  0.24286052  0.17179380  0.24870549  1
  C  C185  1  0.74779219  0.18847100  0.24168424  1
  C  C186  1  0.32230855  0.50157648  0.92771244  1
  C  C187  1  0.81713705  0.49888274  0.92476407  1
  C  C188  1  0.41894892  0.34902350  0.92503297  1
  C  C189  1  0.91456503  0.34185514  0.92870491  1
  C  C190  1  0.24271049  0.15274848  0.92745360  1
  C  C191  1  0.74219378  0.14244788  0.92347580  1
  C  C192  1  0.31595871  0.13172479  0.42053826  1
  C  C193  1  0.82399500  0.14307786  0.42641148  1
  C  C194  1  0.23915011  0.34142214  0.41952652  1
  C  C195  1  0.74246781  0.33080435  0.42541309  1
  C  C196  1  0.41294621  0.49090908  0.42656332  1
  C  C197  1  0.91893484  0.48764037  0.42521390  1
  C  C198  1  0.18427253  0.49725053  0.07790412  1
  C  C199  1  0.68968051  0.49941393  0.07955884  1
  C  C200  1  0.06038967  0.63034962  0.08027959  1
  C  C201  1  0.56529541  0.64155438  0.07569324  1
  C  C202  1  0.25300361  0.86749549  0.07590769  1
  C  C203  1  0.75298551  0.87566045  0.08005131  1
  C  C204  1  0.18706490  0.87669359  0.57897317  1
  C  C205  1  0.69124606  0.87929447  0.57634835  1
  C  C206  1  0.25238620  0.63599424  0.57870516  1
  C  C207  1  0.75629966  0.64318719  0.57510092  1
  C  C208  1  0.06558791  0.48914546  0.57561443  1
  C  C209  1  0.57063620  0.50779681  0.58383414  1
  C  C210  1  0.15653939  0.81710589  0.26153578  1
  C  C211  1  0.66333437  0.83545004  0.25448087  1
  C  C212  1  0.26094301  0.68519540  0.26379571  1
  C  C213  1  0.76501912  0.67350531  0.25665175  1
  C  C214  1  0.08240276  0.46672076  0.25825774  1
  C  C215  1  0.58322250  0.45624765  0.25567375  1
  C  C216  1  0.16440625  0.48966284  0.75446953  1
  C  C217  1  0.65672166  0.49737435  0.76147208  1
  C  C218  1  0.08286287  0.71047579  0.75633162  1
  C  C219  1  0.58405775  0.70276592  0.76123267  1
  C  C220  1  0.26481208  0.84891212  0.75975852  1
  C  C221  1  0.76150081  0.83742605  0.76506538  1
