# generated using pymatgen
data_CuNiC11
_symmetry_space_group_name_H-M   'P 1'
_cell_length_a   5.89360607
_cell_length_b   5.89360634
_cell_length_c   9.93846842
_cell_angle_alpha   90.00000000
_cell_angle_beta   90.00000000
_cell_angle_gamma   120.00000405
_symmetry_Int_Tables_number   1
_chemical_formula_structural   CuNiC11
_chemical_formula_sum   'Cu1 Ni1 C11'
_cell_volume   298.95946251
_cell_formula_units_Z   1
loop_
 _symmetry_equiv_pos_site_id
 _symmetry_equiv_pos_as_xyz
  1  'x, y, z'
loop_
 _atom_site_type_symbol
 _atom_site_label
 _atom_site_symmetry_multiplicity
 _atom_site_fract_x
 _atom_site_fract_y
 _atom_site_fract_z
 _atom_site_occupancy
  Ni  Ni0  1  0.00000000  0.00000000  0.37639051  1
  C  C1  1  0.00000000  0.00000000  0.74688215  1
  Cu  Cu2  1  0.00000000  0.00000000  0.01465648  1
  C  C3  1  0.33333300  0.66666700  0.20284045  1
  C  C4  1  0.66666700  0.33333300  0.81365126  1
  C  C5  1  0.30414476  0.15207238  0.87290105  1
  C  C6  1  0.84792762  0.15207238  0.87290105  1
  C  C7  1  0.84792762  0.69585524  0.87290105  1
  C  C8  1  0.16403051  0.83596949  0.14929471  1
  C  C9  1  0.33333300  0.66666700  0.37957030  1
  C  C10  1  0.66666700  0.33333300  0.63156454  1
  C  C11  1  0.16403051  0.32806101  0.14929471  1
  C  C12  1  0.67193899  0.83596949  0.14929471  1
