# generated using pymatgen
data_CuNiC
_symmetry_space_group_name_H-M   'P 1'
_cell_length_a   6.07002800
_cell_length_b   6.19557900
_cell_length_c   7.60926635
_cell_angle_alpha   109.67340453
_cell_angle_beta   90.00000000
_cell_angle_gamma   90.00000000
_symmetry_Int_Tables_number   1
_chemical_formula_structural   CuNiC
_chemical_formula_sum   'Cu4 Ni4 C4'
_cell_volume   269.45996147
_cell_formula_units_Z   4
loop_
 _symmetry_equiv_pos_site_id
 _symmetry_equiv_pos_as_xyz
  1  'x, y, z'
loop_
 _atom_site_type_symbol
 _atom_site_label
 _atom_site_symmetry_multiplicity
 _atom_site_fract_x
 _atom_site_fract_y
 _atom_site_fract_z
 _atom_site_occupancy
  C  C0  1  0.36531000  0.81967300  0.61788700  1
  C  C1  1  0.86531000  0.68032700  0.88211300  1
  C  C2  1  0.63469000  0.18032700  0.38211300  1
  C  C3  1  0.13469000  0.31967300  0.11788700  1
  Ni  Ni4  1  0.36574600  0.82014900  0.04942600  1
  Ni  Ni5  1  0.86574600  0.67985100  0.45057400  1
  Ni  Ni6  1  0.63425400  0.17985100  0.95057400  1
  Ni  Ni7  1  0.13425400  0.32014900  0.54942600  1
  Cu  Cu8  1  0.10161800  0.92241600  0.31269900  1
  Cu  Cu9  1  0.60161800  0.57758400  0.18730100  1
  Cu  Cu10  1  0.89838200  0.07758400  0.68730100  1
  Cu  Cu11  1  0.39838200  0.42241600  0.81269900  1
