# generated using pymatgen
data_CuNiC12
_symmetry_space_group_name_H-M   'P 1'
_cell_length_a   7.40231625
_cell_length_b   7.40919370
_cell_length_c   7.40919493
_cell_angle_alpha   55.24020881
_cell_angle_beta   55.22391190
_cell_angle_gamma   55.22390747
_symmetry_Int_Tables_number   1
_chemical_formula_structural   CuNiC12
_chemical_formula_sum   'Cu1 Ni1 C12'
_cell_volume   255.47498277
_cell_formula_units_Z   1
loop_
 _symmetry_equiv_pos_site_id
 _symmetry_equiv_pos_as_xyz
  1  'x, y, z'
loop_
 _atom_site_type_symbol
 _atom_site_label
 _atom_site_symmetry_multiplicity
 _atom_site_fract_x
 _atom_site_fract_y
 _atom_site_fract_z
 _atom_site_occupancy
  Ni  Ni0  1  0.85371500  0.85679800  0.85679800  1
  C  C1  1  0.48924800  0.01652600  0.48987600  1
  C  C2  1  0.01641500  0.48968800  0.48968900  1
  C  C3  1  0.48924700  0.48987500  0.01652700  1
  C  C4  1  0.01347200  0.01306000  0.01306000  1
  Cu  Cu5  1  0.50207700  0.50238900  0.50238700  1
  C  C6  1  0.75223600  0.27569700  0.75333800  1
  C  C7  1  0.25157400  0.25167400  0.71630500  1
  C  C8  1  0.25157400  0.71630600  0.25167300  1
  C  C9  1  0.71660600  0.25117000  0.25117000  1
  C  C10  1  0.26143700  0.26204500  0.26204400  1
  C  C11  1  0.72830800  0.72851100  0.72851100  1
  C  C12  1  0.27370500  0.75403800  0.75403700  1
  C  C13  1  0.75223700  0.75333900  0.27569700  1
