# generated using pymatgen
data_CuNi3C35
_symmetry_space_group_name_H-M   'P 1'
_cell_length_a   9.06434900
_cell_length_b   9.05340232
_cell_length_c   22.76504906
_cell_angle_alpha   90.67620182
_cell_angle_beta   90.11241316
_cell_angle_gamma   120.15953796
_symmetry_Int_Tables_number   1
_chemical_formula_structural   CuNi3C35
_chemical_formula_sum   'Cu3 Ni9 C105'
_cell_volume   1615.09807799
_cell_formula_units_Z   3
loop_
 _symmetry_equiv_pos_site_id
 _symmetry_equiv_pos_as_xyz
  1  'x, y, z'
loop_
 _atom_site_type_symbol
 _atom_site_label
 _atom_site_symmetry_multiplicity
 _atom_site_fract_x
 _atom_site_fract_y
 _atom_site_fract_z
 _atom_site_occupancy
  C  C0  1  0.64499354  0.00693755  0.25577467  1
  C  C1  1  0.00269659  0.62424130  0.24868505  1
  C  C2  1  0.62888696  0.63661189  0.74661729  1
  C  C3  1  0.37203199  0.01235990  0.75571222  1
  C  C4  1  0.66800260  0.95277130  0.58547996  1
  C  C5  1  0.96886053  0.68071354  0.92217493  1
  C  C6  1  0.69256624  0.01467574  0.91179787  1
  C  C7  1  0.96372967  0.30412053  0.41022636  1
  C  C8  1  0.70902899  0.68176313  0.42340598  1
  C  C9  1  0.00102787  0.97580462  0.50210310  1
  C  C10  1  0.00623935  0.98478858  0.99909191  1
  C  C11  1  0.64779751  0.32299407  0.83195669  1
  C  C12  1  0.66490116  0.32220422  0.33409432  1
  C  C13  1  0.30771250  0.63821139  0.16106697  1
  C  C14  1  0.33198464  0.64086081  0.66658607  1
  C  C15  1  0.99311874  0.00146937  0.35344907  1
  C  C16  1  0.00678312  0.01021849  0.85141635  1
  C  C17  1  0.99208561  0.99914961  0.65149136  1
  C  C18  1  0.00340304  0.00341662  0.14485562  1
  C  C19  1  0.65831887  0.33746587  0.68740945  1
  C  C20  1  0.68355882  0.34190590  0.18262075  1
  C  C21  1  0.33298417  0.67798030  0.01849784  1
  C  C22  1  0.33959264  0.67469033  0.51723680  1
  C  C23  1  0.32044454  0.66337714  0.31816124  1
  Ni  Ni24  1  0.00423390  0.29561484  0.25012905  1
  Ni  Ni25  1  0.28727602  0.29435183  0.75020687  1
  Ni  Ni26  1  0.70581700  0.00547343  0.75099984  1
  Ni  Ni27  1  0.66655159  0.63143076  0.58409109  1
  Ni  Ni28  1  0.96736378  0.63166684  0.08376430  1
  Ni  Ni29  1  0.62893244  0.66637120  0.91838911  1
  Ni  Ni30  1  0.33263549  0.96170634  0.91736890  1
  Ni  Ni31  1  0.62463049  0.96378715  0.41695390  1
  Ni  Ni32  1  0.03940424  0.67022327  0.41765261  1
  Cu  Cu33  1  0.65762070  0.34129995  0.98201751  1
  Cu  Cu34  1  0.67422471  0.34022877  0.48296544  1
  Cu  Cu35  1  0.35138225  0.67078223  0.81637958  1
  C  C36  1  0.29264584  0.00242773  0.24973740  1
  C  C37  1  0.70478936  0.70580828  0.24944208  1
  C  C38  1  0.00329820  0.70655761  0.75098056  1
  C  C39  1  0.96160587  0.33376081  0.58391974  1
  C  C40  1  0.37352419  0.04314929  0.58260708  1
  C  C41  1  0.66821559  0.04187490  0.08308012  1
  C  C42  1  0.37298623  0.33290552  0.08463177  1
  C  C43  1  0.04404408  0.37787320  0.91747148  1
  C  C44  1  0.33513602  0.37386706  0.41684808  1
  C  C45  1  0.21215676  0.02291719  0.30310290  1
  C  C46  1  0.81120710  0.78108960  0.30387381  1
  C  C47  1  0.97205516  0.18182008  0.30977233  1
  C  C48  1  0.20709031  0.16920953  0.80583078  1
  C  C49  1  0.97361152  0.78193987  0.80471152  1
  C  C50  1  0.81226425  0.02155030  0.81049508  1
  C  C51  1  0.78582320  0.96239220  0.69277528  1
  C  C52  1  0.17611560  0.20110319  0.69140383  1
  C  C53  1  0.03202153  0.81533150  0.69928866  1
  C  C54  1  0.79112499  0.81401286  0.19866747  1
  C  C55  1  0.01654817  0.18924254  0.19454907  1
  C  C56  1  0.18432758  0.97152257  0.19738904  1
  C  C57  1  0.87174909  0.35380147  0.63393663  1
  C  C58  1  0.48159963  0.12377949  0.63551084  1
  C  C59  1  0.65011951  0.51678947  0.64060889  1
  C  C60  1  0.87164709  0.51722749  0.14228884  1
  C  C61  1  0.64606174  0.12555481  0.13635115  1
  C  C62  1  0.48103243  0.35161011  0.13611367  1
  C  C63  1  0.44375844  0.29739917  0.02953514  1
  C  C64  1  0.84690708  0.53852019  0.02372370  1
  C  C65  1  0.68912596  0.14552138  0.02960459  1
  C  C66  1  0.45700328  0.14808350  0.52928865  1
  C  C67  1  0.68851877  0.54225474  0.52193426  1
  C  C68  1  0.85425999  0.29817548  0.52756812  1
  C  C69  1  0.52933802  0.69229889  0.97229693  1
  C  C70  1  0.14628915  0.45847624  0.97003002  1
  C  C71  1  0.29738622  0.83376584  0.97103987  1
  C  C72  1  0.54351185  0.84297896  0.47387227  1
  C  C73  1  0.30812667  0.45196513  0.46982303  1
  C  C74  1  0.15462298  0.68364356  0.47361485  1
  C  C75  1  0.11406756  0.62613809  0.35806794  1
  C  C76  1  0.51643534  0.87786577  0.35642036  1
  C  C77  1  0.36513565  0.48239585  0.36483070  1
  C  C78  1  0.11733004  0.48502557  0.86426804  1
  C  C79  1  0.37081831  0.88264877  0.85590749  1
  C  C80  1  0.52057113  0.62693513  0.85587702  1
  C  C81  1  0.00869689  0.83183192  0.41077216  1
  C  C82  1  0.81946661  0.99173717  0.41185011  1
  C  C83  1  0.18236699  0.20321735  0.40967278  1
  C  C84  1  0.02035751  0.20504907  0.91144333  1
  C  C85  1  0.16477411  0.97916738  0.91129386  1
  C  C86  1  0.81811054  0.83819503  0.91357036  1
  C  C87  1  0.97380110  0.17687421  0.58761200  1
  C  C88  1  0.20355292  0.02306784  0.58718902  1
  C  C89  1  0.83653288  0.82386384  0.58525039  1
  C  C90  1  0.98073562  0.81855060  0.08884053  1
  C  C91  1  0.82245024  0.02687653  0.08756593  1
  C  C92  1  0.20115208  0.17959844  0.08903220  1
  C  C93  1  0.67529720  0.16719800  0.74335146  1
  C  C94  1  0.48480880  0.32687867  0.74508813  1
  C  C95  1  0.85014189  0.53580889  0.74349101  1
  C  C96  1  0.68533081  0.53302089  0.24354651  1
  C  C97  1  0.82632794  0.31061467  0.24580926  1
  C  C98  1  0.46627429  0.15330372  0.24402468  1
  C  C99  1  0.66019347  0.49981663  0.92047901  1
  C  C100  1  0.86752937  0.35636461  0.92215383  1
  C  C101  1  0.51958288  0.14389271  0.92563909  1
  C  C102  1  0.64771148  0.15735436  0.42483947  1
  C  C103  1  0.49068399  0.35767681  0.42186525  1
  C  C104  1  0.84331373  0.49445971  0.42105975  1
  C  C105  1  0.36195528  0.48820388  0.07940419  1
  C  C106  1  0.15099806  0.64165283  0.07967507  1
  C  C107  1  0.51455629  0.87097411  0.07927445  1
  C  C108  1  0.36306822  0.87408906  0.57714614  1
  C  C109  1  0.49672242  0.65313919  0.57973171  1
  C  C110  1  0.12985326  0.48664775  0.57763029  1
  C  C111  1  0.31211784  0.84654932  0.25403939  1
  C  C112  1  0.53705287  0.69418187  0.25536387  1
  C  C113  1  0.16821157  0.49148687  0.25323846  1
  C  C114  1  0.30599876  0.48631310  0.75556945  1
  C  C115  1  0.15874166  0.69181884  0.75685756  1
  C  C116  1  0.50939961  0.82974536  0.75270912  1
