# generated using pymatgen
data_Cu4NiC14
_symmetry_space_group_name_H-M   'P 1'
_cell_length_a   5.60042271
_cell_length_b   5.77813985
_cell_length_c   9.27860404
_cell_angle_alpha   108.14176608
_cell_angle_beta   90.74038273
_cell_angle_gamma   90.00000037
_symmetry_Int_Tables_number   1
_chemical_formula_structural   Cu4NiC14
_chemical_formula_sum   'Cu4 Ni1 C14'
_cell_volume   285.30346821
_cell_formula_units_Z   1
loop_
 _symmetry_equiv_pos_site_id
 _symmetry_equiv_pos_as_xyz
  1  'x, y, z'
loop_
 _atom_site_type_symbol
 _atom_site_label
 _atom_site_symmetry_multiplicity
 _atom_site_fract_x
 _atom_site_fract_y
 _atom_site_fract_z
 _atom_site_occupancy
  Ni  Ni0  1  0.50000000  0.07409800  0.00000000  1
  Cu  Cu1  1  0.04075300  0.23961700  0.65014700  1
  Cu  Cu2  1  0.95924700  0.58947000  0.34985300  1
  Cu  Cu3  1  0.52829400  0.08881900  0.36344200  1
  Cu  Cu4  1  0.47170500  0.72537700  0.63655800  1
  C  C5  1  0.50000100  0.56574800  0.00000000  1
  C  C6  1  0.00000000  0.06224500  0.00000000  1
  C  C7  1  0.62135000  0.67600300  0.20555900  1
  C  C8  1  0.37865000  0.47044400  0.79444100  1
  C  C9  1  0.86425700  0.17821900  0.19920900  1
  C  C10  1  0.13574300  0.97901000  0.80079200  1
  C  C11  1  0.73102200  0.80251100  0.93886700  1
  C  C12  1  0.26897800  0.86364200  0.06113200  1
  C  C13  1  0.22842400  0.44327400  0.49755600  1
  C  C14  1  0.77157600  0.94571800  0.50244500  1
  C  C15  1  0.26981800  0.95182300  0.50446500  1
  C  C16  1  0.73718300  0.27506300  0.93778900  1
  C  C17  1  0.26281700  0.33727500  0.06221200  1
  C  C18  1  0.73018100  0.44735900  0.49553500  1
