# generated using pymatgen
data_Cu3NiC4
_symmetry_space_group_name_H-M   'P 1'
_cell_length_a   4.80561733
_cell_length_b   5.95697915
_cell_length_c   12.21316315
_cell_angle_alpha   83.38771239
_cell_angle_beta   90.00000000
_cell_angle_gamma   90.00000000
_symmetry_Int_Tables_number   1
_chemical_formula_structural   Cu3NiC4
_chemical_formula_sum   'Cu12 Ni4 C16'
_cell_volume   347.30008235
_cell_formula_units_Z   4
loop_
 _symmetry_equiv_pos_site_id
 _symmetry_equiv_pos_as_xyz
  1  'x, y, z'
loop_
 _atom_site_type_symbol
 _atom_site_label
 _atom_site_symmetry_multiplicity
 _atom_site_fract_x
 _atom_site_fract_y
 _atom_site_fract_z
 _atom_site_occupancy
  Ni  Ni0  1  0.80830549  0.78754786  0.64804382  1
  Ni  Ni1  1  0.30830549  0.21245214  0.85195618  1
  Ni  Ni2  1  0.19169451  0.21245214  0.35195618  1
  Ni  Ni3  1  0.69169451  0.78754786  0.14804382  1
  Cu  Cu4  1  0.41647558  0.71959490  0.56836761  1
  Cu  Cu5  1  0.91647558  0.28040510  0.93163239  1
  Cu  Cu6  1  0.58352442  0.28040510  0.43163239  1
  Cu  Cu7  1  0.08352442  0.71959490  0.06836761  1
  Cu  Cu8  1  0.99709758  0.12172075  0.67178281  1
  Cu  Cu9  1  0.49709758  0.87827925  0.82821719  1
  Cu  Cu10  1  0.00290242  0.87827925  0.32821719  1
  Cu  Cu11  1  0.50290242  0.12172075  0.17178281  1
  Cu  Cu12  1  0.12041169  0.50499070  0.68025804  1
  Cu  Cu13  1  0.62041169  0.49500930  0.81974196  1
  Cu  Cu14  1  0.87958831  0.49500930  0.31974196  1
  Cu  Cu15  1  0.37958831  0.50499070  0.18025804  1
  C  C16  1  0.61919617  0.72359254  0.55173278  1
  C  C17  1  0.11919617  0.27640746  0.94826722  1
  C  C18  1  0.38080383  0.27640746  0.44826722  1
  C  C19  1  0.88080383  0.72359254  0.05173278  1
  C  C20  1  0.86636548  0.04490526  0.62168334  1
  C  C21  1  0.36636548  0.95509474  0.87831666  1
  C  C22  1  0.13363452  0.95509474  0.37831666  1
  C  C23  1  0.63363452  0.04490526  0.12168334  1
  C  C24  1  0.67903451  0.72464075  0.76113046  1
  C  C25  1  0.17903451  0.27535925  0.73886954  1
  C  C26  1  0.32096549  0.27535925  0.23886954  1
  C  C27  1  0.82096549  0.72464075  0.26113046  1
  C  C28  1  0.09312902  0.66280762  0.63566056  1
  C  C29  1  0.59312902  0.33719238  0.86433944  1
  C  C30  1  0.90687098  0.33719238  0.36433944  1
  C  C31  1  0.40687098  0.66280762  0.13566056  1
