# generated using pymatgen
data_Cu2Ni2C9
_symmetry_space_group_name_H-M   'P 1'
_cell_length_a   5.14817642
_cell_length_b   4.95843381
_cell_length_c   5.92986900
_cell_angle_alpha   90.00000000
_cell_angle_beta   90.00000000
_cell_angle_gamma   87.33535694
_symmetry_Int_Tables_number   1
_chemical_formula_structural   Cu2Ni2C9
_chemical_formula_sum   'Cu2 Ni2 C9'
_cell_volume   151.20745637
_cell_formula_units_Z   1
loop_
 _symmetry_equiv_pos_site_id
 _symmetry_equiv_pos_as_xyz
  1  'x, y, z'
loop_
 _atom_site_type_symbol
 _atom_site_label
 _atom_site_symmetry_multiplicity
 _atom_site_fract_x
 _atom_site_fract_y
 _atom_site_fract_z
 _atom_site_occupancy
  C  C0  1  0.50000000  0.25000000  0.08160700  1
  Ni  Ni1  1  0.50000000  0.25000000  0.63123500  1
  Ni  Ni2  1  0.50000000  0.75000000  0.39027700  1
  Cu  Cu3  1  0.00000000  0.25000000  0.18266300  1
  Cu  Cu4  1  0.00000000  0.75000000  0.82691700  1
  C  C5  1  0.71091800  0.40120500  0.36167700  1
  C  C6  1  0.28908200  0.09879500  0.36167700  1
  C  C7  1  0.25770800  0.59373000  0.62709100  1
  C  C8  1  0.74229200  0.90627000  0.62709100  1
  C  C9  1  0.78779900  0.95255600  0.10655500  1
  C  C10  1  0.21220100  0.54744400  0.10655500  1
  C  C11  1  0.22656800  0.05821800  0.90189900  1
  C  C12  1  0.77343200  0.44178200  0.90189900  1
