# generated using pymatgen
data_Cu2(NiC3)3
_symmetry_space_group_name_H-M   'P 1'
_cell_length_a   6.03199844
_cell_length_b   6.05674747
_cell_length_c   6.04384148
_cell_angle_alpha   59.68758611
_cell_angle_beta   60.06531102
_cell_angle_gamma   60.13545801
_symmetry_Int_Tables_number   1
_chemical_formula_structural   Cu2(NiC3)3
_chemical_formula_sum   'Cu2 Ni3 C9'
_cell_volume   155.99717819
_cell_formula_units_Z   1
loop_
 _symmetry_equiv_pos_site_id
 _symmetry_equiv_pos_as_xyz
  1  'x, y, z'
loop_
 _atom_site_type_symbol
 _atom_site_label
 _atom_site_symmetry_multiplicity
 _atom_site_fract_x
 _atom_site_fract_y
 _atom_site_fract_z
 _atom_site_occupancy
  C  C0  1  0.24955600  0.24958800  0.25130000  1
  Ni  Ni1  1  0.62476000  0.12528300  0.62518400  1
  Ni  Ni2  1  0.12550900  0.62464900  0.62467100  1
  Ni  Ni3  1  0.62515500  0.62464400  0.62468000  1
  Cu  Cu4  1  0.00077600  0.00192600  0.99656400  1
  Cu  Cu5  1  0.62364600  0.62448600  0.12823800  1
  C  C6  1  0.84244300  0.38543100  0.38831400  1
  C  C7  1  0.38380800  0.38543300  0.38832000  1
  C  C8  1  0.38556300  0.84249800  0.38636600  1
  C  C9  1  0.38697300  0.38493500  0.84111800  1
  C  C10  1  0.86112900  0.86512800  0.41261300  1
  C  C11  1  0.86179400  0.41292500  0.86347400  1
  C  C12  1  0.41286000  0.86153300  0.85957700  1
  C  C13  1  0.86602500  0.86153700  0.85958300  1
