# generated using pymatgen
data_Cu5NiC34
_symmetry_space_group_name_H-M   'P 1'
_cell_length_a   9.49134063
_cell_length_b   9.44197988
_cell_length_c   22.79609766
_cell_angle_alpha   89.95958653
_cell_angle_beta   90.10098646
_cell_angle_gamma   119.86123247
_symmetry_Int_Tables_number   1
_chemical_formula_structural   Cu5NiC34
_chemical_formula_sum   'Cu15 Ni3 C102'
_cell_volume   1771.68566436
_cell_formula_units_Z   3
loop_
 _symmetry_equiv_pos_site_id
 _symmetry_equiv_pos_as_xyz
  1  'x, y, z'
loop_
 _atom_site_type_symbol
 _atom_site_label
 _atom_site_symmetry_multiplicity
 _atom_site_fract_x
 _atom_site_fract_y
 _atom_site_fract_z
 _atom_site_occupancy
  C  C0  1  0.62897974  -0.00267563  0.24865603  1
  C  C1  1  0.35000031  0.32210182  0.25455722  1
  C  C2  1  0.02160783  0.67123857  0.23997542  1
  C  C3  1  0.64638680  0.66402484  0.73303059  1
  C  C4  1  0.96951163  0.32685747  0.76211020  1
  C  C5  1  0.37101880  -0.00229527  0.75297784  1
  C  C6  1  0.33709555  0.35924178  0.58681664  1
  C  C7  1  -0.00132127  0.68989185  0.57380352  1
  C  C8  1  0.67739856  0.96638690  0.59667350  1
  C  C9  1  0.30784295  0.97496614  0.09602010  1
  C  C10  1  0.69555469  0.02563796  0.90157425  1
  C  C11  1  0.69270124  0.65985598  0.43385839  1
  C  C12  1  0.99213751  0.99833764  0.50031940  1
  C  C13  1  0.99978405  0.00003519  0.00114580  1
  C  C14  1  0.66575844  0.32911551  0.83271694  1
  C  C15  1  0.62946984  0.28152060  0.33439098  1
  C  C16  1  0.33079076  0.67218801  0.16725779  1
  C  C17  1  0.37875210  0.69117482  0.66733566  1
  C  C18  1  0.01712450  0.00662910  0.34842846  1
  C  C19  1  0.99807776  -0.00187048  0.85078838  1
  C  C20  1  0.98944283  0.99509786  0.65371738  1
  C  C21  1  0.00183776  0.99856195  0.15018970  1
  C  C22  1  0.66778750  0.33662268  0.68061190  1
  C  C23  1  0.67025078  0.34029388  0.17846545  1
  C  C24  1  0.67258834  0.34299808  0.98504307  1
  C  C25  1  0.66633895  0.32914219  0.48355804  1
  C  C26  1  0.32657323  0.65604767  0.01569731  1
  C  C27  1  0.33411788  0.67239343  0.51289815  1
  C  C28  1  0.32780809  0.67173641  0.32024474  1
  C  C29  1  0.33380887  0.65992325  0.82130887  1
  Ni  Ni30  1  0.31280409  0.00047423  0.24208713  1
  Ni  Ni31  1  0.68500899  0.00003838  0.75180288  1
  Ni  Ni32  1  0.66768199  0.64822855  0.58186797  1
  Cu  Cu33  1  0.69402297  0.69386731  0.25509782  1
  Cu  Cu34  1  0.99975076  0.30512016  0.24974314  1
  Cu  Cu35  1  0.30698179  0.30702786  0.74622852  1
  Cu  Cu36  1  0.00260351  0.69161221  0.74861136  1
  Cu  Cu37  1  0.97794587  0.33692762  0.58644923  1
  Cu  Cu38  1  0.35416486  0.02450735  0.58593077  1
  Cu  Cu39  1  0.98485008  0.65192680  0.08598211  1
  Cu  Cu40  1  0.66252281  0.02091464  0.08172716  1
  Cu  Cu41  1  0.35522747  0.32992684  0.08604959  1
  Cu  Cu42  1  0.64328674  0.66963185  0.91469979  1
  Cu  Cu43  1  0.01469102  0.34877099  0.91341858  1
  Cu  Cu44  1  0.33888340  0.97846540  0.91780676  1
  Cu  Cu45  1  0.65227893  0.97703482  0.41513668  1
  Cu  Cu46  1  0.33680613  0.35704538  0.41705434  1
  Cu  Cu47  1  0.01134937  0.66434854  0.41725760  1
  C  C48  1  0.20594617  0.03049423  0.29165680  1
  C  C49  1  0.77765603  0.76986644  0.31093208  1
  C  C50  1  0.96860638  0.20248364  0.30249045  1
  C  C51  1  0.21126215  0.19552239  0.79447305  1
  C  C52  1  0.99861415  0.79323007  0.79695774  1
  C  C53  1  0.80064157  0.02079533  0.80869069  1
  C  C54  1  0.77239564  0.98306585  0.69178582  1
  C  C55  1  0.23189924  0.23273952  0.68876328  1
  C  C56  1  0.02328562  0.77840069  0.69185678  1
  C  C57  1  0.77721506  0.80677171  0.20561233  1
  C  C58  1  0.01012155  0.21956502  0.19726270  1
  C  C59  1  0.21360371  0.97666752  0.18077471  1
  C  C60  1  0.90386706  0.34269648  0.64328435  1
  C  C61  1  0.44350700  0.09094132  0.64222131  1
  C  C62  1  0.65186955  0.54544621  0.64227982  1
  C  C63  1  0.91101965  0.58393031  0.14428647  1
  C  C64  1  0.66322456  0.11277316  0.13547821  1
  C  C65  1  0.43108759  0.33559294  0.14426521  1
  C  C66  1  0.46326674  0.32964356  0.03910138  1
  C  C67  1  0.88699618  0.54029280  0.03867863  1
  C  C68  1  0.66913148  0.11515275  0.02845526  1
  C  C69  1  0.45346618  0.12569449  0.53661146  1
  C  C70  1  0.67760569  0.54629236  0.52500874  1
  C  C71  1  0.86195286  0.30679293  0.53836569  1
  C  C72  1  0.53653537  0.66937404  0.96199982  1
  C  C73  1  0.11259080  0.45799029  0.96090306  1
  C  C74  1  0.33153302  0.88336637  0.97056006  1
  C  C75  1  0.55366467  0.88454016  0.46696506  1
  C  C76  1  0.34346765  0.45148515  0.47055372  1
  C  C77  1  0.09615996  0.66017822  0.47161663  1
  C  C78  1  0.10733089  0.67516331  0.36434707  1
  C  C79  1  0.56473186  0.89349025  0.36008367  1
  C  C80  1  0.33020578  0.44489991  0.36372652  1
  C  C81  1  0.08932043  0.41766741  0.85535172  1
  C  C82  1  0.33882735  0.88836523  0.86359295  1
  C  C83  1  0.56741007  0.66382552  0.85678020  1
  C  C84  1  -0.01239220  0.80959469  0.42091898  1
  C  C85  1  0.80941769  0.97730411  0.41890499  1
  C  C86  1  0.19442936  0.19111437  0.42074788  1
  C  C87  1  -0.00228397  0.18346925  0.92163463  1
  C  C88  1  0.20007053  0.00872795  0.91751212  1
  C  C89  1  0.80264279  0.82546825  0.91992409  1
  C  C90  1  0.01892401  0.20328799  0.58617065  1
  C  C91  1  0.19653005  0.02346053  0.58552287  1
  C  C92  1  0.83521248  0.83026405  0.58029424  1
  C  C93  1  0.99873515  0.81499626  0.07708885  1
  C  C94  1  0.80070437  -0.00935038  0.08201144  1
  C  C95  1  0.19580976  0.17585867  0.08022342  1
  C  C96  1  0.66413169  0.16466098  0.75168940  1
  C  C97  1  0.47614224  0.33583800  0.74976240  1
  C  C98  1  0.84812289  0.53115017  0.74965781  1
  C  C99  1  0.69451632  0.53662216  0.24774903  1
  C  C100  1  0.86516670  0.34374654  0.24432659  1
  C  C101  1  0.50028297  0.16129851  0.24472508  1
  C  C102  1  0.67076144  0.52816149  0.91872752  1
  C  C103  1  0.84498873  0.32428503  0.91310691  1
  C  C104  1  0.49663794  0.13755351  0.91717579  1
  C  C105  1  0.68035812  0.14588354  0.41483402  1
  C  C106  1  0.49079631  0.34920589  0.41319553  1
  C  C107  1  0.84746876  0.51571645  0.41284242  1
  C  C108  1  0.33024818  0.47272867  0.08194668  1
  C  C109  1  0.15438811  0.67658288  0.08609191  1
  C  C110  1  0.50415758  0.86235091  0.08267261  1
  C  C111  1  0.31858252  0.85204792  0.58071523  1
  C  C112  1  0.50412376  0.67089014  0.58091177  1
  C  C113  1  0.13207522  0.49546587  0.57912836  1
  C  C114  1  0.32673882  0.83223610  0.24987356  1
  C  C115  1  0.52071683  0.65600041  0.25593007  1
  C  C116  1  0.15628620  0.46408304  0.25465063  1
  C  C117  1  0.31076295  0.46653623  0.75068970  1
  C  C118  1  0.14076904  0.66008340  0.75523794  1
  C  C119  1  0.50250423  0.83309571  0.75317430  1
