# generated using pymatgen
data_Cu4NiC8
_symmetry_space_group_name_H-M   'P 1'
_cell_length_a   2.81794505
_cell_length_b   7.49924135
_cell_length_c   7.92128774
_cell_angle_alpha   92.02958725
_cell_angle_beta   79.75018848
_cell_angle_gamma   79.16988265
_symmetry_Int_Tables_number   1
_chemical_formula_structural   Cu4NiC8
_chemical_formula_sum   'Cu4 Ni1 C8'
_cell_volume   161.37978670
_cell_formula_units_Z   1
loop_
 _symmetry_equiv_pos_site_id
 _symmetry_equiv_pos_as_xyz
  1  'x, y, z'
loop_
 _atom_site_type_symbol
 _atom_site_label
 _atom_site_symmetry_multiplicity
 _atom_site_fract_x
 _atom_site_fract_y
 _atom_site_fract_z
 _atom_site_occupancy
  Ni  Ni0  1  0.45300900  0.54966100  0.54887700  1
  Cu  Cu1  1  0.64990500  0.19607800  0.50863900  1
  Cu  Cu2  1  0.15757400  0.47860700  0.21116300  1
  Cu  Cu3  1  0.82363700  0.46543900  0.89245700  1
  Cu  Cu4  1  0.35283600  0.86119000  0.43806100  1
  C  C5  1  0.84373200  0.75158500  0.56569000  1
  C  C6  1  0.43591100  0.38994400  0.74340000  1
  C  C7  1  0.53880900  0.62400700  0.30327000  1
  C  C8  1  0.10552500  0.35811800  0.43546300  1
  C  C9  1  0.17619200  0.05868500  0.59356900  1
  C  C10  1  0.77468100  0.33692200  0.11870500  1
  C  C11  1  0.85302100  0.97006900  0.32866000  1
  C  C12  1  0.20177000  0.59150100  0.01004500  1
