# generated using pymatgen
data_Cu6NiC12
_symmetry_space_group_name_H-M   'P 1'
_cell_length_a   8.37819716
_cell_length_b   6.00195152
_cell_length_c   5.88481121
_cell_angle_alpha   66.99263002
_cell_angle_beta   64.83004791
_cell_angle_gamma   63.74248709
_symmetry_Int_Tables_number   1
_chemical_formula_structural   Cu6NiC12
_chemical_formula_sum   'Cu6 Ni1 C12'
_cell_volume   232.57794297
_cell_formula_units_Z   1
loop_
 _symmetry_equiv_pos_site_id
 _symmetry_equiv_pos_as_xyz
  1  'x, y, z'
loop_
 _atom_site_type_symbol
 _atom_site_label
 _atom_site_symmetry_multiplicity
 _atom_site_fract_x
 _atom_site_fract_y
 _atom_site_fract_z
 _atom_site_occupancy
  Ni  Ni0  1  0.83963165  0.16247264  0.66068797  1
  Cu  Cu1  1  0.84326882  0.65730566  0.66489015  1
  Cu  Cu2  1  0.63654448  0.32249505  0.30101426  1
  Cu  Cu3  1  0.34793310  0.67614037  0.62565622  1
  Cu  Cu4  1  0.20704990  0.34595918  0.37102360  1
  Cu  Cu5  1  0.48385972  0.96598546  0.98891453  1
  Cu  Cu6  1  0.02976794  0.98215295  0.03094227  1
  C  C7  1  0.66600306  0.03276257  0.63420812  1
  C  C8  1  0.37607936  0.43478372  0.42979772  1
  C  C9  1  0.33966516  0.99211079  0.33757042  1
  C  C10  1  0.66799833  0.62653362  0.02519639  1
  C  C11  1  0.00673319  0.28333922  0.70937831  1
  C  C12  1  0.01150579  0.67440177  0.31301163  1
  C  C13  1  0.33629779  0.37705871  0.95532149  1
  C  C14  1  0.32133780  0.89182729  0.88335059  1
  C  C15  1  0.92183037  0.22701305  0.27428611  1
  C  C16  1  0.65814603  0.52685310  0.58978613  1
  C  C17  1  0.01147834  0.79446806  0.73799371  1
  C  C18  1  0.71153616  0.10966878  0.06220940  1
