# generated using pymatgen
data_Cu2NiC37
_symmetry_space_group_name_H-M   'P 1'
_cell_length_a   9.15227687
_cell_length_b   9.15376502
_cell_length_c   22.59834178
_cell_angle_alpha   89.83962681
_cell_angle_beta   89.99691979
_cell_angle_gamma   119.84992509
_symmetry_Int_Tables_number   1
_chemical_formula_structural   Cu2NiC37
_chemical_formula_sum   'Cu6 Ni3 C111'
_cell_volume   1642.05835716
_cell_formula_units_Z   3
loop_
 _symmetry_equiv_pos_site_id
 _symmetry_equiv_pos_as_xyz
  1  'x, y, z'
loop_
 _atom_site_type_symbol
 _atom_site_label
 _atom_site_symmetry_multiplicity
 _atom_site_fract_x
 _atom_site_fract_y
 _atom_site_fract_z
 _atom_site_occupancy
  C  C0  1  0.00178101  0.99361532  0.49568804  1
  C  C1  1  0.99884583  0.99608120  0.99760167  1
  C  C2  1  0.64543969  0.29756239  0.82667684  1
  C  C3  1  0.64831482  0.33128554  0.31954185  1
  C  C4  1  0.32665821  0.66537083  0.16303211  1
  C  C5  1  0.32165520  0.66325831  0.66516845  1
  C  C6  1  0.64402994  0.01784925  0.24189394  1
  C  C7  1  0.98164364  0.61632541  0.23867340  1
  C  C8  1  0.63308871  0.61430249  0.73976578  1
  C  C9  1  0.98573799  0.36758767  0.74275455  1
  C  C10  1  0.66710414  0.97364769  0.58832777  1
  C  C11  1  0.66520338  0.68451978  0.07939353  1
  C  C12  1  0.02365942  0.33954521  0.08677011  1
  C  C13  1  0.96984219  0.66722023  0.91814931  1
  C  C14  1  0.33599919  0.30678460  0.91674165  1
  C  C15  1  0.96373089  0.27963037  0.40681572  1
  C  C16  1  0.32425798  0.03121796  0.40771851  1
  C  C17  1  0.71938717  0.68961947  0.41263053  1
  C  C18  1  0.99510024  0.00139455  0.85363607  1
  C  C19  1  0.00658082  0.99573738  0.64461506  1
  C  C20  1  0.00963897  0.00198619  0.14963051  1
  C  C21  1  0.66781092  0.33072701  0.98056158  1
  C  C22  1  0.66887717  0.33826630  0.48382789  1
  C  C23  1  0.33244814  0.67506843  0.01780744  1
  C  C24  1  0.33840463  0.66483594  0.52172809  1
  C  C25  1  0.33777518  0.66699890  0.31277197  1
  C  C26  1  0.33748615  0.67542809  0.81413380  1
  Ni  Ni27  1  0.99584780  0.99946407  0.34596683  1
  Ni  Ni28  1  0.65401877  0.33158681  0.67802566  1
  Ni  Ni29  1  0.66305856  0.33386024  0.17725070  1
  Cu  Cu30  1  0.66821539  0.63112310  0.58752729  1
  Cu  Cu31  1  0.96290699  0.62751783  0.08739355  1
  Cu  Cu32  1  0.62769822  0.66691856  0.91765925  1
  Cu  Cu33  1  0.04055163  0.37440255  0.91662396  1
  Cu  Cu34  1  0.33513580  0.96558278  0.91500345  1
  Cu  Cu35  1  0.63280279  0.96612587  0.41626688  1
  C  C36  1  0.29652277  0.00171242  0.25631529  1
  C  C37  1  0.70575411  0.70311463  0.25257911  1
  C  C38  1  0.99879320  0.29690309  0.25333851  1
  C  C39  1  0.29549062  0.29466348  0.75083386  1
  C  C40  1  0.00082005  0.70246451  0.75128957  1
  C  C41  1  0.70461499  0.00072968  0.74559989  1
  C  C42  1  0.96205037  0.33472258  0.58759258  1
  C  C43  1  0.37666755  0.04100229  0.58290222  1
  C  C44  1  0.66641897  0.03697310  0.08992081  1
  C  C45  1  0.37269292  0.33552306  0.08434264  1
  C  C46  1  0.33579287  0.37281412  0.41725551  1
  C  C47  1  0.04097511  0.66387802  0.41608561  1
  C  C48  1  0.21600656  0.01236860  0.31418258  1
  C  C49  1  0.80270247  0.78224221  0.31004982  1
  C  C50  1  0.98946932  0.19990703  0.31002002  1
  C  C51  1  0.20483781  0.20188179  0.80893453  1
  C  C52  1  0.99818344  0.79865429  0.80773089  1
  C  C53  1  0.81686472  0.01023011  0.79942137  1
  C  C54  1  0.79474368  0.98518289  0.68919626  1
  C  C55  1  0.18083918  0.19382110  0.69807954  1
  C  C56  1  0.00717191  0.81061689  0.69680450  1
  C  C57  1  0.80107584  0.82117990  0.19858070  1
  C  C58  1  0.01063713  0.20382511  0.19735922  1
  C  C59  1  0.17883768  0.98537313  0.20348814  1
  C  C60  1  0.88306647  0.35326395  0.64448508  1
  C  C61  1  0.49554680  0.11844775  0.63516794  1
  C  C62  1  0.64771892  0.52751287  0.64703377  1
  C  C63  1  0.88204320  0.51296728  0.14582702  1
  C  C64  1  0.64426827  0.10859383  0.14797244  1
  C  C65  1  0.48318003  0.35805158  0.13741792  1
  C  C66  1  0.44733718  0.31350792  0.02578036  1
  C  C67  1  0.84214027  0.53517820  0.02944485  1
  C  C68  1  0.68274300  0.15257895  0.03712633  1
  C  C69  1  0.45826069  0.14179355  0.52462318  1
  C  C70  1  0.68053534  0.53473308  0.52726450  1
  C  C71  1  0.84515964  0.31073023  0.53287122  1
  C  C72  1  0.54144280  0.68967136  0.97736695  1
  C  C73  1  0.15843949  0.46459227  0.97472734  1
  C  C74  1  0.30074446  0.84252116  0.97193114  1
  C  C75  1  0.53264867  0.84718777  0.47370845  1
  C  C76  1  0.31713668  0.46362854  0.47182685  1
  C  C77  1  0.15267542  0.67680569  0.46885757  1
  C  C78  1  0.12190448  0.63844220  0.35888953  1
  C  C79  1  0.50984558  0.86942930  0.35827943  1
  C  C80  1  0.35441214  0.48361702  0.36188510  1
  C  C81  1  0.13195088  0.49351961  0.85852955  1
  C  C82  1  0.35998030  0.87488211  0.85685310  1
  C  C83  1  0.51028070  0.64123279  0.85933861  1
  C  C84  1  0.02295183  0.82152183  0.41444852  1
  C  C85  1  0.81818858  0.98313672  0.41284617  1
  C  C86  1  0.18315819  0.19615433  0.41431292  1
  C  C87  1  0.02577432  0.18969598  0.91188412  1
  C  C88  1  0.16437774  0.98128579  0.91084882  1
  C  C89  1  0.81959352  0.82621543  0.91186234  1
  C  C90  1  0.97684000  0.17160539  0.58723347  1
  C  C91  1  0.20225590  0.02802154  0.58775447  1
  C  C92  1  0.83479774  0.82474922  0.58571045  1
  C  C93  1  0.97557115  0.81475399  0.09144339  1
  C  C94  1  0.83549098  0.02965525  0.08998395  1
  C  C95  1  0.18849345  0.18258948  0.09023295  1
  C  C96  1  0.69008117  0.15938804  0.74577862  1
  C  C97  1  0.47259927  0.31740043  0.74927455  1
  C  C98  1  0.84217933  0.52794686  0.75176841  1
  C  C99  1  0.68270522  0.52688571  0.24562802  1
  C  C100  1  0.84049928  0.31598097  0.25103610  1
  C  C101  1  0.47695701  0.14665883  0.24867964  1
  C  C102  1  0.64299974  0.49606602  0.92241596  1
  C  C103  1  0.85689605  0.35995185  0.92357922  1
  C  C104  1  0.49520815  0.15357119  0.92201323  1
  C  C105  1  0.64674354  0.15255402  0.41999780  1
  C  C106  1  0.50289352  0.36633771  0.41991112  1
  C  C107  1  0.86355181  0.50254165  0.42137201  1
  C  C108  1  0.35248406  0.49539514  0.08117081  1
  C  C109  1  0.15059637  0.64766639  0.08065297  1
  C  C110  1  0.52119532  0.85327965  0.08218013  1
  C  C111  1  0.34784056  0.85929938  0.57583786  1
  C  C112  1  0.50590846  0.66493770  0.58232547  1
  C  C113  1  0.13809591  0.48928365  0.57805256  1
  C  C114  1  0.29897088  0.82886685  0.25336772  1
  C  C115  1  0.53113809  0.69937305  0.25272614  1
  C  C116  1  0.15802987  0.47883535  0.25252427  1
  C  C117  1  0.30481323  0.47123872  0.74963298  1
  C  C118  1  0.15999803  0.68236942  0.74893838  1
  C  C119  1  0.53402549  0.83239914  0.74902330  1
