# generated using pymatgen
data_Cu(NiC3)2
_symmetry_space_group_name_H-M   'P 1'
_cell_length_a   6.97367807
_cell_length_b   8.15154772
_cell_length_c   7.64309389
_cell_angle_alpha   89.99999838
_cell_angle_beta   116.72236714
_cell_angle_gamma   89.99999850
_symmetry_Int_Tables_number   1
_chemical_formula_structural   Cu(NiC3)2
_chemical_formula_sum   'Cu4 Ni8 C24'
_cell_volume   388.07699007
_cell_formula_units_Z   4
loop_
 _symmetry_equiv_pos_site_id
 _symmetry_equiv_pos_as_xyz
  1  'x, y, z'
loop_
 _atom_site_type_symbol
 _atom_site_label
 _atom_site_symmetry_multiplicity
 _atom_site_fract_x
 _atom_site_fract_y
 _atom_site_fract_z
 _atom_site_occupancy
  C  C0  1  0.00000000  0.50000000  0.00000000  1
  C  C1  1  0.00000000  0.00000000  0.50000000  1
  C  C2  1  0.50000000  0.00000000  0.00000000  1
  C  C3  1  0.50000000  0.50000000  0.50000000  1
  Ni  Ni4  1  0.33219900  0.69595100  0.20159700  1
  Ni  Ni5  1  0.83219900  0.19595100  0.20159700  1
  Ni  Ni6  1  0.66780100  0.19595100  0.29840300  1
  Ni  Ni7  1  0.16780100  0.69595100  0.29840300  1
  Ni  Ni8  1  0.66780100  0.30404900  0.79840300  1
  Ni  Ni9  1  0.16780100  0.80404900  0.79840300  1
  Ni  Ni10  1  0.33219900  0.80404900  0.70159700  1
  Ni  Ni11  1  0.83219900  0.30404900  0.70159700  1
  Cu  Cu12  1  0.75000000  0.83411600  0.75000000  1
  Cu  Cu13  1  0.25000000  0.33411600  0.75000000  1
  Cu  Cu14  1  0.25000000  0.16588400  0.25000000  1
  Cu  Cu15  1  0.75000000  0.66588400  0.25000000  1
  C  C16  1  0.25000000  0.87718500  0.75000000  1
  C  C17  1  0.75000000  0.37718500  0.75000000  1
  C  C18  1  0.75000000  0.12281500  0.25000000  1
  C  C19  1  0.25000000  0.62281500  0.25000000  1
  C  C20  1  0.76020300  0.94929500  0.57470700  1
  C  C21  1  0.26020300  0.44929500  0.57470700  1
  C  C22  1  0.73979700  0.94929500  0.92529300  1
  C  C23  1  0.23979700  0.44929500  0.92529300  1
  C  C24  1  0.23979700  0.05070500  0.42529300  1
  C  C25  1  0.73979700  0.55070500  0.42529300  1
  C  C26  1  0.26020300  0.05070500  0.07470700  1
  C  C27  1  0.76020300  0.55070500  0.07470700  1
  C  C28  1  0.47276000  0.21646600  0.84760300  1
  C  C29  1  0.97276000  0.71646600  0.84760300  1
  C  C30  1  0.52724000  0.71646600  0.65239700  1
  C  C31  1  0.02724000  0.21646600  0.65239700  1
  C  C32  1  0.52724000  0.78353400  0.15239700  1
  C  C33  1  0.02724000  0.28353400  0.15239700  1
  C  C34  1  0.47276000  0.28353400  0.34760300  1
  C  C35  1  0.97276000  0.78353400  0.34760300  1
