# generated using pymatgen
data_Cu2NiC15
_symmetry_space_group_name_H-M   'P 1'
_cell_length_a   8.89288114
_cell_length_b   8.88097628
_cell_length_c   23.13999203
_cell_angle_alpha   90.05190997
_cell_angle_beta   90.00000000
_cell_angle_gamma   120.04435296
_symmetry_Int_Tables_number   1
_chemical_formula_structural   Cu2NiC15
_chemical_formula_sum   'Cu12 Ni6 C90'
_cell_volume   1581.98559299
_cell_formula_units_Z   6
loop_
 _symmetry_equiv_pos_site_id
 _symmetry_equiv_pos_as_xyz
  1  'x, y, z'
loop_
 _atom_site_type_symbol
 _atom_site_label
 _atom_site_symmetry_multiplicity
 _atom_site_fract_x
 _atom_site_fract_y
 _atom_site_fract_z
 _atom_site_occupancy
  C  C0  1  0.00317103  0.00494075  0.49832126  1
  C  C1  1  0.00176971  0.00494075  0.99832126  1
  C  C2  1  0.67039343  0.33724692  0.83177876  1
  C  C3  1  0.66685449  0.33724692  0.33177876  1
  C  C4  1  0.33504549  0.66523228  0.16495610  1
  C  C5  1  0.33018580  0.66523228  0.66495610  1
  C  C6  1  0.99966388  0.99807426  0.35397136  1
  C  C7  1  0.99841038  0.99807426  0.85397136  1
  C  C8  1  0.67468775  0.33743765  0.68740503  1
  C  C9  1  0.66275090  0.33743765  0.18740503  1
  C  C10  1  0.33076120  0.65914555  0.02074741  1
  C  C11  1  0.32838335  0.65914555  0.52074741  1
  C  C12  1  0.00173752  0.00006775  0.64585390  1
  C  C13  1  0.99833023  0.00006775  0.14585390  1
  C  C14  1  0.66461696  0.33188511  0.97926477  1
  C  C15  1  0.66726916  0.33188511  0.47926477  1
  C  C16  1  0.33754663  0.66364078  0.31248945  1
  C  C17  1  0.32609314  0.66364078  0.81248945  1
  Ni  Ni18  1  0.70974158  0.71194802  0.25014416  1
  Ni  Ni19  1  0.00220644  0.71194802  0.75014416  1
  Ni  Ni20  1  0.95591342  0.32993574  0.58316618  1
  Ni  Ni21  1  0.37402332  0.32993574  0.08316618  1
  Ni  Ni22  1  0.03961504  0.37573062  0.91695961  1
  Ni  Ni23  1  0.33611458  0.37573062  0.41695961  1
  Cu  Cu24  1  0.28577475  0.99479767  0.24973012  1
  Cu  Cu25  1  0.00256429  0.28985657  0.24986069  1
  Cu  Cu26  1  0.28729228  0.28985657  0.74986069  1
  Cu  Cu27  1  0.70902291  0.99479767  0.74973012  1
  Cu  Cu28  1  0.37745630  0.04762552  0.58347650  1
  Cu  Cu29  1  0.67060136  0.62377167  0.58328064  1
  Cu  Cu30  1  0.95317131  0.62377167  0.08328064  1
  Cu  Cu31  1  0.67017022  0.04762552  0.08347650  1
  Cu  Cu32  1  0.61892732  0.66268901  0.91650910  1
  Cu  Cu33  1  0.33741514  0.95611245  0.91687494  1
  Cu  Cu34  1  0.61869630  0.95611245  0.41687494  1
  Cu  Cu35  1  0.04376069  0.66268901  0.41650910  1
  C  C36  1  0.20600890  0.02683459  0.30368946  1
  C  C37  1  0.82405419  0.80001266  0.30675762  1
  C  C38  1  0.97828380  0.18101551  0.30383197  1
  C  C39  1  0.20273171  0.18101551  0.80383197  1
  C  C40  1  0.97595847  0.80001266  0.80675762  1
  C  C41  1  0.82082569  0.02683459  0.80368946  1
  C  C42  1  0.80185252  0.97181489  0.69555980  1
  C  C43  1  0.16989641  0.20190727  0.69553505  1
  C  C44  1  0.02955993  0.83571362  0.69300897  1
  C  C45  1  0.80615369  0.83571362  0.19300897  1
  C  C46  1  0.03201086  0.20190727  0.19553505  1
  C  C47  1  0.16996237  0.97181489  0.19555980  1
  C  C48  1  0.86647771  0.35795607  0.63933993  1
  C  C49  1  0.48459395  0.13055735  0.63755155  1
  C  C50  1  0.63966074  0.51297983  0.63715683  1
  C  C51  1  0.87332008  0.51297983  0.13715683  1
  C  C52  1  0.64596439  0.13055735  0.13755155  1
  C  C53  1  0.49147936  0.35795607  0.13933993  1
  C  C54  1  0.47243140  0.30360316  0.02624364  1
  C  C55  1  0.83713550  0.53303019  0.02906415  1
  C  C56  1  0.69801261  0.16433331  0.02886298  1
  C  C57  1  0.46632170  0.16433331  0.52886298  1
  C  C58  1  0.69589570  0.53303019  0.52906415  1
  C  C59  1  0.83117277  0.30360316  0.52624364  1
  C  C60  1  0.53912024  0.69249679  0.97050898  1
  C  C61  1  0.15798973  0.46639995  0.97269796  1
  C  C62  1  0.31146987  0.84859900  0.97078867  1
  C  C63  1  0.53712813  0.84859900  0.47078867  1
  C  C64  1  0.30840922  0.46639995  0.47269796  1
  C  C65  1  0.15337555  0.69249679  0.47050898  1
  C  C66  1  0.13208780  0.63734894  0.36217560  1
  C  C67  1  0.50245606  0.86758980  0.36220977  1
  C  C68  1  0.36233443  0.50260435  0.35989073  1
  C  C69  1  0.14026892  0.50260435  0.85989073  1
  C  C70  1  0.36513274  0.86758980  0.86220977  1
  C  C71  1  0.50526014  0.63734894  0.86217560  1
  C  C72  1  0.01828712  0.82036973  0.41017884  1
  C  C73  1  0.80071179  0.98098686  0.40935837  1
  C  C74  1  0.16861880  0.18490691  0.41052030  1
  C  C75  1  0.01628811  0.18490691  0.91052030  1
  C  C76  1  0.18027507  0.98098686  0.90935837  1
  C  C77  1  0.80208261  0.82036973  0.91017884  1
  C  C78  1  0.97220724  0.15426845  0.59179618  1
  C  C79  1  0.19474617  0.03194847  0.59058420  1
  C  C80  1  0.83834963  0.80524835  0.59095326  1
  C  C81  1  0.96689872  0.80524835  0.09095326  1
  C  C82  1  0.83720230  0.03194847  0.09058420  1
  C  C83  1  0.18206121  0.15426845  0.09179618  1
  C  C84  1  0.68181767  0.15066551  0.74271314  1
  C  C85  1  0.46660793  0.31094501  0.74248080  1
  C  C86  1  0.83472367  0.51963218  0.74501550  1
  C  C87  1  0.68490951  0.51963218  0.24501550  1
  C  C88  1  0.84433808  0.31094501  0.24248080  1
  C  C89  1  0.46884884  0.15066551  0.24271314  1
  C  C90  1  0.63511301  0.49625385  0.92459393  1
  C  C91  1  0.84912173  0.36218089  0.92512677  1
  C  C92  1  0.50422102  0.13915623  0.92380416  1
  C  C93  1  0.63493620  0.13915623  0.42380416  1
  C  C94  1  0.51306016  0.36218089  0.42512677  1
  C  C95  1  0.86114183  0.49625385  0.42459393  1
  C  C96  1  0.35287295  0.49985166  0.07840917  1
  C  C97  1  0.13653082  0.65267934  0.07609347  1
  C  C98  1  0.51245268  0.86732529  0.07564383  1
  C  C99  1  0.35487161  0.86732529  0.57564383  1
  C  C100  1  0.51614752  0.65267934  0.57609347  1
  C  C101  1  0.14697771  0.49985166  0.57840917  1
  C  C102  1  0.29784938  0.82736733  0.25743514  1
  C  C103  1  0.51682858  0.69767661  0.25797348  1
  C  C104  1  0.16799299  0.47360174  0.25765579  1
  C  C105  1  0.30560775  0.47360174  0.75765579  1
  C  C106  1  0.18084703  0.69767661  0.75797348  1
  C  C107  1  0.52951695  0.82736733  0.75743514  1
