# generated using pymatgen
data_Cu12Ni8C5
_symmetry_space_group_name_H-M   'P 1'
_cell_length_a   10.23479154
_cell_length_b   10.23479154
_cell_length_c   14.50626300
_cell_angle_alpha   90.00000000
_cell_angle_beta   90.00000000
_cell_angle_gamma   150.17311464
_symmetry_Int_Tables_number   1
_chemical_formula_structural   Cu12Ni8C5
_chemical_formula_sum   'Cu24 Ni16 C10'
_cell_volume   755.79292795
_cell_formula_units_Z   2
loop_
 _symmetry_equiv_pos_site_id
 _symmetry_equiv_pos_as_xyz
  1  'x, y, z'
loop_
 _atom_site_type_symbol
 _atom_site_label
 _atom_site_symmetry_multiplicity
 _atom_site_fract_x
 _atom_site_fract_y
 _atom_site_fract_z
 _atom_site_occupancy
  C  C0  1  0.58817800  0.85936900  0.32678100  1
  C  C1  1  0.96069100  0.96069100  0.00000000  1
  C  C2  1  0.58817800  0.85936900  0.67321900  1
  C  C3  1  0.36114600  0.09299600  0.17527200  1
  C  C4  1  0.09299600  0.36114600  0.82472800  1
  C  C5  1  0.36114600  0.09299600  0.82472800  1
  C  C6  1  0.09299600  0.36114600  0.17527200  1
  C  C7  1  0.43639800  0.43639800  0.50000000  1
  C  C8  1  0.85936900  0.58817800  0.32678100  1
  C  C9  1  0.85936900  0.58817800  0.67321900  1
  Ni  Ni10  1  0.87111100  0.07240300  0.50000000  1
  Ni  Ni11  1  0.07240300  0.87111100  0.50000000  1
  Ni  Ni12  1  0.43822000  0.02656500  0.37590800  1
  Ni  Ni13  1  0.02656500  0.43822000  0.62409200  1
  Ni  Ni14  1  0.38891400  0.55636100  0.00000000  1
  Ni  Ni15  1  0.55636100  0.38891400  0.00000000  1
  Ni  Ni16  1  0.02656500  0.43822000  0.37590800  1
  Ni  Ni17  1  0.52777900  0.92996400  0.10754700  1
  Ni  Ni18  1  0.99902300  0.99902300  0.23086300  1
  Ni  Ni19  1  0.99902300  0.99902300  0.76913700  1
  Ni  Ni20  1  0.50682900  0.50682900  0.27939900  1
  Ni  Ni21  1  0.50682900  0.50682900  0.72060100  1
  Ni  Ni22  1  0.92996400  0.52777900  0.89245300  1
  Ni  Ni23  1  0.52777900  0.92996400  0.89245300  1
  Ni  Ni24  1  0.92996400  0.52777900  0.10754700  1
  Ni  Ni25  1  0.43822000  0.02656500  0.62409200  1
  Cu  Cu26  1  0.80124600  0.64485600  0.14864200  1
  Cu  Cu27  1  0.64485600  0.80124600  0.85135800  1
  Cu  Cu28  1  0.80124600  0.64485600  0.85135800  1
  Cu  Cu29  1  0.64485600  0.80124600  0.14864200  1
  Cu  Cu30  1  0.67373600  0.11263300  0.50000000  1
  Cu  Cu31  1  0.86196400  0.86196400  0.60333100  1
  Cu  Cu32  1  0.86196400  0.86196400  0.39666900  1
  Cu  Cu33  1  0.34873900  0.34873900  0.87869000  1
  Cu  Cu34  1  0.11263300  0.67373600  0.50000000  1
  Cu  Cu35  1  0.11892100  0.85689700  0.00000000  1
  Cu  Cu36  1  0.85689700  0.11892100  0.00000000  1
  Cu  Cu37  1  0.15659300  0.57223700  0.00000000  1
  Cu  Cu38  1  0.22827300  0.72800800  0.24218100  1
  Cu  Cu39  1  0.72800800  0.22827300  0.75781900  1
  Cu  Cu40  1  0.22827300  0.72800800  0.75781900  1
  Cu  Cu41  1  0.72800800  0.22827300  0.24218100  1
  Cu  Cu42  1  0.32913900  0.60904600  0.50000000  1
  Cu  Cu43  1  0.57223700  0.15659300  0.00000000  1
  Cu  Cu44  1  0.60904600  0.32913900  0.50000000  1
  Cu  Cu45  1  0.34873900  0.34873900  0.12131000  1
  Cu  Cu46  1  0.13603800  0.29795500  0.35326400  1
  Cu  Cu47  1  0.29795500  0.13603800  0.64673600  1
  Cu  Cu48  1  0.13603800  0.29795500  0.64673600  1
  Cu  Cu49  1  0.29795500  0.13603800  0.35326400  1
