# generated using pymatgen
data_Cu(NiC3)3
_symmetry_space_group_name_H-M   'P 1'
_cell_length_a   3.39941200
_cell_length_b   3.39923261
_cell_length_c   45.55266002
_cell_angle_alpha   90.00382794
_cell_angle_beta   89.99825597
_cell_angle_gamma   119.99898180
_symmetry_Int_Tables_number   1
_chemical_formula_structural   Cu(NiC3)3
_chemical_formula_sum   'Cu1 Ni3 C9'
_cell_volume   455.86213170
_cell_formula_units_Z   1
loop_
 _symmetry_equiv_pos_site_id
 _symmetry_equiv_pos_as_xyz
  1  'x, y, z'
loop_
 _atom_site_type_symbol
 _atom_site_label
 _atom_site_symmetry_multiplicity
 _atom_site_fract_x
 _atom_site_fract_y
 _atom_site_fract_z
 _atom_site_occupancy
  C  C0  1  0.00001000  0.99993800  0.55137900  1
  C  C1  1  0.33359200  0.66714800  0.70579300  1
  C  C2  1  0.66655400  0.33307800  0.05277000  1
  C  C3  1  0.66643800  0.33299100  0.13508600  1
  C  C4  1  0.33356500  0.66697000  0.62284700  1
  Ni  Ni5  1  0.33313800  0.66641700  0.09392100  1
  Ni  Ni6  1  0.33322900  0.66647600  0.46244600  1
  Ni  Ni7  1  0.66673600  0.33341600  0.28214600  1
  Cu  Cu8  1  0.66691100  0.33363400  0.66446400  1
  C  C9  1  0.33339800  0.66681300  0.31835500  1
  C  C10  1  0.33336900  0.66670500  0.24595700  1
  C  C11  1  0.66650300  0.33316600  0.42981200  1
  C  C12  1  0.66655600  0.33324800  0.49585600  1
