# generated using pymatgen
data_Cu3(NiC4)2
_symmetry_space_group_name_H-M   'P 1'
_cell_length_a   6.18578249
_cell_length_b   6.18578249
_cell_length_c   9.65011501
_cell_angle_alpha   71.64292718
_cell_angle_beta   71.64292718
_cell_angle_gamma   87.06026848
_symmetry_Int_Tables_number   1
_chemical_formula_structural   Cu3(NiC4)2
_chemical_formula_sum   'Cu6 Ni4 C16'
_cell_volume   332.15596894
_cell_formula_units_Z   2
loop_
 _symmetry_equiv_pos_site_id
 _symmetry_equiv_pos_as_xyz
  1  'x, y, z'
loop_
 _atom_site_type_symbol
 _atom_site_label
 _atom_site_symmetry_multiplicity
 _atom_site_fract_x
 _atom_site_fract_y
 _atom_site_fract_z
 _atom_site_occupancy
  Ni  Ni0  1  0.06082000  0.77844300  0.62689800  1
  Ni  Ni1  1  0.22155700  0.93918000  0.87310200  1
  Ni  Ni2  1  0.93918000  0.22155700  0.37310200  1
  Ni  Ni3  1  0.77844300  0.06082000  0.12689800  1
  Cu  Cu4  1  0.76158300  0.23841700  0.75000000  1
  Cu  Cu5  1  0.23841700  0.76158300  0.25000000  1
  Cu  Cu6  1  0.68024400  0.63747300  0.00302100  1
  Cu  Cu7  1  0.36252700  0.31975600  0.49697900  1
  Cu  Cu8  1  0.31975600  0.36252700  0.99697900  1
  Cu  Cu9  1  0.63747300  0.68024400  0.50302100  1
  C  C10  1  0.17919100  0.42506900  0.35450600  1
  C  C11  1  0.57493100  0.82080900  0.14549400  1
  C  C12  1  0.82080900  0.57493100  0.64549400  1
  C  C13  1  0.42506900  0.17919100  0.85450600  1
  C  C14  1  0.30954200  0.58594700  0.58859000  1
  C  C15  1  0.41405300  0.69045800  0.91141000  1
  C  C16  1  0.69045800  0.41405400  0.41141000  1
  C  C17  1  0.58594600  0.30954200  0.08859000  1
  C  C18  1  0.98415200  0.71727600  0.85331800  1
  C  C19  1  0.28272400  0.01584800  0.64668200  1
  C  C20  1  0.06307300  0.86216400  0.10307500  1
  C  C21  1  0.13783600  0.93692700  0.39692500  1
  C  C22  1  0.93692700  0.13783600  0.89692500  1
  C  C23  1  0.86216400  0.06307300  0.60307500  1
  C  C24  1  0.71727600  0.98415200  0.35331800  1
  C  C25  1  0.01584800  0.28272400  0.14668200  1
