# generated using pymatgen
data_Cu6NiC12
_symmetry_space_group_name_H-M   'P 1'
_cell_length_a   5.27917510
_cell_length_b   14.50578230
_cell_length_c   3.04332667
_cell_angle_alpha   89.69492514
_cell_angle_beta   89.85069042
_cell_angle_gamma   91.52724777
_symmetry_Int_Tables_number   1
_chemical_formula_structural   Cu6NiC12
_chemical_formula_sum   'Cu6 Ni1 C12'
_cell_volume   232.96661683
_cell_formula_units_Z   1
loop_
 _symmetry_equiv_pos_site_id
 _symmetry_equiv_pos_as_xyz
  1  'x, y, z'
loop_
 _atom_site_type_symbol
 _atom_site_label
 _atom_site_symmetry_multiplicity
 _atom_site_fract_x
 _atom_site_fract_y
 _atom_site_fract_z
 _atom_site_occupancy
  Ni  Ni0  1  0.48094700  0.67036300  0.46691200  1
  Cu  Cu1  1  0.91072900  0.01007600  0.99575500  1
  Cu  Cu2  1  0.11034100  0.32249200  0.99117500  1
  Cu  Cu3  1  0.98977200  0.65950700  0.96905800  1
  Cu  Cu4  1  0.52621200  0.17025900  0.49424200  1
  Cu  Cu5  1  0.56017300  0.47883500  0.48017700  1
  Cu  Cu6  1  0.34400400  0.85900900  0.49075000  1
  C  C7  1  0.25045100  0.25751100  0.49286900  1
  C  C8  1  0.05898500  0.94532900  0.49592900  1
  C  C9  1  0.32095800  0.74446200  0.96830900  1
  C  C10  1  0.41017200  0.41588900  0.98286900  1
  C  C11  1  0.65244600  0.57498500  0.97448800  1
  C  C12  1  0.79038000  0.08318800  0.49467900  1
  C  C13  1  0.18227700  0.58312400  0.47087400  1
  C  C14  1  0.34292900  0.10378900  0.99240200  1
  C  C15  1  0.72262900  0.24153500  0.99798600  1
  C  C16  1  0.57330000  0.91637400  0.99328500  1
  C  C17  1  0.92278200  0.39450800  0.48900800  1
  C  C18  1  0.80884600  0.73543000  0.46756200  1
