# generated using pymatgen
data_Cu2NiC16
_symmetry_space_group_name_H-M   'P 1'
_cell_length_a   5.83672500
_cell_length_b   11.25660700
_cell_length_c   18.97110600
_cell_angle_alpha   90.00000000
_cell_angle_beta   90.00000000
_cell_angle_gamma   90.00000000
_symmetry_Int_Tables_number   1
_chemical_formula_structural   Cu2NiC16
_chemical_formula_sum   'Cu8 Ni4 C64'
_cell_volume   1246.43428487
_cell_formula_units_Z   4
loop_
 _symmetry_equiv_pos_site_id
 _symmetry_equiv_pos_as_xyz
  1  'x, y, z'
loop_
 _atom_site_type_symbol
 _atom_site_label
 _atom_site_symmetry_multiplicity
 _atom_site_fract_x
 _atom_site_fract_y
 _atom_site_fract_z
 _atom_site_occupancy
  C  C0  1  0.75000000  0.60452400  0.02658400  1
  C  C1  1  0.25000000  0.87431400  0.25277100  1
  C  C2  1  0.75000000  0.04582500  0.32806800  1
  C  C3  1  0.75000000  0.89547600  0.52658400  1
  C  C4  1  0.25000000  0.47300100  0.42650500  1
  C  C5  1  0.75000000  0.45417500  0.82806800  1
  C  C6  1  0.25000000  0.39547600  0.97341600  1
  C  C7  1  0.75000000  0.12568600  0.74722900  1
  C  C8  1  0.25000000  0.62568600  0.75277100  1
  C  C9  1  0.75000000  0.97300100  0.07349500  1
  C  C10  1  0.25000000  0.10452400  0.47341600  1
  C  C11  1  0.75000000  0.69220100  0.36085900  1
  C  C12  1  0.75000000  0.80779900  0.86085900  1
  C  C13  1  0.25000000  0.19220100  0.13914100  1
  C  C14  1  0.75000000  0.37431400  0.24722900  1
  C  C15  1  0.75000000  0.52699900  0.57349500  1
  C  C16  1  0.25000000  0.54582500  0.17193200  1
  C  C17  1  0.25000000  0.30779900  0.63914100  1
  C  C18  1  0.25000000  0.95417500  0.67193200  1
  C  C19  1  0.25000000  0.02699900  0.92650500  1
  Ni  Ni20  1  0.75000000  0.73979700  0.18764700  1
  Ni  Ni21  1  0.25000000  0.23979700  0.31235300  1
  Ni  Ni22  1  0.75000000  0.76020300  0.68764700  1
  Ni  Ni23  1  0.25000000  0.26020300  0.81235300  1
  Cu  Cu24  1  0.75000000  0.28858300  0.06236600  1
  Cu  Cu25  1  0.25000000  0.79470800  0.06340800  1
  Cu  Cu26  1  0.25000000  0.78858300  0.43763400  1
  Cu  Cu27  1  0.75000000  0.20529200  0.93659200  1
  Cu  Cu28  1  0.75000000  0.29470800  0.43659200  1
  Cu  Cu29  1  0.25000000  0.71141700  0.93763400  1
  Cu  Cu30  1  0.75000000  0.21141700  0.56236600  1
  Cu  Cu31  1  0.25000000  0.70529200  0.56340800  1
  C  C32  1  0.25000000  0.88173100  0.53141900  1
  C  C33  1  0.50162000  0.25035000  0.36514000  1
  C  C34  1  0.75000000  0.59966600  0.22841400  1
  C  C35  1  0.51527400  0.32642300  0.51364900  1
  C  C36  1  0.25000000  0.35955400  0.25343900  1
  C  C37  1  0.49838000  0.75035000  0.13486000  1
  C  C38  1  0.00162000  0.74965000  0.63486000  1
  C  C39  1  0.51548000  0.10462600  0.60041300  1
  C  C40  1  0.48472600  0.82642300  0.98635100  1
  C  C41  1  0.01527400  0.67357700  0.48635100  1
  C  C42  1  0.75000000  0.90033400  0.72841400  1
  C  C43  1  0.25000000  0.40033400  0.77158600  1
  C  C44  1  0.75000000  0.11826900  0.46858100  1
  C  C45  1  0.25000000  0.54236600  0.59954400  1
  C  C46  1  0.48472600  0.67357700  0.48635100  1
  C  C47  1  0.25000000  0.61826900  0.03141900  1
  C  C48  1  0.00162000  0.75035000  0.13486000  1
  C  C49  1  0.48452000  0.60462600  0.89958700  1
  C  C50  1  0.98452000  0.39537400  0.10041300  1
  C  C51  1  0.01548000  0.89537400  0.39958700  1
  C  C52  1  0.25000000  0.14044600  0.75343900  1
  C  C53  1  0.75000000  0.45763400  0.40045600  1
  C  C54  1  0.75000000  0.30961800  0.64955500  1
  C  C55  1  0.01548000  0.60462600  0.89958700  1
  C  C56  1  0.51527400  0.17357700  0.01364900  1
  C  C57  1  0.25000000  0.95763400  0.09954400  1
  C  C58  1  0.75000000  0.38173100  0.96858100  1
  C  C59  1  0.75000000  0.04236600  0.90045600  1
  C  C60  1  0.75000000  0.19038200  0.14955500  1
  C  C61  1  0.98472600  0.17357700  0.01364900  1
  C  C62  1  0.25000000  0.69038200  0.35044500  1
  C  C63  1  0.25000000  0.80961800  0.85044500  1
  C  C64  1  0.98452000  0.10462600  0.60041300  1
  C  C65  1  0.99838000  0.25035000  0.36514000  1
  C  C66  1  0.75000000  0.64044600  0.74656100  1
  C  C67  1  0.50162000  0.24965000  0.86514000  1
  C  C68  1  0.25000000  0.09966600  0.27158600  1
  C  C69  1  0.98472600  0.32642300  0.51364900  1
  C  C70  1  0.75000000  0.85955400  0.24656100  1
  C  C71  1  0.48452000  0.89537400  0.39958700  1
  C  C72  1  0.01527400  0.82642300  0.98635100  1
  C  C73  1  0.51548000  0.39537400  0.10041300  1
  C  C74  1  0.49838000  0.74965000  0.63486000  1
  C  C75  1  0.99838000  0.24965000  0.86514000  1
