# generated using pymatgen
data_Cu16NiC9
_symmetry_space_group_name_H-M   'P 1'
_cell_length_a   18.36580797
_cell_length_b   9.18986695
_cell_length_c   23.18195645
_cell_angle_alpha   90.04292994
_cell_angle_beta   89.93594154
_cell_angle_gamma   119.95926144
_symmetry_Int_Tables_number   1
_chemical_formula_structural   Cu16NiC9
_chemical_formula_sum   'Cu144 Ni9 C81'
_cell_volume   3389.82933260
_cell_formula_units_Z   9
loop_
 _symmetry_equiv_pos_site_id
 _symmetry_equiv_pos_as_xyz
  1  'x, y, z'
loop_
 _atom_site_type_symbol
 _atom_site_label
 _atom_site_symmetry_multiplicity
 _atom_site_fract_x
 _atom_site_fract_y
 _atom_site_fract_z
 _atom_site_occupancy
  C  C0  1  0.32152157  0.99953220  0.24945261  1
  C  C1  1  0.82158660  0.00010506  0.24964532  1
  C  C2  1  0.18375448  0.98875851  0.74704513  1
  C  C3  1  0.68360827  0.99491396  0.74617732  1
  C  C4  1  0.01838787  0.70624416  0.57977377  1
  C  C5  1  0.51818745  0.70649960  0.57951480  1
  C  C6  1  0.01848417  0.33130909  0.07944501  1
  C  C7  1  0.51611865  0.32634267  0.08019278  1
  C  C8  1  0.48408181  0.66491346  0.91373333  1
  C  C9  1  0.34868898  0.03041133  0.91587778  1
  C  C10  1  0.85212603  0.04360502  0.91302364  1
  C  C11  1  0.16435820  0.30619728  0.92002080  1
  C  C12  1  0.48510140  0.30623562  0.41436086  1
  C  C13  1  0.98529609  0.30662953  0.41437536  1
  C  C14  1  0.16537127  0.02718586  0.41899652  1
  C  C15  1  0.66537441  0.02739942  0.41896658  1
  C  C16  1  0.34927783  0.66671721  0.41618879  1
  C  C17  1  0.84946201  0.66665723  0.41618044  1
  C  C18  1  0.00269380  0.00302762  0.50114534  1
  C  C19  1  0.50263476  0.00287146  0.50109573  1
  C  C20  1  0.00782602  0.00080875  0.00180706  1
  C  C21  1  0.50765413  0.01269727  0.99838814  1
  C  C22  1  0.34386687  0.34339507  0.83174998  1
  C  C23  1  0.84726746  0.34810565  0.83209544  1
  C  C24  1  0.34086799  0.35343062  0.33116127  1
  C  C25  1  0.84079790  0.35325907  0.33110662  1
  C  C26  1  0.17352274  0.65861118  0.16574594  1
  C  C27  1  0.67356302  0.65708293  0.16819431  1
  C  C28  1  0.17826514  0.67795165  0.66698734  1
  C  C29  1  0.67910372  0.67664720  0.66449996  1
  C  C30  1  0.99517077  0.99643213  0.35172011  1
  C  C31  1  0.49517539  0.99640695  0.35167858  1
  C  C32  1  0.99728881  0.99419603  0.85113055  1
  C  C33  1  0.49578507  0.99737060  0.85366897  1
  C  C34  1  0.99369242  0.98231688  0.64746579  1
  C  C35  1  0.49386190  0.98437880  0.64751181  1
  C  C36  1  0.99602785  0.00757952  0.14716987  1
  C  C37  1  0.49586981  0.00817643  0.14711883  1
  C  C38  1  0.33300112  0.33303261  0.68622472  1
  C  C39  1  0.83340475  0.33426732  0.68626154  1
  C  C40  1  0.32989679  0.33669857  0.18595985  1
  C  C41  1  0.83058080  0.33826335  0.18593830  1
  C  C42  1  0.32704354  0.31993700  0.98010855  1
  C  C43  1  0.82819537  0.31932035  0.98146887  1
  C  C44  1  0.32796157  0.33280060  0.48143905  1
  C  C45  1  0.82807576  0.33270540  0.48143557  1
  C  C46  1  0.17328579  0.67324401  0.01804120  1
  C  C47  1  0.66787319  0.66829191  0.02062967  1
  C  C48  1  0.17420299  0.67643596  0.51873856  1
  C  C49  1  0.67411228  0.67641640  0.51852972  1
  C  C50  1  0.16502840  0.65235970  0.31435445  1
  C  C51  1  0.66506987  0.65264617  0.31458195  1
  C  C52  1  0.16582224  0.66964097  0.81611003  1
  C  C53  1  0.66208740  0.67169894  0.81248935  1
  C  C54  1  0.35244138  0.70419621  0.25032141  1
  C  C55  1  0.85229722  0.70417176  0.25037841  1
  C  C56  1  0.99967994  0.29865166  0.24983027  1
  C  C57  1  0.49975411  0.29911726  0.24987836  1
  C  C58  1  0.99905579  0.70109147  0.74962797  1
  C  C59  1  0.49708441  0.70341520  0.75062143  1
  C  C60  1  0.35176280  0.99918773  0.75089727  1
  C  C61  1  0.85232470  -0.00014921  0.75129603  1
  C  C62  1  0.18451020  0.03771418  0.58471314  1
  C  C63  1  0.68465643  0.03773901  0.58490589  1
  C  C64  1  0.33065178  0.62312746  0.58345744  1
  C  C65  1  0.83047960  0.62289084  0.58323834  1
  C  C66  1  0.32991353  0.03709645  0.08482900  1
  C  C67  1  0.83081622  0.03824052  0.08500880  1
  C  C68  1  0.18460255  0.33293721  0.08267712  1
  C  C69  1  0.68548646  0.33189596  0.08312560  1
  C  C70  1  0.31283139  0.66433318  0.91534044  1
  C  C71  1  0.01966045  0.37668240  0.91796628  1
  C  C72  1  0.52175596  0.37457658  0.91868268  1
  C  C73  1  0.16273293  0.95401058  0.91691779  1
  C  C74  1  0.66602847  0.95893167  0.91639801  1
  C  C75  1  0.31241120  0.96077757  0.41369720  1
  C  C76  1  0.81248017  0.96086980  0.41369146  1
  C  C77  1  0.16514900  0.37380592  0.41802150  1
  C  C78  1  0.66516415  0.37370763  0.41803147  1
  C  C79  1  0.02178775  0.66622516  0.41838045  1
  C  C80  1  0.52170079  0.66623328  0.41839130  1
  Ni  Ni81  1  0.14534277  0.99889822  0.24978160  1
  Ni  Ni82  1  0.64557351  0.99918944  0.24965540  1
  Ni  Ni83  1  0.14422671  0.29043471  0.74946427  1
  Ni  Ni84  1  0.64478301  0.29145774  0.74959240  1
  Ni  Ni85  1  0.47951768  0.33218383  0.58290099  1
  Ni  Ni86  1  0.97927213  0.33219277  0.58297721  1
  Ni  Ni87  1  0.47901379  0.62650806  0.08297266  1
  Ni  Ni88  1  0.97774126  0.62440964  0.08298319  1
  Ni  Ni89  1  0.81155016  0.66454139  0.91622268  1
  Cu  Cu90  1  0.10731332  0.02099325  0.30343473  1
  Cu  Cu91  1  0.60732687  0.02091504  0.30338829  1
  Cu  Cu92  1  0.40785494  0.79021232  0.30936807  1
  Cu  Cu93  1  0.90770471  0.79026558  0.30935686  1
  Cu  Cu94  1  0.48725457  0.17866245  0.30636897  1
  Cu  Cu95  1  0.98698436  0.17826065  0.30637069  1
  Cu  Cu96  1  0.10561787  0.18885743  0.80266442  1
  Cu  Cu97  1  0.60514010  0.18482749  0.80129816  1
  Cu  Cu98  1  0.48980780  0.79878420  0.80787149  1
  Cu  Cu99  1  0.98958457  0.80487201  0.80453725  1
  Cu  Cu100  1  0.40856869  0.02665426  0.80895174  1
  Cu  Cu101  1  0.90734073  0.02457863  0.81031406  1
  Cu  Cu102  1  0.40377343  0.98532684  0.69549414  1
  Cu  Cu103  1  0.90361748  0.98452372  0.69615681  1
  Cu  Cu104  1  0.09290762  0.20611748  0.69826451  1
  Cu  Cu105  1  0.59427096  0.21401889  0.69743562  1
  Cu  Cu106  1  0.01529092  0.82182097  0.69242486  1
  Cu  Cu107  1  0.51608176  0.82578047  0.69385728  1
  Cu  Cu108  1  0.40421654  0.82943481  0.19636246  1
  Cu  Cu109  1  0.90379415  0.82916832  0.19629002  1
  Cu  Cu110  1  0.01186529  0.20552490  0.19253116  1
  Cu  Cu111  1  0.51212061  0.20674777  0.19246335  1
  Cu  Cu112  1  0.09399915  0.98116630  0.19884663  1
  Cu  Cu113  1  0.59415512  0.98127373  0.19874995  1
  Cu  Cu114  1  0.43628120  0.35449772  0.63385622  1
  Cu  Cu115  1  0.93617927  0.35438474  0.63380052  1
  Cu  Cu116  1  0.24225843  0.12891489  0.64170907  1
  Cu  Cu117  1  0.74220011  0.12836949  0.64207255  1
  Cu  Cu118  1  0.32460978  0.50608820  0.63829833  1
  Cu  Cu119  1  0.82450630  0.50588437  0.63810820  1
  Cu  Cu120  1  0.43755267  0.51640143  0.13380052  1
  Cu  Cu121  1  0.93679353  0.51704363  0.13486638  1
  Cu  Cu122  1  0.32404821  0.13581614  0.14195073  1
  Cu  Cu123  1  0.82184838  0.13196206  0.14209061  1
  Cu  Cu124  1  0.24622915  0.35787844  0.13743317  1
  Cu  Cu125  1  0.74523513  0.35908828  0.13916040  1
  Cu  Cu126  1  0.23016911  0.31419311  0.02406824  1
  Cu  Cu127  1  0.73484505  0.31612432  0.02673655  1
  Cu  Cu128  1  0.42976408  0.55068657  0.02967712  1
  Cu  Cu129  1  0.92647108  0.54614440  0.03115050  1
  Cu  Cu130  1  0.34909426  0.15918277  0.02774333  1
  Cu  Cu131  1  0.84875172  0.15921562  0.02786207  1
  Cu  Cu132  1  0.23176732  0.14886079  0.52659089  1
  Cu  Cu133  1  0.73196281  0.14879177  0.52674160  1
  Cu  Cu134  1  0.34938304  0.54277637  0.52546187  1
  Cu  Cu135  1  0.84909795  0.54257433  0.52529050  1
  Cu  Cu136  1  0.42948455  0.30838162  0.52968725  1
  Cu  Cu137  1  0.92935197  0.30811827  0.52972066  1
  Cu  Cu138  1  0.27046690  0.70179245  0.97145825  1
  Cu  Cu139  1  0.77193187  0.69186528  0.96808832  1
  Cu  Cu140  1  0.07767166  0.45579922  0.97570804  1
  Cu  Cu141  1  0.57641314  0.46188199  0.97703836  1
  Cu  Cu142  1  0.15071304  0.83785822  0.97234163  1
  Cu  Cu143  1  0.65365247  0.83420397  0.97051408  1
  Cu  Cu144  1  0.26926890  0.83645194  0.46912210  1
  Cu  Cu145  1  0.76926597  0.83655097  0.46909490  1
  Cu  Cu146  1  0.14626847  0.46050744  0.47272234  1
  Cu  Cu147  1  0.64635116  0.46061475  0.47271494  1
  Cu  Cu148  1  0.07800630  0.69903733  0.47663919  1
  Cu  Cu149  1  0.57800814  0.69910299  0.47664142  1
  Cu  Cu150  1  0.06756306  0.63387298  0.36361376  1
  Cu  Cu151  1  0.56754858  0.63387682  0.36365689  1
  Cu  Cu152  1  0.25420238  0.88072472  0.35663113  1
  Cu  Cu153  1  0.75426309  0.88072938  0.35665759  1
  Cu  Cu154  1  0.18594818  0.49590853  0.36166724  1
  Cu  Cu155  1  0.68594482  0.49592338  0.36170776  1
  Cu  Cu156  1  0.06714143  0.49022903  0.86169088  1
  Cu  Cu157  1  0.57025829  0.49929299  0.86370622  1
  Cu  Cu158  1  0.18226370  0.87674401  0.85885852  1
  Cu  Cu159  1  0.68454079  0.87600451  0.85870661  1
  Cu  Cu160  1  0.25142555  0.62815196  0.86029752  1
  Cu  Cu161  1  0.76078500  0.64148580  0.86413001  1
  Cu  Cu162  1  0.01294885  0.83497186  0.41017001  1
  Cu  Cu163  1  0.51303557  0.83514204  0.41020165  1
  Cu  Cu164  1  0.40652680  0.97943551  0.41041746  1
  Cu  Cu165  1  0.90651862  0.97941479  0.41048388  1
  Cu  Cu166  1  0.08413659  0.18476319  0.40956148  1
  Cu  Cu167  1  0.58412542  0.18474856  0.40959767  1
  Cu  Cu168  1  0.00852542  0.18544023  0.91058943  1
  Cu  Cu169  1  0.50705337  0.18548370  0.91170007  1
  Cu  Cu170  1  0.08477413  0.99253139  0.91010367  1
  Cu  Cu171  1  0.58088431  0.97005953  0.91029430  1
  Cu  Cu172  1  0.40604889  0.83309654  0.91055152  1
  Cu  Cu173  1  0.89542061  0.82345357  0.91181899  1
  Cu  Cu174  1  0.49044477  0.18479839  0.58940101  1
  Cu  Cu175  1  0.99028909  0.18426109  0.58960337  1
  Cu  Cu176  1  0.09099924  0.02122418  0.58875744  1
  Cu  Cu177  1  0.59118050  0.02103942  0.58888895  1
  Cu  Cu178  1  0.41763692  0.80874787  0.58890884  1
  Cu  Cu179  1  0.91724216  0.80868905  0.58852950  1
  Cu  Cu180  1  0.49097008  0.79550360  0.09018983  1
  Cu  Cu181  1  0.98906108  0.79395436  0.08997522  1
  Cu  Cu182  1  0.41751539  0.02565396  0.08886583  1
  Cu  Cu183  1  0.91803967  0.02685054  0.08837330  1
  Cu  Cu184  1  0.09191336  0.16167352  0.08855790  1
  Cu  Cu185  1  0.59218714  0.16332513  0.08843139  1
  Cu  Cu186  1  0.33684986  0.16172545  0.74507925  1
  Cu  Cu187  1  0.83597220  0.15977232  0.74555624  1
  Cu  Cu188  1  0.22828852  0.30010361  0.74537018  1
  Cu  Cu189  1  0.72901253  0.30200544  0.74488061  1
  Cu  Cu190  1  0.41542911  0.51723640  0.74383453  1
  Cu  Cu191  1  0.91528125  0.51704119  0.74394052  1
  Cu  Cu192  1  0.34166626  0.51780219  0.24424017  1
  Cu  Cu193  1  0.84149959  0.51758110  0.24457583  1
  Cu  Cu194  1  0.41085155  0.30042662  0.24469540  1
  Cu  Cu195  1  0.91072630  0.29971537  0.24446997  1
  Cu  Cu196  1  0.23155447  0.15168007  0.24546643  1
  Cu  Cu197  1  0.73166365  0.15164581  0.24550550  1
  Cu  Cu198  1  0.32582589  0.50157321  0.92323868  1
  Cu  Cu199  1  0.82436282  0.51971782  0.92284815  1
  Cu  Cu200  1  0.42920809  0.36270816  0.92298393  1
  Cu  Cu201  1  0.92467602  0.35156321  0.92296971  1
  Cu  Cu202  1  0.24947516  0.14137759  0.92236510  1
  Cu  Cu203  1  0.75212944  0.14198565  0.92258238  1
  Cu  Cu204  1  0.32553366  0.14911072  0.42333917  1
  Cu  Cu205  1  0.82543285  0.14902964  0.42328416  1
  Cu  Cu206  1  0.24977071  0.35555843  0.42353273  1
  Cu  Cu207  1  0.74976669  0.35542911  0.42355648  1
  Cu  Cu208  1  0.42805936  0.49796241  0.42359835  1
  Cu  Cu209  1  0.92806108  0.49793391  0.42360531  1
  Cu  Cu210  1  0.16828242  0.49257391  0.07945398  1
  Cu  Cu211  1  0.66996146  0.49339862  0.07827196  1
  Cu  Cu212  1  0.06083578  0.63269865  0.07868586  1
  Cu  Cu213  1  0.56268813  0.63492329  0.07894598  1
  Cu  Cu214  1  0.24676612  0.85329555  0.07982623  1
  Cu  Cu215  1  0.74888042  0.85209543  0.07698841  1
  Cu  Cu216  1  0.16918380  0.84569406  0.57963480  1
  Cu  Cu217  1  0.66922934  0.84538966  0.57985533  1
  Cu  Cu218  1  0.24713175  0.64035734  0.57934426  1
  Cu  Cu219  1  0.74699763  0.64021705  0.57939886  1
  Cu  Cu220  1  0.06171226  0.48945734  0.57920595  1
  Cu  Cu221  1  0.56177236  0.48954974  0.57926962  1
  Cu  Cu222  1  0.15674373  0.85059537  0.25368539  1
  Cu  Cu223  1  0.65683383  0.85061221  0.25356899  1
  Cu  Cu224  1  0.26343356  0.70522987  0.25402710  1
  Cu  Cu225  1  0.76327889  0.70518301  0.25395051  1
  Cu  Cu226  1  0.08233195  0.48410718  0.25433533  1
  Cu  Cu227  1  0.58248686  0.48475558  0.25423759  1
  Cu  Cu228  1  0.15510236  0.46004446  0.75405681  1
  Cu  Cu229  1  0.65703158  0.46175941  0.75666944  1
  Cu  Cu230  1  0.08568370  0.69257790  0.75487918  1
  Cu  Cu231  1  0.58486811  0.69338166  0.75507496  1
  Cu  Cu232  1  0.25832428  0.83155431  0.75412388  1
  Cu  Cu233  1  0.75913220  0.82926990  0.75533430  1
