# generated using pymatgen
data_Cu5Ni2C63
_symmetry_space_group_name_H-M   'P 1'
_cell_length_a   17.98927689
_cell_length_b   9.00659885
_cell_length_c   23.83168511
_cell_angle_alpha   90.11967969
_cell_angle_beta   90.02788888
_cell_angle_gamma   120.03943398
_symmetry_Int_Tables_number   1
_chemical_formula_structural   Cu5Ni2C63
_chemical_formula_sum   'Cu15 Ni6 C189'
_cell_volume   3342.60895695
_cell_formula_units_Z   3
loop_
 _symmetry_equiv_pos_site_id
 _symmetry_equiv_pos_as_xyz
  1  'x, y, z'
loop_
 _atom_site_type_symbol
 _atom_site_label
 _atom_site_symmetry_multiplicity
 _atom_site_fract_x
 _atom_site_fract_y
 _atom_site_fract_z
 _atom_site_occupancy
  Ni  Ni0  1  0.99988266  0.99994031  0.50322344  1
  Ni  Ni1  1  0.50492950  0.00866307  0.99666932  1
  Ni  Ni2  1  0.33438767  0.33526307  0.82575516  1
  Ni  Ni3  1  0.83257167  0.33110796  0.82732848  1
  Ni  Ni4  1  0.33245003  0.33602455  0.33928557  1
  Ni  Ni5  1  0.83414632  0.33100378  0.33365852  1
  Cu  Cu6  1  0.00322404  0.00261618  0.35578940  1
  Cu  Cu7  1  0.50096624  0.00044797  0.85446165  1
  Cu  Cu8  1  0.99949233  0.99877475  0.64644627  1
  Cu  Cu9  1  0.50264568  0.00468038  0.14659897  1
  Cu  Cu10  1  0.32907705  0.32933776  0.67903492  1
  Cu  Cu11  1  0.83745113  0.33797367  0.68013826  1
  Cu  Cu12  1  0.82834838  0.32775494  0.17983155  1
  Cu  Cu13  1  0.32732628  0.32807379  0.98155940  1
  Cu  Cu14  1  0.83904594  0.33813858  0.98479746  1
  Cu  Cu15  1  0.33945981  0.34194890  0.48753064  1
  Cu  Cu16  1  0.82773610  0.32553359  0.48631519  1
  Cu  Cu17  1  0.16260178  0.66363191  0.30822966  1
  Cu  Cu18  1  0.67056712  0.66695448  0.30981382  1
  Cu  Cu19  1  0.17187291  0.67455583  0.80768041  1
  Cu  Cu20  1  0.66168606  0.65935448  0.80692163  1
  C  C21  1  0.49741361  0.99614283  0.35211894  1
  C  C22  1  0.99895933  0.99927203  0.85074665  1
  C  C23  1  0.50044662  0.00048653  0.65001044  1
  C  C24  1  0.99767612  0.99736522  0.14991540  1
  C  C25  1  0.33619040  0.33572329  0.17922511  1
  C  C26  1  0.16045027  0.66524252  0.01408031  1
  C  C27  1  0.67373820  0.67011746  0.01371223  1
  C  C28  1  0.17042870  0.66955335  0.51625035  1
  C  C29  1  0.66225527  0.66298841  0.51644152  1
  C  C30  1  0.15267341  0.01813943  0.24309036  1
  C  C31  1  0.64482289  0.00952572  0.25530794  1
  C  C32  1  0.35738183  0.69490137  0.24967021  1
  C  C33  1  0.85816748  0.70918037  0.24783259  1
  C  C34  1  0.99729556  0.28361938  0.24689187  1
  C  C35  1  0.48935949  0.28397622  0.25064243  1
  C  C36  1  0.14631282  0.28122552  0.75508803  1
  C  C37  1  0.64561048  0.28442971  0.74729141  1
  C  C38  1  0.99459027  0.70660310  0.75475989  1
  C  C39  1  0.49629738  0.70894060  0.74724777  1
  C  C40  1  0.35845221  0.00712305  0.74740054  1
  C  C41  1  0.85814696  0.01084557  0.75461276  1
  C  C42  1  0.49047979  0.33168757  0.58310771  1
  C  C43  1  0.99152481  0.34487609  0.57808223  1
  C  C44  1  0.18193228  0.01918403  0.57712305  1
  C  C45  1  0.67465970  0.01673061  0.58383184  1
  C  C46  1  0.33465250  0.65071737  0.58342161  1
  C  C47  1  0.82677636  0.63689395  0.57776536  1
  C  C48  1  0.48531005  0.62221910  0.08186195  1
  C  C49  1  0.99128246  0.64943544  0.08338583  1
  C  C50  1  0.32563215  0.02735729  0.08161208  1
  C  C51  1  0.83349100  0.01843290  0.08305289  1
  C  C52  1  0.18119752  0.33509233  0.08659046  1
  C  C53  1  0.68186393  0.34592203  0.07715651  1
  C  C54  1  0.31032108  0.67220319  0.92159925  1
  C  C55  1  0.81879560  0.67882808  0.91393333  1
  C  C56  1  0.02299486  0.36565394  0.91504514  1
  C  C57  1  0.52302003  0.37662662  0.92043279  1
  C  C58  1  0.15874216  0.95387315  0.91476962  1
  C  C59  1  0.66584906  0.95317355  0.92101177  1
  C  C60  1  0.31781792  0.95800431  0.41323820  1
  C  C61  1  0.81088417  0.95285679  0.42029141  1
  C  C62  1  0.16791326  0.37865022  0.41957058  1
  C  C63  1  0.65938127  0.36365840  0.41438649  1
  C  C64  1  0.02228573  0.66763998  0.41961605  1
  C  C65  1  0.52169839  0.67738001  0.41444876  1
  C  C66  1  0.11789657  0.05263579  0.29354509  1
  C  C67  1  0.60160599  0.03705895  0.30763467  1
  C  C68  1  0.41265431  0.77174664  0.30218205  1
  C  C69  1  0.91241840  0.79790704  0.29624449  1
  C  C70  1  0.47302147  0.17253642  0.30244688  1
  C  C71  1  0.98809398  0.17868982  0.29596670  1
  C  C72  1  0.10499690  0.17376895  0.80855632  1
  C  C73  1  0.60360521  0.18015731  0.79706044  1
  C  C74  1  0.48620279  0.79251524  0.79728275  1
  C  C75  1  0.98177517  0.78892700  0.80831773  1
  C  C76  1  0.41015716  0.02627745  0.79738983  1
  C  C77  1  0.91274312  0.03815905  0.80821336  1
  C  C78  1  0.40104346  0.99018493  0.69424669  1
  C  C79  1  0.90160938  0.99596869  0.70514159  1
  C  C80  1  0.09637442  0.19457685  0.70524576  1
  C  C81  1  0.59371932  0.19899294  0.69424805  1
  C  C82  1  0.00153540  0.80712247  0.70518542  1
  C  C83  1  0.50543660  0.81233623  0.69443911  1
  C  C84  1  0.39844562  0.79545375  0.19995627  1
  C  C85  1  0.89937517  0.80954401  0.19351345  1
  C  C86  1  0.00845943  0.20076349  0.19332543  1
  C  C87  1  0.49811381  0.20314854  0.20026588  1
  C  C88  1  0.09960010  0.99759756  0.19174079  1
  C  C89  1  0.59527254  0.99518473  0.20508679  1
  C  C90  1  0.45360877  0.36726269  0.63241250  1
  C  C91  1  0.95338323  0.36804245  0.62956040  1
  C  C92  1  0.23116253  0.09383068  0.62886509  1
  C  C93  1  0.72909347  0.09193439  0.63318610  1
  C  C94  1  0.31676403  0.54276246  0.63308903  1
  C  C95  1  0.81593676  0.53755211  0.62891422  1
  C  C96  1  0.44577118  0.51494854  0.13634863  1
  C  C97  1  0.95515216  0.54261481  0.13303243  1
  C  C98  1  0.31160094  0.10738780  0.13487739  1
  C  C99  1  0.81659456  0.08924063  0.13356483  1
  C  C100  1  0.23954721  0.37219288  0.13765531  1
  C  C101  1  0.73011013  0.36949361  0.12933174  1
  C  C102  1  0.21671929  0.29580506  0.03789010  1
  C  C103  1  0.72495132  0.32629881  0.02803169  1
  C  C104  1  0.42845513  0.53471907  0.03469049  1
  C  C105  1  0.94027704  0.58058483  0.03261345  1
  C  C106  1  0.33858869  0.13637496  0.03341086  1
  C  C107  1  0.85032995  0.12520205  0.03359096  1
  C  C108  1  0.22443204  0.12397983  0.52758962  1
  C  C109  1  0.70922328  0.12018680  0.53327540  1
  C  C110  1  0.35219205  0.57924438  0.53336170  1
  C  C111  1  0.83629469  0.55393335  0.52756947  1
  C  C112  1  0.43883004  0.29768031  0.53226304  1
  C  C113  1  0.93902751  0.32522685  0.52856679  1
  C  C114  1  0.26699949  0.68919921  0.97623080  1
  C  C115  1  0.78203316  0.70877275  0.96799963  1
  C  C116  1  0.07467049  0.43956987  0.97029881  1
  C  C117  1  0.57483521  0.46530340  0.97376130  1
  C  C118  1  0.14513413  0.85143745  0.96911977  1
  C  C119  1  0.65722597  0.85122020  0.97552796  1
  C  C120  1  0.28002535  0.85446067  0.46551699  1
  C  C121  1  0.76558223  0.84819069  0.47297395  1
  C  C122  1  0.16111232  0.46661982  0.47272453  1
  C  C123  1  0.64685258  0.44405470  0.46670150  1
  C  C124  1  0.07612888  0.68380943  0.47127906  1
  C  C125  1  0.57296913  0.70258928  0.46781077  1
  C  C126  1  0.06520029  0.65736176  0.36867076  1
  C  C127  1  0.56395431  0.65698900  0.36558735  1
  C  C128  1  0.26660725  0.87526905  0.36339693  1
  C  C129  1  0.76196573  0.86569893  0.37002367  1
  C  C130  1  0.17314329  0.47719684  0.36964097  1
  C  C131  1  0.67021397  0.46677041  0.36481965  1
  C  C132  1  0.06694574  0.47610097  0.86793896  1
  C  C133  1  0.56690627  0.47470161  0.87082787  1
  C  C134  1  0.17119936  0.86888306  0.86740587  1
  C  C135  1  0.67068000  0.86250656  0.87188353  1
  C  C136  1  0.26042362  0.66089727  0.87249000  1
  C  C137  1  0.76394926  0.65588392  0.86623113  1
  C  C138  1  0.01616688  0.82533608  0.42040897  1
  C  C139  1  0.51553753  0.83894998  0.41011683  1
  C  C140  1  0.40478612  0.96586469  0.40849142  1
  C  C141  1  0.89623315  0.96715365  0.42115006  1
  C  C142  1  0.08912991  0.20884380  0.42061934  1
  C  C143  1  0.57697091  0.19113782  0.40915663  1
  C  C144  1  0.01696093  0.19355504  0.90995761  1
  C  C145  1  0.51596152  0.20620839  0.92158978  1
  C  C146  1  0.07868166  0.96549207  0.90971070  1
  C  C147  1  0.58716075  0.96599151  0.92236850  1
  C  C148  1  0.39565025  0.82773304  0.92303272  1
  C  C149  1  0.90485981  0.84126225  0.90932191  1
  C  C150  1  0.50485946  0.18300122  0.59280552  1
  C  C151  1  0.00527947  0.19651198  0.58189861  1
  C  C152  1  0.09326096  0.98686168  0.58097605  1
  C  C153  1  0.58587556  0.99098755  0.59327473  1
  C  C154  1  0.40968301  0.82811674  0.59314582  1
  C  C155  1  0.90025225  0.81373081  0.58164599  1
  C  C156  1  0.49495296  0.79233465  0.08976388  1
  C  C157  1  0.00661030  0.82873896  0.09299710  1
  C  C158  1  0.39914178  0.00255079  0.08958257  1
  C  C159  1  0.91008160  0.99253878  0.09165501  1
  C  C160  1  0.09516425  0.18442126  0.09893586  1
  C  C161  1  0.59302566  0.19895984  0.08046672  1
  C  C162  1  0.35045596  0.16191637  0.74216102  1
  C  C163  1  0.85036272  0.16638165  0.75294199  1
  C  C164  1  0.23230622  0.29727319  0.75390079  1
  C  C165  1  0.73067023  0.29992242  0.74123480  1
  C  C166  1  0.41861490  0.53835408  0.74137559  1
  C  C167  1  0.91673794  0.53517467  0.75335488  1
  C  C168  1  0.35041548  0.51775623  0.24420509  1
  C  C169  1  0.85041714  0.53906456  0.24218242  1
  C  C170  1  0.40711676  0.29642707  0.24537794  1
  C  C171  1  0.91935654  0.29686957  0.24045396  1
  C  C172  1  0.24012979  0.18069765  0.23473181  1
  C  C173  1  0.73047982  0.16564972  0.25453785  1
  C  C174  1  0.31644388  0.51630988  0.92631934  1
  C  C175  1  0.83164414  0.53153428  0.92142109  1
  C  C176  1  0.43790711  0.36210126  0.92510834  1
  C  C177  1  0.93709344  0.34231928  0.92274486  1
  C  C178  1  0.23318365  0.12678671  0.92188472  1
  C  C179  1  0.74356254  0.12219164  0.92626626  1
  C  C180  1  0.33299486  0.13329430  0.41972018  1
  C  C181  1  0.81745757  0.12178024  0.42465982  1
  C  C182  1  0.24554111  0.36301930  0.42401336  1
  C  C183  1  0.73275278  0.33666202  0.42076340  1
  C  C184  1  0.43496094  0.52872557  0.42084798  1
  C  C185  1  0.93713603  0.51295693  0.42410253  1
  C  C186  1  0.17097486  0.48839367  0.07800097  1
  C  C187  1  0.67634819  0.50840236  0.07144663  1
  C  C188  1  0.08035992  0.67062420  0.07432500  1
  C  C189  1  0.57041295  0.63504358  0.07589321  1
  C  C190  1  0.24526405  0.85613305  0.07484133  1
  C  C191  1  0.75660184  0.84197418  0.07381397  1
  C  C192  1  0.17769409  0.84708536  0.57108503  1
  C  C193  1  0.66206914  0.83853661  0.57449531  1
  C  C194  1  0.25817931  0.67372212  0.57360723  1
  C  C195  1  0.74505312  0.64833832  0.57209910  1
  C  C196  1  0.07939406  0.50603956  0.57260570  1
  C  C197  1  0.57860546  0.48665399  0.57331596  1
  C  C198  1  0.16437271  0.87039853  0.24678394  1
  C  C199  1  0.64913712  0.85463466  0.26302583  1
  C  C200  1  0.27251967  0.67012661  0.25890692  1
  C  C201  1  0.77448862  0.69800590  0.25000702  1
  C  C202  1  0.07499500  0.45192669  0.24901521  1
  C  C203  1  0.56162539  0.45374366  0.25960151  1
  C  C204  1  0.15126585  0.44571201  0.76221580  1
  C  C205  1  0.65059652  0.45093298  0.74958413  1
  C  C206  1  0.07209130  0.69691987  0.76198075  1
  C  C207  1  0.57435385  0.69808390  0.74938725  1
  C  C208  1  0.27498868  0.85074239  0.74903952  1
  C  C209  1  0.77590767  0.85618795  0.76234246  1
