# generated using pymatgen
data_Cu8NiC36
_symmetry_space_group_name_H-M   'P 1'
_cell_length_a   7.43849540
_cell_length_b   7.45395356
_cell_length_c   15.12410735
_cell_angle_alpha   76.52013525
_cell_angle_beta   105.14726451
_cell_angle_gamma   118.26681272
_symmetry_Int_Tables_number   1
_chemical_formula_structural   Cu8NiC36
_chemical_formula_sum   'Cu8 Ni1 C36'
_cell_volume   706.99309354
_cell_formula_units_Z   1
loop_
 _symmetry_equiv_pos_site_id
 _symmetry_equiv_pos_as_xyz
  1  'x, y, z'
loop_
 _atom_site_type_symbol
 _atom_site_label
 _atom_site_symmetry_multiplicity
 _atom_site_fract_x
 _atom_site_fract_y
 _atom_site_fract_z
 _atom_site_occupancy
  Ni  Ni0  1  0.50000000  0.00000000  0.50000000  1
  Cu  Cu1  1  0.10144833  0.25164537  0.94553043  1
  Cu  Cu2  1  0.57143123  0.74401512  0.93756673  1
  Cu  Cu3  1  0.24576405  0.41626754  0.43434744  1
  Cu  Cu4  1  0.21372338  0.13072354  0.57647352  1
  Cu  Cu5  1  0.78627662  0.86927646  0.42352648  1
  Cu  Cu6  1  0.75423595  0.58373246  0.56565256  1
  Cu  Cu7  1  0.42856877  0.25598488  0.06243327  1
  Cu  Cu8  1  0.89855167  0.74835463  0.05446957  1
  C  C9  1  0.14983546  0.86463492  0.81279219  1
  C  C10  1  0.15996099  0.82705028  0.30116367  1
  C  C11  1  0.34697344  0.68091784  0.69828094  1
  C  C12  1  0.34441556  0.63178968  0.18783329  1
  C  C13  1  0.65558444  0.36821032  0.81216671  1
  C  C14  1  0.65302656  0.31908216  0.30171906  1
  C  C15  1  0.84003901  0.17294972  0.69883633  1
  C  C16  1  0.85016454  0.13536508  0.18720781  1
  C  C17  1  0.13845715  0.84875017  0.93018627  1
  C  C18  1  0.20051273  0.86274167  0.67476724  1
  C  C19  1  0.22553449  0.89862790  0.41723920  1
  C  C20  1  0.07913220  0.44951902  0.67824185  1
  C  C21  1  0.28983084  0.67880066  0.83149976  1
  C  C22  1  0.14655933  0.75590013  0.17066463  1
  C  C23  1  0.39340375  0.73194985  0.58062348  1
  C  C24  1  0.11294085  0.36230916  0.21870166  1
  C  C25  1  0.34724862  0.67839402  0.32985062  1
  C  C26  1  0.60676453  0.90087474  0.73736817  1
  C  C27  1  0.95496910  0.94130877  0.24500251  1
  C  C28  1  0.43269940  0.09928032  0.82016067  1
  C  C29  1  0.46598599  0.48824640  0.75337343  1
  C  C30  1  0.69433246  0.40717558  0.92800511  1
  C  C31  1  0.30566754  0.59282442  0.07199489  1
  C  C32  1  0.53401401  0.51175360  0.24662657  1
  C  C33  1  0.56730060  0.90071968  0.17983933  1
  C  C34  1  0.04503090  0.05869123  0.75499749  1
  C  C35  1  0.39323547  0.09912526  0.26263183  1
  C  C36  1  0.65275138  0.32160598  0.67014938  1
  C  C37  1  0.88705915  0.63769084  0.78129834  1
  C  C38  1  0.60659625  0.26805015  0.41937652  1
  C  C39  1  0.85344067  0.24409987  0.82933537  1
  C  C40  1  0.71016916  0.32119934  0.16850024  1
  C  C41  1  0.92086780  0.55048098  0.32175815  1
  C  C42  1  0.77446551  0.10137210  0.58276080  1
  C  C43  1  0.79948727  0.13725833  0.32523276  1
  C  C44  1  0.86154285  0.15124983  0.06981373  1
