# generated using pymatgen
data_Cu2Ni7C32
_symmetry_space_group_name_H-M   'P 1'
_cell_length_a   9.20676812
_cell_length_b   9.23844900
_cell_length_c   22.34044876
_cell_angle_alpha   89.87892629
_cell_angle_beta   89.91518856
_cell_angle_gamma   119.89827564
_symmetry_Int_Tables_number   1
_chemical_formula_structural   Cu2Ni7C32
_chemical_formula_sum   'Cu6 Ni21 C96'
_cell_volume   1647.29063368
_cell_formula_units_Z   3
loop_
 _symmetry_equiv_pos_site_id
 _symmetry_equiv_pos_as_xyz
  1  'x, y, z'
loop_
 _atom_site_type_symbol
 _atom_site_label
 _atom_site_symmetry_multiplicity
 _atom_site_fract_x
 _atom_site_fract_y
 _atom_site_fract_z
 _atom_site_occupancy
  Ni  Ni0  1  0.63544702  0.00782391  0.25637157  1
  Ni  Ni1  1  0.35341543  0.35172755  0.24387005  1
  Ni  Ni2  1  0.00925195  0.63386422  0.25140339  1
  Ni  Ni3  1  0.64453881  0.65175070  0.73995712  1
  Ni  Ni4  1  0.98914680  0.34881640  0.75911225  1
  Ni  Ni5  1  0.02175624  0.69323293  0.57199766  1
  Ni  Ni6  1  0.66963468  0.96058142  0.58110552  1
  Ni  Ni7  1  0.29924260  0.97195380  0.08242987  1
  Ni  Ni8  1  0.04080294  0.32861694  0.08599756  1
  Ni  Ni9  1  0.98645677  0.66252742  0.92124911  1
  Ni  Ni10  1  0.68637748  0.03284633  0.91135420  1
  Ni  Ni11  1  0.32767094  0.30190800  0.92794211  1
  Ni  Ni12  1  0.96561547  0.30561170  0.40569684  1
  Ni  Ni13  1  0.33000001  0.01473541  0.40954309  1
  Ni  Ni14  1  0.70317716  0.67838019  0.42161669  1
  Ni  Ni15  1  0.99481863  0.99406563  0.49409013  1
  Ni  Ni16  1  0.00440651  0.00306960  0.00351008  1
  Ni  Ni17  1  0.64542422  0.29526883  0.83556476  1
  Ni  Ni18  1  0.67276148  0.32579755  0.33270775  1
  Ni  Ni19  1  0.34234365  0.65473984  0.16990461  1
  Ni  Ni20  1  0.35456183  0.67517788  0.66618120  1
  Cu  Cu21  1  0.00528929  0.00367144  0.84853327  1
  Cu  Cu22  1  0.00581447  0.00475987  0.64754285  1
  Cu  Cu23  1  0.65438299  0.32720602  0.68037159  1
  Cu  Cu24  1  0.33810734  0.66423398  0.02066264  1
  Cu  Cu25  1  0.33896473  0.66373933  0.50979834  1
  Cu  Cu26  1  0.33364063  0.67865041  0.82219997  1
  C  C27  1  0.00038397  0.00131881  0.34588644  1
  C  C28  1  0.01018904  0.00691212  0.15312335  1
  C  C29  1  0.65995061  0.33088835  0.18576400  1
  C  C30  1  0.66136233  0.33439648  0.98834167  1
  C  C31  1  0.66506603  0.33804184  0.47973471  1
  C  C32  1  0.32673875  0.67261684  0.31708082  1
  C  C33  1  0.29936815  0.99823071  0.25019447  1
  C  C34  1  0.00251398  0.30236967  0.24902977  1
  C  C35  1  0.68912194  0.99776183  0.74912134  1
  C  C36  1  0.66886320  0.63736893  0.58092444  1
  C  C37  1  0.36465405  0.32513234  0.08831808  1
  C  C38  1  0.01397641  0.35649258  0.92026798  1
  C  C39  1  0.34057125  0.98346834  0.92608281  1
  C  C40  1  0.64371301  0.97528577  0.41347556  1
  C  C41  1  0.02390415  0.66803585  0.41499498  1
  C  C42  1  0.70725533  0.70713317  0.24993031  1
  C  C43  1  0.31057170  0.31642446  0.75320571  1
  C  C44  1  0.00023412  0.68701610  0.74892823  1
  C  C45  1  0.96257391  0.33412975  0.57965308  1
  C  C46  1  0.36578702  0.03073620  0.57517092  1
  C  C47  1  0.95363982  0.62971487  0.08687735  1
  C  C48  1  0.67572961  0.04607135  0.08758977  1
  C  C49  1  0.64159993  0.65693819  0.91655222  1
  C  C50  1  0.33119972  0.35873117  0.41046422  1
  C  C51  1  0.21213009  0.02170064  0.30570397  1
  C  C52  1  0.80149361  0.78082818  0.30601239  1
  C  C53  1  0.97424354  0.19121153  0.30485587  1
  C  C54  1  0.23405857  0.23301703  0.81064717  1
  C  C55  1  0.00199901  0.77680203  0.80401617  1
  C  C56  1  0.78692417  0.00336308  0.80661940  1
  C  C57  1  0.78573559  0.99377194  0.69242682  1
  C  C58  1  0.21264625  0.21560061  0.70188176  1
  C  C59  1  0.00910443  0.78324192  0.69477376  1
  C  C60  1  0.79574386  0.81712505  0.19859611  1
  C  C61  1  0.02750342  0.21885025  0.19278341  1
  C  C62  1  0.19075748  0.97118965  0.19378942  1
  C  C63  1  0.88512946  0.34056926  0.63697640  1
  C  C64  1  0.45708651  0.11413208  0.62971663  1
  C  C65  1  0.67114935  0.55856070  0.64161524  1
  C  C66  1  0.86238023  0.52828068  0.13979180  1
  C  C67  1  0.66533065  0.13511322  0.14123183  1
  C  C68  1  0.46406910  0.33208522  0.14490076  1
  C  C69  1  0.45428738  0.31669212  0.03075024  1
  C  C70  1  0.86474946  0.54808423  0.03074042  1
  C  C71  1  0.69034415  0.14365429  0.03258492  1
  C  C72  1  0.45765776  0.12427465  0.52078703  1
  C  C73  1  0.66759507  0.53086428  0.52692889  1
  C  C74  1  0.85645291  0.32556983  0.52804674  1
  C  C75  1  0.55350096  0.68585881  0.96611731  1
  C  C76  1  0.13023095  0.44774081  0.97379879  1
  C  C77  1  0.31721797  0.88278889  0.98421455  1
  C  C78  1  0.57545001  0.87298947  0.47183327  1
  C  C79  1  0.30039897  0.43029236  0.46438646  1
  C  C80  1  0.12540653  0.69804354  0.47326974  1
  C  C81  1  0.11586553  0.63918518  0.36175197  1
  C  C82  1  0.52443246  0.88094269  0.36027963  1
  C  C83  1  0.35559811  0.46691330  0.35748012  1
  C  C84  1  0.09190280  0.45470504  0.86130971  1
  C  C85  1  0.37122777  0.89709630  0.87249173  1
  C  C86  1  0.55022949  0.63519780  0.85967164  1
  C  C87  1  0.00391283  0.82530279  0.40677491  1
  C  C88  1  0.82305832  0.00007567  0.40527795  1
  C  C89  1  0.18313671  0.18766991  0.40455605  1
  C  C90  1  0.98861749  0.17652715  0.91951711  1
  C  C91  1  0.17891159  0.99638071  0.91972349  1
  C  C92  1  0.81557412  0.80249877  0.91500978  1
  C  C93  1  0.97864092  0.18140393  0.57666698  1
  C  C94  1  0.19470857  0.01052275  0.57379901  1
  C  C95  1  0.83444249  0.81254333  0.57430241  1
  C  C96  1  0.97609646  0.80113675  0.08866461  1
  C  C97  1  0.82805074  0.02780248  0.08965768  1
  C  C98  1  0.18594447  0.16087441  0.08767772  1
  C  C99  1  0.67645629  0.15882989  0.75106701  1
  C  C100  1  0.48566513  0.34861896  0.75271711  1
  C  C101  1  0.84079297  0.52228628  0.75090995  1
  C  C102  1  0.69028271  0.53735305  0.24446975  1
  C  C103  1  0.84545556  0.32703280  0.24479154  1
  C  C104  1  0.47948814  0.15771333  0.24727616  1
  C  C105  1  0.65255467  0.50316492  0.92549530  1
  C  C106  1  0.84037709  0.34598285  0.92634328  1
  C  C107  1  0.49596922  0.16213890  0.92739849  1
  C  C108  1  0.65651832  0.15116556  0.41685271  1
  C  C109  1  0.48568392  0.34396053  0.41574175  1
  C  C110  1  0.84548563  0.50864012  0.41847446  1
  C  C111  1  0.33435934  0.47699267  0.08918313  1
  C  C112  1  0.12462873  0.64461713  0.08797145  1
  C  C113  1  0.52057813  0.87895717  0.08718613  1
  C  C114  1  0.34721978  0.86003496  0.57680969  1
  C  C115  1  0.51679249  0.66660627  0.58170201  1
  C  C116  1  0.12891949  0.48823989  0.57705638  1
  C  C117  1  0.32192658  0.84087949  0.25536554  1
  C  C118  1  0.53460937  0.68623652  0.25271963  1
  C  C119  1  0.16418619  0.47958757  0.25468745  1
  C  C120  1  0.31505397  0.48033116  0.74902543  1
  C  C121  1  0.14310266  0.65491010  0.74702222  1
  C  C122  1  0.51741326  0.83470555  0.74723118  1
