# generated using pymatgen
data_Cu3Ni3C35
_symmetry_space_group_name_H-M   'P 1'
_cell_length_a   8.94387671
_cell_length_b   8.91820406
_cell_length_c   21.91232876
_cell_angle_alpha   90.02591597
_cell_angle_beta   90.15626888
_cell_angle_gamma   120.09360613
_symmetry_Int_Tables_number   1
_chemical_formula_structural   Cu3Ni3C35
_chemical_formula_sum   'Cu9 Ni9 C105'
_cell_volume   1512.20052258
_cell_formula_units_Z   3
loop_
 _symmetry_equiv_pos_site_id
 _symmetry_equiv_pos_as_xyz
  1  'x, y, z'
loop_
 _atom_site_type_symbol
 _atom_site_label
 _atom_site_symmetry_multiplicity
 _atom_site_fract_x
 _atom_site_fract_y
 _atom_site_fract_z
 _atom_site_occupancy
  C  C0  1  0.62856516  0.99824071  0.25209659  1
  C  C1  1  0.36942721  0.37186779  0.25166748  1
  C  C2  1  0.00221595  0.63244316  0.25345466  1
  C  C3  1  0.64022078  0.62897853  0.74374990  1
  C  C4  1  0.99468327  0.35734016  0.74268978  1
  C  C5  1  0.29591278  0.33971011  0.58443573  1
  C  C6  1  0.03746651  0.70221247  0.58290764  1
  C  C7  1  0.66621651  0.96124205  0.58086417  1
  C  C8  1  0.29881503  0.96353074  0.08430450  1
  C  C9  1  0.66177225  0.70097862  0.08537787  1
  C  C10  1  0.04079154  0.33234338  0.08191648  1
  C  C11  1  0.32279675  0.29529060  0.91308251  1
  C  C12  1  0.97496132  0.29758757  0.41558790  1
  C  C13  1  0.32499868  0.02609700  0.41494345  1
  C  C14  1  0.70049764  0.67556765  0.41530771  1
  C  C15  1  0.99806650  0.00044918  0.49967974  1
  C  C16  1  0.99014761  0.99546396  0.99632671  1
  C  C17  1  0.66419501  0.32213836  0.82724338  1
  C  C18  1  0.66548470  0.33227328  0.33092440  1
  C  C19  1  0.33652094  0.66677034  0.16650716  1
  C  C20  1  0.33494826  0.67291462  0.65962445  1
  C  C21  1  0.66924667  0.32868719  0.97872772  1
  C  C22  1  0.67077287  0.33678254  0.47987131  1
  C  C23  1  0.32852889  0.66544905  0.81201673  1
  C  C24  1  0.99810114  0.99874416  0.35387171  1
  C  C25  1  0.00232483  0.00740031  0.85121617  1
  C  C26  1  0.99835272  0.00465590  0.64746353  1
  C  C27  1  0.00143343  0.00588226  0.14693090  1
  C  C28  1  0.65885901  0.33157750  0.68371650  1
  C  C29  1  0.66054984  0.32906008  0.18165674  1
  C  C30  1  0.33833342  0.66321811  0.01820247  1
  C  C31  1  0.33247768  0.66030846  0.51617276  1
  C  C32  1  0.33207674  0.66516785  0.32079453  1
  Ni  Ni33  1  0.29383521  0.28017419  0.75019367  1
  Ni  Ni34  1  0.96054517  0.33511620  0.58789978  1
  Ni  Ni35  1  0.66681759  0.63064504  0.58696803  1
  Ni  Ni36  1  0.66448691  0.03610734  0.08650104  1
  Ni  Ni37  1  0.37329964  0.33388607  0.08529515  1
  Ni  Ni38  1  0.04041980  0.37084074  0.91876039  1
  Ni  Ni39  1  0.62115812  0.95216895  0.41551985  1
  Ni  Ni40  1  0.32975453  0.37525198  0.41502615  1
  Ni  Ni41  1  0.04883122  0.67049964  0.41583949  1
  Cu  Cu42  1  0.28910251  0.99939034  0.24905477  1
  Cu  Cu43  1  0.71137949  0.70945054  0.24846233  1
  Cu  Cu44  1  0.99980325  0.29297900  0.24921627  1
  Cu  Cu45  1  0.00100004  0.71882289  0.75043200  1
  Cu  Cu46  1  0.71222826  0.00324568  0.74996889  1
  Cu  Cu47  1  0.37679119  0.04210348  0.58512788  1
  Cu  Cu48  1  0.95683349  0.62301611  0.08568676  1
  Cu  Cu49  1  0.63197975  0.67554901  0.91761663  1
  Cu  Cu50  1  0.32693987  0.95096330  0.91974092  1
  C  C51  1  0.20555206  0.02906328  0.30610173  1
  C  C52  1  0.82366884  0.79265678  0.30611593  1
  C  C53  1  0.96727449  0.17795865  0.30605215  1
  C  C54  1  0.20914593  0.17769093  0.81288689  1
  C  C55  1  0.96976559  0.80351202  0.80568745  1
  C  C56  1  0.82810131  0.03351869  0.80551630  1
  C  C57  1  0.77874987  0.95560517  0.69187889  1
  C  C58  1  0.16605114  0.20754379  0.69082944  1
  C  C59  1  0.03120081  0.82162904  0.69096146  1
  C  C60  1  0.79600471  0.82234391  0.19098087  1
  C  C61  1  0.03065750  0.21140204  0.19133193  1
  C  C62  1  0.17627981  0.96969679  0.19117739  1
  C  C63  1  0.86901515  0.36701789  0.64656929  1
  C  C64  1  0.49585611  0.12703576  0.63985914  1
  C  C65  1  0.62723775  0.50552666  0.64558310  1
  C  C66  1  0.87784989  0.50860414  0.14294413  1
  C  C67  1  0.62645772  0.12094292  0.14606098  1
  C  C68  1  0.49934774  0.37702534  0.14450801  1
  C  C69  1  0.47004890  0.30416161  0.02514239  1
  C  C70  1  0.83351793  0.52943449  0.02965501  1
  C  C71  1  0.70047435  0.17187839  0.02812509  1
  C  C72  1  0.46316523  0.15681239  0.52662613  1
  C  C73  1  0.69488548  0.53242934  0.52645493  1
  C  C74  1  0.83373041  0.30340263  0.52715910  1
  C  C75  1  0.55094420  0.69941441  0.97593232  1
  C  C76  1  0.16304866  0.46129562  0.97774733  1
  C  C77  1  0.31050476  0.84892261  0.97761850  1
  C  C78  1  0.54005370  0.83386244  0.47585998  1
  C  C79  1  0.28946778  0.45278487  0.47576345  1
  C  C80  1  0.16739034  0.70788854  0.47620176  1
  C  C81  1  0.11993067  0.62002266  0.35516386  1
  C  C82  1  0.50000027  0.87902183  0.35440303  1
  C  C83  1  0.38035018  0.49895469  0.35472052  1
  C  C84  1  0.13853852  0.49611676  0.85840699  1
  C  C85  1  0.35793249  0.86314066  0.86330939  1
  C  C86  1  0.50776427  0.64253209  0.86143184  1
  C  C87  1  0.01775831  0.83491683  0.40934832  1
  C  C88  1  0.81586352  0.98093346  0.40912383  1
  C  C89  1  0.16304153  0.18095206  0.40812422  1
  C  C90  1  0.02324814  0.18197737  0.91189158  1
  C  C91  1  0.17193995  0.97717918  0.91314021  1
  C  C92  1  0.81138206  0.82834680  0.90859011  1
  C  C93  1  0.97353877  0.15841646  0.58780769  1
  C  C94  1  0.19846642  0.03035618  0.58788396  1
  C  C95  1  0.84740629  0.81701868  0.58903766  1
  C  C96  1  0.96831151  0.80119774  0.08845648  1
  C  C97  1  0.83857906  0.02045017  0.08863446  1
  C  C98  1  0.18551400  0.15524877  0.08848689  1
  C  C99  1  0.69378260  0.16459115  0.74420711  1
  C  C100  1  0.49188020  0.31868355  0.74586932  1
  C  C101  1  0.84695790  0.53056242  0.74808617  1
  C  C102  1  0.69482193  0.52590585  0.24504688  1
  C  C103  1  0.83590977  0.31333039  0.24457450  1
  C  C104  1  0.47286474  0.16588369  0.24592754  1
  C  C105  1  0.63300069  0.49889793  0.92149672  1
  C  C106  1  0.85100971  0.36101794  0.92158797  1
  C  C107  1  0.49480825  0.13858504  0.92230757  1
  C  C108  1  0.64177750  0.14758468  0.42263825  1
  C  C109  1  0.50304705  0.35367096  0.42280770  1
  C  C110  1  0.85255873  0.49477388  0.42265600  1
  C  C111  1  0.35251004  0.50484599  0.07890174  1
  C  C112  1  0.13630748  0.64331304  0.07796789  1
  C  C113  1  0.49066133  0.84845458  0.07697586  1
  C  C114  1  0.35738572  0.86186075  0.57877114  1
  C  C115  1  0.49664511  0.65103374  0.57925358  1
  C  C116  1  0.14864138  0.50949587  0.58036241  1
  C  C117  1  0.30819833  0.83514993  0.25249485  1
  C  C118  1  0.52870726  0.69047340  0.25180597  1
  C  C119  1  0.16530265  0.47587479  0.25338616  1
  C  C120  1  0.31547821  0.48478778  0.75719177  1
  C  C121  1  0.16801965  0.69750131  0.75739121  1
  C  C122  1  0.52777596  0.83665958  0.75902225  1
