# generated using pymatgen
data_CuNi2C33
_symmetry_space_group_name_H-M   'P 1'
_cell_length_a   8.96375403
_cell_length_b   8.96992025
_cell_length_c   23.66917892
_cell_angle_alpha   89.81817505
_cell_angle_beta   90.13594640
_cell_angle_gamma   120.01918305
_symmetry_Int_Tables_number   1
_chemical_formula_structural   CuNi2C33
_chemical_formula_sum   'Cu3 Ni6 C99'
_cell_volume   1647.80565876
_cell_formula_units_Z   3
loop_
 _symmetry_equiv_pos_site_id
 _symmetry_equiv_pos_as_xyz
  1  'x, y, z'
loop_
 _atom_site_type_symbol
 _atom_site_label
 _atom_site_symmetry_multiplicity
 _atom_site_fract_x
 _atom_site_fract_y
 _atom_site_fract_z
 _atom_site_occupancy
  Ni  Ni0  1  0.00057202  0.99115507  0.50797863  1
  Ni  Ni1  1  0.00855924  0.99747272  0.00348786  1
  Ni  Ni2  1  0.66246904  0.32573779  0.83058623  1
  Ni  Ni3  1  0.66778596  0.33202254  0.33895296  1
  Ni  Ni4  1  0.32768873  0.66088137  0.17007195  1
  Ni  Ni5  1  0.34586300  0.66968462  0.66341700  1
  Cu  Cu6  1  0.99817669  0.99964520  0.64753148  1
  Cu  Cu7  1  0.00462018  0.99981335  0.14380961  1
  Cu  Cu8  1  0.33265817  0.66761924  0.31979066  1
  C  C9  1  0.00159152  0.00046423  0.35788747  1
  C  C10  1  0.00181341  0.00846344  0.85200123  1
  C  C11  1  0.65060981  0.32379127  0.68482110  1
  C  C12  1  0.66859107  0.34202456  0.18441602  1
  C  C13  1  0.66470010  0.33805269  0.97715508  1
  C  C14  1  0.66149561  0.33435593  0.48090859  1
  C  C15  1  0.32815653  0.66088354  0.01838493  1
  C  C16  1  0.34071862  0.67171184  0.51636381  1
  C  C17  1  0.33884035  0.66858315  0.81614106  1
  C  C18  1  0.29555554  0.29728104  0.75061285  1
  C  C19  1  0.70470958  0.00279934  0.75044854  1
  C  C20  1  0.37537574  0.03631760  0.58124823  1
  C  C21  1  0.66126102  0.62140850  0.58217537  1
  C  C22  1  0.95743322  0.61892413  0.08065463  1
  C  C23  1  0.38085706  0.33952153  0.08089054  1
  C  C24  1  0.62684363  0.67182012  0.91743002  1
  C  C25  1  0.04225253  0.37564860  0.91652583  1
  C  C26  1  0.33048496  0.95529475  0.91720090  1
  C  C27  1  0.63081612  0.96609993  0.41633264  1
  C  C28  1  0.33344740  0.37207626  0.41663851  1
  C  C29  1  0.03715630  0.66445523  0.41714921  1
  C  C30  1  0.29880744  0.00538390  0.24934632  1
  C  C31  1  0.70774602  0.70490619  0.24924384  1
  C  C32  1  0.99420720  0.29130852  0.24896057  1
  C  C33  1  0.99904100  0.70208999  0.75186953  1
  C  C34  1  0.95861603  0.34115232  0.58252386  1
  C  C35  1  0.65975952  0.04364262  0.08167368  1
  C  C36  1  0.21208686  0.02530990  0.30075854  1
  C  C37  1  0.81424811  0.79042089  0.30066577  1
  C  C38  1  0.97535638  0.18508242  0.30054367  1
  C  C39  1  0.20487452  0.18013658  0.80345180  1
  C  C40  1  0.97582221  0.78887942  0.80217535  1
  C  C41  1  0.82122522  0.02407904  0.80323874  1
  C  C42  1  0.77102188  0.96513975  0.69746159  1
  C  C43  1  0.19436840  0.22724748  0.69723592  1
  C  C44  1  0.03052102  0.80168664  0.70046802  1
  C  C45  1  0.78998183  0.80218570  0.19811585  1
  C  C46  1  0.00953212  0.20842026  0.19801389  1
  C  C47  1  0.19959202  0.98863095  0.19843830  1
  C  C48  1  0.87317179  0.35778470  0.63429472  1
  C  C49  1  0.48500737  0.12561770  0.63628216  1
  C  C50  1  0.64439432  0.51095775  0.63632907  1
  C  C51  1  0.86901919  0.50992340  0.13529467  1
  C  C52  1  0.64110600  0.12744205  0.13357980  1
  C  C53  1  0.48952760  0.35629364  0.13523171  1
  C  C54  1  0.47925970  0.32634029  0.02921859  1
  C  C55  1  0.84823255  0.51662577  0.02907357  1
  C  C56  1  0.67359684  0.14659834  0.03091635  1
  C  C57  1  0.47922771  0.14670293  0.53054942  1
  C  C58  1  0.67217275  0.52224396  0.53073109  1
  C  C59  1  0.85574443  0.32865550  0.53189383  1
  C  C60  1  0.53866206  0.69388726  0.97004047  1
  C  C61  1  0.15385932  0.46130367  0.96972974  1
  C  C62  1  0.30757097  0.84404812  0.97020817  1
  C  C63  1  0.54210287  0.84714435  0.46848425  1
  C  C64  1  0.30630614  0.46096121  0.46866756  1
  C  C65  1  0.15576557  0.69341939  0.46897302  1
  C  C66  1  0.10145365  0.63035280  0.36297998  1
  C  C67  1  0.52891903  0.90067113  0.36276841  1
  C  C68  1  0.36779065  0.47151641  0.36262742  1
  C  C69  1  0.12780203  0.48798825  0.86444675  1
  C  C70  1  0.35702279  0.87001535  0.86502587  1
  C  C71  1  0.51426429  0.64382276  0.86496702  1
  C  C72  1  0.02017328  0.83074379  0.41088642  1
  C  C73  1  0.81221672  0.98028722  0.41024633  1
  C  C74  1  0.16774684  0.18901316  0.41091548  1
  C  C75  1  0.02533802  0.19623169  0.91002677  1
  C  C76  1  0.16961862  0.97389065  0.90958517  1
  C  C77  1  0.80668101  0.83068562  0.90965822  1
  C  C78  1  0.97616028  0.18813969  0.58424951  1
  C  C79  1  0.20083643  0.02247364  0.58281279  1
  C  C80  1  0.81904360  0.79848679  0.58326409  1
  C  C81  1  0.97155651  0.79371929  0.08172298  1
  C  C82  1  0.81193352  0.02528629  0.08440407  1
  C  C83  1  0.20297845  0.18289748  0.08206819  1
  C  C84  1  0.69062685  0.16898972  0.74606322  1
  C  C85  1  0.47913076  0.31617570  0.74670979  1
  C  C86  1  0.84254909  0.52763600  0.74737620  1
  C  C87  1  0.69743498  0.52952814  0.24564725  1
  C  C88  1  0.83022807  0.30147912  0.24506600  1
  C  C89  1  0.47305661  0.16833534  0.24509935  1
  C  C90  1  0.64450182  0.50893789  0.92327252  1
  C  C91  1  0.86155254  0.35387290  0.92371304  1
  C  C92  1  0.49244449  0.13529513  0.92428570  1
  C  C93  1  0.66437719  0.14909584  0.42836896  1
  C  C94  1  0.48480920  0.33876814  0.42720242  1
  C  C95  1  0.85431036  0.51324836  0.42873507  1
  C  C96  1  0.37506171  0.50979742  0.07660334  1
  C  C97  1  0.13684681  0.63117873  0.07662664  1
  C  C98  1  0.49956977  0.87192876  0.07773697  1
  C  C99  1  0.36602543  0.85885865  0.57677015  1
  C  C100  1  0.49070162  0.62709521  0.57710569  1
  C  C101  1  0.12989273  0.50118589  0.57797083  1
  C  C102  1  0.32487068  0.85727395  0.25384390  1
  C  C103  1  0.53293197  0.67647897  0.25364136  1
  C  C104  1  0.14209054  0.46606883  0.25331944  1
  C  C105  1  0.32207823  0.47937973  0.76280438  1
  C  C106  1  0.15044549  0.67824945  0.76159977  1
  C  C107  1  0.52028928  0.84925795  0.76308615  1
