# generated using pymatgen
data_Cu3Ni2C31
_symmetry_space_group_name_H-M   'P 1'
_cell_length_a   8.78741762
_cell_length_b   8.78233722
_cell_length_c   23.13283767
_cell_angle_alpha   90.08714781
_cell_angle_beta   89.92434105
_cell_angle_gamma   120.01519349
_symmetry_Int_Tables_number   1
_chemical_formula_structural   Cu3Ni2C31
_chemical_formula_sum   'Cu9 Ni6 C93'
_cell_volume   1545.83741243
_cell_formula_units_Z   3
loop_
 _symmetry_equiv_pos_site_id
 _symmetry_equiv_pos_as_xyz
  1  'x, y, z'
loop_
 _atom_site_type_symbol
 _atom_site_label
 _atom_site_symmetry_multiplicity
 _atom_site_fract_x
 _atom_site_fract_y
 _atom_site_fract_z
 _atom_site_occupancy
  Ni  Ni0  1  0.99436187  0.99269823  0.49924945  1
  Ni  Ni1  1  0.00520483  0.99993102  0.99749397  1
  Ni  Ni2  1  0.66687362  0.33193040  0.82907054  1
  Ni  Ni3  1  0.67916967  0.33900910  0.33129807  1
  Ni  Ni4  1  0.32864736  0.65505169  0.15948198  1
  Ni  Ni5  1  0.33382858  0.66634843  0.66763029  1
  Cu  Cu6  1  0.98518972  0.99245583  0.35221559  1
  Cu  Cu7  1  0.00106161  0.00054739  0.85212053  1
  Cu  Cu8  1  0.99953121  0.99924304  0.65417841  1
  Cu  Cu9  1  0.99725869  0.00255905  0.14514632  1
  Cu  Cu10  1  0.66663588  0.33374509  0.68974531  1
  Cu  Cu11  1  0.67599267  0.34785149  0.18554573  1
  Cu  Cu12  1  0.67486479  0.33348720  0.47766503  1
  Cu  Cu13  1  0.32768572  0.66017175  0.01871157  1
  Cu  Cu14  1  0.33467266  0.67477629  0.51808628  1
  C  C15  1  0.66434424  0.34049725  0.97794092  1
  C  C16  1  0.33114387  0.66684728  0.31310537  1
  C  C17  1  0.33217580  0.66695784  0.81454922  1
  C  C18  1  0.70711641  0.70829947  0.25048246  1
  C  C19  1  0.99833781  0.28871844  0.25104866  1
  C  C20  1  0.29138741  0.29334174  0.75112823  1
  C  C21  1  0.00161648  0.70859691  0.75116514  1
  C  C22  1  0.70683763  0.99829030  0.75132963  1
  C  C23  1  0.95795790  0.62547721  0.08282622  1
  C  C24  1  0.37691008  0.33254762  0.08404188  1
  C  C25  1  0.62207379  0.67028081  0.91771512  1
  C  C26  1  0.04204566  0.37581832  0.91758922  1
  C  C27  1  0.33399442  0.95556994  0.91849807  1
  C  C28  1  0.62114186  0.95602209  0.41701425  1
  C  C29  1  0.04472087  0.66972580  0.41689373  1
  C  C30  1  0.29187779  -0.00015673  0.25101467  1
  C  C31  1  0.95997957  0.33175986  0.58306687  1
  C  C32  1  0.37419679  0.04394074  0.58282237  1
  C  C33  1  0.66699637  0.62514599  0.58255468  1
  C  C34  1  0.66521501  0.04661750  0.08251080  1
  C  C35  1  0.33322692  0.37761526  0.41646476  1
  C  C36  1  0.21076521  0.02217576  0.30341187  1
  C  C37  1  0.81739086  0.79176014  0.30460830  1
  C  C38  1  0.98066206  0.18240189  0.30525186  1
  C  C39  1  0.20823018  0.18259719  0.80454239  1
  C  C40  1  0.97425019  0.79185053  0.80464250  1
  C  C41  1  0.81772145  0.02576402  0.80459874  1
  C  C42  1  0.78145125  0.96147963  0.69597984  1
  C  C43  1  0.17993900  0.21831251  0.69595816  1
  C  C44  1  0.03869284  0.81996930  0.69597976  1
  C  C45  1  0.78405285  0.82068428  0.19634562  1
  C  C46  1  0.03766566  0.21523346  0.19647746  1
  C  C47  1  0.18501836  0.96509722  0.19906503  1
  C  C48  1  0.87612728  0.35570091  0.63482936  1
  C  C49  1  0.48037632  0.12730960  0.63482452  1
  C  C50  1  0.64519747  0.51954553  0.63466317  1
  C  C51  1  0.87345572  0.51362436  0.13677119  1
  C  C52  1  0.64403405  0.12759195  0.13528883  1
  C  C53  1  0.48676494  0.35163784  0.13743918  1
  C  C54  1  0.47658154  0.31436786  0.02864344  1
  C  C55  1  0.83867139  0.52234585  0.02849836  1
  C  C56  1  0.68538498  0.15619640  0.03003904  1
  C  C57  1  0.46014913  0.14834055  0.53034621  1
  C  C58  1  0.68680728  0.53868022  0.53012610  1
  C  C59  1  0.85347351  0.31098099  0.53051967  1
  C  C60  1  0.53694072  0.69030824  0.97151589  1
  C  C61  1  0.15100989  0.46095803  0.97095340  1
  C  C62  1  0.31229947  0.84734371  0.97161270  1
  C  C63  1  0.53616053  0.84415013  0.47069985  1
  C  C64  1  0.30879557  0.45929437  0.46838641  1
  C  C65  1  0.15370838  0.68825979  0.47054997  1
  C  C66  1  0.14199714  0.64678809  0.36266483  1
  C  C67  1  0.50416137  0.85574018  0.36292668  1
  C  C68  1  0.35477046  0.48929996  0.36391362  1
  C  C69  1  0.13164827  0.49553096  0.86325927  1
  C  C70  1  0.36311027  0.86662285  0.86357927  1
  C  C71  1  0.50376394  0.63809601  0.86330322  1
  C  C72  1  0.03225213  0.83569403  0.40936494  1
  C  C73  1  0.80430033  0.97717265  0.41093226  1
  C  C74  1  0.17753449  0.20332285  0.40902638  1
  C  C75  1  0.01566504  0.19289984  0.90937926  1
  C  C76  1  0.17858745  0.98379651  0.90990699  1
  C  C77  1  0.80661303  0.82342427  0.90972978  1
  C  C78  1  0.97645790  0.17215404  0.58752390  1
  C  C79  1  0.19681391  0.02460160  0.58736398  1
  C  C80  1  0.82599548  0.80247412  0.58711836  1
  C  C81  1  0.96482994  0.80351301  0.08579347  1
  C  C82  1  0.82791303  0.03462147  0.08517213  1
  C  C83  1  0.19594955  0.16361378  0.08582185  1
  C  C84  1  0.67763008  0.15579738  0.74331834  1
  C  C85  1  0.47801647  0.32250206  0.74325256  1
  C  C86  1  0.84439903  0.52188848  0.74327412  1
  C  C87  1  0.67491776  0.52023500  0.24577052  1
  C  C88  1  0.83976128  0.31551345  0.24553389  1
  C  C89  1  0.47129836  0.14924576  0.24517254  1
  C  C90  1  0.63394007  0.49525643  0.92401502  1
  C  C91  1  0.85755277  0.36354509  0.92489004  1
  C  C92  1  0.50741978  0.14066731  0.92531461  1
  C  C93  1  0.62982856  0.13536248  0.41976457  1
  C  C94  1  0.49524953  0.36712514  0.41979999  1
  C  C95  1  0.86296164  0.50122290  0.41965070  1
  C  C96  1  0.36304967  0.49850384  0.07730870  1
  C  C97  1  0.13996203  0.64486570  0.07655268  1
  C  C98  1  0.50954858  0.87114120  0.07668447  1
  C  C99  1  0.35618337  0.86537236  0.57837507  1
  C  C100  1  0.50676922  0.64202097  0.57743333  1
  C  C101  1  0.13730301  0.49058915  0.57733901  1
  C  C102  1  0.30940088  0.83518783  0.25921075  1
  C  C103  1  0.51962797  0.68983782  0.26196398  1
  C  C104  1  0.16705203  0.47896258  0.26211487  1
  C  C105  1  0.31049722  0.48052142  0.76087646  1
  C  C106  1  0.16967886  0.68950418  0.76067787  1
  C  C107  1  0.51953446  0.83008334  0.76095550  1
