# generated using pymatgen
data_Cu24NiC11
_symmetry_space_group_name_H-M   'P 1'
_cell_length_a   8.90340179
_cell_length_b   8.93011756
_cell_length_c   23.02497310
_cell_angle_alpha   90.03301017
_cell_angle_beta   90.04297845
_cell_angle_gamma   120.07110779
_symmetry_Int_Tables_number   1
_chemical_formula_structural   Cu24NiC11
_chemical_formula_sum   'Cu72 Ni3 C33'
_cell_volume   1584.27619214
_cell_formula_units_Z   3
loop_
 _symmetry_equiv_pos_site_id
 _symmetry_equiv_pos_as_xyz
  1  'x, y, z'
loop_
 _atom_site_type_symbol
 _atom_site_label
 _atom_site_symmetry_multiplicity
 _atom_site_fract_x
 _atom_site_fract_y
 _atom_site_fract_z
 _atom_site_occupancy
  C  C0  1  0.00133445  0.99773672  0.50155619  1
  C  C1  1  0.00382106  0.99723400  0.99722163  1
  C  C2  1  0.66364508  0.32767332  0.82983601  1
  C  C3  1  0.67007490  0.33408829  0.33972060  1
  C  C4  1  0.33077025  0.65864112  0.16799174  1
  C  C5  1  0.33558493  0.66562643  0.66368003  1
  C  C6  1  0.98432280  0.99685043  0.35979697  1
  C  C7  1  0.00566084  0.01389725  0.85615587  1
  C  C8  1  0.99561121  0.01134476  0.64158340  1
  C  C9  1  0.99904614  0.00364750  0.14541850  1
  C  C10  1  0.65694457  0.32306345  0.68514174  1
  C  C11  1  0.67959267  0.35622912  0.18932515  1
  C  C12  1  0.66012704  0.34325975  0.97454655  1
  C  C13  1  0.66790862  0.33580872  0.47880349  1
  C  C14  1  0.32421234  0.65611782  0.01878521  1
  C  C15  1  0.33321299  0.66586342  0.52246802  1
  C  C16  1  0.33261746  0.65513427  0.31580904  1
  C  C17  1  0.34160010  0.66703121  0.81218842  1
  C  C18  1  0.71050127  0.71980343  0.25078741  1
  C  C19  1  0.00013017  0.28833363  0.25054036  1
  C  C20  1  0.28970755  0.28904780  0.74942178  1
  C  C21  1  0.71311180  0.00315021  0.74980301  1
  C  C22  1  0.95306825  0.33960468  0.58316297  1
  C  C23  1  0.37561260  0.04238512  0.58159977  1
  C  C24  1  0.66698071  0.61989698  0.58381939  1
  C  C25  1  0.95804953  0.62522057  0.08195109  1
  C  C26  1  0.37985851  0.33481928  0.08369887  1
  C  C27  1  0.62363077  0.67485658  0.91697579  1
  C  C28  1  0.04281534  0.38076602  0.91488449  1
  C  C29  1  0.33171229  0.95038820  0.91651925  1
  C  C30  1  0.61106249  0.95410013  0.41730642  1
  C  C31  1  0.33457744  0.37580567  0.41872778  1
  C  C32  1  0.04672648  0.66649601  0.41680360  1
  Ni  Ni33  1  0.28891642  0.00056354  0.24946915  1
  Ni  Ni34  1  -0.00005325  0.71312610  0.75022378  1
  Ni  Ni35  1  0.66530686  0.04642922  0.08372096  1
  Cu  Cu36  1  0.21251444  0.03011283  0.30144939  1
  Cu  Cu37  1  0.83557406  0.80443874  0.30665265  1
  Cu  Cu38  1  0.97421834  0.16522044  0.30601628  1
  Cu  Cu39  1  0.19624165  0.16763029  0.80703499  1
  Cu  Cu40  1  0.97591903  0.79404854  0.80332470  1
  Cu  Cu41  1  0.83348934  0.02270985  0.80698730  1
  Cu  Cu42  1  0.80377124  0.97004929  0.69331992  1
  Cu  Cu43  1  0.16615454  0.19025047  0.69360970  1
  Cu  Cu44  1  0.02662778  0.81771590  0.69774317  1
  Cu  Cu45  1  0.81143615  0.83396911  0.19296996  1
  Cu  Cu46  1  0.02688874  0.19323683  0.19280640  1
  Cu  Cu47  1  0.18004830  0.97618397  0.19605868  1
  Cu  Cu48  1  0.86126334  0.36176480  0.64154054  1
  Cu  Cu49  1  0.49735958  0.13413709  0.64016766  1
  Cu  Cu50  1  0.63842668  0.49831635  0.64113118  1
  Cu  Cu51  1  0.86513371  0.50275377  0.14020463  1
  Cu  Cu52  1  0.64289678  0.12686464  0.13675162  1
  Cu  Cu53  1  0.50111351  0.35445295  0.14041809  1
  Cu  Cu54  1  0.47050287  0.30315671  0.02687884  1
  Cu  Cu55  1  0.83240062  0.52507855  0.02691544  1
  Cu  Cu56  1  0.69509654  0.15059221  0.03121116  1
  Cu  Cu57  1  0.46786166  0.16699692  0.52578603  1
  Cu  Cu58  1  0.69729145  0.53000188  0.52650688  1
  Cu  Cu59  1  0.83241735  0.30318607  0.52592019  1
  Cu  Cu60  1  0.53067383  0.69762576  0.97484858  1
  Cu  Cu61  1  0.16444784  0.46720009  0.97360509  1
  Cu  Cu62  1  0.30472713  0.83060533  0.97446341  1
  Cu  Cu63  1  0.52867002  0.83172216  0.47368181  1
  Cu  Cu64  1  0.29956285  0.46651292  0.47375915  1
  Cu  Cu65  1  0.16807293  0.69813674  0.47346191  1
  Cu  Cu66  1  0.13961040  0.63891314  0.35852734  1
  Cu  Cu67  1  0.49908659  0.86015468  0.35803713  1
  Cu  Cu68  1  0.36299081  0.49650839  0.35969097  1
  Cu  Cu69  1  0.13448115  0.50119292  0.85901009  1
  Cu  Cu70  1  0.36282559  0.86048025  0.85973564  1
  Cu  Cu71  1  0.50007962  0.63572035  0.85984767  1
  Cu  Cu72  1  0.02969186  0.83968745  0.40642305  1
  Cu  Cu73  1  0.80558629  0.97211713  0.40995914  1
  Cu  Cu74  1  0.16363530  0.18629235  0.40641396  1
  Cu  Cu75  1  0.02686539  0.19023706  0.91032974  1
  Cu  Cu76  1  0.16156467  0.97150946  0.90871057  1
  Cu  Cu77  1  0.81641648  0.83771088  0.90874941  1
  Cu  Cu78  1  0.97209668  0.16532177  0.58981340  1
  Cu  Cu79  1  0.18558739  0.02240648  0.59281125  1
  Cu  Cu80  1  0.83981664  0.81003825  0.59280294  1
  Cu  Cu81  1  0.97493236  0.81446748  0.09216901  1
  Cu  Cu82  1  0.82507274  0.02744998  0.08990567  1
  Cu  Cu83  1  0.18654463  0.16322636  0.09228743  1
  Cu  Cu84  1  0.69668350  0.17655085  0.74438990  1
  Cu  Cu85  1  0.48398986  0.31411135  0.74429345  1
  Cu  Cu86  1  0.84403365  0.53806545  0.74556225  1
  Cu  Cu87  1  0.68909938  0.52395035  0.24249507  1
  Cu  Cu88  1  0.82238562  0.29940422  0.24012158  1
  Cu  Cu89  1  0.46452627  0.15592462  0.24098452  1
  Cu  Cu90  1  0.63833258  0.49823322  0.92330877  1
  Cu  Cu91  1  0.85096503  0.35460603  0.92661835  1
  Cu  Cu92  1  0.50396178  0.14163706  0.92669744  1
  Cu  Cu93  1  0.64023167  0.14691196  0.42221743  1
  Cu  Cu94  1  0.50634284  0.35898258  0.42246441  1
  Cu  Cu95  1  0.85563788  0.49692916  0.42255261  1
  Cu  Cu96  1  0.36293668  0.50785218  0.07714794  1
  Cu  Cu97  1  0.15089345  0.64695944  0.07718582  1
  Cu  Cu98  1  0.51208726  0.87038287  0.07884905  1
  Cu  Cu99  1  0.35975406  0.85391056  0.57656896  1
  Cu  Cu100  1  0.49673305  0.64046535  0.57659567  1
  Cu  Cu101  1  0.14584623  0.50555470  0.57721533  1
  Cu  Cu102  1  0.30480859  0.84400766  0.25322182  1
  Cu  Cu103  1  0.51800636  0.69603623  0.25478432  1
  Cu  Cu104  1  0.16766111  0.48284521  0.25538713  1
  Cu  Cu105  1  0.30313784  0.47799687  0.75753736  1
  Cu  Cu106  1  0.15752197  0.69477487  0.75638717  1
  Cu  Cu107  1  0.51893371  0.83176084  0.75751945  1
