# generated using pymatgen
data_Cu2Ni2C35
_symmetry_space_group_name_H-M   'P 1'
_cell_length_a   17.23527336
_cell_length_b   8.70451136
_cell_length_c   21.82651406
_cell_angle_alpha   89.93096491
_cell_angle_beta   88.86961609
_cell_angle_gamma   120.29186693
_symmetry_Int_Tables_number   1
_chemical_formula_structural   Cu2Ni2C35
_chemical_formula_sum   'Cu12 Ni12 C210'
_cell_volume   2826.64968521
_cell_formula_units_Z   6
loop_
 _symmetry_equiv_pos_site_id
 _symmetry_equiv_pos_as_xyz
  1  'x, y, z'
loop_
 _atom_site_type_symbol
 _atom_site_label
 _atom_site_symmetry_multiplicity
 _atom_site_fract_x
 _atom_site_fract_y
 _atom_site_fract_z
 _atom_site_occupancy
  C  C0  1  0.18314692  0.36873733  0.24665766  1
  C  C1  1  0.68311318  0.36884723  0.24656582  1
  C  C2  1  0.99687582  0.62954727  0.25174091  1
  C  C3  1  0.49699532  0.62963323  0.25158186  1
  C  C4  1  0.49670582  0.36271030  0.75391692  1
  C  C5  1  0.18270076  0.99750785  0.74835748  1
  C  C6  1  0.68387470  0.99774171  0.74828956  1
  C  C7  1  0.65381296  0.33657472  0.58188156  1
  C  C8  1  0.01757262  0.70322799  0.58212942  1
  C  C9  1  0.83086656  0.96340499  0.58709769  1
  C  C10  1  0.48674535  0.66797504  0.91516827  1
  C  C11  1  0.98794010  0.67083865  0.91446407  1
  C  C12  1  0.85012500  0.03320344  0.91243291  1
  C  C13  1  0.16368825  0.29617686  0.91950289  1
  C  C14  1  0.48712773  0.30657315  0.41461984  1
  C  C15  1  0.98631940  0.30512252  0.41455178  1
  C  C16  1  0.35078799  0.66688546  0.41253112  1
  C  C17  1  0.85083304  0.66703779  0.41399989  1
  C  C18  1  0.01041158  0.00484527  0.49906347  1
  C  C19  1  0.50580813  0.99539455  0.49860347  1
  C  C20  1  0.00510106  0.00729257  0.00109517  1
  C  C21  1  0.50613131  0.01710366  0.99822438  1
  C  C22  1  0.33610364  0.32964483  0.83284245  1
  C  C23  1  0.83689226  0.33611181  0.82980909  1
  C  C24  1  0.33268618  0.32994158  0.33144311  1
  C  C25  1  0.83268547  0.32955576  0.33201705  1
  C  C26  1  0.17070242  0.66447180  0.16331823  1
  C  C27  1  0.67047862  0.66402274  0.16328232  1
  C  C28  1  0.17023454  0.67014164  0.66766224  1
  C  C29  1  0.66983476  0.67603317  0.66634411  1
  Ni  Ni30  1  0.00140740  0.99955601  0.35295701  1
  Ni  Ni31  1  0.50189900  0.99944002  0.35266261  1
  Ni  Ni32  1  0.99941659  0.99895947  0.85172491  1
  Ni  Ni33  1  0.49809633  0.00308102  0.85486457  1
  Ni  Ni34  1  0.33260535  0.32201959  0.68939783  1
  Ni  Ni35  1  0.83424389  0.33260089  0.68804776  1
  Ni  Ni36  1  0.33481616  0.34623505  0.18654234  1
  Ni  Ni37  1  0.83437035  0.34626158  0.18668778  1
  Ni  Ni38  1  0.16035584  0.64981980  0.01846385  1
  Ni  Ni39  1  0.65793519  0.64685140  0.01861748  1
  Ni  Ni40  1  0.16307412  0.67100713  0.51771392  1
  Ni  Ni41  1  0.66240576  0.66686930  0.52078338  1
  C  C42  1  0.35759996  0.72150661  0.25085777  1
  C  C43  1  0.85753941  0.72149477  0.25092965  1
  C  C44  1  0.99266002  0.28038848  0.25179024  1
  C  C45  1  0.49274203  0.28035547  0.25185421  1
  C  C46  1  0.99349234  0.69997116  0.75271144  1
  C  C47  1  0.49307352  0.70423810  0.75275790  1
  C  C48  1  0.35667039  0.99283239  0.75176149  1
  C  C49  1  0.85827857  0.00218824  0.75198082  1
  C  C50  1  0.19194296  0.04518448  0.58597030  1
  C  C51  1  0.68687124  0.04005386  0.58586570  1
  C  C52  1  0.83069663  0.62083991  0.58590319  1
  C  C53  1  0.18961545  0.33826424  0.08530332  1
  C  C54  1  0.68859493  0.33828206  0.08596429  1
  C  C55  1  0.02270569  0.37600834  0.91800214  1
  C  C56  1  0.52324964  0.37025884  0.91800160  1
  C  C57  1  0.16634979  0.95189206  0.91966172  1
  C  C58  1  0.66322989  0.95504676  0.92081839  1
  C  C59  1  0.16352529  0.37149294  0.42017120  1
  C  C60  1  0.66299797  0.36892505  0.41940128  1
  C  C61  1  0.02438233  0.67454314  0.41807942  1
  C  C62  1  0.52624266  0.67624596  0.41925223  1
  Cu  Cu63  1  0.99803618  0.97529040  0.64910071  1
  Cu  Cu64  1  0.49774321  0.97538404  0.65134007  1
  Cu  Cu65  1  0.00030964  0.02083606  0.14817526  1
  Cu  Cu66  1  0.49998681  0.02050683  0.14782687  1
  Cu  Cu67  1  0.32790695  0.30680199  0.98003239  1
  Cu  Cu68  1  0.82358414  0.31379022  0.97991584  1
  Cu  Cu69  1  0.32568311  0.33792316  0.47979497  1
  Cu  Cu70  1  0.82620914  0.34955654  0.48109124  1
  Cu  Cu71  1  0.16263608  0.63863396  0.31377746  1
  Cu  Cu72  1  0.66236253  0.63968671  0.31393435  1
  Cu  Cu73  1  0.16042282  0.68286807  0.81314411  1
  Cu  Cu74  1  0.66307759  0.68768520  0.81464003  1
  C  C75  1  0.14548801  0.99972686  0.24978319  1
  C  C76  1  0.64567147  0.00004568  0.24982673  1
  C  C77  1  0.14391993  0.29272648  0.74951795  1
  C  C78  1  0.64544338  0.29131588  0.75040000  1
  C  C79  1  0.47602022  0.33298109  0.58335909  1
  C  C80  1  0.97983252  0.33367510  0.58304631  1
  C  C81  1  0.33177391  0.62063301  0.58455388  1
  C  C82  1  0.47854692  0.62495936  0.08341466  1
  C  C83  1  0.97863432  0.62438329  0.08310878  1
  C  C84  1  0.33136780  0.04188239  0.08489881  1
  C  C85  1  0.83175397  0.04318246  0.08457651  1
  C  C86  1  0.30952010  0.67132869  0.91699626  1
  C  C87  1  0.80805537  0.66277587  0.91717565  1
  C  C88  1  0.30800576  0.95364604  0.41674080  1
  C  C89  1  0.80821219  0.95429232  0.41666846  1
  C  C90  1  0.10607386  0.03611890  0.30473118  1
  C  C91  1  0.60615765  0.03599802  0.30472061  1
  C  C92  1  0.41968198  0.80199181  0.31024438  1
  C  C93  1  0.91993234  0.80214179  0.31011441  1
  C  C94  1  0.48307589  0.16663542  0.31255039  1
  C  C95  1  0.98333332  0.16681019  0.31244564  1
  C  C96  1  0.10621959  0.17855899  0.80554436  1
  C  C97  1  0.60379081  0.17342990  0.80410327  1
  C  C98  1  0.48331532  0.80081122  0.81219513  1
  C  C99  1  0.98487602  0.80085975  0.81203998  1
  C  C100  1  0.42371549  0.04096646  0.80720417  1
  C  C101  1  0.91711389  0.03125438  0.81156867  1
  C  C102  1  0.40203207  0.96595868  0.68682277  1
  C  C103  1  0.90202461  0.96979250  0.68747463  1
  C  C104  1  0.08827573  0.21206907  0.69473434  1
  C  C105  1  0.58912481  0.21734807  0.69350745  1
  C  C106  1  0.02482827  0.83303523  0.69069752  1
  C  C107  1  0.52585338  0.83690466  0.69146015  1
  C  C108  1  0.40493572  0.84230989  0.18828965  1
  C  C109  1  0.90494794  0.84230930  0.18822360  1
  C  C110  1  0.02524598  0.21038427  0.19224840  1
  C  C111  1  0.52497314  0.20976352  0.19234700  1
  C  C112  1  0.08841901  0.96007550  0.19524492  1
  C  C113  1  0.58840787  0.95990314  0.19532897  1
  C  C114  1  0.43512722  0.36177789  0.63848333  1
  C  C115  1  0.93770964  0.36695954  0.63688160  1
  C  C116  1  0.25117113  0.14123602  0.64458948  1
  C  C117  1  0.74976806  0.13170503  0.64401262  1
  C  C118  1  0.31899507  0.50970712  0.63756798  1
  C  C119  1  0.81367331  0.48733974  0.64133210  1
  C  C120  1  0.43708537  0.51112783  0.13906385  1
  C  C121  1  0.93682782  0.51092925  0.13879283  1
  C  C122  1  0.31913712  0.12910610  0.13882778  1
  C  C123  1  0.81973351  0.13060914  0.13809762  1
  C  C124  1  0.24864715  0.35727683  0.14465547  1
  C  C125  1  0.74818157  0.35791571  0.14518100  1
  C  C126  1  0.23483641  0.29970537  0.02238193  1
  C  C127  1  0.73400483  0.29723902  0.02472331  1
  C  C128  1  0.42306337  0.54412427  0.02792718  1
  C  C129  1  0.92353786  0.54461156  0.02733162  1
  C  C130  1  0.35313534  0.15639812  0.02765539  1
  C  C131  1  0.85262783  0.15485744  0.02639393  1
  C  C132  1  0.23569873  0.17139993  0.52348467  1
  C  C133  1  0.73267847  0.17425016  0.52435047  1
  C  C134  1  0.35231351  0.55113326  0.52598085  1
  C  C135  1  0.85865076  0.55058302  0.52241931  1
  C  C136  1  0.42232239  0.30211636  0.52703873  1
  C  C137  1  0.92371467  0.29709626  0.52680899  1
  C  C138  1  0.26935324  0.69823597  0.97257653  1
  C  C139  1  0.76906338  0.69829277  0.97238135  1
  C  C140  1  0.08623475  0.46153653  0.97505649  1
  C  C141  1  0.58309866  0.46572601  0.97536517  1
  C  C142  1  0.14911801  0.82245818  0.97700492  1
  C  C143  1  0.65164924  0.82593765  0.97726442  1
  C  C144  1  0.26868300  0.84019491  0.47224195  1
  C  C145  1  0.77014866  0.84256081  0.47256568  1
  C  C146  1  0.15094047  0.47625986  0.47659409  1
  C  C147  1  0.64818571  0.46495073  0.47795125  1
  C  C148  1  0.08144296  0.69938118  0.47786602  1
  C  C149  1  0.58579737  0.69871277  0.47615722  1
  C  C150  1  0.06729762  0.63009931  0.35566989  1
  C  C151  1  0.56516051  0.62792355  0.35531726  1
  C  C152  1  0.25431855  0.87884492  0.36181435  1
  C  C153  1  0.75399232  0.87748076  0.36178924  1
  C  C154  1  0.19152077  0.50006411  0.35708685  1
  C  C155  1  0.69078239  0.50062243  0.35743035  1
  C  C156  1  0.06637371  0.50613910  0.85683028  1
  C  C157  1  0.56477118  0.50332888  0.85489354  1
  C  C158  1  0.18822694  0.87995539  0.85546586  1
  C  C159  1  0.69181918  0.88428228  0.85738254  1
  C  C160  1  0.25308191  0.62938862  0.86217252  1
  C  C161  1  0.75485593  0.62994287  0.86189674  1
  C  C162  1  0.00668904  0.83825679  0.40876538  1
  C  C163  1  0.50607553  0.83683208  0.40912953  1
  C  C164  1  0.39912891  0.97249575  0.41172080  1
  C  C165  1  0.89953311  0.97307239  0.41111722  1
  C  C166  1  0.07540112  0.18037187  0.40929995  1
  C  C167  1  0.57450079  0.17787011  0.40884469  1
  C  C168  1  0.00853845  0.17764325  0.90881541  1
  C  C169  1  0.50928380  0.17654651  0.90795618  1
  C  C170  1  0.07898547  0.97758677  0.90953504  1
  C  C171  1  0.57523648  0.96934953  0.90919386  1
  C  C172  1  0.40054609  0.82848170  0.91104315  1
  C  C173  1  0.90004828  0.82537160  0.91195505  1
  C  C174  1  0.48785216  0.17425124  0.58820727  1
  C  C175  1  0.98871710  0.17455279  0.58879666  1
  C  C176  1  0.09009596  0.02687786  0.59122134  1
  C  C177  1  0.58670648  0.03392553  0.59134690  1
  C  C178  1  0.41469816  0.80289335  0.58753706  1
  C  C179  1  0.92106969  0.82302401  0.58854661  1
  C  C180  1  0.48664512  0.80221469  0.08935698  1
  C  C181  1  0.98667511  0.80191788  0.08908770  1
  C  C182  1  0.41421327  0.02606704  0.08819367  1
  C  C183  1  0.91454390  0.02633674  0.08791157  1
  C  C184  1  0.08802245  0.14702654  0.09049349  1
  C  C185  1  0.58760902  0.14682736  0.09088694  1
  C  C186  1  0.34305806  0.16640622  0.74280603  1
  C  C187  1  0.83959426  0.16634732  0.74210341  1
  C  C188  1  0.23446794  0.30852524  0.74230231  1
  C  C189  1  0.73397005  0.30496587  0.74344888  1
  C  C190  1  0.40973725  0.50744301  0.73914633  1
  C  C191  1  0.90813001  0.50800759  0.74115818  1
  C  C192  1  0.34301692  0.51982897  0.24290479  1
  C  C193  1  0.84318412  0.52003471  0.24293491  1
  C  C194  1  0.40950474  0.31248336  0.23960955  1
  C  C195  1  0.90957157  0.31255687  0.23940113  1
  C  C196  1  0.23562974  0.16133287  0.24248807  1
  C  C197  1  0.73557264  0.16092157  0.24254140  1
  C  C198  1  0.32142741  0.51021870  0.92238408  1
  C  C199  1  0.82302399  0.50779371  0.92319337  1
  C  C200  1  0.42380976  0.36795583  0.92681870  1
  C  C201  1  0.92245490  0.36357433  0.92743720  1
  C  C202  1  0.25380051  0.15741264  0.92244071  1
  C  C203  1  0.75696945  0.15195217  0.92308046  1
  C  C204  1  0.32263719  0.13739645  0.42278892  1
  C  C205  1  0.82241126  0.13719597  0.42289784  1
  C  C206  1  0.25697715  0.36192699  0.42274462  1
  C  C207  1  0.75620938  0.35889504  0.42141013  1
  C  C208  1  0.42339526  0.48373986  0.42696494  1
  C  C209  1  0.92417359  0.48076723  0.42377521  1
  C  C210  1  0.17979107  0.51295480  0.07583635  1
  C  C211  1  0.67981086  0.51404526  0.07603057  1
  C  C212  1  0.06825864  0.64184100  0.07795857  1
  C  C213  1  0.56846974  0.64308876  0.07835102  1
  C  C214  1  0.25200051  0.86675922  0.07727916  1
  C  C215  1  0.75214019  0.86617877  0.07739614  1
  C  C216  1  0.17699815  0.84452050  0.57603961  1
  C  C217  1  0.67880469  0.84915390  0.57538861  1
  C  C218  1  0.25187709  0.63946860  0.57645267  1
  C  C219  1  0.74374624  0.64292288  0.57480373  1
  C  C220  1  0.06967904  0.49753035  0.57713151  1
  C  C221  1  0.56700803  0.49251384  0.57850682  1
  C  C222  1  0.15429356  0.83925318  0.25678263  1
  C  C223  1  0.65434972  0.83898197  0.25692752  1
  C  C224  1  0.25566871  0.69789490  0.25732436  1
  C  C225  1  0.75554487  0.69763957  0.25738068  1
  C  C226  1  0.08532463  0.48582274  0.25552024  1
  C  C227  1  0.58536907  0.48581340  0.25553947  1
  C  C228  1  0.15499603  0.47010954  0.75624617  1
  C  C229  1  0.65386197  0.46754530  0.75593011  1
  C  C230  1  0.08798803  0.69106064  0.75476988  1
  C  C231  1  0.58548432  0.68448924  0.75526414  1
  C  C232  1  0.25587414  0.81309956  0.75707171  1
  C  C233  1  0.75589847  0.81537927  0.75752467  1
