# generated using pymatgen
data_Cu3Ni5C74
_symmetry_space_group_name_H-M   'P 1'
_cell_length_a   18.33246325
_cell_length_b   9.10949573
_cell_length_c   22.39862253
_cell_angle_alpha   90.15914379
_cell_angle_beta   89.95645215
_cell_angle_gamma   120.20002114
_symmetry_Int_Tables_number   1
_chemical_formula_structural   Cu3Ni5C74
_chemical_formula_sum   'Cu9 Ni15 C222'
_cell_volume   3232.85655608
_cell_formula_units_Z   3
loop_
 _symmetry_equiv_pos_site_id
 _symmetry_equiv_pos_as_xyz
  1  'x, y, z'
loop_
 _atom_site_type_symbol
 _atom_site_label
 _atom_site_symmetry_multiplicity
 _atom_site_fract_x
 _atom_site_fract_y
 _atom_site_fract_z
 _atom_site_occupancy
  C  C0  1  0.19555360  0.36634623  0.24822015  1
  C  C1  1  0.68958812  0.36222761  0.24912769  1
  C  C2  1  0.99601108  0.64241662  0.24999745  1
  C  C3  1  0.49392150  0.63452794  0.24358214  1
  C  C4  1  0.31619539  0.63066027  0.74699520  1
  C  C5  1  0.81532670  0.62654285  0.73948074  1
  C  C6  1  0.19115631  0.02042676  0.74862917  1
  C  C7  1  0.69480463  0.02502786  0.74799983  1
  C  C8  1  0.15145429  0.32862175  0.57918537  1
  C  C9  1  0.66114033  0.34471111  0.58073008  1
  C  C10  1  0.01275837  0.69642494  0.57978373  1
  C  C11  1  0.52299341  0.70213865  0.58097904  1
  C  C12  1  0.32447022  0.96879999  0.58810015  1
  C  C13  1  0.82357722  0.95476586  0.58790850  1
  C  C14  1  0.15425287  0.97536718  0.08135892  1
  C  C15  1  0.64684699  0.96020748  0.07806146  1
  C  C16  1  0.82297138  0.68088262  0.08798434  1
  C  C17  1  0.02054778  0.34082578  0.08093796  1
  C  C18  1  0.52241004  0.35078313  0.08626413  1
  C  C19  1  0.49062373  0.68222107  0.92157767  1
  C  C20  1  0.98766536  0.67772815  0.91771918  1
  C  C21  1  0.84689788  0.03398526  0.90906431  1
  C  C22  1  0.16209056  0.28080585  0.91180473  1
  C  C23  1  0.66509524  0.27908544  0.91579743  1
  C  C24  1  0.49006030  0.30195137  0.41828939  1
  C  C25  1  0.98632727  0.29685753  0.42024970  1
  C  C26  1  0.16535620  0.05156685  0.41577954  1
  C  C27  1  0.66724318  0.05302970  0.41630666  1
  C  C28  1  0.34952407  0.66041108  0.40844226  1
  C  C29  1  0.84776121  0.65591675  0.41685433  1
  C  C30  1  0.00312223  0.00019831  0.49948921  1
  C  C31  1  0.51111136  0.01561782  0.49599904  1
  C  C32  1  0.00761944  0.00425083  0.99598395  1
  C  C33  1  0.50064023  0.99176393  0.99913568  1
  C  C34  1  0.33167022  0.30864208  0.82709800  1
  C  C35  1  0.82822026  0.31318966  0.82588558  1
  C  C36  1  0.32573013  0.32978284  0.32571640  1
  C  C37  1  0.82284434  0.32708730  0.32934552  1
  C  C38  1  0.18306225  0.67792350  0.16468499  1
  C  C39  1  0.66697493  0.66941875  0.16329056  1
  C  C40  1  0.16475630  0.66735979  0.66593301  1
  C  C41  1  0.67343061  0.66940476  0.66267736  1
  Ni  Ni42  1  0.00821369  0.00342593  0.34450831  1
  Ni  Ni43  1  0.50846098  0.00444820  0.34251777  1
  Ni  Ni44  1  0.00614535  0.01566285  0.84141508  1
  Ni  Ni45  1  0.50559776  0.01727386  0.84612382  1
  Ni  Ni46  1  0.32173755  0.29838250  0.68778071  1
  Ni  Ni47  1  0.81843269  0.31398299  0.68261304  1
  Ni  Ni48  1  0.32820882  0.35359351  0.18378969  1
  Ni  Ni49  1  0.81717057  0.33192710  0.18766017  1
  Ni  Ni50  1  0.81277010  0.29860441  0.98574520  1
  Ni  Ni51  1  0.31592660  0.32708437  0.48469373  1
  Ni  Ni52  1  0.81142863  0.34288803  0.49186215  1
  Ni  Ni53  1  0.17242595  0.67128067  0.01571173  1
  Ni  Ni54  1  0.65554026  0.66222447  0.02026291  1
  Ni  Ni55  1  0.16328065  0.66471506  0.51493688  1
  Ni  Ni56  1  0.67486623  0.66272837  0.51983206  1
  C  C57  1  0.15358675  0.00219167  0.25257272  1
  C  C58  1  0.65126181  0.99833364  0.25329516  1
  C  C59  1  0.35635009  0.71400118  0.25388782  1
  C  C60  1  0.85606360  0.71085784  0.25196128  1
  C  C61  1  0.14887552  0.30078180  0.75161061  1
  C  C62  1  0.64986326  0.30223879  0.75493308  1
  C  C63  1  0.35726392  0.00430325  0.75255076  1
  C  C64  1  0.85656372  0.00984811  0.75359437  1
  C  C65  1  0.18328648  0.02814432  0.58262130  1
  C  C66  1  0.68087335  0.02640931  0.58317362  1
  C  C67  1  0.83704886  0.63180693  0.58560336  1
  C  C68  1  0.47668308  0.61946074  0.08480490  1
  C  C69  1  0.18186025  0.34023223  0.08529841  1
  C  C70  1  0.68249626  0.33616661  0.08335456  1
  C  C71  1  0.16606505  0.95811988  0.92061172  1
  C  C72  1  0.66480601  0.95891731  0.91828828  1
  C  C73  1  0.16452608  0.37301786  0.41890857  1
  C  C74  1  0.66298094  0.36956468  0.41750755  1
  Cu  Cu75  1  -0.00005800  0.00500293  0.65097883  1
  Cu  Cu76  1  0.50512889  0.01739213  0.65501481  1
  Cu  Cu77  1  0.00497085  0.99763441  0.15459861  1
  Cu  Cu78  1  0.50076527  0.98037182  0.14953326  1
  Cu  Cu79  1  0.32558812  0.32279345  0.98739304  1
  Cu  Cu80  1  0.17658912  0.67690518  0.31338973  1
  Cu  Cu81  1  0.67549637  0.67427138  0.31290402  1
  Cu  Cu82  1  0.17194805  0.67651864  0.81429007  1
  Cu  Cu83  1  0.67171916  0.67429710  0.81399493  1
  C  C84  1  0.99825497  0.29602720  0.25113911  1
  C  C85  1  0.49825741  0.29184367  0.25131435  1
  C  C86  1  0.00037494  0.70237938  0.75202253  1
  C  C87  1  0.49868717  0.70149153  0.75087819  1
  C  C88  1  0.47587250  0.33199649  0.58325193  1
  C  C89  1  0.97922241  0.33465386  0.58274695  1
  C  C90  1  0.33639267  0.63052089  0.58451895  1
  C  C91  1  0.97832059  0.62321701  0.08330943  1
  C  C92  1  0.33424982  0.04017027  0.08543876  1
  C  C93  1  0.83791100  0.04579369  0.08430673  1
  C  C94  1  0.31534581  0.66725768  0.91738256  1
  C  C95  1  0.81543792  0.66723369  0.91909787  1
  C  C96  1  0.01971041  0.37669451  0.91848624  1
  C  C97  1  0.51780272  0.37155764  0.91759902  1
  C  C98  1  0.31550878  0.96489741  0.41932708  1
  C  C99  1  0.81583886  0.96584517  0.41797884  1
  C  C100  1  0.01996656  0.66329918  0.41649547  1
  C  C101  1  0.51940170  0.66242132  0.41895412  1
  C  C102  1  0.11178314  0.03914204  0.30984880  1
  C  C103  1  0.61292722  0.03842443  0.31165810  1
  C  C104  1  0.40888755  0.79834553  0.31456566  1
  C  C105  1  0.91188745  0.80036189  0.31070202  1
  C  C106  1  0.48917877  0.19455411  0.30574914  1
  C  C107  1  0.98678001  0.19397152  0.30437295  1
  C  C108  1  0.11324583  0.18308723  0.81028174  1
  C  C109  1  0.61027658  0.18025026  0.81125326  1
  C  C110  1  0.48597049  0.77787530  0.80422876  1
  C  C111  1  0.98861434  0.78184696  0.80601935  1
  C  C112  1  0.41075215  0.00879520  0.80843669  1
  C  C113  1  0.90585550  0.01572811  0.81437904  1
  C  C114  1  0.39262136  0.95498964  0.68904561  1
  C  C115  1  0.89479878  0.95972398  0.69376413  1
  C  C116  1  0.09150414  0.21687945  0.69051518  1
  C  C117  1  0.59471200  0.22992827  0.69140052  1
  C  C118  1  0.01877663  0.81430345  0.69767446  1
  C  C119  1  0.51596078  0.81284010  0.69561349  1
  C  C120  1  0.39687496  0.83582101  0.19442857  1
  C  C121  1  0.89572027  0.82642047  0.18906580  1
  C  C122  1  0.01596813  0.22073583  0.19566954  1
  C  C123  1  0.51470167  0.21529331  0.19678571  1
  C  C124  1  0.08983502  0.94920521  0.19162494  1
  C  C125  1  0.59092338  0.95424964  0.19236668  1
  C  C126  1  0.43552480  0.35639630  0.63531871  1
  C  C127  1  0.93898160  0.35710054  0.63536738  1
  C  C128  1  0.24302025  0.10501491  0.64066504  1
  C  C129  1  0.73803804  0.10180499  0.64214131  1
  C  C130  1  0.32623736  0.52911517  0.63756526  1
  C  C131  1  0.82348937  0.51631102  0.64368866  1
  C  C132  1  0.43521192  0.49722083  0.14142601  1
  C  C133  1  0.93946962  0.52198724  0.13679478  1
  C  C134  1  0.32000687  0.12094306  0.13651205  1
  C  C135  1  0.82825562  0.13113244  0.13608042  1
  C  C136  1  0.23372436  0.35849913  0.14411787  1
  C  C137  1  0.74282602  0.37757231  0.14092371  1
  C  C138  1  0.21717539  0.28553264  0.02482908  1
  C  C139  1  0.71663039  0.28442267  0.02406124  1
  C  C140  1  0.42136080  0.53476659  0.02076051  1
  C  C141  1  0.92830701  0.54573303  0.02833893  1
  C  C142  1  0.35083742  0.14614746  0.02871703  1
  C  C143  1  0.85490811  0.14787617  0.02828668  1
  C  C144  1  0.21954192  0.14561227  0.52295790  1
  C  C145  1  0.71515294  0.14267914  0.52318138  1
  C  C146  1  0.35160249  0.55715491  0.52938467  1
  C  C147  1  0.86227726  0.56763505  0.52421136  1
  C  C148  1  0.42660432  0.30475143  0.52739274  1
  C  C149  1  0.93095902  0.30763746  0.52698418  1
  C  C150  1  0.27255031  0.68504413  0.96989787  1
  C  C151  1  0.77424171  0.69094306  0.97110839  1
  C  C152  1  0.07265957  0.45379133  0.97201386  1
  C  C153  1  0.56948322  0.44878176  0.97152006  1
  C  C154  1  0.15143630  0.83969075  0.97825069  1
  C  C155  1  0.65263991  0.84149819  0.97558938  1
  C  C156  1  0.27513480  0.85921691  0.47231152  1
  C  C157  1  0.77577468  0.86093413  0.47095644  1
  C  C158  1  0.15086061  0.46234154  0.47747642  1
  C  C159  1  0.64593118  0.45710208  0.47492259  1
  C  C160  1  0.07319062  0.69333417  0.46975066  1
  C  C161  1  0.57276702  0.68968121  0.47129428  1
  C  C162  1  0.06265658  0.64216993  0.36169508  1
  C  C163  1  0.55886028  0.63748740  0.36313818  1
  C  C164  1  0.25833632  0.88820348  0.36548394  1
  C  C165  1  0.75879850  0.88787230  0.36394249  1
  C  C166  1  0.18147935  0.49613392  0.35848626  1
  C  C167  1  0.68156146  0.49415186  0.35702607  1
  C  C168  1  0.06192711  0.48571166  0.86439734  1
  C  C169  1  0.55856078  0.48459486  0.86406608  1
  C  C170  1  0.17959733  0.87362461  0.85807562  1
  C  C171  1  0.68126308  0.87096643  0.85697109  1
  C  C172  1  0.26042967  0.63082269  0.86210380  1
  C  C173  1  0.76069351  0.63300716  0.86375302  1
  C  C174  1  0.00939716  0.81393901  0.41217365  1
  C  C175  1  0.50779949  0.81225056  0.41425202  1
  C  C176  1  0.39800983  0.97621684  0.41180707  1
  C  C177  1  0.89855376  0.97599966  0.41029275  1
  C  C178  1  0.07848546  0.18440672  0.41324088  1
  C  C179  1  0.57700396  0.18089440  0.41195756  1
  C  C180  1  0.00879853  0.20427467  0.91306459  1
  C  C181  1  0.50830344  0.20378790  0.91153093  1
  C  C182  1  0.08194598  0.97819387  0.91463794  1
  C  C183  1  0.57944671  0.97468921  0.91329423  1
  C  C184  1  0.39938471  0.81129249  0.91104624  1
  C  C185  1  0.89989991  0.82202574  0.91222540  1
  C  C186  1  0.48260968  0.16973836  0.58744450  1
  C  C187  1  0.98877294  0.17661645  0.58680604  1
  C  C188  1  0.08902346  0.01624191  0.59047483  1
  C  C189  1  0.58250853  0.01198279  0.59057715  1
  C  C190  1  0.41406659  0.80686013  0.58794509  1
  C  C191  1  0.92260978  0.82887038  0.58948661  1
  C  C192  1  0.48785403  0.81306372  0.08393996  1
  C  C193  1  0.98515492  0.79913848  0.08643268  1
  C  C194  1  0.41298674  0.03031508  0.08879223  1
  C  C195  1  0.91606342  0.02605854  0.08856749  1
  C  C196  1  0.08310656  0.15553677  0.08940743  1
  C  C197  1  0.58410061  0.16433903  0.09193451  1
  C  C198  1  0.34307833  0.16512584  0.74832061  1
  C  C199  1  0.84273390  0.17019401  0.74690333  1
  C  C200  1  0.24519963  0.33534669  0.74409514  1
  C  C201  1  0.74457361  0.33159454  0.74912686  1
  C  C202  1  0.42350941  0.53528651  0.74080706  1
  C  C203  1  0.92688551  0.53619343  0.74398374  1
  C  C204  1  0.34831333  0.52758120  0.24986438  1
  C  C205  1  0.85127742  0.52714743  0.24649513  1
  C  C206  1  0.42624153  0.31656890  0.24526558  1
  C  C207  1  0.92702891  0.32144930  0.24193558  1
  C  C208  1  0.24495084  0.16687900  0.24331653  1
  C  C209  1  0.74401095  0.16306953  0.24640757  1
  C  C210  1  0.32048763  0.50518696  0.92021228  1
  C  C211  1  0.82666915  0.51624398  0.92211889  1
  C  C212  1  0.43341801  0.36362935  0.92155506  1
  C  C213  1  0.93632579  0.36532646  0.92274222  1
  C  C214  1  0.25324340  0.15552400  0.92274339  1
  C  C215  1  0.75384568  0.14557597  0.91704354  1
  C  C216  1  0.32696331  0.13818443  0.42274106  1
  C  C217  1  0.82755368  0.13865068  0.42169529  1
  C  C218  1  0.25232515  0.36253448  0.41832275  1
  C  C219  1  0.75001383  0.35744703  0.41719341  1
  C  C220  1  0.43458981  0.50431992  0.42307224  1
  C  C221  1  0.93740095  0.50490302  0.41934423  1
  C  C222  1  0.16423201  0.49682197  0.07489467  1
  C  C223  1  0.67517885  0.50755933  0.07530244  1
  C  C224  1  0.06565262  0.65250978  0.07928408  1
  C  C225  1  0.57225797  0.64882655  0.08115247  1
  C  C226  1  0.25807800  0.87056532  0.07717641  1
  C  C227  1  0.76300436  0.87351580  0.07866200  1
  C  C228  1  0.17113299  0.83563137  0.57545243  1
  C  C229  1  0.66526384  0.83361307  0.57526411  1
  C  C230  1  0.26033582  0.64895859  0.57909772  1
  C  C231  1  0.75240209  0.64997575  0.58116750  1
  C  C232  1  0.06684601  0.48486088  0.57957601  1
  C  C233  1  0.56282426  0.47887519  0.57933490  1
  C  C234  1  0.14752537  0.81167353  0.25815104  1
  C  C235  1  0.64709035  0.80985701  0.25820231  1
  C  C236  1  0.25691300  0.67869360  0.25200764  1
  C  C237  1  0.75777622  0.67805874  0.25111626  1
  C  C238  1  0.07820846  0.46788773  0.25486900  1
  C  C239  1  0.57863907  0.46639873  0.25447798  1
  C  C240  1  0.15670555  0.49166798  0.75761769  1
  C  C241  1  0.65649268  0.49182432  0.75884360  1
  C  C242  1  0.08086327  0.69427400  0.75599400  1
  C  C243  1  0.57792043  0.69076666  0.75434574  1
  C  C244  1  0.25889666  0.82767310  0.75202307  1
  C  C245  1  0.75917873  0.82968097  0.75313382  1
