# generated using pymatgen
data_Cu12Ni12C13
_symmetry_space_group_name_H-M   'P 1'
_cell_length_a   9.87808577
_cell_length_b   14.97263124
_cell_length_c   3.13365000
_cell_angle_alpha   90.00000000
_cell_angle_beta   90.00000000
_cell_angle_gamma   84.93607454
_symmetry_Int_Tables_number   1
_chemical_formula_structural   Cu12Ni12C13
_chemical_formula_sum   'Cu12 Ni12 C13'
_cell_volume   461.66076877
_cell_formula_units_Z   1
loop_
 _symmetry_equiv_pos_site_id
 _symmetry_equiv_pos_as_xyz
  1  'x, y, z'
loop_
 _atom_site_type_symbol
 _atom_site_label
 _atom_site_symmetry_multiplicity
 _atom_site_fract_x
 _atom_site_fract_y
 _atom_site_fract_z
 _atom_site_occupancy
  C  C0  1  0.25148100  0.67151200  0.50000000  1
  C  C1  1  0.00783900  0.99950600  0.00000000  1
  C  C2  1  0.98328000  0.31577000  0.00000000  1
  C  C3  1  0.97413600  0.65669300  0.00000000  1
  C  C4  1  0.21692600  0.14726300  0.50000000  1
  C  C5  1  0.22551900  0.35592300  0.50000000  1
  C  C6  1  0.29123000  0.89799500  0.50000000  1
  C  C7  1  0.53186400  0.34922200  0.00000000  1
  C  C8  1  0.53385200  0.01275200  0.00000000  1
  C  C9  1  0.55237700  0.68603800  0.00000000  1
  C  C10  1  0.75176600  0.14408400  0.50000000  1
  C  C11  1  0.72395100  0.50209000  0.50000000  1
  C  C12  1  0.73636700  0.84401300  0.50000000  1
  Ni  Ni13  1  0.08708300  0.25910400  0.50000000  1
  Ni  Ni14  1  0.10565300  0.92959500  0.50000000  1
  Ni  Ni15  1  0.15243000  0.08995700  0.00000000  1
  Ni  Ni16  1  0.12943300  0.40058200  0.00000000  1
  Ni  Ni17  1  0.37560400  0.93441500  0.00000000  1
  Ni  Ni18  1  0.40926000  0.37356000  0.50000000  1
  Ni  Ni19  1  0.61748600  0.95406400  0.50000000  1
  Ni  Ni20  1  0.60890100  0.62580000  0.50000000  1
  Ni  Ni21  1  0.65203100  0.11143600  0.00000000  1
  Ni  Ni22  1  0.64380900  0.43967800  0.00000000  1
  Ni  Ni23  1  0.65211200  0.79027200  0.00000000  1
  Ni  Ni24  1  0.90653800  0.05680900  0.50000000  1
  Cu  Cu25  1  0.09641700  0.59653500  0.50000000  1
  Cu  Cu26  1  0.15090400  0.73221000  0.00000000  1
  Cu  Cu27  1  0.30604800  0.22923500  0.00000000  1
  Cu  Cu28  1  0.36693900  0.62588800  0.00000000  1
  Cu  Cu29  1  0.40963600  0.08419500  0.50000000  1
  Cu  Cu30  1  0.37773100  0.76971800  0.50000000  1
  Cu  Cu31  1  0.62834000  0.26925000  0.50000000  1
  Cu  Cu32  1  0.85050700  0.22159000  0.00000000  1
  Cu  Cu33  1  0.85500300  0.89222200  0.00000000  1
  Cu  Cu34  1  0.84586300  0.55606300  0.00000000  1
  Cu  Cu35  1  0.88517900  0.37972800  0.50000000  1
  Cu  Cu36  1  0.88507800  0.73411600  0.50000000  1
