# generated using pymatgen
data_CuNiC18
_symmetry_space_group_name_H-M   'P 1'
_cell_length_a   9.05937510
_cell_length_b   9.05937479
_cell_length_c   22.40205037
_cell_angle_alpha   90.26670292
_cell_angle_beta   89.73329709
_cell_angle_gamma   119.98226265
_symmetry_Int_Tables_number   1
_chemical_formula_structural   CuNiC18
_chemical_formula_sum   'Cu6 Ni6 C108'
_cell_volume   1592.52474938
_cell_formula_units_Z   6
loop_
 _symmetry_equiv_pos_site_id
 _symmetry_equiv_pos_as_xyz
  1  'x, y, z'
loop_
 _atom_site_type_symbol
 _atom_site_label
 _atom_site_symmetry_multiplicity
 _atom_site_fract_x
 _atom_site_fract_y
 _atom_site_fract_z
 _atom_site_occupancy
  C  C0  1  0.00237775  0.99355223  0.49769075  1
  C  C1  1  0.00644777  0.99762225  0.99769075  1
  C  C2  1  0.66652881  0.32516087  0.83127312  1
  C  C3  1  0.67483913  0.33347119  0.33127312  1
  C  C4  1  0.35165048  0.67535415  0.16412808  1
  C  C5  1  0.32464585  0.64834952  0.66412808  1
  C  C6  1  0.36150453  0.36062139  0.24705426  1
  C  C7  1  0.99542712  0.62821482  0.24869431  1
  C  C8  1  0.63937861  0.63849547  0.74705426  1
  C  C9  1  0.37178518  0.00457288  0.74869431  1
  C  C10  1  0.03758993  0.70013853  0.57989375  1
  C  C11  1  0.65410050  0.96361428  0.58570421  1
  C  C12  1  0.29986147  0.96241007  0.07989375  1
  C  C13  1  0.03638572  0.34589950  0.08570421  1
  C  C14  1  0.97376724  0.67486569  0.91973059  1
  C  C15  1  0.69694165  0.02707341  0.91084160  1
  C  C16  1  0.97292659  0.30305835  0.41084160  1
  C  C17  1  0.32513431  0.02623276  0.41973059  1
  C  C18  1  0.99052430  0.99265559  0.35259212  1
  C  C19  1  0.00734441  0.00947570  0.85259212  1
  C  C20  1  0.66843773  0.32633032  0.68627770  1
  C  C21  1  0.67366968  0.33156227  0.18627770  1
  C  C22  1  0.33389105  0.66797789  0.01892158  1
  C  C23  1  0.33202211  0.66610895  0.51892158  1
  Ni  Ni24  1  0.00189712  0.29648479  0.25228495  1
  Ni  Ni25  1  0.70351521  0.99810288  0.75228495  1
  Ni  Ni26  1  0.36701633  0.03941006  0.58403801  1
  Ni  Ni27  1  0.96058994  0.63298367  0.08403801  1
  Ni  Ni28  1  0.33678478  0.96818950  0.91867620  1
  Ni  Ni29  1  0.03181050  0.66321522  0.41867620  1
  Cu  Cu30  1  0.00542993  0.00837113  0.64984527  1
  Cu  Cu31  1  0.99162887  0.99457007  0.14984527  1
  Cu  Cu32  1  0.66312462  0.33756006  0.98309397  1
  Cu  Cu33  1  0.66243994  0.33687538  0.48309397  1
  Cu  Cu34  1  0.33094306  0.66461902  0.31652280  1
  Cu  Cu35  1  0.33538098  0.66905694  0.81652280  1
  C  C36  1  0.29261326  0.99602185  0.25136712  1
  C  C37  1  0.70051697  0.70673155  0.25053512  1
  C  C38  1  0.29326845  0.29948303  0.75053512  1
  C  C39  1  0.00397815  0.70738674  0.75136712  1
  C  C40  1  0.95780981  0.32836344  0.58210000  1
  C  C41  1  0.67026614  0.63025360  0.58725575  1
  C  C42  1  0.67163656  0.04219019  0.08210000  1
  C  C43  1  0.36974640  0.32973386  0.08725575  1
  C  C44  1  0.62491588  0.66035362  0.91508793  1
  C  C45  1  0.03780523  0.37438911  0.91913085  1
  C  C46  1  0.62561089  0.96219477  0.41913085  1
  C  C47  1  0.33964638  0.37508412  0.41508793  1
  C  C48  1  0.20320760  0.01604735  0.30642572  1
  C  C49  1  0.81877898  0.79193919  0.30338489  1
  C  C50  1  0.98812514  0.18861460  0.31107494  1
  C  C51  1  0.20806081  0.18122102  0.80338489  1
  C  C52  1  0.98395265  0.79679240  0.80642572  1
  C  C53  1  0.81138540  0.01187486  0.81107494  1
  C  C54  1  0.78871232  0.96287799  0.69140868  1
  C  C55  1  0.18857343  0.22401572  0.69214004  1
  C  C56  1  0.04195723  0.82242302  0.69416469  1
  C  C57  1  0.77598428  0.81142657  0.19214004  1
  C  C58  1  0.03712201  0.21128768  0.19140868  1
  C  C59  1  0.17757698  0.95804277  0.19416469  1
  C  C60  1  0.86891068  0.35859340  0.63478706  1
  C  C61  1  0.48614610  0.13206614  0.64129257  1
  C  C62  1  0.65411503  0.53097731  0.64384214  1
  C  C63  1  0.86793386  0.51385390  0.14129257  1
  C  C64  1  0.64140660  0.13108932  0.13478706  1
  C  C65  1  0.46902269  0.34588497  0.14384214  1
  C  C66  1  0.45026426  0.29019948  0.03157502  1
  C  C67  1  0.85092259  0.54988905  0.02173748  1
  C  C68  1  0.70472665  0.15092495  0.02381712  1
  C  C69  1  0.45011095  0.14907741  0.52173748  1
  C  C70  1  0.70980052  0.54973574  0.53157502  1
  C  C71  1  0.84907505  0.29527335  0.52381712  1
  C  C72  1  0.52787441  0.68057061  0.96733710  1
  C  C73  1  0.13837471  0.45607387  0.97639864  1
  C  C74  1  0.31128444  0.84937672  0.97642068  1
  C  C75  1  0.54392613  0.86162529  0.47639864  1
  C  C76  1  0.31942939  0.47212559  0.46733710  1
  C  C77  1  0.15062328  0.68871556  0.47642068  1
  C  C78  1  0.11360721  0.62289145  0.35766143  1
  C  C79  1  0.50827819  0.87526181  0.36390907  1
  C  C80  1  0.36767638  0.47519443  0.35529667  1
  C  C81  1  0.12473819  0.49172181  0.86390907  1
  C  C82  1  0.37710855  0.88639279  0.85766143  1
  C  C83  1  0.52480557  0.63232362  0.85529667  1
  C  C84  1  0.02297164  0.83708930  0.41320157  1
  C  C85  1  0.80740055  0.99330248  0.41300748  1
  C  C86  1  0.17804454  0.19702835  0.41243639  1
  C  C87  1  0.00669752  0.19259945  0.91300748  1
  C  C88  1  0.16291070  0.97702836  0.91320157  1
  C  C89  1  0.80297165  0.82195546  0.91243639  1
  C  C90  1  0.96364549  0.15970440  0.58777786  1
  C  C91  1  0.17127048  0.00952749  0.58771151  1
  C  C92  1  0.83478907  0.81246980  0.58855207  1
  C  C93  1  0.99047251  0.82872952  0.08771151  1
  C  C94  1  0.84029560  0.03635451  0.08777786  1
  C  C95  1  0.18753020  0.16521093  0.08855207  1
  C  C96  1  0.67077631  0.15888384  0.74815431  1
  C  C97  1  0.47478569  0.32536144  0.74496149  1
  C  C98  1  0.84077099  0.53496342  0.74508062  1
  C  C99  1  0.67463856  0.52521431  0.24496149  1
  C  C100  1  0.84111616  0.32922369  0.24815431  1
  C  C101  1  0.46503658  0.15922901  0.24508062  1
  C  C102  1  0.65237155  0.50385460  0.91940405  1
  C  C103  1  0.85923748  0.36421364  0.92023128  1
  C  C104  1  0.51652177  0.15369986  0.92267025  1
  C  C105  1  0.63578636  0.14076252  0.42023128  1
  C  C106  1  0.49614540  0.34762845  0.41940405  1
  C  C107  1  0.84630014  0.48347823  0.42267025  1
  C  C108  1  0.34443418  0.48423877  0.07961371  1
  C  C109  1  0.15069135  0.65118013  0.08081844  1
  C  C110  1  0.51489806  0.86349391  0.07691427  1
  C  C111  1  0.34881987  0.84930865  0.58081844  1
  C  C112  1  0.51576123  0.65556582  0.57961371  1
  C  C113  1  0.13650609  0.48510194  0.57691427  1
  C  C114  1  0.31047802  0.83342045  0.25544802  1
  C  C115  1  0.52087523  0.68889985  0.25633605  1
  C  C116  1  0.18104654  0.48753276  0.25226660  1
  C  C117  1  0.31110015  0.47912477  0.75633605  1
  C  C118  1  0.16657955  0.68952198  0.75544802  1
  C  C119  1  0.51246724  0.81895346  0.75226660  1
