# generated using pymatgen
data_Cu5Ni7C66
_symmetry_space_group_name_H-M   'P 1'
_cell_length_a   17.79822624
_cell_length_b   8.88613961
_cell_length_c   22.29930924
_cell_angle_alpha   89.70669753
_cell_angle_beta   91.09601992
_cell_angle_gamma   119.80143650
_symmetry_Int_Tables_number   1
_chemical_formula_structural   Cu5Ni7C66
_chemical_formula_sum   'Cu15 Ni21 C198'
_cell_volume   3059.79526363
_cell_formula_units_Z   3
loop_
 _symmetry_equiv_pos_site_id
 _symmetry_equiv_pos_as_xyz
  1  'x, y, z'
loop_
 _atom_site_type_symbol
 _atom_site_label
 _atom_site_symmetry_multiplicity
 _atom_site_fract_x
 _atom_site_fract_y
 _atom_site_fract_z
 _atom_site_occupancy
  C  C0  1  0.18276635  0.37237825  0.23928275  1
  C  C1  1  0.68275899  0.37319401  0.23987874  1
  C  C2  1  0.99477137  0.63092791  0.25518319  1
  C  C3  1  0.49497380  0.63032082  0.25500865  1
  C  C4  1  0.49443462  0.35530032  0.75962978  1
  C  C5  1  0.18233995  0.99218641  0.74473500  1
  C  C6  1  0.68445688  0.99628576  0.74276026  1
  C  C7  1  0.65690959  0.33451023  0.57862188  1
  C  C8  1  0.01763026  0.70451406  0.57764254  1
  C  C9  1  0.82799538  0.96086473  0.59172712  1
  C  C10  1  0.48835917  0.66192330  0.90989860  1
  C  C11  1  0.99018717  0.66439036  0.90890921  1
  C  C12  1  0.85057397  0.03852433  0.90347698  1
  C  C13  1  0.15961850  0.29309543  0.92336092  1
  C  C14  1  0.49042942  0.31747696  0.40962989  1
  C  C15  1  0.98755840  0.31290585  0.40929924  1
  C  C16  1  0.35359361  0.66431573  0.40342861  1
  C  C17  1  0.85242866  0.66569990  0.40827655  1
  C  C18  1  0.02406809  0.00967013  0.49552863  1
  C  C19  1  0.51879537  0.99250975  0.49379938  1
  C  C20  1  0.01474531  0.02285416  0.99789035  1
  C  C21  1  0.51982743  0.04782345  0.99334871  1
  C  C22  1  0.33884083  0.31930360  0.83149758  1
  C  C23  1  0.84445210  0.34035331  0.82450669  1
  C  C24  1  0.33377805  0.32935233  0.32721474  1
  C  C25  1  0.83272684  0.32881275  0.32872865  1
  C  C26  1  0.17761323  0.66650805  0.15856335  1
  C  C27  1  0.67779390  0.66806110  0.15921878  1
  C  C28  1  0.17804228  0.67819672  0.66475511  1
  C  C29  1  0.67303140  0.68586756  0.66377014  1
  C  C30  1  0.99980058  0.99225629  0.64747700  1
  C  C31  1  0.49483304  0.98276425  0.64657304  1
  C  C32  1  0.00033709  0.01288010  0.14443629  1
  C  C33  1  0.49967753  0.01185474  0.14436456  1
  C  C34  1  0.33091418  0.32040300  0.97898859  1
  C  C35  1  0.82532209  0.32296751  0.97999361  1
  C  C36  1  0.32717583  0.33013394  0.47994778  1
  C  C37  1  0.82912315  0.33986061  0.47987849  1
  C  C38  1  0.16498084  0.65761278  0.31200318  1
  C  C39  1  0.66422833  0.65697275  0.31277149  1
  C  C40  1  0.16190217  0.67050407  0.81212978  1
  C  C41  1  0.66563594  0.67297124  0.81275975  1
  C  C42  1  0.00038569  0.00281021  0.35319206  1
  C  C43  1  0.50280782  0.00219556  0.35212369  1
  C  C44  1  0.99728559  0.99342055  0.85126101  1
  C  C45  1  0.49655815  0.99497006  0.85459219  1
  C  C46  1  0.33293540  0.31535414  0.69079261  1
  C  C47  1  0.83135424  0.33250823  0.68782719  1
  C  C48  1  0.33734274  0.35658761  0.18637183  1
  C  C49  1  0.83677766  0.35751162  0.18673833  1
  C  C50  1  0.15919598  0.64140135  0.01540965  1
  C  C51  1  0.65356133  0.63634265  0.01657443  1
  C  C52  1  0.16100861  0.67414215  0.51584985  1
  C  C53  1  0.66116571  0.66431468  0.52128008  1
  Ni  Ni54  1  0.35780500  0.71540560  0.25104103  1
  Ni  Ni55  1  0.85778994  0.71606147  0.25099190  1
  Ni  Ni56  1  0.98927707  0.27935774  0.25232283  1
  Ni  Ni57  1  0.48935483  0.27898696  0.25251855  1
  Ni  Ni58  1  0.98940332  0.69560659  0.75245291  1
  Ni  Ni59  1  0.48926115  0.69713056  0.75341094  1
  Ni  Ni60  1  0.35690538  0.99864301  0.75140048  1
  Ni  Ni61  1  0.85736951  0.01051127  0.75068549  1
  Ni  Ni62  1  0.19227436  0.03263470  0.58720465  1
  Ni  Ni63  1  0.68765410  0.03498920  0.58591860  1
  Ni  Ni64  1  0.82757493  0.61817349  0.58451021  1
  Ni  Ni65  1  0.19205438  0.35080244  0.08393549  1
  Ni  Ni66  1  0.69020334  0.35179415  0.08616518  1
  Ni  Ni67  1  0.02131053  0.36423185  0.91698641  1
  Ni  Ni68  1  0.52170965  0.35957129  0.91542109  1
  Ni  Ni69  1  0.16109321  0.94582667  0.91926535  1
  Ni  Ni70  1  0.65900713  0.94395479  0.92091591  1
  Ni  Ni71  1  0.16026023  0.37393698  0.41974257  1
  Ni  Ni72  1  0.65933157  0.36566706  0.41978384  1
  Ni  Ni73  1  0.02288768  0.68220578  0.41695153  1
  Ni  Ni74  1  0.52561956  0.68125634  0.41809084  1
  Cu  Cu75  1  0.14612789  0.00900354  0.25155497  1
  Cu  Cu76  1  0.64634949  0.00865473  0.25135109  1
  Cu  Cu77  1  0.14886844  0.28990207  0.75224015  1
  Cu  Cu78  1  0.64547030  0.28357960  0.75065661  1
  Cu  Cu79  1  0.48027467  0.34057322  0.58608791  1
  Cu  Cu80  1  0.98289723  0.34217667  0.58347539  1
  Cu  Cu81  1  0.32672071  0.61559289  0.58401936  1
  Cu  Cu82  1  0.48210994  0.62270783  0.08526083  1
  Cu  Cu83  1  0.98234741  0.62263583  0.08476461  1
  Cu  Cu84  1  0.32653509  0.03834782  0.08632386  1
  Cu  Cu85  1  0.82780298  0.04160622  0.08538461  1
  Cu  Cu86  1  0.31273600  0.67607946  0.91999788  1
  Cu  Cu87  1  0.81173095  0.67060819  0.92002044  1
  Cu  Cu88  1  0.31020360  0.95168793  0.42016705  1
  Cu  Cu89  1  0.81210123  0.95388718  0.41982697  1
  C  C90  1  0.10400553  0.03380061  0.30408108  1
  C  C91  1  0.60406187  0.03360366  0.30387870  1
  C  C92  1  0.41795678  0.80597824  0.31104907  1
  C  C93  1  0.91820525  0.80713638  0.31065879  1
  C  C94  1  0.48064258  0.16746130  0.31292502  1
  C  C95  1  0.98134824  0.16906255  0.31282243  1
  C  C96  1  0.10764717  0.18380568  0.80602464  1
  C  C97  1  0.60319183  0.17336916  0.80203739  1
  C  C98  1  0.48121797  0.79087747  0.81324118  1
  C  C99  1  0.98565484  0.79952641  0.81182995  1
  C  C100  1  0.42360239  0.03275311  0.80627906  1
  C  C101  1  0.91496327  0.02263981  0.81024437  1
  C  C102  1  0.40136490  0.98463880  0.68947590  1
  C  C103  1  0.90258093  0.99297417  0.68968450  1
  C  C104  1  0.09562308  0.21145955  0.69743752  1
  C  C105  1  0.59308636  0.21157977  0.69375536  1
  C  C106  1  0.01277335  0.82388296  0.69384245  1
  C  C107  1  0.51568164  0.83113110  0.69626372  1
  C  C108  1  0.40720939  0.82590462  0.19250277  1
  C  C109  1  0.90701391  0.82705090  0.19214256  1
  C  C110  1  0.01836647  0.20171916  0.19655961  1
  C  C111  1  0.51761774  0.20018409  0.19679025  1
  C  C112  1  0.09315728  0.97639043  0.19609602  1
  C  C113  1  0.59322808  0.97591763  0.19602946  1
  C  C114  1  0.43556716  0.35192250  0.63922808  1
  C  C115  1  0.93783728  0.36191156  0.63429173  1
  C  C116  1  0.24889598  0.13552173  0.64709067  1
  C  C117  1  0.74759873  0.12702821  0.64592270  1
  C  C118  1  0.32200589  0.51131022  0.63592052  1
  C  C119  1  0.81412944  0.48251813  0.63736549  1
  C  C120  1  0.43845708  0.51969430  0.13967621  1
  C  C121  1  0.93783913  0.52055836  0.13913774  1
  C  C122  1  0.32346813  0.13534019  0.13843388  1
  C  C123  1  0.82514796  0.14168339  0.13662713  1
  C  C124  1  0.25029545  0.36201946  0.14428711  1
  C  C125  1  0.74796546  0.36411873  0.14688385  1
  C  C126  1  0.23776375  0.32498381  0.02447691  1
  C  C127  1  0.73913166  0.32546960  0.02909474  1
  C  C128  1  0.42992442  0.53778250  0.03045279  1
  C  C129  1  0.93071306  0.53836837  0.02967225  1
  C  C130  1  0.34027453  0.14125973  0.03022391  1
  C  C131  1  0.84123937  0.14047943  0.02821486  1
  C  C132  1  0.23976519  0.15261228  0.52876967  1
  C  C133  1  0.73716720  0.16454239  0.52924838  1
  C  C134  1  0.34033068  0.54227061  0.52743598  1
  C  C135  1  0.85195891  0.54988974  0.52279863  1
  C  C136  1  0.43080943  0.32267396  0.52988139  1
  C  C137  1  0.93195657  0.31377832  0.52631346  1
  C  C138  1  0.26959098  0.69198799  0.97304604  1
  C  C139  1  0.76822377  0.68821596  0.97214924  1
  C  C140  1  0.08585279  0.44994750  0.97462419  1
  C  C141  1  0.58039048  0.45573492  0.97415214  1
  C  C142  1  0.14918634  0.81252647  0.97381897  1
  C  C143  1  0.65033246  0.81393388  0.97561156  1
  C  C144  1  0.26472778  0.84782956  0.47261929  1
  C  C145  1  0.77091930  0.85218710  0.47377279  1
  C  C146  1  0.15129774  0.48641892  0.47384033  1
  C  C147  1  0.64767128  0.46287306  0.47805699  1
  C  C148  1  0.07761080  0.70021189  0.47849498  1
  C  C149  1  0.58645291  0.69596912  0.47477112  1
  C  C150  1  0.06821823  0.65166649  0.35839751  1
  C  C151  1  0.56324923  0.64470460  0.35621535  1
  C  C152  1  0.25966296  0.88022205  0.36421376  1
  C  C153  1  0.75889934  0.87633817  0.36515386  1
  C  C154  1  0.18256358  0.49136366  0.35814072  1
  C  C155  1  0.67924882  0.49097930  0.36056782  1
  C  C156  1  0.06552879  0.49068180  0.85983397  1
  C  C157  1  0.56386182  0.48241226  0.85566975  1
  C  C158  1  0.17876690  0.87400331  0.85675319  1
  C  C159  1  0.68223423  0.87115799  0.85960639  1
  C  C160  1  0.25800397  0.63860578  0.86527191  1
  C  C161  1  0.76094839  0.64049233  0.86389349  1
  C  C162  1  0.00745473  0.84701820  0.40884226  1
  C  C163  1  0.50855645  0.84426198  0.40898867  1
  C  C164  1  0.39533533  0.96154160  0.41769516  1
  C  C165  1  0.89796920  0.96573984  0.41502850  1
  C  C166  1  0.07376253  0.18548013  0.41018971  1
  C  C167  1  0.57268942  0.17840120  0.40869906  1
  C  C168  1  0.00870208  0.17008706  0.90718014  1
  C  C169  1  0.50975755  0.16936848  0.90628320  1
  C  C170  1  0.07420823  0.96741088  0.91128124  1
  C  C171  1  0.57235689  0.95860021  0.91050776  1
  C  C172  1  0.39880005  0.82884036  0.91471770  1
  C  C173  1  0.89796202  0.82967270  0.91576255  1
  C  C174  1  0.49295871  0.18655579  0.58807116  1
  C  C175  1  0.99347670  0.18691474  0.58815381  1
  C  C176  1  0.09411757  0.00993260  0.58902600  1
  C  C177  1  0.59345177  0.03028990  0.58769033  1
  C  C178  1  0.40586243  0.79341842  0.58650231  1
  C  C179  1  0.91191096  0.81616412  0.58958593  1
  C  C180  1  0.49127589  0.79749554  0.08846790  1
  C  C181  1  0.99148988  0.79823064  0.08760810  1
  C  C182  1  0.40496951  0.01682464  0.08889368  1
  C  C183  1  0.90676159  0.02046474  0.08815532  1
  C  C184  1  0.09508333  0.17373078  0.08784052  1
  C  C185  1  0.59377133  0.17525493  0.08888876  1
  C  C186  1  0.34476697  0.17226592  0.74570107  1
  C  C187  1  0.84056819  0.17559570  0.74406839  1
  C  C188  1  0.23438150  0.29978057  0.74655783  1
  C  C189  1  0.73151214  0.29970448  0.74506269  1
  C  C190  1  0.40714380  0.50421527  0.73875850  1
  C  C191  1  0.90445284  0.50969238  0.74061656  1
  C  C192  1  0.34506385  0.51697713  0.24481812  1
  C  C193  1  0.84583772  0.51821054  0.24492229  1
  C  C194  1  0.40703357  0.30901416  0.23863012  1
  C  C195  1  0.90681549  0.30847898  0.23835723  1
  C  C196  1  0.23229846  0.16432849  0.24608934  1
  C  C197  1  0.73243834  0.16380628  0.24621709  1
  C  C198  1  0.32572231  0.51992143  0.92483207  1
  C  C199  1  0.82927488  0.52213033  0.92423319  1
  C  C200  1  0.42751613  0.35917572  0.92154788  1
  C  C201  1  0.92597745  0.35179452  0.92382009  1
  C  C202  1  0.24301585  0.14739801  0.92360115  1
  C  C203  1  0.74660609  0.13752591  0.92534822  1
  C  C204  1  0.32735462  0.13480114  0.42395259  1
  C  C205  1  0.82803151  0.13494837  0.42313128  1
  C  C206  1  0.24796661  0.35545336  0.42404559  1
  C  C207  1  0.74747352  0.34960528  0.42085461  1
  C  C208  1  0.42786703  0.50036161  0.42401342  1
  C  C209  1  0.92739557  0.49772365  0.41875801  1
  C  C210  1  0.18352531  0.52547636  0.07546338  1
  C  C211  1  0.68158658  0.52534940  0.07591352  1
  C  C212  1  0.06818815  0.63677341  0.08184066  1
  C  C213  1  0.56809358  0.63711849  0.08201187  1
  C  C214  1  0.24857274  0.86929729  0.08054216  1
  C  C215  1  0.75023164  0.87153420  0.08114372  1
  C  C216  1  0.17894855  0.83607719  0.57745341  1
  C  C217  1  0.67937267  0.84543311  0.57606178  1
  C  C218  1  0.24913288  0.63327856  0.57782043  1
  C  C219  1  0.74096525  0.63732742  0.57500125  1
  C  C220  1  0.06909675  0.50034875  0.57911702  1
  C  C221  1  0.56747065  0.49661678  0.58379554  1
  C  C222  1  0.15522710  0.85236680  0.25735460  1
  C  C223  1  0.65531456  0.85206218  0.25752815  1
  C  C224  1  0.25950414  0.68904979  0.25360156  1
  C  C225  1  0.75912792  0.68812160  0.25414072  1
  C  C226  1  0.07591958  0.48029104  0.25630084  1
  C  C227  1  0.57623061  0.47947434  0.25618084  1
  C  C228  1  0.16208104  0.46650042  0.75670133  1
  C  C229  1  0.65453560  0.45860025  0.75557703  1
  C  C230  1  0.07896841  0.68042936  0.75428888  1
  C  C231  1  0.57701739  0.67325387  0.75543588  1
  C  C232  1  0.25970608  0.82949714  0.75487845  1
  C  C233  1  0.75914967  0.83344086  0.75365356  1
