# generated using pymatgen
data_Cu2NiC2
_symmetry_space_group_name_H-M   'P 1'
_cell_length_a   8.11027685
_cell_length_b   5.74745837
_cell_length_c   5.74715899
_cell_angle_alpha   88.80437676
_cell_angle_beta   90.00000000
_cell_angle_gamma   90.00000000
_symmetry_Int_Tables_number   1
_chemical_formula_structural   Cu2NiC2
_chemical_formula_sum   'Cu8 Ni4 C8'
_cell_volume   267.83674631
_cell_formula_units_Z   4
loop_
 _symmetry_equiv_pos_site_id
 _symmetry_equiv_pos_as_xyz
  1  'x, y, z'
loop_
 _atom_site_type_symbol
 _atom_site_label
 _atom_site_symmetry_multiplicity
 _atom_site_fract_x
 _atom_site_fract_y
 _atom_site_fract_z
 _atom_site_occupancy
  C  C0  1  -0.00000000  0.00065786  0.99134147  1
  C  C1  1  -0.00000000  0.50760726  0.48505645  1
  C  C2  1  0.50000000  0.51483444  0.49222675  1
  C  C3  1  0.50000000  0.00850979  0.99945503  1
  C  C4  1  0.24209591  0.49647981  0.98749745  1
  C  C5  1  0.75790409  0.49647981  0.98749745  1
  C  C6  1  0.25787828  0.01246460  0.50349256  1
  C  C7  1  0.74212172  0.01246460  0.50349256  1
  Ni  Ni8  1  0.50000000  0.02662877  0.46252979  1
  Ni  Ni9  1  0.24972801  0.25759526  0.74231353  1
  Ni  Ni10  1  0.75027199  0.25759526  0.74231353  1
  Ni  Ni11  1  0.00000000  0.53786476  0.97380504  1
  Cu  Cu12  1  0.50000000  0.46479158  0.04901930  1
  Cu  Cu13  1  0.78711872  0.23487284  0.23991475  1
  Cu  Cu14  1  0.21288128  0.23487284  0.23991475  1
  Cu  Cu15  1  0.25030446  0.73179991  0.26805596  1
  Cu  Cu16  1  0.74969554  0.73179991  0.26805596  1
  Cu  Cu17  1  -0.00000000  0.95041594  0.53446933  1
  Cu  Cu18  1  0.28710257  0.75995788  0.76499066  1
  Cu  Cu19  1  0.71289743  0.75995788  0.76499066  1
