# generated using pymatgen
data_Cu3Ni2C
_symmetry_space_group_name_H-M   'P 1'
_cell_length_a   6.31419710
_cell_length_b   6.31419710
_cell_length_c   8.38777066
_cell_angle_alpha   95.60671372
_cell_angle_beta   95.60671372
_cell_angle_gamma   97.72866701
_symmetry_Int_Tables_number   1
_chemical_formula_structural   Cu3Ni2C
_chemical_formula_sum   'Cu6 Ni4 C2'
_cell_volume   327.70006811
_cell_formula_units_Z   2
loop_
 _symmetry_equiv_pos_site_id
 _symmetry_equiv_pos_as_xyz
  1  'x, y, z'
loop_
 _atom_site_type_symbol
 _atom_site_label
 _atom_site_symmetry_multiplicity
 _atom_site_fract_x
 _atom_site_fract_y
 _atom_site_fract_z
 _atom_site_occupancy
  Ni  Ni0  1  0.59258500  0.85832300  0.65930900  1
  Ni  Ni1  1  0.14167700  0.40741500  0.84069100  1
  Ni  Ni2  1  0.85832300  0.59258500  0.15930900  1
  Ni  Ni3  1  0.40741500  0.14167700  0.34069100  1
  Cu  Cu4  1  0.81156500  0.93334700  0.01700600  1
  Cu  Cu5  1  0.06665300  0.18843500  0.48299400  1
  Cu  Cu6  1  0.18843500  0.06665300  0.98299400  1
  Cu  Cu7  1  0.20396100  0.79603900  0.75000000  1
  Cu  Cu8  1  0.79603900  0.20396100  0.25000000  1
  Cu  Cu9  1  0.93334700  0.81156500  0.51700600  1
  C  C10  1  0.63504200  0.36495800  0.75000000  1
  C  C11  1  0.36495800  0.63504200  0.25000000  1
