# generated using pymatgen
data_Cu2Ni2C33
_symmetry_space_group_name_H-M   'P 1'
_cell_length_a   8.76774550
_cell_length_b   8.76040797
_cell_length_c   22.69320411
_cell_angle_alpha   88.67933213
_cell_angle_beta   91.23736340
_cell_angle_gamma   120.00420573
_symmetry_Int_Tables_number   1
_chemical_formula_structural   Cu2Ni2C33
_chemical_formula_sum   'Cu6 Ni6 C99'
_cell_volume   1508.95245615
_cell_formula_units_Z   3
loop_
 _symmetry_equiv_pos_site_id
 _symmetry_equiv_pos_as_xyz
  1  'x, y, z'
loop_
 _atom_site_type_symbol
 _atom_site_label
 _atom_site_symmetry_multiplicity
 _atom_site_fract_x
 _atom_site_fract_y
 _atom_site_fract_z
 _atom_site_occupancy
  C  C0  1  0.36362644  0.36352503  0.25138142  1
  C  C1  1  0.69063183  0.02262323  0.91763624  1
  C  C2  1  0.97403296  0.30539381  0.41649775  1
  C  C3  1  0.00618147  0.99557279  0.49767700  1
  C  C4  1  0.00425440  0.99057380  0.00263051  1
  C  C5  1  0.65953594  0.33664767  0.83476303  1
  C  C6  1  0.66668269  0.33378606  0.33293429  1
  C  C7  1  0.33309756  0.68467188  0.16800936  1
  C  C8  1  0.33301522  0.66696241  0.66654672  1
  Ni  Ni9  1  -0.00004260  0.99407935  0.85092588  1
  Ni  Ni10  1  0.99364873  0.00717162  0.64639265  1
  Ni  Ni11  1  0.67163317  0.32689938  0.68367741  1
  Ni  Ni12  1  0.34065769  0.67541927  0.02101799  1
  Ni  Ni13  1  0.32347388  0.66073730  0.51400011  1
  Ni  Ni14  1  0.34587733  0.67638184  0.81907807  1
  Cu  Cu15  1  0.01979847  0.00552283  0.34722081  1
  Cu  Cu16  1  0.99776835  0.00716895  0.15170799  1
  Cu  Cu17  1  0.67020361  0.31215415  0.18558784  1
  Cu  Cu18  1  0.65865910  0.32851531  0.98554342  1
  Cu  Cu19  1  0.66965509  0.34531508  0.47981952  1
  Cu  Cu20  1  0.31196436  0.66129715  0.31632040  1
  C  C21  1  0.28960478  0.99648101  0.24793728  1
  C  C22  1  0.99816336  0.28899404  0.25118042  1
  C  C23  1  0.70084536  0.99814259  0.75113874  1
  C  C24  1  0.95686208  0.33511232  0.57897798  1
  C  C25  1  0.67682058  0.04749855  0.08496846  1
  C  C26  1  0.63064097  0.65549667  0.92031329  1
  C  C27  1  0.33652404  0.97145761  0.91947116  1
  C  C28  1  0.33735966  0.37130042  0.41330209  1
  C  C29  1  0.03353478  0.67198713  0.41394329  1
  C  C30  1  0.71070561  0.71147559  0.24962295  1
  C  C31  1  0.29891946  0.29977895  0.74963282  1
  C  C32  1  0.00101525  0.70292611  0.74904293  1
  C  C33  1  0.37480630  0.04196323  0.58031601  1
  C  C34  1  0.66657080  0.62418061  0.58119252  1
  C  C35  1  0.94853995  0.62088218  0.08600176  1
  C  C36  1  0.37528636  0.32648669  0.08661907  1
  C  C37  1  0.03512120  0.37410200  0.91880679  1
  C  C38  1  0.62664411  0.95868802  0.41417916  1
  C  C39  1  0.21582386  0.04156323  0.30239030  1
  C  C40  1  0.82069558  0.79152961  0.30288596  1
  C  C41  1  0.96704036  0.17583707  0.30829790  1
  C  C42  1  0.22147533  0.19213798  0.80296615  1
  C  C43  1  0.98082169  0.78163026  0.80243691  1
  C  C44  1  0.80405043  0.02244949  0.80953122  1
  C  C45  1  0.78818395  0.97498736  0.69680115  1
  C  C46  1  0.19669459  0.21873061  0.69502525  1
  C  C47  1  0.02768732  0.81084161  0.69480235  1
  C  C48  1  0.78849023  0.81897919  0.19535235  1
  C  C49  1  0.03834390  0.20825006  0.19779909  1
  C  C50  1  0.17071493  0.96430259  0.19292340  1
  C  C51  1  0.87928400  0.35921450  0.63526790  1
  C  C52  1  0.46967010  0.11487525  0.63648659  1
  C  C53  1  0.63950303  0.52268837  0.63665956  1
  C  C54  1  0.86434292  0.51279669  0.13977857  1
  C  C55  1  0.64543272  0.13339129  0.13814344  1
  C  C56  1  0.48523591  0.35532619  0.14095230  1
  C  C57  1  0.45668427  0.30544759  0.03299392  1
  C  C58  1  0.84373653  0.54095382  0.03126728  1
  C  C59  1  0.70118967  0.15527348  0.02653122  1
  C  C60  1  0.46185869  0.15480825  0.52809473  1
  C  C61  1  0.68395467  0.53686856  0.52884016  1
  C  C62  1  0.84440456  0.31436939  0.52217164  1
  C  C63  1  0.54820204  0.69668891  0.97226855  1
  C  C64  1  0.14437508  0.45208297  0.97160075  1
  C  C65  1  0.29711348  0.85326301  0.97410773  1
  C  C66  1  0.55631437  0.85600922  0.46968940  1
  C  C67  1  0.29271135  0.44420756  0.46741120  1
  C  C68  1  0.14466535  0.71411977  0.47062986  1
  C  C69  1  0.11750621  0.62627613  0.36229380  1
  C  C70  1  0.51179081  0.87330349  0.36229252  1
  C  C71  1  0.36878290  0.48923461  0.35704768  1
  C  C72  1  0.11119723  0.47791534  0.86389939  1
  C  C73  1  0.37602061  0.89621657  0.86424088  1
  C  C74  1  0.52123385  0.61806913  0.86273871  1
  C  C75  1  0.00767766  0.83161088  0.40267613  1
  C  C76  1  0.80707807  0.98380172  0.40809066  1
  C  C77  1  0.16701467  0.18703202  0.40581521  1
  C  C78  1  0.01091321  0.19348202  0.91446865  1
  C  C79  1  0.17887859  0.00024816  0.91259456  1
  C  C80  1  0.81159397  0.82806846  0.91456801  1
  C  C81  1  0.97187134  0.16554432  0.58041599  1
  C  C82  1  0.19551044  0.02133303  0.58331338  1
  C  C83  1  0.83163827  0.79788595  0.58394191  1
  C  C84  1  0.96883060  0.79972015  0.09041192  1
  C  C85  1  0.84635304  0.03224928  0.09248787  1
  C  C86  1  0.19874281  0.16440406  0.09138438  1
  C  C87  1  0.68279696  0.16494700  0.74862950  1
  C  C88  1  0.47831246  0.32288918  0.74558595  1
  C  C89  1  0.83744935  0.52897760  0.74535597  1
  C  C90  1  0.68635104  0.52938820  0.24418101  1
  C  C91  1  0.83542794  0.31312279  0.24347619  1
  C  C92  1  0.47450596  0.16926805  0.24061348  1
  C  C93  1  0.65419584  0.49363146  0.93003555  1
  C  C94  1  0.85630056  0.35366019  0.92389467  1
  C  C95  1  0.51103429  0.15165256  0.92720162  1
  C  C96  1  0.64671087  0.13910849  0.41919857  1
  C  C97  1  0.50195616  0.35088261  0.42318970  1
  C  C98  1  0.85198347  0.49740123  0.42141380  1
  C  C99  1  0.35270961  0.48380516  0.08177375  1
  C  C100  1  0.12551727  0.63518226  0.08254351  1
  C  C101  1  0.51125425  0.86185618  0.08281944  1
  C  C102  1  0.36176875  0.86677814  0.57653017  1
  C  C103  1  0.51213871  0.65011066  0.57622256  1
  C  C104  1  0.14344918  0.49895105  0.57747807  1
  C  C105  1  0.31282081  0.83344653  0.25819077  1
  C  C106  1  0.53032425  0.68925509  0.25507003  1
  C  C107  1  0.17000466  0.47390101  0.25775625  1
  C  C108  1  0.30846285  0.47305965  0.75353191  1
  C  C109  1  0.15653025  0.67848859  0.75380261  1
  C  C110  1  0.51630496  0.83147848  0.75203533  1
