# generated using pymatgen
data_Cu2NiC10
_symmetry_space_group_name_H-M   'P 1'
_cell_length_a   6.92018920
_cell_length_b   7.82626410
_cell_length_c   7.82626453
_cell_angle_alpha   58.22014791
_cell_angle_beta   76.46194530
_cell_angle_gamma   76.46194572
_symmetry_Int_Tables_number   1
_chemical_formula_structural   Cu2NiC10
_chemical_formula_sum   'Cu2 Ni1 C10'
_cell_volume   347.14352645
_cell_formula_units_Z   1
loop_
 _symmetry_equiv_pos_site_id
 _symmetry_equiv_pos_as_xyz
  1  'x, y, z'
loop_
 _atom_site_type_symbol
 _atom_site_label
 _atom_site_symmetry_multiplicity
 _atom_site_fract_x
 _atom_site_fract_y
 _atom_site_fract_z
 _atom_site_occupancy
  C  C0  1  0.62893401  0.18016192  0.41863370  1
  C  C1  1  0.20163196  0.51160955  0.18015263  1
  C  C2  1  0.87106599  0.58136630  0.81983808  1
  C  C3  1  0.29836804  0.81984737  0.48839045  1
  Ni  Ni4  1  0.75000000  0.24425200  0.75574800  1
  Cu  Cu5  1  0.75000000  0.86949546  0.13050454  1
  Cu  Cu6  1  0.25000000  0.08525720  0.91474280  1
  C  C7  1  0.25000000  0.38102076  0.61897924  1
  C  C8  1  0.75000000  0.56003163  0.43996837  1
  C  C9  1  0.00833230  0.94218359  0.82406538  1
  C  C10  1  0.49166770  0.17593462  0.05781641  1
  C  C11  1  0.52703284  0.83242089  0.93358128  1
  C  C12  1  0.97296716  0.06641872  0.16757911  1
