# generated using pymatgen
data_CuNi2C37
_symmetry_space_group_name_H-M   'P 1'
_cell_length_a   9.34440848
_cell_length_b   9.38316553
_cell_length_c   22.71654988
_cell_angle_alpha   90.54432765
_cell_angle_beta   88.54875051
_cell_angle_gamma   120.45229267
_symmetry_Int_Tables_number   1
_chemical_formula_structural   CuNi2C37
_chemical_formula_sum   'Cu3 Ni6 C111'
_cell_volume   1716.46193580
_cell_formula_units_Z   3
loop_
 _symmetry_equiv_pos_site_id
 _symmetry_equiv_pos_as_xyz
  1  'x, y, z'
loop_
 _atom_site_type_symbol
 _atom_site_label
 _atom_site_symmetry_multiplicity
 _atom_site_fract_x
 _atom_site_fract_y
 _atom_site_fract_z
 _atom_site_occupancy
  C  C0  1  0.64767389  0.00939503  0.26639216  1
  C  C1  1  0.36169156  0.36118026  0.23672462  1
  C  C2  1  0.63089579  0.64765578  0.74349922  1
  C  C3  1  0.31342910  0.34490002  0.59177275  1
  C  C4  1  0.02158791  0.69945053  0.58032345  1
  C  C5  1  0.65475792  0.93017040  0.57684337  1
  C  C6  1  0.30290524  0.97884269  0.07225643  1
  C  C7  1  0.05972711  0.33607336  0.06908782  1
  C  C8  1  0.99205623  0.68091194  0.92362566  1
  C  C9  1  0.69370892  0.02836316  0.90247324  1
  C  C10  1  0.30947452  0.30467033  0.91599461  1
  C  C11  1  0.68388725  0.69212359  0.42701578  1
  C  C12  1  0.98804088  0.00878938  0.49810519  1
  C  C13  1  0.01607256  0.01260964  0.99531588  1
  C  C14  1  0.66115727  0.30242964  0.83088521  1
  C  C15  1  0.67083685  0.31114017  0.34099125  1
  C  C16  1  0.33971279  0.64870526  0.16135973  1
  C  C17  1  0.36271531  0.67930652  0.67645479  1
  C  C18  1  0.00279668  0.00500559  0.35342048  1
  C  C19  1  -0.00166981  0.01044661  0.84635035  1
  C  C20  1  0.96484332  0.98235882  0.65625130  1
  C  C21  1  0.00914042  0.00075115  0.14410541  1
  C  C22  1  0.65434089  0.31271489  0.69079500  1
  C  C23  1  0.66983865  0.34809469  0.18274177  1
  C  C24  1  0.34652090  0.66878574  0.01472911  1
  C  C25  1  0.33490600  0.66442003  0.51164450  1
  C  C26  1  0.33872294  0.69071511  0.32578832  1
  Ni  Ni27  1  0.65514643  0.96678547  0.75791350  1
  Ni  Ni28  1  0.66730620  0.61904200  0.58382690  1
  Ni  Ni29  1  0.37867738  0.33391422  0.08198099  1
  Ni  Ni30  1  0.02773573  0.38196595  0.91987386  1
  Ni  Ni31  1  0.33660760  0.98017518  0.92453631  1
  Ni  Ni32  1  0.65160028  0.99847103  0.42293425  1
  Cu  Cu33  1  0.65434466  0.32155042  0.97415979  1
  Cu  Cu34  1  0.66999532  0.33370377  0.48346922  1
  Cu  Cu35  1  0.29556590  0.70184300  0.82188661  1
  C  C36  1  0.30785858  0.99116928  0.24610263  1
  C  C37  1  0.69096704  0.69740467  0.25582541  1
  C  C38  1  0.00829818  0.30933350  0.24629707  1
  C  C39  1  0.30160409  0.31884165  0.74959396  1
  C  C40  1  0.00379212  0.69006200  0.75334619  1
  C  C41  1  0.94977138  0.32434119  0.57977667  1
  C  C42  1  0.36768095  0.04497671  0.57809241  1
  C  C43  1  0.96861361  0.63682918  0.07666830  1
  C  C44  1  0.68215387  0.05554983  0.07719487  1
  C  C45  1  0.63803495  0.64479635  0.91465730  1
  C  C46  1  0.35215079  0.35808684  0.41875404  1
  C  C47  1  0.00720884  0.65508782  0.42507891  1
  C  C48  1  0.20237135  -0.01425162  0.29646319  1
  C  C49  1  0.76515843  0.77795372  0.31256489  1
  C  C50  1  0.99888036  0.19793129  0.29425386  1
  C  C51  1  0.21969571  0.22592093  0.80408383  1
  C  C52  1  0.00200431  0.78107861  0.80612711  1
  C  C53  1  0.77005873  0.97393337  0.81063460  1
  C  C54  1  0.71116933  0.91494543  0.69499276  1
  C  C55  1  0.21930569  0.21739775  0.69597885  1
  C  C56  1  0.02191512  0.78061797  0.69806056  1
  C  C57  1  0.79690811  0.79796737  0.20574399  1
  C  C58  1  0.01701188  0.23628186  0.18839899  1
  C  C59  1  0.23153631  0.99253815  0.18979529  1
  C  C60  1  0.86978576  0.33238782  0.63469514  1
  C  C61  1  0.47121512  0.11242600  0.63008586  1
  C  C62  1  0.66151846  0.52756187  0.64368374  1
  C  C63  1  0.86845005  0.54464149  0.12820792  1
  C  C64  1  0.68468588  0.14533212  0.13118442  1
  C  C65  1  0.45041095  0.32507449  0.14488560  1
  C  C66  1  0.50378368  0.32107013  0.02461426  1
  C  C67  1  0.88789912  0.55155627  0.02077434  1
  C  C68  1  0.69431508  0.15332574  0.02210936  1
  C  C69  1  0.46144832  0.14479523  0.52436528  1
  C  C70  1  0.68335439  0.50450824  0.52407472  1
  C  C71  1  0.84584487  0.30620767  0.52736208  1
  C  C72  1  0.56656927  0.67188643  0.96909500  1
  C  C73  1  0.13546407  0.44839912  0.97744892  1
  C  C74  1  0.31289223  0.87719743  0.98291870  1
  C  C75  1  0.55611418  0.87673764  0.47853247  1
  C  C76  1  0.33029915  0.43057584  0.47398379  1
  C  C77  1  0.08851799  0.66247869  0.48077715  1
  C  C78  1  0.10185864  0.64843721  0.37394431  1
  C  C79  1  0.55170276  0.92965451  0.36121962  1
  C  C80  1  0.36070021  0.46017963  0.36727763  1
  C  C81  1  0.13535632  0.53444958  0.86559623  1
  C  C82  1  0.36255494  0.87829963  0.86677360  1
  C  C83  1  0.53977521  0.62607799  0.86325048  1
  C  C84  1  0.97798502  0.79672899  0.42200273  1
  C  C85  1  0.83533917  0.01747812  0.42026660  1
  C  C86  1  0.22152990  0.18521801  0.41408623  1
  C  C87  1  0.99147956  0.19792540  0.90615841  1
  C  C88  1  0.18609057  0.01577373  0.91551438  1
  C  C89  1  0.81349490  0.77911498  0.91029915  1
  C  C90  1  0.97071440  0.17576467  0.57935813  1
  C  C91  1  0.21148496  0.05160977  0.58293209  1
  C  C92  1  0.83701259  0.80256930  0.57510451  1
  C  C93  1  0.99122613  0.80651241  0.07525530  1
  C  C94  1  0.83269461  0.03855159  0.07410254  1
  C  C95  1  0.19762279  0.16352789  0.07066706  1
  C  C96  1  0.62526961  0.12163326  0.75594087  1
  C  C97  1  0.47864946  0.36062815  0.75162620  1
  C  C98  1  0.85726202  0.52382520  0.75386916  1
  C  C99  1  0.66220738  0.52618339  0.25549602  1
  C  C100  1  0.85504180  0.32145783  0.25104432  1
  C  C101  1  0.47623053  0.14612428  0.25224181  1
  C  C102  1  0.63469774  0.47912890  0.91831157  1
  C  C103  1  0.84089257  0.37438354  0.92448367  1
  C  C104  1  0.52360273  0.15838627  0.92154807  1
  C  C105  1  0.66108658  0.18574053  0.43156775  1
  C  C106  1  0.52187729  0.37096621  0.41930474  1
  C  C107  1  0.83832890  0.49765720  0.42289508  1
  C  C108  1  0.35564677  0.49422690  0.08062466  1
  C  C109  1  0.13517322  0.65257530  0.08209828  1
  C  C110  1  0.52800144  0.89358041  0.07796956  1
  C  C111  1  0.32198472  0.86853473  0.57228007  1
  C  C112  1  0.49679746  0.62957945  0.57886189  1
  C  C113  1  0.11603955  0.47598757  0.57483760  1
  C  C114  1  0.33521219  0.84759314  0.24614654  1
  C  C115  1  0.52363837  0.68491492  0.25087715  1
  C  C116  1  0.16239868  0.47362552  0.25120864  1
  C  C117  1  0.29559147  0.47251866  0.74690715  1
  C  C118  1  0.16207840  0.67748766  0.75521164  1
  C  C119  1  0.46686652  0.78100314  0.77135830  1
