# generated using pymatgen
data_CuNi3C37
_symmetry_space_group_name_H-M   'P 1'
_cell_length_a   9.17695548
_cell_length_b   9.17383765
_cell_length_c   22.74045199
_cell_angle_alpha   90.05073332
_cell_angle_beta   89.91374525
_cell_angle_gamma   120.03986757
_symmetry_Int_Tables_number   1
_chemical_formula_structural   CuNi3C37
_chemical_formula_sum   'Cu3 Ni9 C111'
_cell_volume   1657.31206457
_cell_formula_units_Z   3
loop_
 _symmetry_equiv_pos_site_id
 _symmetry_equiv_pos_as_xyz
  1  'x, y, z'
loop_
 _atom_site_type_symbol
 _atom_site_label
 _atom_site_symmetry_multiplicity
 _atom_site_fract_x
 _atom_site_fract_y
 _atom_site_fract_z
 _atom_site_occupancy
  C  C0  1  0.37018018  0.36612409  0.24932884  1
  C  C1  1  0.63728678  0.63478694  0.74973332  1
  C  C2  1  0.99762673  0.36349432  0.74960907  1
  C  C3  1  0.36519020  0.00227294  0.74965071  1
  C  C4  1  0.30066079  0.33341904  0.58288184  1
  C  C5  1  0.03266305  0.69917270  0.58284600  1
  C  C6  1  0.66651758  0.96722215  0.58283976  1
  C  C7  1  0.30523478  0.96971219  0.08334526  1
  C  C8  1  0.66445863  0.69595951  0.08335723  1
  C  C9  1  0.03091190  0.33545178  0.08294440  1
  C  C10  1  0.96383060  0.66553496  0.91802697  1
  C  C11  1  0.70340437  0.03465305  0.91813845  1
  C  C12  1  0.96696573  0.29889363  0.41536938  1
  C  C13  1  0.33216135  0.03414733  0.41571324  1
  C  C14  1  0.70095483  0.66728149  0.41524780  1
  C  C15  1  0.00022130  0.00020624  0.49911658  1
  C  C16  1  0.00775933  0.00748257  0.99852772  1
  C  C17  1  0.65971289  0.33289792  0.83594113  1
  C  C18  1  0.67380435  0.33322080  0.32911321  1
  C  C19  1  0.33283191  0.67275294  0.16779148  1
  C  C20  1  0.33323097  0.66674874  0.66537907  1
  Ni  Ni21  1  0.99863807  0.99922322  0.35094073  1
  Ni  Ni22  1  0.00457995  0.00413112  0.85328466  1
  Ni  Ni23  1  0.00018730  0.00014623  0.64835628  1
  Ni  Ni24  1  0.66698483  0.33349852  0.68509970  1
  Ni  Ni25  1  0.67119751  0.33296766  0.18723742  1
  Ni  Ni26  1  0.66174578  0.33274627  0.98039781  1
  Ni  Ni27  1  0.66654602  0.33338649  0.47993654  1
  Ni  Ni28  1  0.33298859  0.66522548  0.01904520  1
  Ni  Ni29  1  0.33318537  0.66649351  0.51826504  1
  Cu  Cu30  1  0.99886683  0.99857499  0.14931861  1
  Cu  Cu31  1  0.33323483  0.67060041  0.31091512  1
  Cu  Cu32  1  0.33400670  0.66602587  0.81574562  1
  C  C33  1  0.29264696  0.99897384  0.25068144  1
  C  C34  1  0.70668049  0.70637152  0.25114353  1
  C  C35  1  0.99788487  0.29296944  0.25130476  1
  C  C36  1  0.29321527  0.29386321  0.74967732  1
  C  C37  1  0.00074314  0.70719483  0.75072515  1
  C  C38  1  0.70635472  0.99936313  0.75058475  1
  C  C39  1  0.95993391  0.33288079  0.58307452  1
  C  C40  1  0.37306509  0.03987593  0.58321754  1
  C  C41  1  0.66684856  0.62696835  0.58319829  1
  C  C42  1  0.95809107  0.62583578  0.08299942  1
  C  C43  1  0.66766415  0.04261777  0.08303746  1
  C  C44  1  0.37431240  0.33225284  0.08500158  1
  C  C45  1  0.62564862  0.66451566  0.91708326  1
  C  C46  1  0.04050649  0.37250594  0.91771244  1
  C  C47  1  0.33338728  0.96032414  0.91746568  1
  C  C48  1  0.62442844  0.95725085  0.41650626  1
  C  C49  1  0.33294242  0.37563910  0.41583792  1
  C  C50  1  0.04289807  0.66705456  0.41637638  1
  C  C51  1  0.20527734  0.03008045  0.30834390  1
  C  C52  1  0.82047314  0.79495711  0.30915604  1
  C  C53  1  0.97627706  0.18001171  0.30945883  1
  C  C54  1  0.20235074  0.16801693  0.80473143  1
  C  C55  1  0.96618221  0.79297783  0.80773623  1
  C  C56  1  0.82599252  0.03230197  0.80754432  1
  C  C57  1  0.78917156  0.96228159  0.69250856  1
  C  C58  1  0.17473454  0.21366738  0.69117826  1
  C  C59  1  0.03789737  0.82720152  0.69265855  1
  C  C60  1  0.80278762  0.82957985  0.19296389  1
  C  C61  1  0.03082105  0.19806418  0.19345544  1
  C  C62  1  0.16936685  0.97225443  0.19252450  1
  C  C63  1  0.87384825  0.36592491  0.64116210  1
  C  C64  1  0.49220998  0.12633654  0.64119915  1
  C  C65  1  0.63416922  0.50775990  0.64116734  1
  C  C66  1  0.86809204  0.50139206  0.13796526  1
  C  C67  1  0.63117181  0.13136596  0.13801570  1
  C  C68  1  0.49134935  0.36771226  0.14250420  1
  C  C69  1  0.46095307  0.29347537  0.02832582  1
  C  C70  1  0.84010668  0.54589459  0.02403248  1
  C  C71  1  0.70691761  0.16079619  0.02391854  1
  C  C72  1  0.46040926  0.16032445  0.52558049  1
  C  C73  1  0.70015667  0.53970823  0.52554789  1
  C  C74  1  0.83943981  0.29996585  0.52554873  1
  C  C75  1  0.53939444  0.69919646  0.97394035  1
  C  C76  1  0.15534970  0.46214834  0.97516632  1
  C  C77  1  0.30195259  0.84039006  0.97445821  1
  C  C78  1  0.54124149  0.84087763  0.47514390  1
  C  C79  1  0.30009651  0.46019330  0.47431996  1
  C  C80  1  0.15938689  0.70049589  0.47499064  1
  C  C81  1  0.14161906  0.63678617  0.36090183  1
  C  C82  1  0.49596114  0.85789389  0.36107178  1
  C  C83  1  0.36337908  0.49942587  0.35891235  1
  C  C84  1  0.13842482  0.49741163  0.85952334  1
  C  C85  1  0.35967215  0.86178019  0.85909987  1
  C  C86  1  0.50426391  0.64280094  0.85877112  1
  C  C87  1  0.02416429  0.83477591  0.41079544  1
  C  C88  1  0.81109511  0.97649300  0.41114987  1
  C  C89  1  0.16521448  0.18814082  0.41124593  1
  C  C90  1  0.01405316  0.18429015  0.91104064  1
  C  C91  1  0.16037165  0.96654717  0.91020635  1
  C  C92  1  0.80965895  0.83539874  0.90990008  1
  C  C93  1  0.97696387  0.16363107  0.58871159  1
  C  C94  1  0.18656934  0.02240275  0.58879240  1
  C  C95  1  0.83619064  0.81345650  0.58881918  1
  C  C96  1  0.97731314  0.81559811  0.09072528  1
  C  C97  1  0.83794773  0.02334029  0.09123810  1
  C  C98  1  0.18382472  0.16198634  0.09105469  1
  C  C99  1  0.68449878  0.16550874  0.74475037  1
  C  C100  1  0.48133538  0.31616578  0.74455798  1
  C  C101  1  0.83447295  0.51912799  0.74470450  1
  C  C102  1  0.67732485  0.51792781  0.24420092  1
  C  C103  1  0.83474723  0.31312003  0.24442420  1
  C  C104  1  0.47226162  0.17007680  0.24341695  1
  C  C105  1  0.64880293  0.50016570  0.91973721  1
  C  C106  1  0.85722249  0.36295220  0.91983132  1
  C  C107  1  0.50941234  0.13914396  0.91998461  1
  C  C108  1  0.63897483  0.14253768  0.42050110  1
  C  C109  1  0.50359105  0.36053876  0.42075561  1
  C  C110  1  0.85756237  0.49620854  0.42053881  1
  C  C111  1  0.35120319  0.49798113  0.07793280  1
  C  C112  1  0.14776866  0.65040653  0.07802947  1
  C  C113  1  0.50236016  0.85296194  0.07760312  1
  C  C114  1  0.35513500  0.85316691  0.57848561  1
  C  C115  1  0.49799507  0.64470015  0.57846858  1
  C  C116  1  0.14668489  0.50187370  0.57843128  1
  C  C117  1  0.30643429  0.82747636  0.25659143  1
  C  C118  1  0.51794162  0.68854542  0.25639488  1
  C  C119  1  0.17736441  0.47503041  0.25625273  1
  C  C120  1  0.31121625  0.48227292  0.75718730  1
  C  C121  1  0.17110109  0.68876649  0.75733510  1
  C  C122  1  0.51726898  0.82885176  0.75693837  1
