# generated using pymatgen
data_Cu3Ni5C74
_symmetry_space_group_name_H-M   'P 1'
_cell_length_a   17.97977139
_cell_length_b   8.98761342
_cell_length_c   22.11366004
_cell_angle_alpha   90.08630970
_cell_angle_beta   89.90937699
_cell_angle_gamma   120.08222386
_symmetry_Int_Tables_number   1
_chemical_formula_structural   Cu3Ni5C74
_chemical_formula_sum   'Cu9 Ni15 C222'
_cell_volume   3092.13674023
_cell_formula_units_Z   3
loop_
 _symmetry_equiv_pos_site_id
 _symmetry_equiv_pos_as_xyz
  1  'x, y, z'
loop_
 _atom_site_type_symbol
 _atom_site_label
 _atom_site_symmetry_multiplicity
 _atom_site_fract_x
 _atom_site_fract_y
 _atom_site_fract_z
 _atom_site_occupancy
  C  C0  1  0.18472398  0.36049645  0.24743951  1
  C  C1  1  0.68548985  0.36226328  0.24804492  1
  C  C2  1  0.99401495  0.62916924  0.24836104  1
  C  C3  1  0.49418217  0.62825807  0.24722338  1
  C  C4  1  0.31919939  0.62941044  0.74722744  1
  C  C5  1  0.81973444  0.63042045  0.74729868  1
  C  C6  1  0.18548954  0.01218442  0.74721367  1
  C  C7  1  0.68576630  0.01154405  0.74680428  1
  C  C8  1  0.15532076  0.34345429  0.57891275  1
  C  C9  1  0.65557133  0.34390119  0.57883806  1
  C  C10  1  0.01564411  0.68753706  0.57924179  1
  C  C11  1  0.51569746  0.68730880  0.57918426  1
  C  C12  1  0.32798496  0.96804344  0.57842089  1
  C  C13  1  0.82811616  0.96786467  0.57876269  1
  C  C14  1  0.15612782  0.96995467  0.07928315  1
  C  C15  1  0.65312863  0.96317821  0.08171145  1
  C  C16  1  0.32797877  0.68778986  0.07923784  1
  C  C17  1  0.01867047  0.34429057  0.08088872  1
  C  C18  1  0.51573099  0.34469152  0.07839599  1
  C  C19  1  0.48123362  0.66480621  0.91849991  1
  C  C20  1  0.98718809  0.67774387  0.91455084  1
  C  C21  1  0.35150744  0.03747963  0.91850051  1
  C  C22  1  0.16751728  0.29459571  0.91878941  1
  C  C23  1  0.66242515  0.30005933  0.91478468  1
  C  C24  1  0.48155685  0.29724170  0.41875382  1
  C  C25  1  0.98153557  0.29702954  0.41860576  1
  C  C26  1  0.16733552  0.03685543  0.41861378  1
  C  C27  1  0.66749464  0.03683865  0.41875757  1
  C  C28  1  0.35131940  0.66529799  0.41900077  1
  C  C29  1  0.85147531  0.66560406  0.41867761  1
  C  C30  1  0.99976797  0.00034904  0.49542311  1
  C  C31  1  0.49983306  0.00043855  0.49539338  1
  C  C32  1  0.98879206  0.99185949  0.99490651  1
  C  C33  1  0.49893207  0.99959151  0.99554612  1
  C  C34  1  0.33959975  0.33406510  0.83186827  1
  C  C35  1  0.84072202  0.32508039  0.82819930  1
  C  C36  1  0.33267458  0.32035913  0.33215984  1
  C  C37  1  0.83311998  0.32115765  0.33242842  1
  C  C38  1  0.17235009  0.67813623  0.16334129  1
  C  C39  1  0.67802712  0.67900295  0.16116266  1
  C  C40  1  0.16096453  0.65647696  0.66260310  1
  C  C41  1  0.66127742  0.65683514  0.66285141  1
  Ni  Ni42  1  0.99927273  0.00061788  0.35060551  1
  Ni  Ni43  1  0.49937081  0.00076139  0.35079476  1
  Ni  Ni44  1  0.99673970  0.00198553  0.85206692  1
  Ni  Ni45  1  0.49937045  0.00077979  0.85059997  1
  Ni  Ni46  1  0.33686315  0.33418225  0.68365097  1
  Ni  Ni47  1  0.83687928  0.33417323  0.68332124  1
  Ni  Ni48  1  0.33270451  0.32614531  0.18368531  1
  Ni  Ni49  1  0.83298027  0.32735880  0.18543332  1
  Ni  Ni50  1  0.33321173  0.33249463  0.98475395  1
  Ni  Ni51  1  0.33372162  0.33324370  0.48460692  1
  Ni  Ni52  1  0.83380822  0.33339447  0.48459527  1
  Ni  Ni53  1  0.16674491  0.66699026  0.01700775  1
  Ni  Ni54  1  0.67069207  0.66804601  0.01817038  1
  Ni  Ni55  1  0.16670152  0.66686594  0.51674688  1
  Ni  Ni56  1  0.66676604  0.66688889  0.51676130  1
  Cu  Cu57  1  0.99945377  0.00236916  0.65213935  1
  Cu  Cu58  1  0.49990967  0.00237008  0.65206401  1
  Cu  Cu59  1  0.99622767  0.99539765  0.15071112  1
  Cu  Cu60  1  0.49883901  0.00020390  0.15185171  1
  Cu  Cu61  1  0.83345166  0.33033127  0.98411459  1
  Cu  Cu62  1  0.16869614  0.67151166  0.31677375  1
  Cu  Cu63  1  0.66895216  0.67174724  0.31690625  1
  Cu  Cu64  1  0.16350308  0.66156688  0.81702325  1
  Cu  Cu65  1  0.66660225  0.66550073  0.81786659  1
  C  C66  1  0.14789317  0.99934976  0.25147094  1
  C  C67  1  0.64841633  0.99943893  0.25215251  1
  C  C68  1  0.35072707  0.70261300  0.25178231  1
  C  C69  1  0.85104717  0.70353848  0.25254784  1
  C  C70  1  0.99986876  0.29748959  0.25238814  1
  C  C71  1  0.49991811  0.29859791  0.25261706  1
  C  C72  1  0.14823703  0.29746789  0.75240677  1
  C  C73  1  0.64888668  0.29895832  0.75210554  1
  C  C74  1  0.00011482  0.70333293  0.75236244  1
  C  C75  1  0.50055214  0.70307208  0.75246234  1
  C  C76  1  0.35051973  0.00001003  0.75300818  1
  C  C77  1  0.85139553  0.00040577  0.75208198  1
  C  C78  1  0.48082065  0.33232061  0.58318463  1
  C  C79  1  0.98090306  0.33239511  0.58310456  1
  C  C80  1  0.18462454  0.03821640  0.58487464  1
  C  C81  1  0.68466817  0.03817858  0.58473238  1
  C  C82  1  0.33389676  0.62977738  0.58486774  1
  C  C83  1  0.83393785  0.62979660  0.58483751  1
  C  C84  1  0.48090770  0.63029005  0.08462029  1
  C  C85  1  0.98104062  0.63123977  0.08503768  1
  C  C86  1  0.33392198  0.03840461  0.08303325  1
  C  C87  1  0.83348132  0.03850388  0.08506373  1
  C  C88  1  0.18438945  0.33085622  0.08482880  1
  C  C89  1  0.68515281  0.33434232  0.08619279  1
  C  C90  1  0.31475571  0.66579046  0.91773672  1
  C  C91  1  0.81534176  0.66619206  0.91812152  1
  C  C92  1  0.01794591  0.36984574  0.91984548  1
  C  C93  1  0.51821603  0.37130872  0.91923825  1
  C  C94  1  0.16687159  0.96386831  0.91776329  1
  C  C95  1  0.66719199  0.96332848  0.91841298  1
  C  C96  1  0.31511504  0.96405580  0.41913211  1
  C  C97  1  0.81517438  0.96426965  0.41921732  1
  C  C98  1  0.16704788  0.37028433  0.41767642  1
  C  C99  1  0.66698279  0.37009898  0.41775158  1
  C  C100  1  0.01827658  0.66655658  0.41770879  1
  C  C101  1  0.51831054  0.66643966  0.41760161  1
  C  C102  1  0.10371901  0.02234573  0.30696725  1
  C  C103  1  0.60389656  0.02284891  0.30713327  1
  C  C104  1  0.40721471  0.79146118  0.30652873  1
  C  C105  1  0.90596147  0.78740802  0.30838800  1
  C  C106  1  0.49103882  0.19056585  0.30794680  1
  C  C107  1  0.99098322  0.19111249  0.30814315  1
  C  C108  1  0.10404962  0.18463262  0.80695307  1
  C  C109  1  0.60463039  0.18622619  0.80687301  1
  C  C110  1  0.48876045  0.79183096  0.80755415  1
  C  C111  1  0.98934263  0.79229023  0.80756961  1
  C  C112  1  0.40417298  0.01779141  0.80838397  1
  C  C113  1  0.90804135  0.01909020  0.80492378  1
  C  C114  1  0.38843569  0.95980912  0.69405273  1
  C  C115  1  0.88597862  0.95803546  0.69165043  1
  C  C116  1  0.09437331  0.22222676  0.69235900  1
  C  C117  1  0.59455662  0.22242371  0.69240843  1
  C  C118  1  0.01982821  0.81932155  0.69331719  1
  C  C119  1  0.52029120  0.81943958  0.69343030  1
  C  C120  1  0.38885455  0.81122332  0.19204423  1
  C  C121  1  0.89000322  0.81666523  0.19459602  1
  C  C122  1  0.01903164  0.22065035  0.19361934  1
  C  C123  1  0.52022394  0.22340201  0.19342082  1
  C  C124  1  0.08926708  0.95896246  0.19286042  1
  C  C125  1  0.59039178  0.95972512  0.19309560  1
  C  C126  1  0.43769581  0.36012519  0.63773334  1
  C  C127  1  0.93780718  0.36028375  0.63770981  1
  C  C128  1  0.23816580  0.12056313  0.64182244  1
  C  C129  1  0.73802041  0.12066276  0.64174415  1
  C  C130  1  0.32127710  0.52262690  0.64177088  1
  C  C131  1  0.82122566  0.52248167  0.64176098  1
  C  C132  1  0.43931353  0.52350168  0.14160525  1
  C  C133  1  0.93732945  0.51876228  0.14022869  1
  C  C134  1  0.32022404  0.12490939  0.13770091  1
  C  C135  1  0.81964681  0.12741759  0.13889252  1
  C  C136  1  0.23845431  0.35743361  0.14170416  1
  C  C137  1  0.73855984  0.35178130  0.14199319  1
  C  C138  1  0.22279073  0.29592664  0.02788241  1
  C  C139  1  0.72271824  0.29362528  0.02724234  1
  C  C140  1  0.42512262  0.55395768  0.02767874  1
  C  C141  1  0.92684301  0.55349403  0.02546799  1
  C  C142  1  0.35227970  0.14559664  0.02486989  1
  C  C143  1  0.85637456  0.15660048  0.02673883  1
  C  C144  1  0.22315174  0.14987356  0.52789069  1
  C  C145  1  0.72319351  0.14981883  0.52778988  1
  C  C146  1  0.35141997  0.55336709  0.52773244  1
  C  C147  1  0.85127214  0.55303558  0.52773230  1
  C  C148  1  0.42696011  0.29497361  0.52505333  1
  C  C149  1  0.92698462  0.29509706  0.52502006  1
  C  C150  1  0.27096374  0.69442174  0.97225473  1
  C  C151  1  0.76780615  0.68540210  0.97130211  1
  C  C152  1  0.07203962  0.45420554  0.97608343  1
  C  C153  1  0.57538038  0.45503492  0.97465278  1
  C  C154  1  0.15191421  0.84655383  0.97205885  1
  C  C155  1  0.65471894  0.85161592  0.97345455  1
  C  C156  1  0.27335669  0.84996388  0.47447898  1
  C  C157  1  0.77331169  0.85003621  0.47448810  1
  C  C158  1  0.15274698  0.45775451  0.47215792  1
  C  C159  1  0.65264641  0.45757984  0.47220879  1
  C  C160  1  0.07640826  0.69566390  0.47210754  1
  C  C161  1  0.57641586  0.69579866  0.47208500  1
  C  C162  1  0.05769455  0.63122303  0.35821644  1
  C  C163  1  0.55792079  0.63139702  0.35823599  1
  C  C164  1  0.25523176  0.88393272  0.36165861  1
  C  C165  1  0.75522840  0.88437390  0.36174699  1
  C  C166  1  0.18443500  0.48421921  0.35832053  1
  C  C167  1  0.68423530  0.48374917  0.35837967  1
  C  C168  1  0.05602018  0.49097315  0.86258074  1
  C  C169  1  0.55962911  0.49198754  0.86192399  1
  C  C170  1  0.18418345  0.88351002  0.85843942  1
  C  C171  1  0.68334079  0.88793968  0.85849097  1
  C  C172  1  0.25721325  0.63057069  0.85866278  1
  C  C173  1  0.75973225  0.62474564  0.85778413  1
  C  C174  1  0.01037621  0.82960175  0.41137000  1
  C  C175  1  0.51023236  0.82930992  0.41117503  1
  C  C176  1  0.40430868  0.97928944  0.41157273  1
  C  C177  1  0.90436031  0.97965399  0.41164598  1
  C  C178  1  0.08553936  0.19084577  0.41143229  1
  C  C179  1  0.58546628  0.19068466  0.41156375  1
  C  C180  1  0.01197031  0.19555986  0.91158352  1
  C  C181  1  0.51031058  0.19259687  0.91142625  1
  C  C182  1  0.08607313  0.98130360  0.91114738  1
  C  C183  1  0.58679319  0.98285024  0.91233637  1
  C  C184  1  0.40449871  0.82876086  0.91150178  1
  C  C185  1  0.90637304  0.81713874  0.91203979  1
  C  C186  1  0.48964979  0.16385387  0.58898571  1
  C  C187  1  0.98983718  0.16418288  0.58887198  1
  C  C188  1  0.09145113  0.01977112  0.58907490  1
  C  C189  1  0.59144119  0.01974122  0.58882913  1
  C  C190  1  0.41831400  0.81618534  0.58921492  1
  C  C191  1  0.91844282  0.81582631  0.58908176  1
  C  C192  1  0.49016249  0.81717866  0.08871910  1
  C  C193  1  0.99300765  0.81696834  0.08773409  1
  C  C194  1  0.41853433  0.02157482  0.08868081  1
  C  C195  1  0.91879255  0.02976734  0.08893591  1
  C  C196  1  0.09118172  0.16265274  0.08940810  1
  C  C197  1  0.59348306  0.16194612  0.08821633  1
  C  C198  1  0.33618574  0.15240255  0.74608615  1
  C  C199  1  0.83589602  0.15160451  0.74559777  1
  C  C200  1  0.23837692  0.31846748  0.74598413  1
  C  C201  1  0.73863477  0.31802648  0.74591702  1
  C  C202  1  0.41974180  0.52819925  0.74484802  1
  C  C203  1  0.91941322  0.52788165  0.74483715  1
  C  C204  1  0.34081840  0.52290654  0.24575021  1
  C  C205  1  0.84120099  0.52349025  0.24558116  1
  C  C206  1  0.42385382  0.32711967  0.24582246  1
  C  C207  1  0.92403901  0.32787838  0.24583866  1
  C  C208  1  0.23538079  0.16054639  0.24410816  1
  C  C209  1  0.73601912  0.16139167  0.24499195  1
  C  C210  1  0.32306573  0.50302250  0.92097120  1
  C  C211  1  0.82115812  0.49453895  0.92177665  1
  C  C212  1  0.42854926  0.35400911  0.92177329  1
  C  C213  1  0.92803737  0.36110828  0.92210164  1
  C  C214  1  0.24893828  0.14263706  0.92096889  1
  C  C215  1  0.74821787  0.14977780  0.92123025  1
  C  C216  1  0.32385816  0.14380472  0.42228099  1
  C  C217  1  0.82388135  0.14402814  0.42234456  1
  C  C218  1  0.24853316  0.35400886  0.42098105  1
  C  C219  1  0.74849380  0.35386979  0.42102567  1
  C  C220  1  0.42866753  0.50322319  0.42082451  1
  C  C221  1  0.92861605  0.50332426  0.42092642  1
  C  C222  1  0.17217834  0.48940439  0.07932937  1
  C  C223  1  0.66986278  0.48538566  0.07953516  1
  C  C224  1  0.07127614  0.65154919  0.07893571  1
  C  C225  1  0.57250072  0.65556347  0.07920460  1
  C  C226  1  0.25525882  0.85397003  0.07849937  1
  C  C227  1  0.75326245  0.86254113  0.07715865  1
  C  C228  1  0.17200585  0.85484067  0.57930858  1
  C  C229  1  0.67202341  0.85483390  0.57929864  1
  C  C230  1  0.25495162  0.65495048  0.57946662  1
  C  C231  1  0.75493926  0.65484387  0.57947396  1
  C  C232  1  0.07300322  0.48979484  0.57829400  1
  C  C233  1  0.57295875  0.48967021  0.57834983  1
  C  C234  1  0.15174150  0.82782580  0.25406814  1
  C  C235  1  0.65229482  0.82854329  0.25444148  1
  C  C236  1  0.25817225  0.68019851  0.25407207  1
  C  C237  1  0.75804672  0.67922063  0.25449882  1
  C  C238  1  0.08578456  0.48087901  0.25394846  1
  C  C239  1  0.58577899  0.48131260  0.25444846  1
  C  C240  1  0.15953186  0.48315024  0.75480551  1
  C  C241  1  0.66029186  0.48432135  0.75463943  1
  C  C242  1  0.08585818  0.69541955  0.75435224  1
  C  C243  1  0.58657363  0.69669416  0.75520110  1
  C  C244  1  0.25899757  0.82830800  0.75456937  1
  C  C245  1  0.75949196  0.82878351  0.75509756  1
