# generated using pymatgen
data_Cu5Ni3C2
_symmetry_space_group_name_H-M   'P 1'
_cell_length_a   10.16872700
_cell_length_b   10.16872700
_cell_length_c   5.28058700
_cell_angle_alpha   90.00000000
_cell_angle_beta   90.00000000
_cell_angle_gamma   90.00000000
_symmetry_Int_Tables_number   1
_chemical_formula_structural   Cu5Ni3C2
_chemical_formula_sum   'Cu20 Ni12 C8'
_cell_volume   546.02858403
_cell_formula_units_Z   4
loop_
 _symmetry_equiv_pos_site_id
 _symmetry_equiv_pos_as_xyz
  1  'x, y, z'
loop_
 _atom_site_type_symbol
 _atom_site_label
 _atom_site_symmetry_multiplicity
 _atom_site_fract_x
 _atom_site_fract_y
 _atom_site_fract_z
 _atom_site_occupancy
  C  C0  1  0.43189100  0.26380200  0.50000000  1
  C  C1  1  0.06810900  0.76380200  0.00000000  1
  C  C2  1  0.93189100  0.23619800  0.00000000  1
  C  C3  1  0.76380200  0.93189100  0.00000000  1
  C  C4  1  0.26380200  0.56810900  0.50000000  1
  C  C5  1  0.73619800  0.43189100  0.50000000  1
  C  C6  1  0.56810900  0.73619800  0.50000000  1
  C  C7  1  0.23619800  0.06810900  0.00000000  1
  Ni  Ni8  1  0.37737800  0.64355400  0.00000000  1
  Ni  Ni9  1  0.62262200  0.35644600  0.00000000  1
  Ni  Ni10  1  0.64355400  0.62262200  0.00000000  1
  Ni  Ni11  1  0.35644600  0.37737800  0.00000000  1
  Ni  Ni12  1  0.14355400  0.87737800  0.50000000  1
  Ni  Ni13  1  0.85644600  0.12262200  0.50000000  1
  Ni  Ni14  1  0.87737800  0.85644600  0.50000000  1
  Ni  Ni15  1  0.12262200  0.14355400  0.50000000  1
  Ni  Ni16  1  0.50000000  0.00000000  0.25000000  1
  Ni  Ni17  1  0.00000000  0.50000000  0.25000000  1
  Ni  Ni18  1  0.50000000  0.00000000  0.75000000  1
  Ni  Ni19  1  0.00000000  0.50000000  0.75000000  1
  Cu  Cu20  1  0.31854200  0.02808100  0.50000000  1
  Cu  Cu21  1  0.68145800  0.97191900  0.50000000  1
  Cu  Cu22  1  0.97191900  0.31854200  0.50000000  1
  Cu  Cu23  1  0.02808100  0.68145800  0.50000000  1
  Cu  Cu24  1  0.52808100  0.81854200  0.00000000  1
  Cu  Cu25  1  0.81854200  0.47191900  0.00000000  1
  Cu  Cu26  1  0.18145800  0.52808100  0.00000000  1
  Cu  Cu27  1  0.47191900  0.18145800  0.00000000  1
  Cu  Cu28  1  0.50000000  0.50000000  0.74636600  1
  Cu  Cu29  1  0.00000000  0.00000000  0.75363400  1
  Cu  Cu30  1  0.50000000  0.50000000  0.25363400  1
  Cu  Cu31  1  0.00000000  0.00000000  0.24636600  1
  Cu  Cu32  1  0.67801300  0.17801300  0.75000000  1
  Cu  Cu33  1  0.67801300  0.17801300  0.25000000  1
  Cu  Cu34  1  0.82198700  0.67801300  0.75000000  1
  Cu  Cu35  1  0.32198700  0.82198700  0.75000000  1
  Cu  Cu36  1  0.32198700  0.82198700  0.25000000  1
  Cu  Cu37  1  0.82198700  0.67801300  0.25000000  1
  Cu  Cu38  1  0.17801300  0.32198700  0.25000000  1
  Cu  Cu39  1  0.17801300  0.32198700  0.75000000  1
