# generated using pymatgen
data_CuNiC12
_symmetry_space_group_name_H-M   'P 1'
_cell_length_a   5.58966572
_cell_length_b   7.98517527
_cell_length_c   5.08732367
_cell_angle_alpha   89.89250446
_cell_angle_beta   89.96053573
_cell_angle_gamma   110.48790777
_symmetry_Int_Tables_number   1
_chemical_formula_structural   CuNiC12
_chemical_formula_sum   'Cu1 Ni1 C12'
_cell_volume   212.70628884
_cell_formula_units_Z   1
loop_
 _symmetry_equiv_pos_site_id
 _symmetry_equiv_pos_as_xyz
  1  'x, y, z'
loop_
 _atom_site_type_symbol
 _atom_site_label
 _atom_site_symmetry_multiplicity
 _atom_site_fract_x
 _atom_site_fract_y
 _atom_site_fract_z
 _atom_site_occupancy
  C  C0  1  0.18113100  0.36215200  0.50020600  1
  C  C1  1  0.61908000  0.23789600  0.00031900  1
  C  C2  1  0.38091900  0.76210600  0.99967600  1
  C  C3  1  0.81888100  0.63785500  0.49978700  1
  Ni  Ni4  1  0.00002100  0.99997200  0.50000100  1
  Cu  Cu5  1  0.49997800  0.99999900  0.50000200  1
  C  C6  1  0.25329600  0.99978300  0.24038100  1
  C  C7  1  0.25328300  0.00063500  0.75950900  1
  C  C8  1  0.74671100  0.99937800  0.24048700  1
  C  C9  1  0.74669200  0.00021900  0.75962500  1
  C  C10  1  0.20090600  0.40203400  0.00020400  1
  C  C11  1  0.67379900  0.34700400  0.50028500  1
  C  C12  1  0.32619300  0.65299500  0.49971600  1
  C  C13  1  0.79910700  0.59796900  0.99980100  1
