# generated using pymatgen
data_CuNiC9
_symmetry_space_group_name_H-M   'P 1'
_cell_length_a   6.01906827
_cell_length_b   6.01906835
_cell_length_c   6.66805922
_cell_angle_alpha   63.02078490
_cell_angle_beta   63.02078431
_cell_angle_gamma   59.91039649
_symmetry_Int_Tables_number   1
_chemical_formula_structural   CuNiC9
_chemical_formula_sum   'Cu1 Ni1 C9'
_cell_volume   178.07907446
_cell_formula_units_Z   1
loop_
 _symmetry_equiv_pos_site_id
 _symmetry_equiv_pos_as_xyz
  1  'x, y, z'
loop_
 _atom_site_type_symbol
 _atom_site_label
 _atom_site_symmetry_multiplicity
 _atom_site_fract_x
 _atom_site_fract_y
 _atom_site_fract_z
 _atom_site_occupancy
  C  C0  1  0.73387502  0.73387502  0.79667042  1
  C  C1  1  0.19363312  0.19363312  0.41969308  1
  C  C2  1  0.52617244  0.52617244  0.42030516  1
  Ni  Ni3  1  0.36365893  0.36365893  0.90589527  1
  Cu  Cu4  1  0.99946207  0.99946207  1.00055612  1
  C  C5  1  0.25474660  0.74586942  0.74294745  1
  C  C6  1  0.25888769  0.77188214  0.19772450  1
  C  C7  1  0.74586942  0.25474660  0.74294745  1
  C  C8  1  0.25555441  0.25555441  0.74163090  1
  C  C9  1  0.77188214  0.25888769  0.19772450  1
  C  C10  1  0.77125816  0.77125816  0.19848815  1
