# generated using pymatgen
data_CuNiC16
_symmetry_space_group_name_H-M   'P 1'
_cell_length_a   8.59011042
_cell_length_b   8.57822938
_cell_length_c   22.54104922
_cell_angle_alpha   90.02671660
_cell_angle_beta   89.85020365
_cell_angle_gamma   119.99452191
_symmetry_Int_Tables_number   1
_chemical_formula_structural   CuNiC16
_chemical_formula_sum   'Cu6 Ni6 C96'
_cell_volume   1438.54496879
_cell_formula_units_Z   6
loop_
 _symmetry_equiv_pos_site_id
 _symmetry_equiv_pos_as_xyz
  1  'x, y, z'
loop_
 _atom_site_type_symbol
 _atom_site_label
 _atom_site_symmetry_multiplicity
 _atom_site_fract_x
 _atom_site_fract_y
 _atom_site_fract_z
 _atom_site_occupancy
  C  C0  1  0.98560047  0.99047885  0.50060717  1
  C  C1  1  0.00514370  0.98812253  0.00036831  1
  C  C2  1  0.65764122  0.31165224  0.83115020  1
  C  C3  1  0.65666817  0.31516888  0.33743106  1
  C  C4  1  0.31947137  0.67404070  0.16663607  1
  C  C5  1  0.34826328  0.67150580  0.66276410  1
  Ni  Ni6  1  0.00046955  0.00150577  0.35538415  1
  Ni  Ni7  1  0.98344686  0.98790807  0.64451291  1
  Ni  Ni8  1  0.66484840  0.33173484  0.67999465  1
  Ni  Ni9  1  0.67053707  0.33390396  0.48630765  1
  Ni  Ni10  1  0.32420390  0.67307065  0.01710921  1
  Ni  Ni11  1  0.36092468  0.67580561  0.51884741  1
  Cu  Cu12  1  0.99737020  0.00104855  0.85039993  1
  Cu  Cu13  1  0.00530121  0.99243725  0.14925569  1
  Cu  Cu14  1  0.66342092  0.33120422  0.18611539  1
  Cu  Cu15  1  0.66562554  0.33025596  0.98279473  1
  Cu  Cu16  1  0.33880729  0.68270749  0.32334400  1
  Cu  Cu17  1  0.34329411  0.68267101  0.80866193  1
  C  C18  1  0.28936528  0.00309731  0.25576083  1
  C  C19  1  0.71599988  0.01614867  0.74252741  1
  C  C20  1  0.66665534  0.61549424  0.58281099  1
  C  C21  1  0.97269314  0.62838434  0.08147720  1
  C  C22  1  0.33004568  0.95687204  0.91806036  1
  C  C23  1  0.64009216  0.97475839  0.42155650  1
  C  C24  1  0.71041691  0.71080766  0.25542394  1
  C  C25  1  0.00172625  0.28803456  0.25499352  1
  C  C26  1  0.29611007  0.28502695  0.74198000  1
  C  C27  1  0.98636344  0.69960694  0.74217893  1
  C  C28  1  0.95978986  0.33616175  0.58292106  1
  C  C29  1  0.37603500  0.04275359  0.58277322  1
  C  C30  1  0.65677618  0.01887239  0.08179132  1
  C  C31  1  0.36346031  0.34817050  0.08074691  1
  C  C32  1  0.61766174  0.66766790  0.91921237  1
  C  C33  1  0.05153099  0.38225453  0.91750010  1
  C  C34  1  0.33594365  0.37024836  0.42121681  1
  C  C35  1  0.03365259  0.66355771  0.42252080  1
  C  C36  1  0.18345095  0.01223938  0.30980235  1
  C  C37  1  0.81877820  0.81202111  0.30740452  1
  C  C38  1  0.98607556  0.17541446  0.30692571  1
  C  C39  1  0.23334328  0.18935470  0.79993104  1
  C  C40  1  0.95848105  0.76553794  0.80010202  1
  C  C41  1  0.81352272  0.04861261  0.80321291  1
  C  C42  1  0.81769284  0.99057601  0.69129755  1
  C  C43  1  0.17717732  0.18532690  0.69209885  1
  C  C44  1  0.01548863  0.82411788  0.69278988  1
  C  C45  1  0.77798063  0.80645248  0.19829990  1
  C  C46  1  0.01571644  0.21269705  0.19744584  1
  C  C47  1  0.20085963  0.98431606  0.19521558  1
  C  C48  1  0.87667966  0.36646598  0.63593617  1
  C  C49  1  0.49047428  0.12173145  0.63580000  1
  C  C50  1  0.63361492  0.49601058  0.63741940  1
  C  C51  1  0.89107713  0.51771276  0.13906428  1
  C  C52  1  0.62033450  0.09393664  0.13606850  1
  C  C53  1  0.46857770  0.37626250  0.13592550  1
  C  C54  1  0.44139467  0.30582131  0.02918613  1
  C  C55  1  0.85589376  0.54560385  0.02665342  1
  C  C56  1  0.69082755  0.13165816  0.02880579  1
  C  C57  1  0.45857038  0.15728838  0.52988449  1
  C  C58  1  0.69659069  0.52692070  0.52810123  1
  C  C59  1  0.84311806  0.30001643  0.53042354  1
  C  C60  1  0.51720911  0.67351656  0.97153188  1
  C  C61  1  0.15736756  0.47749151  0.97045473  1
  C  C62  1  0.31929924  0.84482317  0.97252977  1
  C  C63  1  0.54357855  0.83913640  0.47280400  1
  C  C64  1  0.30289689  0.46327939  0.47134747  1
  C  C65  1  0.15996471  0.69468179  0.47181759  1
  C  C66  1  0.09151980  0.61545539  0.36635101  1
  C  C67  1  0.52918952  0.91671688  0.36389335  1
  C  C68  1  0.37426262  0.47517663  0.36536799  1
  C  C69  1  0.13185671  0.47403441  0.86105518  1
  C  C70  1  0.35354192  0.88497194  0.85845240  1
  C  C71  1  0.52359800  0.64475556  0.86244888  1
  C  C72  1  0.02080361  0.82974984  0.41408110  1
  C  C73  1  0.82620624  0.98854770  0.41071576  1
  C  C74  1  0.17143534  0.19020857  0.41411329  1
  C  C75  1  0.03677466  0.20211613  0.91870405  1
  C  C76  1  0.15445304  0.96669642  0.91663289  1
  C  C77  1  0.79303282  0.83869048  0.91896140  1
  C  C78  1  0.98160931  0.17415031  0.59014035  1
  C  C79  1  0.19496904  0.02418294  0.59122205  1
  C  C80  1  0.83562284  0.80699853  0.59085321  1
  C  C81  1  0.99744299  0.81919982  0.08410804  1
  C  C82  1  0.81734019  0.00036162  0.08795030  1
  C  C83  1  0.17710778  0.19573936  0.08566886  1
  C  C84  1  0.69150527  0.18069007  0.73222473  1
  C  C85  1  0.47818267  0.30958109  0.73378250  1
  C  C86  1  0.82508944  0.52184806  0.73321115  1
  C  C87  1  0.70970451  0.53766411  0.25394536  1
  C  C88  1  0.83636803  0.30259964  0.25440631  1
  C  C89  1  0.47557240  0.17948911  0.25425395  1
  C  C90  1  0.64673458  0.51223275  0.92166596  1
  C  C91  1  0.87041825  0.36245873  0.91947378  1
  C  C92  1  0.49701017  0.14759293  0.92116056  1
  C  C93  1  0.66382424  0.16167265  0.43588469  1
  C  C94  1  0.49287376  0.34617211  0.43176314  1
  C  C95  1  0.85111875  0.50913042  0.43314969  1
  C  C96  1  0.35647526  0.51346994  0.07075120  1
  C  C97  1  0.15837257  0.64508809  0.07370200  1
  C  C98  1  0.49840274  0.83959211  0.07291668  1
  C  C99  1  0.35552125  0.85983796  0.57404159  1
  C  C100  1  0.49706701  0.63674998  0.57390052  1
  C  C101  1  0.13967325  0.49952796  0.57389467  1
  C  C102  1  0.30959697  0.83429628  0.25772711  1
  C  C103  1  0.52533303  0.67874905  0.25946334  1
  C  C104  1  0.16485466  0.46674896  0.25968148  1
  C  C105  1  0.30795731  0.46432604  0.74517502  1
  C  C106  1  0.14796749  0.67841537  0.74406139  1
  C  C107  1  0.52821691  0.84214971  0.74362618  1
