# generated using pymatgen
data_Cu2NiC7
_symmetry_space_group_name_H-M   'P 1'
_cell_length_a   4.10193192
_cell_length_b   3.59614277
_cell_length_c   10.48067499
_cell_angle_alpha   90.00000000
_cell_angle_beta   90.00000000
_cell_angle_gamma   90.00000000
_symmetry_Int_Tables_number   1
_chemical_formula_structural   Cu2NiC7
_chemical_formula_sum   'Cu2 Ni1 C7'
_cell_volume   154.60182879
_cell_formula_units_Z   1
loop_
 _symmetry_equiv_pos_site_id
 _symmetry_equiv_pos_as_xyz
  1  'x, y, z'
loop_
 _atom_site_type_symbol
 _atom_site_label
 _atom_site_symmetry_multiplicity
 _atom_site_fract_x
 _atom_site_fract_y
 _atom_site_fract_z
 _atom_site_occupancy
  C  C0  1  0.50000000  0.50000000  0.44377056  1
  C  C1  1  0.50000000  0.50000000  0.07730429  1
  Ni  Ni2  1  0.50000000  0.50000000  0.79017669  1
  Cu  Cu3  1  0.00000000  0.00000000  0.65261495  1
  Cu  Cu4  1  0.00000000  0.00000000  0.25828965  1
  C  C5  1  0.50000000  0.00000000  0.92106518  1
  C  C6  1  0.50000000  0.00000000  0.23719984  1
  C  C7  1  0.00000000  0.50000000  0.72884254  1
  C  C8  1  0.00000000  0.50000000  0.17550314  1
  C  C9  1  0.00000000  0.00000000  0.46523315  1
