# generated using pymatgen
data_Cu6NiC12
_symmetry_space_group_name_H-M   'P 1'
_cell_length_a   4.99271458
_cell_length_b   5.05464973
_cell_length_c   8.64931566
_cell_angle_alpha   89.37205438
_cell_angle_beta   90.53673724
_cell_angle_gamma   101.57110208
_symmetry_Int_Tables_number   1
_chemical_formula_structural   Cu6NiC12
_chemical_formula_sum   'Cu6 Ni1 C12'
_cell_volume   213.82306344
_cell_formula_units_Z   1
loop_
 _symmetry_equiv_pos_site_id
 _symmetry_equiv_pos_as_xyz
  1  'x, y, z'
loop_
 _atom_site_type_symbol
 _atom_site_label
 _atom_site_symmetry_multiplicity
 _atom_site_fract_x
 _atom_site_fract_y
 _atom_site_fract_z
 _atom_site_occupancy
  Ni  Ni0  1  0.52335661  0.03452040  0.15941446  1
  Cu  Cu1  1  0.00892565  0.98149508  0.99509613  1
  Cu  Cu2  1  0.00399102  0.99412838  0.33533055  1
  Cu  Cu3  1  0.00708465  0.99016184  0.65607767  1
  Cu  Cu4  1  0.44370400  0.54314251  0.82457377  1
  Cu  Cu5  1  0.41906853  0.52170631  0.16499704  1
  Cu  Cu6  1  0.55908555  0.46487064  0.49798708  1
  C  C7  1  0.14910081  0.79833896  0.16125135  1
  C  C8  1  0.11988100  0.80082436  0.49815861  1
  C  C9  1  0.13185237  0.79346409  0.83068771  1
  C  C10  1  0.34773619  0.26255855  0.99783162  1
  C  C11  1  0.36544134  0.24630159  0.32561814  1
  C  C12  1  0.34792270  0.27302805  0.66615298  1
  C  C13  1  0.62634791  0.75524012  0.00309335  1
  C  C14  1  0.64072688  0.73887169  0.32228523  1
  C  C15  1  0.65834114  0.72971974  0.65794790  1
  C  C16  1  0.90413829  0.19443284  0.15994901  1
  C  C17  1  0.87043097  0.18927137  0.49195310  1
  C  C18  1  0.87286039  0.18792351  0.83016131  1
