# generated using pymatgen
data_Cu2NiC15
_symmetry_space_group_name_H-M   'P 1'
_cell_length_a   8.85832773
_cell_length_b   8.84466134
_cell_length_c   23.34291952
_cell_angle_alpha   90.26613303
_cell_angle_beta   90.00000000
_cell_angle_gamma   120.05112652
_symmetry_Int_Tables_number   1
_chemical_formula_structural   Cu2NiC15
_chemical_formula_sum   'Cu12 Ni6 C90'
_cell_volume   1583.02776125
_cell_formula_units_Z   6
loop_
 _symmetry_equiv_pos_site_id
 _symmetry_equiv_pos_as_xyz
  1  'x, y, z'
loop_
 _atom_site_type_symbol
 _atom_site_label
 _atom_site_symmetry_multiplicity
 _atom_site_fract_x
 _atom_site_fract_y
 _atom_site_fract_z
 _atom_site_occupancy
  C  C0  1  0.98279833  0.99074102  0.50356322  1
  C  C1  1  0.00794269  0.99074102  0.00356322  1
  C  C2  1  0.64946533  0.32407402  0.83689622  1
  C  C3  1  0.67460969  0.32407402  0.33689622  1
  C  C4  1  0.31613133  0.65740802  0.17023022  1
  C  C5  1  0.34127569  0.65740802  0.67023022  1
  C  C6  1  0.00106618  0.00240131  0.35286864  1
  C  C7  1  0.00133513  0.00240131  0.85286864  1
  C  C8  1  0.66773318  0.33573431  0.68620164  1
  C  C9  1  0.66800213  0.33573431  0.18620164  1
  C  C10  1  0.33439918  0.66906831  0.01953564  1
  C  C11  1  0.33466813  0.66906831  0.51953564  1
  Ni  Ni12  1  0.99155085  0.00527461  0.64907703  1
  Ni  Ni13  1  0.01372377  0.00527461  0.14907703  1
  Ni  Ni14  1  0.65821785  0.33860761  0.98241003  1
  Ni  Ni15  1  0.68039077  0.33860761  0.48241003  1
  Ni  Ni16  1  0.32488385  0.67194161  0.31574403  1
  Ni  Ni17  1  0.34705677  0.67194161  0.81574403  1
  Cu  Cu18  1  0.29556872  0.00151337  0.24992752  1
  Cu  Cu19  1  0.00091895  0.29258636  0.24953132  1
  Cu  Cu20  1  0.29166740  0.29258636  0.74953132  1
  Cu  Cu21  1  0.70594465  0.00151337  0.74992752  1
  Cu  Cu22  1  0.96223572  0.33484637  0.58326052  1
  Cu  Cu23  1  0.66758595  0.62591936  0.58286432  1
  Cu  Cu24  1  0.95833440  0.62591936  0.08286432  1
  Cu  Cu25  1  0.37261165  0.33484637  0.08326052  1
  Cu  Cu26  1  0.62890172  0.66818037  0.91659452  1
  Cu  Cu27  1  0.33425195  0.95925336  0.91619832  1
  Cu  Cu28  1  0.62500040  0.95925336  0.41619832  1
  Cu  Cu29  1  0.03927765  0.66818037  0.41659452  1
  C  C30  1  0.70748598  0.70863107  0.24967251  1
  C  C31  1  0.00114509  0.70863107  0.74967251  1
  C  C32  1  0.37415298  0.04196407  0.58300551  1
  C  C33  1  0.66781209  0.04196407  0.08300551  1
  C  C34  1  0.04081898  0.37529807  0.91633951  1
  C  C35  1  0.33447809  0.37529807  0.41633951  1
  C  C36  1  0.20214685  0.02337986  0.30336599  1
  C  C37  1  0.81755618  0.79381794  0.30119105  1
  C  C38  1  0.97510447  0.17654398  0.30292812  1
  C  C39  1  0.20143951  0.17654398  0.80292812  1
  C  C40  1  0.97626176  0.79381794  0.80119105  1
  C  C41  1  0.82123301  0.02337986  0.80336599  1
  C  C42  1  0.78010173  0.96688939  0.69593102  1
  C  C43  1  0.18908163  0.21007425  0.69485883  1
  C  C44  1  0.02750403  0.81052694  0.69769285  1
  C  C45  1  0.78302292  0.81052694  0.19769285  1
  C  C46  1  0.02099262  0.21007425  0.19485883  1
  C  C47  1  0.18678765  0.96688939  0.19593102  1
  C  C48  1  0.86881385  0.35671286  0.63669899  1
  C  C49  1  0.48422318  0.12715094  0.63452405  1
  C  C50  1  0.64177147  0.50987698  0.63626112  1
  C  C51  1  0.86810651  0.50987698  0.13626112  1
  C  C52  1  0.64292876  0.12715094  0.13452405  1
  C  C53  1  0.48790001  0.35671286  0.13669899  1
  C  C54  1  0.44676873  0.30022239  0.02926402  1
  C  C55  1  0.85574863  0.54340725  0.02819183  1
  C  C56  1  0.69417103  0.14385994  0.03102585  1
  C  C57  1  0.44968992  0.14385994  0.53102585  1
  C  C58  1  0.68765962  0.54340725  0.52819183  1
  C  C59  1  0.85345465  0.30022239  0.52926402  1
  C  C60  1  0.53547985  0.69004686  0.97003299  1
  C  C61  1  0.15088918  0.46048494  0.96785805  1
  C  C62  1  0.30843747  0.84321098  0.96959512  1
  C  C63  1  0.53477251  0.84321098  0.46959512  1
  C  C64  1  0.30959476  0.46048494  0.46785805  1
  C  C65  1  0.15456601  0.69004686  0.47003299  1
  C  C66  1  0.11343473  0.63355639  0.36259802  1
  C  C67  1  0.52241463  0.87674125  0.36152583  1
  C  C68  1  0.36083703  0.47719394  0.36435985  1
  C  C69  1  0.11635592  0.47719394  0.86435985  1
  C  C70  1  0.35432562  0.87674125  0.86152583  1
  C  C71  1  0.52012065  0.63355639  0.86259802  1
  C  C72  1  0.03047342  0.83956778  0.41034108  1
  C  C73  1  0.80886181  0.97649329  0.41041145  1
  C  C74  1  0.17131649  0.20087971  0.41136413  1
  C  C75  1  0.02956322  0.20087971  0.91136413  1
  C  C76  1  0.16763148  0.97649329  0.91041145  1
  C  C77  1  0.80909436  0.83956778  0.91034108  1
  C  C78  1  0.99261828  0.17892403  0.58784538  1
  C  C79  1  0.19738418  0.01467329  0.59013299  1
  C  C80  1  0.83114593  0.80708180  0.58929686  1
  C  C81  1  0.97593587  0.80708180  0.08929686  1
  C  C82  1  0.81728911  0.01467329  0.09013299  1
  C  C83  1  0.18630575  0.17892403  0.08784538  1
  C  C84  1  0.69714042  0.17290078  0.74367408  1
  C  C85  1  0.47552881  0.30982629  0.74374445  1
  C  C86  1  0.83798349  0.53421271  0.74469713  1
  C  C87  1  0.69623022  0.53421271  0.24469713  1
  C  C88  1  0.83429848  0.30982629  0.24374445  1
  C  C89  1  0.47576136  0.17290078  0.24367408  1
  C  C90  1  0.65928528  0.51225703  0.92117838  1
  C  C91  1  0.86405118  0.34800629  0.92346599  1
  C  C92  1  0.49781293  0.14041480  0.92262986  1
  C  C93  1  0.64260287  0.14041480  0.42262986  1
  C  C94  1  0.48395611  0.34800629  0.42346599  1
  C  C95  1  0.85297275  0.51225703  0.42117838  1
  C  C96  1  0.36380642  0.50623478  0.07700808  1
  C  C97  1  0.14219481  0.64316029  0.07707845  1
  C  C98  1  0.50464949  0.86754671  0.07803113  1
  C  C99  1  0.36289622  0.86754671  0.57803113  1
  C  C100  1  0.50096448  0.64316029  0.57707845  1
  C  C101  1  0.14242736  0.50623478  0.57700808  1
  C  C102  1  0.32595128  0.84559103  0.25451238  1
  C  C103  1  0.53071718  0.68134029  0.25679999  1
  C  C104  1  0.16447893  0.47374880  0.25596386  1
  C  C105  1  0.30926887  0.47374880  0.75596386  1
  C  C106  1  0.15062211  0.68134029  0.75679999  1
  C  C107  1  0.51963875  0.84559103  0.75451238  1
