# generated using pymatgen
data_Cu4NiC6
_symmetry_space_group_name_H-M   'P 1'
_cell_length_a   4.98352700
_cell_length_b   8.70223900
_cell_length_c   8.77421200
_cell_angle_alpha   90.00000000
_cell_angle_beta   90.00000000
_cell_angle_gamma   90.00000000
_symmetry_Int_Tables_number   1
_chemical_formula_structural   Cu4NiC6
_chemical_formula_sum   'Cu16 Ni4 C24'
_cell_volume   380.51864861
_cell_formula_units_Z   4
loop_
 _symmetry_equiv_pos_site_id
 _symmetry_equiv_pos_as_xyz
  1  'x, y, z'
loop_
 _atom_site_type_symbol
 _atom_site_label
 _atom_site_symmetry_multiplicity
 _atom_site_fract_x
 _atom_site_fract_y
 _atom_site_fract_z
 _atom_site_occupancy
  C  C0  1  0.66105400  0.59329100  0.32585000  1
  C  C1  1  0.16105400  0.09329100  0.17415000  1
  C  C2  1  0.66105400  0.90670900  0.82585000  1
  C  C3  1  0.16105400  0.40670900  0.67415000  1
  Ni  Ni4  1  0.66093100  0.58571500  0.68450100  1
  Ni  Ni5  1  0.16093100  0.41428500  0.31549900  1
  Ni  Ni6  1  0.66093100  0.91428500  0.18450100  1
  Ni  Ni7  1  0.16093100  0.08571500  0.81549900  1
  Cu  Cu8  1  0.34620300  0.72021600  0.98756700  1
  Cu  Cu9  1  0.84620300  0.27978400  0.01243300  1
  Cu  Cu10  1  0.34620300  0.77978400  0.48756700  1
  Cu  Cu11  1  0.84620300  0.22021600  0.51243300  1
  Cu  Cu12  1  0.03254300  0.71070100  0.49196700  1
  Cu  Cu13  1  0.53254300  0.28929900  0.50803300  1
  Cu  Cu14  1  0.10392900  0.63487000  0.09856800  1
  Cu  Cu15  1  0.60392900  0.36513000  0.90143200  1
  Cu  Cu16  1  0.10392900  0.86513000  0.59856800  1
  Cu  Cu17  1  0.60392900  0.13487000  0.40143200  1
  Cu  Cu18  1  0.08982400  0.62427300  0.90121900  1
  Cu  Cu19  1  0.53254300  0.21070100  0.00803300  1
  Cu  Cu20  1  0.08982400  0.87572700  0.40121900  1
  Cu  Cu21  1  0.58982400  0.12427300  0.59878100  1
  Cu  Cu22  1  0.03254300  0.78929900  0.99196700  1
  Cu  Cu23  1  0.58982400  0.37572700  0.09878100  1
  C  C24  1  0.14647800  0.69038500  0.99568900  1
  C  C25  1  0.64647800  0.30961500  0.00431100  1
  C  C26  1  0.64647800  0.19038500  0.50431100  1
  C  C27  1  0.14647800  0.80961500  0.49568900  1
  C  C28  1  0.96206000  0.95659800  0.76687900  1
  C  C29  1  0.44706800  0.46397900  0.26354600  1
  C  C30  1  0.58349900  0.76335900  0.26324000  1
  C  C31  1  0.58349900  0.73664100  0.76324000  1
  C  C32  1  0.94706800  0.96397900  0.23645400  1
  C  C33  1  0.44706800  0.03602100  0.76354600  1
  C  C34  1  0.65471000  0.60937200  0.51081800  1
  C  C35  1  0.15471000  0.39062800  0.48918200  1
  C  C36  1  0.65471000  0.89062800  0.01081800  1
  C  C37  1  0.15471000  0.10937200  0.98918200  1
  C  C38  1  0.08349900  0.26335900  0.23676000  1
  C  C39  1  0.94706800  0.53602100  0.73645400  1
  C  C40  1  0.96206000  0.54340200  0.26687900  1
  C  C41  1  0.46206000  0.04340200  0.23312100  1
  C  C42  1  0.46206000  0.45659800  0.73312100  1
  C  C43  1  0.08349900  0.23664100  0.73676000  1
