# generated using pymatgen
data_Cu3Ni2C
_symmetry_space_group_name_H-M   'P 1'
_cell_length_a   7.94373100
_cell_length_b   8.17182400
_cell_length_c   9.13922200
_cell_angle_alpha   90.00000000
_cell_angle_beta   90.00000000
_cell_angle_gamma   90.00000000
_symmetry_Int_Tables_number   1
_chemical_formula_structural   Cu3Ni2C
_chemical_formula_sum   'Cu12 Ni8 C4'
_cell_volume   593.27050905
_cell_formula_units_Z   4
loop_
 _symmetry_equiv_pos_site_id
 _symmetry_equiv_pos_as_xyz
  1  'x, y, z'
loop_
 _atom_site_type_symbol
 _atom_site_label
 _atom_site_symmetry_multiplicity
 _atom_site_fract_x
 _atom_site_fract_y
 _atom_site_fract_z
 _atom_site_occupancy
  Ni  Ni0  1  0.89292700  0.21691600  0.67192700  1
  Ni  Ni1  1  0.60707300  0.78308400  0.67192700  1
  Ni  Ni2  1  0.10707300  0.71691600  0.82807300  1
  Ni  Ni3  1  0.39292700  0.28308400  0.82807300  1
  Ni  Ni4  1  0.89292700  0.28308400  0.17192700  1
  Ni  Ni5  1  0.39292700  0.21691600  0.32807300  1
  Ni  Ni6  1  0.10707300  0.78308400  0.32807300  1
  Ni  Ni7  1  0.60707300  0.71691600  0.17192700  1
  Cu  Cu8  1  0.07772200  0.11168300  0.01592900  1
  Cu  Cu9  1  0.57772200  0.38831700  0.48407100  1
  Cu  Cu10  1  0.92227800  0.61168300  0.48407100  1
  Cu  Cu11  1  0.42227800  0.88831700  0.01592900  1
  Cu  Cu12  1  0.92227800  0.88831700  0.98407100  1
  Cu  Cu13  1  0.42227800  0.61168300  0.51592900  1
  Cu  Cu14  1  0.07772200  0.38831700  0.51592900  1
  Cu  Cu15  1  0.25000000  0.00000000  0.17858900  1
  Cu  Cu16  1  0.25000000  0.50000000  0.67858900  1
  Cu  Cu17  1  0.75000000  0.00000000  0.82141100  1
  Cu  Cu18  1  0.75000000  0.50000000  0.32141100  1
  Cu  Cu19  1  0.57772200  0.11168300  0.98407100  1
  C  C20  1  0.25000000  0.50000000  0.11357000  1
  C  C21  1  0.75000000  0.50000000  0.88643000  1
  C  C22  1  0.75000000  0.00000000  0.38643000  1
  C  C23  1  0.25000000  0.00000000  0.61357000  1
