# generated using pymatgen
data_CuNi3C22
_symmetry_space_group_name_H-M   'P 1'
_cell_length_a   18.03019429
_cell_length_b   9.00383356
_cell_length_c   22.69769606
_cell_angle_alpha   90.14546366
_cell_angle_beta   90.15123407
_cell_angle_gamma   119.93225673
_symmetry_Int_Tables_number   1
_chemical_formula_structural   CuNi3C22
_chemical_formula_sum   'Cu9 Ni27 C198'
_cell_volume   3193.23232667
_cell_formula_units_Z   9
loop_
 _symmetry_equiv_pos_site_id
 _symmetry_equiv_pos_as_xyz
  1  'x, y, z'
loop_
 _atom_site_type_symbol
 _atom_site_label
 _atom_site_symmetry_multiplicity
 _atom_site_fract_x
 _atom_site_fract_y
 _atom_site_fract_z
 _atom_site_occupancy
  C  C0  1  0.32226620  0.00145988  0.24877803  1
  C  C1  1  0.82242693  0.00173378  0.24935502  1
  C  C2  1  0.18340960  0.98768459  0.74647154  1
  C  C3  1  0.68262499  0.99238544  0.74538930  1
  C  C4  1  0.01736799  0.70498731  0.57949774  1
  C  C5  1  0.51710571  0.70528687  0.57923140  1
  C  C6  1  0.01731331  0.32815353  0.07951862  1
  C  C7  1  0.51602523  0.32611250  0.07977846  1
  C  C8  1  0.48384236  0.66577481  0.91302172  1
  C  C9  1  0.34841563  0.03036214  0.91570963  1
  C  C10  1  0.85149222  0.04335866  0.91225438  1
  C  C11  1  0.16534099  0.30541549  0.92101970  1
  C  C12  1  0.48492761  0.30418784  0.41336306  1
  C  C13  1  0.98506615  0.30447249  0.41336900  1
  C  C14  1  0.16617762  0.03110243  0.42031142  1
  C  C15  1  0.66617637  0.03119067  0.42025467  1
  C  C16  1  0.34892444  0.66675315  0.41597774  1
  C  C17  1  0.84906120  0.66674101  0.41593831  1
  C  C18  1  0.00034929  0.00123580  0.50148147  1
  C  C19  1  0.50006374  0.00087499  0.50138603  1
  C  C20  1  0.00764658  0.99944499  0.00223517  1
  C  C21  1  0.50598337  0.01114060  0.99855500  1
  C  C22  1  0.34327786  0.34193163  0.83189988  1
  C  C23  1  0.84737987  0.34948854  0.83245576  1
  C  C24  1  0.33986048  0.35644189  0.33130442  1
  C  C25  1  0.83984355  0.35651696  0.33124161  1
  C  C26  1  0.17437631  0.65618900  0.16603139  1
  C  C27  1  0.67388641  0.65398989  0.16785081  1
  C  C28  1  0.17981093  0.67854195  0.66682353  1
  C  C29  1  0.67929645  0.67635337  0.66500953  1
  Ni  Ni30  1  0.35368086  0.70486256  0.25014995  1
  Ni  Ni31  1  0.85347371  0.70427653  0.25032780  1
  Ni  Ni32  1  0.00118147  0.30302377  0.24954876  1
  Ni  Ni33  1  0.50119220  0.30321886  0.24960661  1
  Ni  Ni34  1  0.99926823  0.69950478  0.75060217  1
  Ni  Ni35  1  0.49783942  0.70108151  0.75012591  1
  Ni  Ni36  1  0.35344866  0.00000350  0.75061861  1
  Ni  Ni37  1  0.85329593  0.99864065  0.75124698  1
  Ni  Ni38  1  0.18495115  0.03939431  0.58500026  1
  Ni  Ni39  1  0.68518190  0.03985468  0.58523365  1
  Ni  Ni40  1  0.33000349  0.62119913  0.58332560  1
  Ni  Ni41  1  0.82975926  0.62061836  0.58337354  1
  Ni  Ni42  1  0.32938434  0.03712007  0.08437104  1
  Ni  Ni43  1  0.83074048  0.03590635  0.08459500  1
  Ni  Ni44  1  0.18559943  0.33201230  0.08346725  1
  Ni  Ni45  1  0.68703181  0.33205252  0.08356821  1
  Ni  Ni46  1  0.31190415  0.66386383  0.91575566  1
  Ni  Ni47  1  0.01971014  0.37956029  0.91760017  1
  Ni  Ni48  1  0.52334694  0.37628690  0.91846623  1
  Ni  Ni49  1  0.16216301  0.95261630  0.91659038  1
  Ni  Ni50  1  0.66679164  0.96064074  0.91628096  1
  Ni  Ni51  1  0.31199457  0.95960975  0.41449765  1
  Ni  Ni52  1  0.81202966  0.95975362  0.41451667  1
  Ni  Ni53  1  0.16551362  0.37581315  0.41739557  1
  Ni  Ni54  1  0.66552919  0.37568962  0.41737893  1
  Ni  Ni55  1  0.02272390  0.66598972  0.41799393  1
  Ni  Ni56  1  0.52265796  0.66601868  0.41798692  1
  C  C57  1  0.99587584  0.99734015  0.35172660  1
  C  C58  1  0.49591528  0.99718174  0.35164261  1
  C  C59  1  0.99816956  0.99694813  0.85128342  1
  C  C60  1  0.49641208  0.99681851  0.85353666  1
  C  C61  1  0.99445086  0.97951805  0.64829898  1
  C  C62  1  0.49441999  0.98325372  0.64774898  1
  C  C63  1  0.99712174  0.00956988  0.14803914  1
  C  C64  1  0.49670439  0.01117296  0.14729780  1
  C  C65  1  0.33371232  0.33258849  0.68607055  1
  C  C66  1  0.83411516  0.33309242  0.68640582  1
  C  C67  1  0.33158964  0.33722635  0.18585943  1
  C  C68  1  0.83191160  0.33742449  0.18567879  1
  C  C69  1  0.32778182  0.32266065  0.98015455  1
  C  C70  1  0.82903301  0.32047782  0.98225921  1
  C  C71  1  0.32885636  0.33233680  0.48143835  1
  C  C72  1  0.82910606  0.33253894  0.48148161  1
  C  C73  1  0.17258887  0.67139087  0.01804909  1
  C  C74  1  0.66812161  0.66746572  0.02032599  1
  C  C75  1  0.17332509  0.67510016  0.51869362  1
  C  C76  1  0.67329017  0.67523682  0.51849237  1
  C  C77  1  0.16716796  0.65623311  0.31470636  1
  C  C78  1  0.66717700  0.65640484  0.31483781  1
  C  C79  1  0.16674518  0.67005334  0.81613752  1
  C  C80  1  0.66372392  0.67322938  0.81320277  1
  Cu  Cu81  1  0.14460441  0.99854735  0.25008606  1
  Cu  Cu82  1  0.64458772  -0.00110431  0.24983465  1
  Cu  Cu83  1  0.14479332  0.29371640  0.74910886  1
  Cu  Cu84  1  0.64433450  0.29218327  0.75036883  1
  Cu  Cu85  1  0.48069952  0.33080368  0.58299185  1
  Cu  Cu86  1  0.98056925  0.33054324  0.58315120  1
  Cu  Cu87  1  0.48010447  0.63015715  0.08351425  1
  Cu  Cu88  1  0.97873365  0.62690232  0.08292865  1
  Cu  Cu89  1  0.81216645  0.66287546  0.91617038  1
  C  C90  1  0.10688857  0.02181867  0.30514398  1
  C  C91  1  0.60697986  0.02196018  0.30499100  1
  C  C92  1  0.40844437  0.78121099  0.31168698  1
  C  C93  1  0.90834646  0.78154019  0.31175085  1
  C  C94  1  0.48297832  0.18017743  0.30795388  1
  C  C95  1  0.98260467  0.17996753  0.30800275  1
  C  C96  1  0.10747344  0.19137151  0.80431911  1
  C  C97  1  0.60509665  0.18406659  0.80305178  1
  C  C98  1  0.48844507  0.79156256  0.80980312  1
  C  C99  1  0.98423201  0.79409260  0.80725775  1
  C  C100  1  0.41001947  0.03733891  0.81090202  1
  C  C101  1  0.90728061  0.03122830  0.81289657  1
  C  C102  1  0.40040784  0.98138412  0.69205619  1
  C  C103  1  0.90094309  0.97988623  0.69343087  1
  C  C104  1  0.09127476  0.20744565  0.69674444  1
  C  C105  1  0.59329067  0.21779679  0.69624179  1
  C  C106  1  0.02309781  0.82164026  0.69142308  1
  C  C107  1  0.52218473  0.82611291  0.69210846  1
  C  C108  1  0.40114119  0.83256783  0.19437235  1
  C  C109  1  0.90065661  0.83195331  0.19449917  1
  C  C110  1  0.01738736  0.22095358  0.18985755  1
  C  C111  1  0.51800211  0.22242558  0.18978567  1
  C  C112  1  0.09230608  0.97744659  0.19729466  1
  C  C113  1  0.59210749  0.97788033  0.19705448  1
  C  C114  1  0.43978193  0.35947378  0.63485399  1
  C  C115  1  0.93938648  0.35897360  0.63500712  1
  C  C116  1  0.24260681  0.12281052  0.64430145  1
  C  C117  1  0.74266844  0.12268956  0.64487474  1
  C  C118  1  0.32086346  0.50567639  0.64050916  1
  C  C119  1  0.82040002  0.50513021  0.64063743  1
  C  C120  1  0.44004143  0.51870334  0.13518762  1
  C  C121  1  0.94036210  0.51803860  0.13574879  1
  C  C122  1  0.32071884  0.12828380  0.14473282  1
  C  C123  1  0.81882972  0.12457635  0.14425520  1
  C  C124  1  0.24733322  0.36881578  0.14008450  1
  C  C125  1  0.74663607  0.36947197  0.14146994  1
  C  C126  1  0.22536126  0.30738615  0.02173170  1
  C  C127  1  0.73084301  0.31080238  0.02382825  1
  C  C128  1  0.43046191  0.55695226  0.02830774  1
  C  C129  1  0.92566233  0.55171901  0.02927630  1
  C  C130  1  0.35401831  0.16501556  0.02658694  1
  C  C131  1  0.85474411  0.15938119  0.02619458  1
  C  C132  1  0.22700707  0.14534741  0.52405817  1
  C  C133  1  0.72739177  0.14589872  0.52438002  1
  C  C134  1  0.35408358  0.54751122  0.52388240  1
  C  C135  1  0.85396356  0.54763025  0.52389934  1
  C  C136  1  0.42992308  0.30283232  0.52787525  1
  C  C137  1  0.92969724  0.30205286  0.52806694  1
  C  C138  1  0.27526910  0.71433595  0.97303078  1
  C  C139  1  0.77422039  0.69534667  0.96941909  1
  C  C140  1  0.07840915  0.45170326  0.97757310  1
  C  C141  1  0.57710013  0.45675742  0.97959977  1
  C  C142  1  0.14555547  0.83406836  0.97382715  1
  C  C143  1  0.64773482  0.83114466  0.97196256  1
  C  C144  1  0.27381330  0.83252588  0.47058793  1
  C  C145  1  0.77379899  0.83260722  0.47059526  1
  C  C146  1  0.13980752  0.45297630  0.47371270  1
  C  C147  1  0.63983540  0.45303295  0.47369442  1
  C  C148  1  0.07946803  0.70587551  0.47862882  1
  C  C149  1  0.57947716  0.70618045  0.47865944  1
  C  C150  1  0.06467540  0.62360727  0.36182786  1
  C  C151  1  0.56470465  0.62362717  0.36188435  1
  C  C152  1  0.25176381  0.88714207  0.35518481  1
  C  C153  1  0.75182452  0.88729198  0.35520577  1
  C  C154  1  0.19314907  0.50026798  0.36028036  1
  C  C155  1  0.69321035  0.50031252  0.36030244  1
  C  C156  1  0.06331864  0.48856801  0.85894632  1
  C  C157  1  0.56723299  0.50295891  0.86197619  1
  C  C158  1  0.18563368  0.88518839  0.85649728  1
  C  C159  1  0.69213981  0.88811900  0.85726592  1
  C  C160  1  0.24798892  0.61232542  0.85902926  1
  C  C161  1  0.76032100  0.63507721  0.86258320  1
  C  C162  1  0.01388331  0.83902731  0.41070153  1
  C  C163  1  0.51396031  0.83914505  0.41070074  1
  C  C164  1  0.40805987  0.98171106  0.41150617  1
  C  C165  1  0.90804404  0.98168024  0.41157377  1
  C  C166  1  0.08215019  0.18244215  0.40898547  1
  C  C167  1  0.58218245  0.18239257  0.40897474  1
  C  C168  1  0.00650016  0.18100779  0.91186218  1
  C  C169  1  0.50845609  0.18291511  0.91218563  1
  C  C170  1  0.08149350  0.99093958  0.91096930  1
  C  C171  1  0.57943163  0.97046959  0.91001560  1
  C  C172  1  0.40712421  0.83344003  0.91138420  1
  C  C173  1  0.89722265  0.82427158  0.91233550  1
  C  C174  1  0.49204131  0.18030490  0.58905937  1
  C  C175  1  0.99155275  0.17902172  0.58966303  1
  C  C176  1  0.08932975  0.02508267  0.58888058  1
  C  C177  1  0.58975650  0.02599975  0.58918901  1
  C  C178  1  0.41828172  0.81147119  0.58609876  1
  C  C179  1  0.91778596  0.81128002  0.58630278  1
  C  C180  1  0.49189413  0.80361138  0.09039971  1
  C  C181  1  0.98999259  0.80055247  0.08986712  1
  C  C182  1  0.41811375  0.02389037  0.08589300  1
  C  C183  1  0.91847826  0.02071075  0.08642119  1
  C  C184  1  0.09061020  0.15409740  0.08871893  1
  C  C185  1  0.59135824  0.15641599  0.08823170  1
  C  C186  1  0.33588085  0.16436199  0.74560158  1
  C  C187  1  0.83464343  0.16083585  0.74614554  1
  C  C188  1  0.22931696  0.30186718  0.74563527  1
  C  C189  1  0.72962107  0.30247166  0.74659507  1
  C  C190  1  0.41202804  0.51341655  0.74483649  1
  C  C191  1  0.91254141  0.51198719  0.74509401  1
  C  C192  1  0.34164872  0.51338687  0.24500949  1
  C  C193  1  0.84163389  0.51310602  0.24525363  1
  C  C194  1  0.40874459  0.30122518  0.24497525  1
  C  C195  1  0.90855799  0.30045287  0.24467720  1
  C  C196  1  0.23168955  0.15288542  0.24700668  1
  C  C197  1  0.73169499  0.15286167  0.24679723  1
  C  C198  1  0.32531350  0.49687007  0.92288479  1
  C  C199  1  0.82493160  0.51445991  0.92237934  1
  C  C200  1  0.42835392  0.36320074  0.92281870  1
  C  C201  1  0.92302889  0.35709489  0.92321756  1
  C  C202  1  0.24959503  0.14434806  0.92063471  1
  C  C203  1  0.75375844  0.14846833  0.92087109  1
  C  C204  1  0.32460843  0.15217216  0.42307256  1
  C  C205  1  0.82448429  0.15210448  0.42311865  1
  C  C206  1  0.25010194  0.35283279  0.42234362  1
  C  C207  1  0.75011083  0.35271603  0.42244319  1
  C  C208  1  0.42691458  0.49386785  0.42337960  1
  C  C209  1  0.92690479  0.49384355  0.42336565  1
  C  C210  1  0.16645201  0.49346106  0.07988998  1
  C  C211  1  0.66833961  0.49479394  0.07948071  1
  C  C212  1  0.06302410  0.63633711  0.07776485  1
  C  C213  1  0.56513282  0.63988278  0.07999867  1
  C  C214  1  0.24238209  0.85149200  0.08062299  1
  C  C215  1  0.74470629  0.84800336  0.07861930  1
  C  C216  1  0.16752288  0.84068844  0.58083225  1
  C  C217  1  0.66757770  0.84086658  0.58102665  1
  C  C218  1  0.24318010  0.63376175  0.57990933  1
  C  C219  1  0.74318824  0.63398498  0.57983544  1
  C  C220  1  0.06436658  0.49025409  0.57918101  1
  C  C221  1  0.56477171  0.49128428  0.57907757  1
  C  C222  1  0.15522102  0.84576713  0.25293748  1
  C  C223  1  0.65518493  0.84588755  0.25266019  1
  C  C224  1  0.26272773  0.70797935  0.25337765  1
  C  C225  1  0.76264303  0.70807234  0.25347005  1
  C  C226  1  0.08450535  0.49391447  0.25338835  1
  C  C227  1  0.58457115  0.49419827  0.25342712  1
  C  C228  1  0.15476084  0.46486781  0.75250898  1
  C  C229  1  0.65696641  0.46678143  0.75696082  1
  C  C230  1  0.08678122  0.68677995  0.75517331  1
  C  C231  1  0.58628157  0.68786838  0.75214675  1
  C  C232  1  0.25810714  0.82669291  0.75398174  1
  C  C233  1  0.75817353  0.82170903  0.75433870  1
