# generated using pymatgen
data_Cu2NiC14
_symmetry_space_group_name_H-M   'P 1'
_cell_length_a   5.69130854
_cell_length_b   5.69130854
_cell_length_c   12.07118896
_cell_angle_alpha   98.98003982
_cell_angle_beta   98.98003982
_cell_angle_gamma   36.97614766
_symmetry_Int_Tables_number   1
_chemical_formula_structural   Cu2NiC14
_chemical_formula_sum   'Cu2 Ni1 C14'
_cell_volume   231.97119572
_cell_formula_units_Z   1
loop_
 _symmetry_equiv_pos_site_id
 _symmetry_equiv_pos_as_xyz
  1  'x, y, z'
loop_
 _atom_site_type_symbol
 _atom_site_label
 _atom_site_symmetry_multiplicity
 _atom_site_fract_x
 _atom_site_fract_y
 _atom_site_fract_z
 _atom_site_occupancy
  Ni  Ni0  1  0.50000000  0.50000000  0.00000000  1
  C  C1  1  0.12801584  0.12801584  0.54371167  1
  C  C2  1  0.17246872  0.17246872  0.89974650  1
  C  C3  1  0.82753128  0.82753128  0.10025350  1
  C  C4  1  0.87198416  0.87198416  0.45628833  1
  Cu  Cu5  1  0.14700487  0.14700487  0.26636029  1
  Cu  Cu6  1  0.85299513  0.85299513  0.73363971  1
  C  C7  1  0.00355003  0.00355003  0.11047349  1
  C  C8  1  0.02763830  0.02763830  0.39829731  1
  C  C9  1  0.32338460  0.32338460  0.03241864  1
  C  C10  1  0.30379774  0.30379774  0.43652700  1
  C  C11  1  0.76352837  0.76352837  0.23025882  1
  C  C12  1  0.23647163  0.23647163  0.76974118  1
  C  C13  1  0.69620226  0.69620226  0.56347300  1
  C  C14  1  0.97236170  0.97236170  0.60170269  1
  C  C15  1  0.67661540  0.67661540  0.96758136  1
  C  C16  1  0.99644997  0.99644997  0.88952651  1
