# generated using pymatgen
data_CuNiC13
_symmetry_space_group_name_H-M   'P 1'
_cell_length_a   5.49558400
_cell_length_b   5.49558456
_cell_length_c   8.56995300
_cell_angle_alpha   90.00000000
_cell_angle_beta   90.00000000
_cell_angle_gamma   119.99999663
_symmetry_Int_Tables_number   1
_chemical_formula_structural   CuNiC13
_chemical_formula_sum   'Cu1 Ni1 C13'
_cell_volume   224.14901348
_cell_formula_units_Z   1
loop_
 _symmetry_equiv_pos_site_id
 _symmetry_equiv_pos_as_xyz
  1  'x, y, z'
loop_
 _atom_site_type_symbol
 _atom_site_label
 _atom_site_symmetry_multiplicity
 _atom_site_fract_x
 _atom_site_fract_y
 _atom_site_fract_z
 _atom_site_occupancy
  Ni  Ni0  1  0.00000000  0.00000000  0.00000000  1
  Cu  Cu1  1  0.00000000  0.00000000  0.49999900  1
  C  C2  1  0.66666700  0.33333300  0.50000000  1
  C  C3  1  0.66666600  0.33333400  0.21128200  1
  C  C4  1  0.66666600  0.33333400  0.78871800  1
  C  C5  1  0.33333400  0.66666700  0.75968500  1
  C  C6  1  0.33333400  0.66666700  0.24031500  1
  C  C7  1  0.37495900  0.36574300  0.66819500  1
  C  C8  1  0.63425800  0.00921700  0.66819500  1
  C  C9  1  0.99078200  0.62503900  0.66819500  1
  C  C10  1  0.63425700  0.62503900  0.33180400  1
  C  C11  1  0.99078400  0.36574300  0.33180400  1
  C  C12  1  0.37496000  0.00921700  0.33180400  1
  C  C13  1  0.33333400  0.66666700  0.00000000  1
  C  C14  1  0.66666600  0.33333400  0.00000000  1
