# generated using pymatgen
data_Cu3Ni5
_symmetry_space_group_name_H-M   'P 1'
_cell_length_a   14.30502900
_cell_length_b   6.47372500
_cell_length_c   11.67054441
_cell_angle_alpha   63.42226943
_cell_angle_beta   90.00000000
_cell_angle_gamma   90.00000000
_symmetry_Int_Tables_number   1
_chemical_formula_structural   Cu3Ni5
_chemical_formula_sum   'Cu24 Ni40'
_cell_volume   966.56492489
_cell_formula_units_Z   8
loop_
 _symmetry_equiv_pos_site_id
 _symmetry_equiv_pos_as_xyz
  1  'x, y, z'
loop_
 _atom_site_type_symbol
 _atom_site_label
 _atom_site_symmetry_multiplicity
 _atom_site_fract_x
 _atom_site_fract_y
 _atom_site_fract_z
 _atom_site_occupancy
  Ni  Ni0  1  0.28008000  0.55328400  0.30761200  1
  Ni  Ni1  1  0.78008000  0.44671600  0.19238800  1
  Ni  Ni2  1  0.71992000  0.44671600  0.69238800  1
  Ni  Ni3  1  0.21992000  0.55328400  0.80761200  1
  Ni  Ni4  1  0.25110000  0.38313100  0.64387100  1
  Ni  Ni5  1  0.75110000  0.61686900  0.85612900  1
  Ni  Ni6  1  0.74890000  0.61686900  0.35612900  1
  Ni  Ni7  1  0.24890000  0.38313100  0.14387100  1
  Ni  Ni8  1  0.48799200  0.25730200  0.79495500  1
  Ni  Ni9  1  0.98799200  0.74269800  0.70504500  1
  Ni  Ni10  1  0.51200800  0.74269800  0.20504500  1
  Ni  Ni11  1  0.01200800  0.25730200  0.29495500  1
  Ni  Ni12  1  0.15007900  0.95260600  0.59088200  1
  Ni  Ni13  1  0.65007900  0.04739400  0.90911800  1
  Ni  Ni14  1  0.84992100  0.04739400  0.40911800  1
  Ni  Ni15  1  0.44307600  0.32802200  0.33539300  1
  Ni  Ni16  1  0.34992100  0.95260600  0.09088200  1
  Ni  Ni17  1  0.93667300  0.64744000  0.50943400  1
  Ni  Ni18  1  0.56332700  0.64744000  0.00943400  1
  Ni  Ni19  1  0.06332700  0.35256000  0.49056600  1
  Ni  Ni20  1  0.11284600  0.86026100  0.39123600  1
  Ni  Ni21  1  0.61284600  0.13973900  0.10876400  1
  Ni  Ni22  1  0.88715400  0.13973900  0.60876400  1
  Ni  Ni23  1  0.38715400  0.86026100  0.89123600  1
  Ni  Ni24  1  0.15839800  0.92671200  0.93263900  1
  Ni  Ni25  1  0.65839800  0.07328800  0.56736100  1
  Ni  Ni26  1  0.84160200  0.07328800  0.06736100  1
  Ni  Ni27  1  0.34160200  0.92671200  0.43263900  1
  Ni  Ni28  1  0.50993100  0.74395300  0.42350300  1
  Ni  Ni29  1  0.00993100  0.25604700  0.07649700  1
  Ni  Ni30  1  0.49006900  0.25604700  0.57649700  1
  Ni  Ni31  1  0.99006900  0.74395300  0.92350300  1
  Ni  Ni32  1  0.39055100  0.86431600  0.67232700  1
  Ni  Ni33  1  0.89055100  0.13568400  0.82767300  1
  Ni  Ni34  1  0.60944900  0.13568400  0.32767300  1
  Ni  Ni35  1  0.10944900  0.86431600  0.17232700  1
  Ni  Ni36  1  0.05692400  0.32802200  0.83539300  1
  Ni  Ni37  1  0.55692400  0.67197800  0.66460700  1
  Ni  Ni38  1  0.94307600  0.67197800  0.16460700  1
  Ni  Ni39  1  0.43667300  0.35256000  0.99056600  1
  Cu  Cu40  1  0.33550800  0.23323600  0.50662800  1
  Cu  Cu41  1  0.83550800  0.76676400  0.99337200  1
  Cu  Cu42  1  0.66449200  0.76676400  0.49337200  1
  Cu  Cu43  1  0.16449200  0.23323600  0.00662800  1
  Cu  Cu44  1  0.16652800  0.23634400  0.36673900  1
  Cu  Cu45  1  0.66652800  0.76365600  0.13326100  1
  Cu  Cu46  1  0.83347200  0.76365600  0.63326100  1
  Cu  Cu47  1  0.33347200  0.23634400  0.86673900  1
  Cu  Cu48  1  0.45652300  0.08163800  0.22723800  1
  Cu  Cu49  1  0.95652300  0.91836200  0.27276200  1
  Cu  Cu50  1  0.54347700  0.91836200  0.77276200  1
  Cu  Cu51  1  0.04347700  0.08163800  0.72723800  1
  Cu  Cu52  1  0.25241200  0.95151000  0.25597300  1
  Cu  Cu53  1  0.75241200  0.04849000  0.24402700  1
  Cu  Cu54  1  0.74758800  0.04849000  0.74402700  1
  Cu  Cu55  1  0.24758800  0.95151000  0.75597300  1
  Cu  Cu56  1  0.09361100  0.56691000  0.10339500  1
  Cu  Cu57  1  0.59361100  0.43309000  0.39660500  1
  Cu  Cu58  1  0.90638900  0.43309000  0.89660500  1
  Cu  Cu59  1  0.40638900  0.56691000  0.60339500  1
  Cu  Cu60  1  0.90180400  0.42765000  0.38878900  1
  Cu  Cu61  1  0.40180400  0.57235000  0.11121100  1
  Cu  Cu62  1  0.09819600  0.57235000  0.61121100  1
  Cu  Cu63  1  0.59819600  0.42765000  0.88878900  1
