# generated using pymatgen
data_Cu(NiC4)4
_symmetry_space_group_name_H-M   'P 1'
_cell_length_a   9.41677271
_cell_length_b   9.41969302
_cell_length_c   22.71500055
_cell_angle_alpha   90.34744528
_cell_angle_beta   89.35459883
_cell_angle_gamma   120.14416359
_symmetry_Int_Tables_number   1
_chemical_formula_structural   Cu(NiC4)4
_chemical_formula_sum   'Cu6 Ni24 C96'
_cell_volume   1742.29580168
_cell_formula_units_Z   6
loop_
 _symmetry_equiv_pos_site_id
 _symmetry_equiv_pos_as_xyz
  1  'x, y, z'
loop_
 _atom_site_type_symbol
 _atom_site_label
 _atom_site_symmetry_multiplicity
 _atom_site_fract_x
 _atom_site_fract_y
 _atom_site_fract_z
 _atom_site_occupancy
  Ni  Ni0  1  0.64976351  0.01130891  0.25248143  1
  Ni  Ni1  1  0.34965642  0.36297963  0.25036505  1
  Ni  Ni2  1  0.99983818  0.64227922  0.25012571  1
  Ni  Ni3  1  0.62976402  0.62926269  0.74512315  1
  Ni  Ni4  1  0.98600552  0.35730411  0.74611299  1
  Ni  Ni5  1  0.37584503  0.01664579  0.74608970  1
  Ni  Ni6  1  0.29295720  0.33366517  0.59007387  1
  Ni  Ni7  1  0.04179517  0.70990539  0.58399083  1
  Ni  Ni8  1  0.66791850  0.95541445  0.58458544  1
  Ni  Ni9  1  0.28197736  0.96565166  0.08311924  1
  Ni  Ni10  1  0.67234236  0.68831333  0.09270761  1
  Ni  Ni11  1  0.04789489  0.33543715  0.09273825  1
  Ni  Ni12  1  0.97968024  0.67297840  0.91261430  1
  Ni  Ni13  1  0.70976514  0.04746800  0.90125225  1
  Ni  Ni14  1  0.31551978  0.27932006  0.91545900  1
  Ni  Ni15  1  0.94906241  0.29552517  0.40985098  1
  Ni  Ni16  1  0.33298547  0.02510219  0.41568669  1
  Ni  Ni17  1  0.70874014  0.67097207  0.41872383  1
  Ni  Ni18  1  0.98740865  0.98500849  0.50577288  1
  Ni  Ni19  1  0.03039432  0.01139418  0.99928083  1
  Ni  Ni20  1  0.66907436  0.32257836  0.82481393  1
  Ni  Ni21  1  0.67275584  0.32816413  0.33516913  1
  Ni  Ni22  1  0.32217945  0.64916251  0.17298007  1
  Ni  Ni23  1  0.33893042  0.66570484  0.66834027  1
  Cu  Cu24  1  0.99611423  0.99646530  0.34113048  1
  Cu  Cu25  1  0.00708611  0.00476273  0.83288536  1
  Cu  Cu26  1  0.00368785  -0.00003122  0.16370584  1
  Cu  Cu27  1  0.66876511  0.33131638  0.97908793  1
  Cu  Cu28  1  0.31769977  0.65606737  0.01932475  1
  Cu  Cu29  1  0.33485472  0.67284604  0.52146015  1
  C  C30  1  0.99979679  0.00054127  0.65238946  1
  C  C31  1  0.66597242  0.33388319  0.68264972  1
  C  C32  1  0.66393548  0.35009492  0.18711766  1
  C  C33  1  0.68047068  0.32922640  0.48840938  1
  C  C34  1  0.33036800  0.68859500  0.31616392  1
  C  C35  1  0.31040292  0.66800980  0.80624949  1
  C  C36  1  0.32965831  0.00856709  0.24998781  1
  C  C37  1  0.66678044  0.67865451  0.25129293  1
  C  C38  1  0.00018101  0.33159445  0.25055662  1
  C  C39  1  0.30967591  0.31017152  0.74661051  1
  C  C40  1  0.99153632  0.69142618  0.74717479  1
  C  C41  1  0.69045033  -0.00070311  0.74727205  1
  C  C42  1  0.94666809  0.31490189  0.58828419  1
  C  C43  1  0.37608809  0.05960194  0.58614827  1
  C  C44  1  0.68404992  0.62225911  0.58574361  1
  C  C45  1  0.95896806  0.63150153  0.08629628  1
  C  C46  1  0.37191950  0.33204840  0.08635163  1
  C  C47  1  0.03893545  0.36938241  0.90924935  1
  C  C48  1  0.33209437  0.95905858  0.91164282  1
  C  C49  1  0.63084517  0.97474153  0.41835653  1
  C  C50  1  0.02519299  0.65812865  0.41919372  1
  C  C51  1  0.67102609  0.03796609  0.08805388  1
  C  C52  1  0.62690168  0.66914942  0.91115623  1
  C  C53  1  0.34295174  0.36824734  0.41589413  1
  C  C54  1  0.25946731  0.06299811  0.30601266  1
  C  C55  1  0.79760922  0.74898428  0.30467132  1
  C  C56  1  0.94767432  0.20281432  0.30530809  1
  C  C57  1  0.26281968  0.21007058  0.80828092  1
  C  C58  1  0.94416472  0.74114349  0.80938543  1
  C  C59  1  0.79189695  0.04759938  0.80814248  1
  C  C60  1  0.81040305  0.97244659  0.69683170  1
  C  C61  1  0.16334375  0.19014972  0.69672196  1
  C  C62  1  0.02452097  0.83568013  0.69693918  1
  C  C63  1  0.73595551  0.80034366  0.19454561  1
  C  C64  1  0.05271413  0.25941960  0.19397671  1
  C  C65  1  0.20331661  0.94761954  0.19517614  1
  C  C66  1  0.84275216  0.33020912  0.64254291  1
  C  C67  1  0.49014485  0.16128667  0.64182720  1
  C  C68  1  0.67281769  0.51032647  0.64179380  1
  C  C69  1  0.83271245  0.51118890  0.13935744  1
  C  C70  1  0.66955712  0.13964718  0.13735642  1
  C  C71  1  0.48885289  0.32117309  0.13897690  1
  C  C72  1  0.44265029  0.31706203  0.02183953  1
  C  C73  1  0.87788392  0.55537534  0.02236473  1
  C  C74  1  0.68062306  0.11603893  0.03017933  1
  C  C75  1  0.47781164  0.17044639  0.52596389  1
  C  C76  1  0.70026486  0.52379073  0.52539490  1
  C  C77  1  0.83657785  0.30087649  0.52700495  1
  C  C78  1  0.55565278  0.67746396  0.96884905  1
  C  C79  1  0.12741263  0.43778864  0.97277677  1
  C  C80  1  0.32920064  0.87749886  0.97537403  1
  C  C81  1  0.56676369  0.86894405  0.47874715  1
  C  C82  1  0.32094413  0.43773081  0.47202024  1
  C  C83  1  0.12582663  0.68594269  0.47970716  1
  C  C84  1  0.14210927  0.65355444  0.36322685  1
  C  C85  1  0.50323315  0.86054712  0.36393512  1
  C  C86  1  0.35016415  0.47024375  0.36499851  1
  C  C87  1  0.16332947  0.49321903  0.85456253  1
  C  C88  1  0.32805847  0.83525937  0.85580483  1
  C  C89  1  0.52566044  0.66722477  0.86121203  1
  C  C90  1  0.00064811  0.81770885  0.41282527  1
  C  C91  1  0.81811861  0.00931250  0.40988177  1
  C  C92  1  0.19911642  0.19931162  0.41280528  1
  C  C93  1  0.00951627  0.18330675  0.90738268  1
  C  C94  1  0.16573330  0.97283934  0.91095183  1
  C  C95  1  0.79446806  0.81479984  0.90964582  1
  C  C96  1  0.95679688  0.14467040  0.59138993  1
  C  C97  1  0.19321662  0.04508588  0.59024443  1
  C  C98  1  0.85118775  0.80637210  0.59032212  1
  C  C99  1  0.97614368  0.81325619  0.08912912  1
  C  C100  1  0.81856266  0.01943548  0.08952457  1
  C  C101  1  0.18493348  0.17465775  0.09001766  1
  C  C102  1  0.66157800  0.15495674  0.73541108  1
  C  C103  1  0.49490106  0.34011424  0.73403337  1
  C  C104  1  0.84202539  0.50510598  0.73542085  1
  C  C105  1  0.64011103  0.49221796  0.23937268  1
  C  C106  1  0.84070048  0.35538791  0.23898515  1
  C  C107  1  0.51602973  0.15824506  0.23677386  1
  C  C108  1  0.63547340  0.51470745  0.90790062  1
  C  C109  1  0.86752739  0.37274746  0.90263837  1
  C  C110  1  0.50236879  0.13498875  0.90251245  1
  C  C111  1  0.63107518  0.15161465  0.42189109  1
  C  C112  1  0.49858753  0.36303802  0.41671216  1
  C  C113  1  0.84590195  0.48283102  0.42116571  1
  C  C114  1  0.37636204  0.50748067  0.09517518  1
  C  C115  1  0.13676539  0.64174576  0.09585724  1
  C  C116  1  0.51954313  0.87429628  0.09165581  1
  C  C117  1  0.35801335  0.87736124  0.58879216  1
  C  C118  1  0.51686113  0.63483874  0.58737705  1
  C  C119  1  0.12976727  0.47660135  0.58914157  1
  C  C120  1  0.34699538  0.84379793  0.26277450  1
  C  C121  1  0.48504761  0.65244995  0.26762901  1
  C  C122  1  0.16283640  0.51264177  0.26377080  1
  C  C123  1  0.31459949  0.48797116  0.74923486  1
  C  C124  1  0.16755559  0.68577494  0.75115944  1
  C  C125  1  0.51070905  0.82619941  0.75138908  1
