# generated using pymatgen
data_Cu3Ni3C35
_symmetry_space_group_name_H-M   'P 1'
_cell_length_a   8.77263629
_cell_length_b   8.77745414
_cell_length_c   21.71468982
_cell_angle_alpha   89.42242789
_cell_angle_beta   90.43146495
_cell_angle_gamma   119.84933423
_symmetry_Int_Tables_number   1
_chemical_formula_structural   Cu3Ni3C35
_chemical_formula_sum   'Cu9 Ni9 C105'
_cell_volume   1450.16164523
_cell_formula_units_Z   3
loop_
 _symmetry_equiv_pos_site_id
 _symmetry_equiv_pos_as_xyz
  1  'x, y, z'
loop_
 _atom_site_type_symbol
 _atom_site_label
 _atom_site_symmetry_multiplicity
 _atom_site_fract_x
 _atom_site_fract_y
 _atom_site_fract_z
 _atom_site_occupancy
  C  C0  1  0.63564228  0.00606236  0.24826334  1
  C  C1  1  0.37122348  0.36538544  0.24836604  1
  C  C2  1  0.99507726  0.63152264  0.25009383  1
  C  C3  1  0.63428242  0.62616170  0.74917007  1
  C  C4  1  0.99266663  0.37074611  0.74742769  1
  C  C5  1  0.37162097  0.00450658  0.74782005  1
  C  C6  1  0.02937643  0.69380110  0.58407254  1
  C  C7  1  0.66630108  0.97108786  0.58158862  1
  C  C8  1  0.30779307  0.97245739  0.08381025  1
  C  C9  1  0.66299395  0.69373933  0.08380142  1
  C  C10  1  0.02911830  0.33317658  0.08178445  1
  C  C11  1  0.33401853  0.30153588  0.91762543  1
  C  C12  1  0.96609367  0.29015970  0.41646400  1
  C  C13  1  0.32392605  0.03348121  0.41615667  1
  C  C14  1  0.70934251  0.67493936  0.41587646  1
  C  C15  1  0.00576226  0.00701780  0.49645731  1
  C  C16  1  0.99138640  0.99510351  0.99737594  1
  C  C17  1  0.67809633  0.33922525  0.83471684  1
  C  C18  1  0.66623672  0.33322109  0.33327567  1
  C  C19  1  0.33650459  0.66766633  0.16535986  1
  C  C20  1  0.32899548  0.65742663  0.66438402  1
  C  C21  1  0.99913098  0.99976859  0.35567657  1
  C  C22  1  0.67330477  0.33851846  0.68447618  1
  C  C23  1  0.66382347  0.33046868  0.18236612  1
  Ni  Ni24  1  0.00333240  0.71675014  0.75252199  1
  Ni  Ni25  1  0.96641391  0.33501444  0.58440453  1
  Ni  Ni26  1  0.66285307  0.03956526  0.08315493  1
  Ni  Ni27  1  0.37640178  0.33422698  0.08292268  1
  Ni  Ni28  1  0.62651476  0.66900511  0.91610079  1
  Ni  Ni29  1  0.03693765  0.37510922  0.91675859  1
  Ni  Ni30  1  0.61686473  0.95364487  0.41905408  1
  Ni  Ni31  1  0.33738002  0.37950600  0.41841305  1
  Ni  Ni32  1  0.04471266  0.66391190  0.41834363  1
  C  C33  1  0.98994060  0.99386903  0.85634341  1
  C  C34  1  0.00819070  0.00626073  0.64674689  1
  C  C35  1  0.00035775  0.00547058  0.14695074  1
  C  C36  1  0.67207613  0.33439748  0.97940124  1
  C  C37  1  0.66951201  0.32989763  0.47964363  1
  C  C38  1  0.34039719  0.66365230  0.01633902  1
  C  C39  1  0.32849205  0.65692237  0.51757902  1
  C  C40  1  0.33344849  0.66652492  0.31974637  1
  C  C41  1  0.32475242  0.66302582  0.81793603  1
  Cu  Cu42  1  0.28953077  0.99769134  0.25116377  1
  Cu  Cu43  1  0.70872071  0.70997301  0.25097058  1
  Cu  Cu44  1  0.00247305  0.29401826  0.25104182  1
  Cu  Cu45  1  0.28376016  0.28633638  0.75188542  1
  Cu  Cu46  1  0.71218609  0.99652235  0.75120090  1
  Cu  Cu47  1  0.37516056  0.04421128  0.58371433  1
  Cu  Cu48  1  0.66170835  0.62243960  0.58346379  1
  Cu  Cu49  1  0.95910882  0.62506891  0.08292725  1
  Cu  Cu50  1  0.33394141  0.95386877  0.91660784  1
  C  C51  1  0.20529978  0.02744092  0.30678574  1
  C  C52  1  0.82199909  0.79320660  0.30715172  1
  C  C53  1  0.96987091  0.17818863  0.30702210  1
  C  C54  1  0.20156366  0.16992871  0.80971865  1
  C  C55  1  0.96834866  0.81426694  0.80930802  1
  C  C56  1  0.83639581  0.03817087  0.80690460  1
  C  C57  1  0.79057715  0.95769411  0.69246070  1
  C  C58  1  0.16196196  0.20615911  0.69436340  1
  C  C59  1  0.04559803  0.84300299  0.68940292  1
  C  C60  1  0.79240172  0.83024328  0.19106923  1
  C  C61  1  0.04050315  0.21242226  0.19157264  1
  C  C62  1  0.16814355  0.95919235  0.19127148  1
  C  C63  1  0.88978131  0.37748282  0.64417104  1
  C  C64  1  0.48636224  0.11971932  0.64155332  1
  C  C65  1  0.63073335  0.51591398  0.64222757  1
  C  C66  1  0.88974227  0.51505818  0.14157394  1
  C  C67  1  0.62061264  0.10835965  0.14473487  1
  C  C68  1  0.49275113  0.38245739  0.14374125  1
  C  C69  1  0.46112463  0.29031517  0.02228346  1
  C  C70  1  0.83449525  0.54472587  0.02690541  1
  C  C71  1  0.71252864  0.17646704  0.02462757  1
  C  C72  1  0.45752849  0.15906939  0.52486518  1
  C  C73  1  0.70273246  0.54232726  0.52596524  1
  C  C74  1  0.83237329  0.28926686  0.52355772  1
  C  C75  1  0.53975185  0.70326701  0.97692678  1
  C  C76  1  0.16856649  0.46296394  0.97616276  1
  C  C77  1  0.29890749  0.83673434  0.97444140  1
  C  C78  1  0.52794015  0.82769586  0.47903238  1
  C  C79  1  0.29525719  0.46885272  0.47549985  1
  C  C80  1  0.17277231  0.70568546  0.47795214  1
  C  C81  1  0.12480676  0.61709705  0.35603837  1
  C  C82  1  0.49172196  0.87356534  0.35606748  1
  C  C83  1  0.38428750  0.50651532  0.35517550  1
  C  C84  1  0.12524520  0.49670951  0.85460248  1
  C  C85  1  0.36788962  0.87320042  0.85793041  1
  C  C86  1  0.49445285  0.62594222  0.85541725  1
  C  C87  1  0.02239595  0.83270850  0.41318981  1
  C  C88  1  0.80793524  0.97579729  0.41400758  1
  C  C89  1  0.16848508  0.18965648  0.41255806  1
  C  C90  1  0.03306018  0.18537763  0.90871548  1
  C  C91  1  0.17041900  0.97832079  0.91065048  1
  C  C92  1  0.81925336  0.84418701  0.91057178  1
  C  C93  1  0.97375262  0.14888695  0.59055062  1
  C  C94  1  0.18514360  0.01907274  0.58758074  1
  C  C95  1  0.83387711  0.81041102  0.58795785  1
  C  C96  1  0.97824339  0.81261731  0.08913214  1
  C  C97  1  0.84089944  0.01640700  0.08961247  1
  C  C98  1  0.17797612  0.15401362  0.08969378  1
  C  C99  1  0.68603784  0.15591513  0.74585942  1
  C  C100  1  0.46603395  0.30481953  0.74597361  1
  C  C101  1  0.83292199  0.52447901  0.74898992  1
  C  C102  1  0.68772511  0.52681345  0.24477183  1
  C  C103  1  0.84255637  0.31885087  0.24383410  1
  C  C104  1  0.47312604  0.15831550  0.24526387  1
  C  C105  1  0.63404588  0.48554551  0.92362046  1
  C  C106  1  0.84477639  0.35785352  0.92364061  1
  C  C107  1  0.49741781  0.13962270  0.92146862  1
  C  C108  1  0.63013550  0.14779619  0.42342733  1
  C  C109  1  0.51803948  0.36654729  0.42547695  1
  C  C110  1  0.85000537  0.48467904  0.42416816  1
  C  C111  1  0.34646396  0.50580006  0.07488069  1
  C  C112  1  0.14606384  0.64890679  0.07394151  1
  C  C113  1  0.48673824  0.84309318  0.07339560  1
  C  C114  1  0.35607249  0.85762949  0.57759680  1
  C  C115  1  0.50263047  0.65331023  0.57661933  1
  C  C116  1  0.15884701  0.51460256  0.57576506  1
  C  C117  1  0.30327062  0.82402628  0.25374857  1
  C  C118  1  0.52208598  0.69668976  0.25318915  1
  C  C119  1  0.17558296  0.48003914  0.25371335  1
  C  C120  1  0.30274404  0.47379192  0.75527518  1
  C  C121  1  0.18725680  0.70204048  0.75718112  1
  C  C122  1  0.52703338  0.82603589  0.75708076  1
