# generated using pymatgen
data_CuNiC16
_symmetry_space_group_name_H-M   'P 1'
_cell_length_a   8.41383547
_cell_length_b   8.44049732
_cell_length_c   21.98319015
_cell_angle_alpha   89.42865695
_cell_angle_beta   90.00000000
_cell_angle_gamma   119.89556256
_symmetry_Int_Tables_number   1
_chemical_formula_structural   CuNiC16
_chemical_formula_sum   'Cu6 Ni6 C96'
_cell_volume   1353.35194469
_cell_formula_units_Z   6
loop_
 _symmetry_equiv_pos_site_id
 _symmetry_equiv_pos_as_xyz
  1  'x, y, z'
loop_
 _atom_site_type_symbol
 _atom_site_label
 _atom_site_symmetry_multiplicity
 _atom_site_fract_x
 _atom_site_fract_y
 _atom_site_fract_z
 _atom_site_occupancy
  C  C0  1  0.99259059  0.99595364  0.50113936  1
  C  C1  1  0.00336305  0.99595364  0.00113936  1
  C  C2  1  0.65925759  0.32928664  0.83447236  1
  C  C3  1  0.67003005  0.32928664  0.33447236  1
  C  C4  1  0.32592359  0.66262064  0.16780636  1
  C  C5  1  0.33669605  0.66262064  0.66780636  1
  Ni  Ni6  1  0.99166576  0.00563324  0.64706182  1
  Ni  Ni7  1  0.01396748  0.00563324  0.14706182  1
  Ni  Ni8  1  0.65833276  0.33896624  0.98039482  1
  Ni  Ni9  1  0.68063448  0.33896624  0.48039482  1
  Ni  Ni10  1  0.32499876  0.67230024  0.31372882  1
  Ni  Ni11  1  0.34730048  0.67230024  0.81372882  1
  Cu  Cu12  1  0.99878818  0.00047918  0.35231942  1
  Cu  Cu13  1  0.00169101  0.00047918  0.85231942  1
  Cu  Cu14  1  0.66545518  0.33381218  0.68565242  1
  Cu  Cu15  1  0.66835801  0.33381218  0.18565242  1
  Cu  Cu16  1  0.33212118  0.66714618  0.01898642  1
  Cu  Cu17  1  0.33502401  0.66714618  0.51898642  1
  C  C18  1  0.29109271  0.00279697  0.24978922  1
  C  C19  1  0.00049215  0.28858122  0.24907219  1
  C  C20  1  0.28808907  0.28858122  0.74907219  1
  C  C21  1  0.71170426  0.00279697  0.74978922  1
  C  C22  1  0.95775971  0.33612997  0.58312222  1
  C  C23  1  0.66715915  0.62191422  0.58240519  1
  C  C24  1  0.95475607  0.62191422  0.08240519  1
  C  C25  1  0.37837126  0.33612997  0.08312222  1
  C  C26  1  0.62442571  0.66946397  0.91645622  1
  C  C27  1  0.33382515  0.95524822  0.91573919  1
  C  C28  1  0.62142207  0.95524822  0.41573919  1
  C  C29  1  0.04503726  0.66946397  0.41645622  1
  C  C30  1  0.71026760  0.71058746  0.24924352  1
  C  C31  1  0.00031986  0.71058746  0.74924352  1
  C  C32  1  0.37693460  0.04392046  0.58257652  1
  C  C33  1  0.66698686  0.04392046  0.08257652  1
  C  C34  1  0.04360060  0.37725446  0.91591052  1
  C  C35  1  0.33365286  0.37725446  0.41591052  1
  C  C36  1  0.20806423  0.04022491  0.30788579  1
  C  C37  1  0.82497070  0.78580599  0.30554744  1
  C  C38  1  0.95828876  0.16666884  0.30789600  1
  C  C39  1  0.20838008  0.16666884  0.80789600  1
  C  C40  1  0.96083528  0.78580599  0.80554744  1
  C  C41  1  0.83216068  0.04022491  0.80788579  1
  C  C42  1  0.78950229  0.96323271  0.69348243  1
  C  C43  1  0.17492762  0.20427293  0.69253398  1
  C  C44  1  0.03332492  0.82229001  0.69434289  1
  C  C45  1  0.78896509  0.82229001  0.19434289  1
  C  C46  1  0.02934532  0.20427293  0.19253398  1
  C  C47  1  0.17373043  0.96323271  0.19348243  1
  C  C48  1  0.87473123  0.37355791  0.64121879  1
  C  C49  1  0.49163770  0.11913899  0.63888044  1
  C  C50  1  0.62495576  0.50000184  0.64122900  1
  C  C51  1  0.87504708  0.50000184  0.14122900  1
  C  C52  1  0.62750228  0.11913899  0.13888044  1
  C  C53  1  0.49882768  0.37355791  0.14121879  1
  C  C54  1  0.45616929  0.29656571  0.02681543  1
  C  C55  1  0.84159462  0.53760593  0.02586698  1
  C  C56  1  0.69999192  0.15562301  0.02767589  1
  C  C57  1  0.45563209  0.15562301  0.52767589  1
  C  C58  1  0.69601232  0.53760593  0.52586698  1
  C  C59  1  0.84039743  0.29656571  0.52681543  1
  C  C60  1  0.54139723  0.70689191  0.97455279  1
  C  C61  1  0.15830370  0.45247299  0.97221444  1
  C  C62  1  0.29162176  0.83333584  0.97456300  1
  C  C63  1  0.54171308  0.83333584  0.47456300  1
  C  C64  1  0.29416828  0.45247299  0.47221444  1
  C  C65  1  0.16549368  0.70689191  0.47455279  1
  C  C66  1  0.12283529  0.62989971  0.36014943  1
  C  C67  1  0.50826062  0.87093993  0.35920098  1
  C  C68  1  0.36665792  0.48895701  0.36100989  1
  C  C69  1  0.12229809  0.48895701  0.86100989  1
  C  C70  1  0.36267832  0.87093993  0.85920098  1
  C  C71  1  0.50706343  0.62989971  0.86014943  1
  C  C72  1  0.02911180  0.84573914  0.40903779  1
  C  C73  1  0.81607371  0.97390106  0.40950354  1
  C  C74  1  0.16420764  0.19280315  0.41108127  1
  C  C75  1  0.02859551  0.19280315  0.91108127  1
  C  C76  1  0.15782735  0.97390106  0.90950354  1
  C  C77  1  0.81662734  0.84573914  0.90903779  1
  C  C78  1  0.98262111  0.16971641  0.58929223  1
  C  C79  1  0.19389467  0.02189262  0.59027573  1
  C  C80  1  0.83742855  0.80942051  0.59049534  1
  C  C81  1  0.97199196  0.80942051  0.09049534  1
  C  C82  1  0.82799795  0.02189262  0.09027573  1
  C  C83  1  0.18709531  0.16971641  0.08929223  1
  C  C84  1  0.69577880  0.17907214  0.74237079  1
  C  C85  1  0.48274071  0.30723406  0.74283654  1
  C  C86  1  0.83087464  0.52613615  0.74441427  1
  C  C87  1  0.69526251  0.52613615  0.24441427  1
  C  C88  1  0.82449435  0.30723406  0.24283654  1
  C  C89  1  0.48329434  0.17907214  0.24237079  1
  C  C90  1  0.64928811  0.50304941  0.92262523  1
  C  C91  1  0.86056167  0.35522562  0.92360873  1
  C  C92  1  0.50409555  0.14275351  0.92382834  1
  C  C93  1  0.63865896  0.14275351  0.42382834  1
  C  C94  1  0.49466495  0.35522562  0.42360873  1
  C  C95  1  0.85376231  0.50304941  0.42262523  1
  C  C96  1  0.36244480  0.51240614  0.07570479  1
  C  C97  1  0.14940671  0.64056806  0.07617054  1
  C  C98  1  0.49754064  0.85947015  0.07774827  1
  C  C99  1  0.36192851  0.85947015  0.57774827  1
  C  C100  1  0.49116035  0.64056806  0.57617054  1
  C  C101  1  0.14996034  0.51240614  0.57570479  1
  C  C102  1  0.31595411  0.83638341  0.25595923  1
  C  C103  1  0.52722767  0.68855962  0.25694273  1
  C  C104  1  0.17076155  0.47608751  0.25716234  1
  C  C105  1  0.30532496  0.47608751  0.75716234  1
  C  C106  1  0.16133095  0.68855962  0.75694273  1
  C  C107  1  0.52042831  0.83638341  0.75595923  1
