# generated using pymatgen
data_Cu2NiC9
_symmetry_space_group_name_H-M   'P 1'
_cell_length_a   3.80622027
_cell_length_b   3.80622047
_cell_length_c   14.12042194
_cell_angle_alpha   97.74573910
_cell_angle_beta   97.74573906
_cell_angle_gamma   90.00000173
_symmetry_Int_Tables_number   1
_chemical_formula_structural   Cu2NiC9
_chemical_formula_sum   'Cu2 Ni1 C9'
_cell_volume   200.81666245
_cell_formula_units_Z   1
loop_
 _symmetry_equiv_pos_site_id
 _symmetry_equiv_pos_as_xyz
  1  'x, y, z'
loop_
 _atom_site_type_symbol
 _atom_site_label
 _atom_site_symmetry_multiplicity
 _atom_site_fract_x
 _atom_site_fract_y
 _atom_site_fract_z
 _atom_site_occupancy
  C  C0  1  0.86407013  0.86407013  0.72814026  1
  C  C1  1  0.13592987  0.13592987  0.27185974  1
  Ni  Ni2  1  0.25000000  0.75000000  0.50000000  1
  Cu  Cu3  1  0.43427166  0.43427166  0.86854432  1
  Cu  Cu4  1  0.56572834  0.56572834  0.13145568  1
  C  C5  1  0.30811882  0.30811882  0.61623764  1
  C  C6  1  0.69188118  0.69188118  0.38376236  1
  C  C7  1  0.40788198  0.90788198  0.81576396  1
  C  C8  1  0.90859261  0.40859261  0.81718523  1
  C  C9  1  0.59140739  0.09140739  0.18281477  1
  C  C10  1  0.09211802  0.59211802  0.18423604  1
  C  C11  1  0.50000000  0.50000000  0.00000000  1
