# generated using pymatgen
data_Cu2NiC10
_symmetry_space_group_name_H-M   'P 1'
_cell_length_a   3.98535872
_cell_length_b   3.81163568
_cell_length_c   12.31568688
_cell_angle_alpha   107.82948134
_cell_angle_beta   89.97289906
_cell_angle_gamma   90.00366078
_symmetry_Int_Tables_number   1
_chemical_formula_structural   Cu2NiC10
_chemical_formula_sum   'Cu2 Ni1 C10'
_cell_volume   178.09902920
_cell_formula_units_Z   1
loop_
 _symmetry_equiv_pos_site_id
 _symmetry_equiv_pos_as_xyz
  1  'x, y, z'
loop_
 _atom_site_type_symbol
 _atom_site_label
 _atom_site_symmetry_multiplicity
 _atom_site_fract_x
 _atom_site_fract_y
 _atom_site_fract_z
 _atom_site_occupancy
  C  C0  1  0.28994856  0.63964850  0.93534362  1
  C  C1  1  0.29079486  0.34501714  0.63708245  1
  C  C2  1  0.78954816  0.62998073  0.41520787  1
  Ni  Ni3  1  0.79174953  0.33532201  0.12741531  1
  Cu  Cu4  1  0.29169000  0.95060956  0.24054368  1
  Cu  Cu5  1  0.79078952  0.99229704  0.78659921  1
  C  C6  1  0.79063896  0.49455856  0.78882035  1
  C  C7  1  0.29077516  0.99303172  0.78764272  1
  C  C8  1  0.29163011  0.37685099  0.16548666  1
  C  C9  1  0.79169048  0.92332322  0.21511791  1
  C  C10  1  0.79222670  0.82326725  0.61623081  1
  C  C11  1  0.79006777  0.16522490  0.96004222  1
  C  C12  1  0.29178019  0.13086838  0.41821618  1
