# generated using pymatgen
data_Cu12Ni3C2
_symmetry_space_group_name_H-M   'P 1'
_cell_length_a   9.16379353
_cell_length_b   9.16379321
_cell_length_c   23.36079154
_cell_angle_alpha   90.00000000
_cell_angle_beta   90.00000000
_cell_angle_gamma   120.00000114
_symmetry_Int_Tables_number   1
_chemical_formula_structural   Cu12Ni3C2
_chemical_formula_sum   'Cu72 Ni18 C12'
_cell_volume   1698.90367724
_cell_formula_units_Z   6
loop_
 _symmetry_equiv_pos_site_id
 _symmetry_equiv_pos_as_xyz
  1  'x, y, z'
loop_
 _atom_site_type_symbol
 _atom_site_label
 _atom_site_symmetry_multiplicity
 _atom_site_fract_x
 _atom_site_fract_y
 _atom_site_fract_z
 _atom_site_occupancy
  C  C0  1  0.00000000  0.00000000  0.35633548  1
  C  C1  1  0.00000000  0.00000000  0.85633548  1
  C  C2  1  0.00000000  0.00000000  0.64326993  1
  C  C3  1  0.00000000  0.00000000  0.14326993  1
  C  C4  1  0.66666700  0.33333300  0.69386926  1
  C  C5  1  0.66666700  0.33333300  0.19386926  1
  C  C6  1  0.33333300  0.66666700  0.02482635  1
  C  C7  1  0.33333300  0.66666700  0.52482635  1
  C  C8  1  0.66666700  0.33333300  0.97881841  1
  C  C9  1  0.66666700  0.33333300  0.47881841  1
  C  C10  1  0.33333300  0.66666700  0.31689683  1
  C  C11  1  0.33333300  0.66666700  0.81689683  1
  Ni  Ni12  1  0.29087207  0.98368917  0.25394884  1
  Ni  Ni13  1  0.69281710  0.70912793  0.25394884  1
  Ni  Ni14  1  0.01631083  0.30718290  0.25394884  1
  Ni  Ni15  1  0.29087207  0.30718290  0.75394884  1
  Ni  Ni16  1  0.01631083  0.70912793  0.75394884  1
  Ni  Ni17  1  0.69281710  0.98368917  0.75394884  1
  Ni  Ni18  1  0.94320908  0.32615835  0.58030641  1
  Ni  Ni19  1  0.38295027  0.05679092  0.58030641  1
  Ni  Ni20  1  0.67384165  0.61704973  0.58030641  1
  Ni  Ni21  1  0.94320908  0.61704973  0.08030641  1
  Ni  Ni22  1  0.67384165  0.05679092  0.08030641  1
  Ni  Ni23  1  0.38295027  0.32615835  0.08030641  1
  Ni  Ni24  1  0.61243201  0.64759886  0.91745883  1
  Ni  Ni25  1  0.03516584  0.38756799  0.91745883  1
  Ni  Ni26  1  0.35240114  0.96483416  0.91745883  1
  Ni  Ni27  1  0.61243201  0.96483416  0.41745883  1
  Ni  Ni28  1  0.35240114  0.38756799  0.41745883  1
  Ni  Ni29  1  0.03516584  0.64759886  0.41745883  1
  Cu  Cu30  1  0.21292377  0.01203127  0.30382941  1
  Cu  Cu31  1  0.79910750  0.78707623  0.30382941  1
  Cu  Cu32  1  0.98796873  0.20089250  0.30382941  1
  Cu  Cu33  1  0.21292377  0.20089250  0.80382941  1
  Cu  Cu34  1  0.98796873  0.78707623  0.80382941  1
  Cu  Cu35  1  0.79910750  0.01203127  0.80382941  1
  Cu  Cu36  1  0.75220815  0.94031373  0.70227695  1
  Cu  Cu37  1  0.18810558  0.24779185  0.70227695  1
  Cu  Cu38  1  0.05968627  0.81189442  0.70227695  1
  Cu  Cu39  1  0.75220815  0.81189442  0.20227695  1
  Cu  Cu40  1  0.05968627  0.24779185  0.20227695  1
  Cu  Cu41  1  0.18810558  0.94031373  0.20227695  1
  Cu  Cu42  1  0.86335317  0.34762152  0.63099678  1
  Cu  Cu43  1  0.48426935  0.13664683  0.63099678  1
  Cu  Cu44  1  0.65237848  0.51573065  0.63099678  1
  Cu  Cu45  1  0.86335317  0.51573065  0.13099678  1
  Cu  Cu46  1  0.65237848  0.13664683  0.13099678  1
  Cu  Cu47  1  0.48426935  0.34762152  0.13099678  1
  Cu  Cu48  1  0.48374139  0.31383266  0.02611380  1
  Cu  Cu49  1  0.83009228  0.51625861  0.02611380  1
  Cu  Cu50  1  0.68616734  0.16990772  0.02611380  1
  Cu  Cu51  1  0.48374139  0.16990772  0.52611380  1
  Cu  Cu52  1  0.68616734  0.51625861  0.52611380  1
  Cu  Cu53  1  0.83009228  0.31383266  0.52611380  1
  Cu  Cu54  1  0.54266837  0.67904898  0.96833723  1
  Cu  Cu55  1  0.13637961  0.45733163  0.96833723  1
  Cu  Cu56  1  0.32095102  0.86362039  0.96833723  1
  Cu  Cu57  1  0.54266837  0.86362039  0.46833723  1
  Cu  Cu58  1  0.32095102  0.45733163  0.46833723  1
  Cu  Cu59  1  0.13637961  0.67904898  0.46833723  1
  Cu  Cu60  1  0.12434994  0.61683668  0.36720950  1
  Cu  Cu61  1  0.49248574  0.87565006  0.36720950  1
  Cu  Cu62  1  0.38316332  0.50751426  0.36720950  1
  Cu  Cu63  1  0.12434994  0.50751426  0.86720950  1
  Cu  Cu64  1  0.38316332  0.87565006  0.86720950  1
  Cu  Cu65  1  0.49248574  0.61683668  0.86720950  1
  Cu  Cu66  1  0.00212034  0.78286417  0.40427362  1
  Cu  Cu67  1  0.78074383  0.99787966  0.40427362  1
  Cu  Cu68  1  0.21713583  0.21925617  0.40427362  1
  Cu  Cu69  1  0.00212035  0.21925617  0.90427362  1
  Cu  Cu70  1  0.21713583  0.99787966  0.90427362  1
  Cu  Cu71  1  0.78074383  0.78286417  0.90427362  1
  Cu  Cu72  1  0.94452912  0.16753606  0.57953601  1
  Cu  Cu73  1  0.22300695  0.05547088  0.57953601  1
  Cu  Cu74  1  0.83246394  0.77699305  0.57953601  1
  Cu  Cu75  1  0.94452912  0.77699305  0.07953601  1
  Cu  Cu76  1  0.83246394  0.05547088  0.07953601  1
  Cu  Cu77  1  0.22300695  0.16753606  0.07953601  1
  Cu  Cu78  1  0.65164001  0.11708840  0.74675629  1
  Cu  Cu79  1  0.46544939  0.34835999  0.74675629  1
  Cu  Cu80  1  0.88291160  0.53455061  0.74675629  1
  Cu  Cu81  1  0.65164001  0.53455061  0.24675629  1
  Cu  Cu82  1  0.88291160  0.34835999  0.24675629  1
  Cu  Cu83  1  0.46544939  0.11708840  0.24675629  1
  Cu  Cu84  1  0.61956106  0.48507347  0.92429577  1
  Cu  Cu85  1  0.86551341  0.38043894  0.92429577  1
  Cu  Cu86  1  0.51492653  0.13448659  0.92429577  1
  Cu  Cu87  1  0.61956106  0.13448659  0.42429577  1
  Cu  Cu88  1  0.51492653  0.38043894  0.42429577  1
  Cu  Cu89  1  0.86551341  0.48507347  0.42429577  1
  Cu  Cu90  1  0.36793788  0.47359319  0.07032288  1
  Cu  Cu91  1  0.10565431  0.63206212  0.07032288  1
  Cu  Cu92  1  0.52640681  0.89434569  0.07032288  1
  Cu  Cu93  1  0.36793788  0.89434569  0.57032288  1
  Cu  Cu94  1  0.52640681  0.63206212  0.57032288  1
  Cu  Cu95  1  0.10565431  0.47359319  0.57032288  1
  Cu  Cu96  1  0.30325773  0.82184404  0.26966558  1
  Cu  Cu97  1  0.51858531  0.69674227  0.26966558  1
  Cu  Cu98  1  0.17815596  0.48141469  0.26966558  1
  Cu  Cu99  1  0.30325773  0.48141469  0.76966558  1
  Cu  Cu100  1  0.17815596  0.69674227  0.76966558  1
  Cu  Cu101  1  0.51858531  0.82184404  0.76966558  1
