# generated using pymatgen
data_Cu9Ni3C2
_symmetry_space_group_name_H-M   'P 1'
_cell_length_a   10.68509800
_cell_length_b   7.41102100
_cell_length_c   18.55166112
_cell_angle_alpha   73.84793552
_cell_angle_beta   90.00000000
_cell_angle_gamma   90.00000000
_symmetry_Int_Tables_number   1
_chemical_formula_structural   Cu9Ni3C2
_chemical_formula_sum   'Cu36 Ni12 C8'
_cell_volume   1411.07086887
_cell_formula_units_Z   4
loop_
 _symmetry_equiv_pos_site_id
 _symmetry_equiv_pos_as_xyz
  1  'x, y, z'
loop_
 _atom_site_type_symbol
 _atom_site_label
 _atom_site_symmetry_multiplicity
 _atom_site_fract_x
 _atom_site_fract_y
 _atom_site_fract_z
 _atom_site_occupancy
  C  C0  1  0.85164100  0.99875300  0.82407100  1
  C  C1  1  0.35164100  0.00124700  0.67592900  1
  C  C2  1  0.14835900  0.00124700  0.17592900  1
  C  C3  1  0.64835900  0.99875300  0.32407100  1
  C  C4  1  0.82100200  0.99830900  0.51025100  1
  C  C5  1  0.32100200  0.00169100  0.98974900  1
  C  C6  1  0.17899800  0.00169100  0.48974900  1
  C  C7  1  0.67899800  0.99830900  0.01025100  1
  Ni  Ni8  1  0.99622000  0.84233300  0.01410200  1
  Ni  Ni9  1  0.50851300  0.84335000  0.85242700  1
  Ni  Ni10  1  0.00851300  0.15665000  0.64757300  1
  Ni  Ni11  1  0.49148700  0.15665000  0.14757300  1
  Ni  Ni12  1  0.99148700  0.84335000  0.35242700  1
  Ni  Ni13  1  0.01353200  0.84125700  0.68394100  1
  Ni  Ni14  1  0.51353200  0.15874300  0.81605900  1
  Ni  Ni15  1  0.98646800  0.15874300  0.31605900  1
  Ni  Ni16  1  0.48646800  0.84125700  0.18394100  1
  Ni  Ni17  1  0.49622000  0.15766700  0.48589800  1
  Ni  Ni18  1  0.00378000  0.15766700  0.98589800  1
  Ni  Ni19  1  0.50378000  0.84233300  0.51410200  1
  Cu  Cu20  1  0.67320100  0.77197700  0.91286100  1
  Cu  Cu21  1  0.65580700  0.23361000  0.42122200  1
  Cu  Cu22  1  0.15580700  0.76639000  0.07877800  1
  Cu  Cu23  1  0.34419300  0.76639000  0.57877800  1
  Cu  Cu24  1  0.84419300  0.23361000  0.92122200  1
  Cu  Cu25  1  0.82679900  0.77197700  0.41286100  1
  Cu  Cu26  1  0.32679900  0.22802300  0.08713900  1
  Cu  Cu27  1  0.17320100  0.22802300  0.58713900  1
  Cu  Cu28  1  0.49077000  0.76979800  0.41737200  1
  Cu  Cu29  1  0.99077000  0.23020200  0.08262800  1
  Cu  Cu30  1  0.50923000  0.23020200  0.58262800  1
  Cu  Cu31  1  0.00923000  0.76979800  0.91737200  1
  Cu  Cu32  1  0.84528400  0.75818000  0.08137300  1
  Cu  Cu33  1  0.34528400  0.24182000  0.41862700  1
  Cu  Cu34  1  0.15471600  0.24182000  0.91862700  1
  Cu  Cu35  1  0.65471600  0.75818000  0.58137300  1
  Cu  Cu36  1  0.64927700  0.24061000  0.08707300  1
  Cu  Cu37  1  0.14927700  0.75939000  0.41292700  1
  Cu  Cu38  1  0.35072300  0.75939000  0.91292700  1
  Cu  Cu39  1  0.85072300  0.24061000  0.58707300  1
  Cu  Cu40  1  0.98510400  0.76105700  0.25749000  1
  Cu  Cu41  1  0.48510400  0.23894300  0.24251000  1
  Cu  Cu42  1  0.01489600  0.23894300  0.74251000  1
  Cu  Cu43  1  0.51489600  0.76105700  0.75749000  1
  Cu  Cu44  1  0.82585500  0.24142100  0.25939700  1
  Cu  Cu45  1  0.32585500  0.75857900  0.24060300  1
  Cu  Cu46  1  0.17414500  0.75857900  0.74060300  1
  Cu  Cu47  1  0.67414500  0.24142100  0.75939700  1
  Cu  Cu48  1  0.64425300  0.75593300  0.24354100  1
  Cu  Cu49  1  0.14425300  0.24406700  0.25645900  1
  Cu  Cu50  1  0.35574700  0.24406700  0.75645900  1
  Cu  Cu51  1  0.85574700  0.75593300  0.74354100  1
  Cu  Cu52  1  0.49542900  0.77125400  0.08263500  1
  Cu  Cu53  1  0.99542900  0.22874600  0.41736500  1
  Cu  Cu54  1  0.50457100  0.22874600  0.91736500  1
  Cu  Cu55  1  0.00457100  0.77125400  0.58263500  1
