# generated using pymatgen
data_CuNiC3
_symmetry_space_group_name_H-M   'P 1'
_cell_length_a   3.65000400
_cell_length_b   5.07219944
_cell_length_c   8.79435864
_cell_angle_alpha   92.74675440
_cell_angle_beta   101.57160639
_cell_angle_gamma   92.81175322
_symmetry_Int_Tables_number   1
_chemical_formula_structural   CuNiC3
_chemical_formula_sum   'Cu2 Ni2 C6'
_cell_volume   159.03568791
_cell_formula_units_Z   2
loop_
 _symmetry_equiv_pos_site_id
 _symmetry_equiv_pos_as_xyz
  1  'x, y, z'
loop_
 _atom_site_type_symbol
 _atom_site_label
 _atom_site_symmetry_multiplicity
 _atom_site_fract_x
 _atom_site_fract_y
 _atom_site_fract_z
 _atom_site_occupancy
  Ni  Ni0  1  0.67473500  0.38852600  0.86318000  1
  Ni  Ni1  1  0.32526500  0.61147400  0.13682000  1
  Cu  Cu2  1  0.14728500  0.17839400  0.42455600  1
  Cu  Cu3  1  0.85271500  0.82160600  0.57544400  1
  C  C4  1  0.59653300  0.49920000  0.67367100  1
  C  C5  1  0.40346700  0.50080000  0.32632900  1
  C  C6  1  0.64192000  0.06509500  0.83918400  1
  C  C7  1  0.35808000  0.93490500  0.16081600  1
  C  C8  1  0.20489800  0.47930500  0.91120000  1
  C  C9  1  0.79510200  0.52069500  0.08880000  1
