# generated using pymatgen
data_Cu10Ni4C25
_symmetry_space_group_name_H-M   'P 1'
_cell_length_a   10.69190726
_cell_length_b   10.69190726
_cell_length_c   10.33726468
_cell_angle_alpha   84.23494402
_cell_angle_beta   84.23494402
_cell_angle_gamma   55.01331146
_symmetry_Int_Tables_number   1
_chemical_formula_structural   Cu10Ni4C25
_chemical_formula_sum   'Cu20 Ni8 C50'
_cell_volume   961.94006760
_cell_formula_units_Z   2
loop_
 _symmetry_equiv_pos_site_id
 _symmetry_equiv_pos_as_xyz
  1  'x, y, z'
loop_
 _atom_site_type_symbol
 _atom_site_label
 _atom_site_symmetry_multiplicity
 _atom_site_fract_x
 _atom_site_fract_y
 _atom_site_fract_z
 _atom_site_occupancy
  C  C0  1  0.79305900  0.85642000  0.36095200  1
  C  C1  1  0.14358000  0.20694100  0.13904800  1
  C  C2  1  0.20694100  0.14358000  0.63904800  1
  C  C3  1  0.85642000  0.79305900  0.86095200  1
  C  C4  1  0.40017000  0.23605700  0.31494800  1
  C  C5  1  0.76394300  0.59983000  0.18505200  1
  C  C6  1  0.59983000  0.76394300  0.68505200  1
  C  C7  1  0.23605700  0.40017000  0.81494800  1
  C  C8  1  0.89747500  0.10252500  0.75000000  1
  C  C9  1  0.10252500  0.89747500  0.25000000  1
  Ni  Ni10  1  0.89608400  0.42067500  0.87660400  1
  Ni  Ni11  1  0.57932500  0.10391600  0.62339600  1
  Ni  Ni12  1  0.10391600  0.57932500  0.12339600  1
  Ni  Ni13  1  0.42067500  0.89608400  0.37660400  1
  Ni  Ni14  1  0.73131400  0.09864700  0.08367700  1
  Ni  Ni15  1  0.90135300  0.26868600  0.41632300  1
  Ni  Ni16  1  0.26868600  0.90135300  0.91632300  1
  Ni  Ni17  1  0.09864700  0.73131400  0.58367700  1
  Cu  Cu18  1  0.50643200  0.55342300  0.64904100  1
  Cu  Cu19  1  0.44657700  0.49356800  0.85095900  1
  Cu  Cu20  1  0.49356800  0.44657700  0.35095900  1
  Cu  Cu21  1  0.55342300  0.50643200  0.14904100  1
  Cu  Cu22  1  0.65994500  0.46621300  0.73294000  1
  Cu  Cu23  1  0.53378700  0.34005500  0.76706000  1
  Cu  Cu24  1  0.34005500  0.53378700  0.26706000  1
  Cu  Cu25  1  0.46621300  0.65994500  0.23294000  1
  Cu  Cu26  1  0.56668500  0.84530000  0.97708900  1
  Cu  Cu27  1  0.15470000  0.43331500  0.52291100  1
  Cu  Cu28  1  0.43331500  0.15470000  0.02291100  1
  Cu  Cu29  1  0.84530000  0.56668500  0.47708900  1
  Cu  Cu30  1  0.61014500  0.92051800  0.07615100  1
  Cu  Cu31  1  0.07948200  0.38985500  0.42384900  1
  Cu  Cu32  1  0.38985500  0.07948200  0.92384900  1
  Cu  Cu33  1  0.92051800  0.61014500  0.57615100  1
  Cu  Cu34  1  0.72857100  0.30676400  0.98745600  1
  Cu  Cu35  1  0.69323600  0.27142900  0.51254400  1
  Cu  Cu36  1  0.27142900  0.69323600  0.01254400  1
  Cu  Cu37  1  0.30676400  0.72857100  0.48745600  1
  C  C38  1  0.59415300  0.55254100  0.66991000  1
  C  C39  1  0.44745900  0.40584700  0.83009000  1
  C  C40  1  0.40584700  0.44745900  0.33009000  1
  C  C41  1  0.55254100  0.59415300  0.16991000  1
  C  C42  1  0.65219200  0.82797700  0.02680300  1
  C  C43  1  0.17202300  0.34780800  0.47319700  1
  C  C44  1  0.34780800  0.17202300  0.97319700  1
  C  C45  1  0.82797700  0.65219200  0.52680300  1
  C  C46  1  0.79717300  0.34304200  0.84708200  1
  C  C47  1  0.65695800  0.20282700  0.65291800  1
  C  C48  1  0.20282700  0.65695800  0.15291800  1
  C  C49  1  0.34304200  0.79717300  0.34708200  1
  C  C50  1  0.07428300  0.32426100  0.79835600  1
  C  C51  1  0.67573900  0.92571700  0.70164400  1
  C  C52  1  0.92571700  0.67573900  0.20164400  1
  C  C53  1  0.32426100  0.07428300  0.29835600  1
  C  C54  1  0.79810300  0.61033700  0.82531800  1
  C  C55  1  0.38966300  0.20189700  0.67468200  1
  C  C56  1  0.20189700  0.38966300  0.17468200  1
  C  C57  1  0.61033700  0.79810300  0.32531800  1
  C  C58  1  0.91904700  0.40466900  0.04158300  1
  C  C59  1  0.59533100  0.08095300  0.45841700  1
  C  C60  1  0.08095300  0.59533100  0.95841700  1
  C  C61  1  0.40466900  0.91904700  0.54158300  1
  C  C62  1  0.80873300  0.02036900  0.93601200  1
  C  C63  1  0.97963100  0.19126700  0.56398800  1
  C  C64  1  0.19126700  0.97963100  0.06398800  1
  C  C65  1  0.02036900  0.80873300  0.43601200  1
  C  C66  1  0.56772600  0.10622400  0.12984800  1
  C  C67  1  0.89377600  0.43227400  0.37015200  1
  C  C68  1  0.43227400  0.89377600  0.87015200  1
  C  C69  1  0.10622400  0.56772600  0.62984800  1
  C  C70  1  0.85304800  0.99569700  0.20505200  1
  C  C71  1  0.00430300  0.14695200  0.29494800  1
  C  C72  1  0.14695200  0.00430300  0.79494800  1
  C  C73  1  0.99569700  0.85304800  0.70505200  1
  C  C74  1  0.68193900  0.28794100  0.07156500  1
  C  C75  1  0.71205900  0.31806100  0.42843500  1
  C  C76  1  0.31806100  0.71205900  0.92843500  1
  C  C77  1  0.28794100  0.68193900  0.57156500  1
