# generated using pymatgen
data_Cu2NiC14
_symmetry_space_group_name_H-M   'P 1'
_cell_length_a   8.86885149
_cell_length_b   8.88254618
_cell_length_c   23.01194231
_cell_angle_alpha   89.87506499
_cell_angle_beta   89.94422888
_cell_angle_gamma   120.01666414
_symmetry_Int_Tables_number   1
_chemical_formula_structural   Cu2NiC14
_chemical_formula_sum   'Cu12 Ni6 C84'
_cell_volume   1569.68875689
_cell_formula_units_Z   6
loop_
 _symmetry_equiv_pos_site_id
 _symmetry_equiv_pos_as_xyz
  1  'x, y, z'
loop_
 _atom_site_type_symbol
 _atom_site_label
 _atom_site_symmetry_multiplicity
 _atom_site_fract_x
 _atom_site_fract_y
 _atom_site_fract_z
 _atom_site_occupancy
  C  C0  1  0.99521435  0.00099543  0.35857270  1
  C  C1  1  0.67286058  0.33460330  0.68918113  1
  C  C2  1  0.66331987  0.33330537  0.18480576  1
  C  C3  1  0.00196551  0.00128255  0.86070077  1
  C  C4  1  0.99800027  0.00514019  0.64641675  1
  C  C5  1  0.00717065  0.00700160  0.14679804  1
  C  C6  1  0.65929904  0.33189042  0.97986324  1
  C  C7  1  0.67043375  0.32445096  0.48105329  1
  C  C8  1  0.33356724  0.66183155  0.01661794  1
  C  C9  1  0.33227956  0.66480063  0.51945625  1
  C  C10  1  0.33952896  0.67255378  0.31244482  1
  C  C11  1  0.33087502  0.66488619  0.81912116  1
  Ni  Ni12  1  0.96519859  0.33455914  0.58279632  1
  Ni  Ni13  1  0.36923002  0.33446764  0.08206587  1
  Ni  Ni14  1  0.62270180  0.66392433  0.91627819  1
  Ni  Ni15  1  0.03724932  0.37682101  0.91701756  1
  Ni  Ni16  1  0.33690585  0.95662529  0.91715224  1
  Ni  Ni17  1  0.61205836  0.95534628  0.41879438  1
  Cu  Cu18  1  0.28698745  0.99018431  0.25097862  1
  Cu  Cu19  1  0.70636009  0.71372623  0.24964859  1
  Cu  Cu20  1  0.01044767  0.30054824  0.25104716  1
  Cu  Cu21  1  0.28171332  0.29199449  0.75261047  1
  Cu  Cu22  1  0.01089411  0.72253207  0.75212117  1
  Cu  Cu23  1  0.70779724  0.98794106  0.75301687  1
  Cu  Cu24  1  0.36758118  0.03596005  0.58314397  1
  Cu  Cu25  1  0.66781092  0.62876784  0.58219047  1
  Cu  Cu26  1  0.96561267  0.63251856  0.08176387  1
  Cu  Cu27  1  0.66648149  0.03413875  0.08186357  1
  Cu  Cu28  1  0.34573351  0.38344432  0.41879859  1
  Cu  Cu29  1  0.04106798  0.65740495  0.41793050  1
  C  C30  1  0.20487788  0.01202906  0.30231885  1
  C  C31  1  0.80893781  0.79522242  0.30115951  1
  C  C32  1  0.98678535  0.19597684  0.30236827  1
  C  C33  1  0.19578017  0.17878549  0.80367836  1
  C  C34  1  0.98506114  0.80885155  0.80309957  1
  C  C35  1  0.82202368  0.01541195  0.80343905  1
  C  C36  1  0.78332039  0.95505520  0.69820233  1
  C  C37  1  0.17288234  0.21542649  0.69831939  1
  C  C38  1  0.04256491  0.83133206  0.69725406  1
  C  C39  1  0.78562974  0.82538472  0.19541470  1
  C  C40  1  0.04382434  0.22311831  0.19705180  1
  C  C41  1  0.17681998  0.95871010  0.19678878  1
  C  C42  1  0.89075472  0.36949142  0.63616110  1
  C  C43  1  0.47298702  0.11023483  0.63428737  1
  C  C44  1  0.63432449  0.52330587  0.63363197  1
  C  C45  1  0.89511505  0.52693110  0.13329252  1
  C  C46  1  0.63563325  0.10643971  0.13361032  1
  C  C47  1  0.47677237  0.36813190  0.13554824  1
  C  C48  1  0.45087239  0.29777653  0.02681411  1
  C  C49  1  0.85397165  0.55260810  0.02892021  1
  C  C50  1  0.70326163  0.14858184  0.02924096  1
  C  C51  1  0.44328059  0.14880057  0.53013347  1
  C  C52  1  0.69873358  0.54985919  0.52889732  1
  C  C53  1  0.84909949  0.29858424  0.52738192  1
  C  C54  1  0.54416633  0.70435125  0.96911723  1
  C  C55  1  0.15722695  0.45677590  0.96931087  1
  C  C56  1  0.29864803  0.83790648  0.97021429  1
  C  C57  1  0.52692164  0.84282187  0.47402753  1
  C  C58  1  0.31392417  0.46260930  0.47119011  1
  C  C59  1  0.14723294  0.68188270  0.47103705  1
  C  C60  1  0.11863031  0.62215541  0.36567752  1
  C  C61  1  0.49470001  0.87270398  0.36423832  1
  C  C62  1  0.37625728  0.49316523  0.36591114  1
  C  C63  1  0.11277629  0.48953885  0.86084802  1
  C  C64  1  0.37220829  0.88044864  0.86106933  1
  C  C65  1  0.50875935  0.62658630  0.86073153  1
  C  C66  1  0.02562260  0.80994855  0.41281744  1
  C  C67  1  0.78924963  0.97499122  0.41445618  1
  C  C68  1  0.19719480  0.21225765  0.41360007  1
  C  C69  1  0.02112602  0.19709249  0.90772413  1
  C  C70  1  0.17309836  0.97365845  0.90855487  1
  C  C71  1  0.80285509  0.82758492  0.90736460  1
  C  C72  1  0.98485638  0.16876252  0.58917321  1
  C  C73  1  0.18907747  0.01473684  0.58946970  1
  C  C74  1  0.82785621  0.80536432  0.58861085  1
  C  C75  1  0.98050856  0.80768157  0.08857854  1
  C  C76  1  0.82354646  0.01287830  0.08850331  1
  C  C77  1  0.18349942  0.16773313  0.08840159  1
  C  C78  1  0.68938668  0.13957206  0.74670826  1
  C  C79  1  0.45184638  0.31019296  0.74594161  1
  C  C80  1  0.85777436  0.55329173  0.74648260  1
  C  C81  1  0.68346761  0.54198976  0.24235081  1
  C  C82  1  0.86309798  0.32592067  0.24244450  1
  C  C83  1  0.46054587  0.13690517  0.24321932  1
  C  C84  1  0.64391773  0.50443082  0.92506631  1
  C  C85  1  0.85716340  0.35701079  0.92723073  1
  C  C86  1  0.49885827  0.13599159  0.92526986  1
  C  C87  1  0.61812268  0.13358523  0.42520329  1
  C  C88  1  0.51063835  0.37784385  0.42707124  1
  C  C89  1  0.86562642  0.49750867  0.42478120  1
  C  C90  1  0.34619694  0.49432751  0.07122292  1
  C  C91  1  0.14300701  0.65785435  0.07192652  1
  C  C92  1  0.51061463  0.86035921  0.07185490  1
  C  C93  1  0.34555086  0.86073844  0.57359175  1
  C  C94  1  0.51553803  0.65399046  0.57347611  1
  C  C95  1  0.14944477  0.49329314  0.57182134  1
  C  C96  1  0.29559345  0.82402484  0.25501036  1
  C  C97  1  0.52890510  0.70007703  0.25417750  1
  C  C98  1  0.17566690  0.47657984  0.25691241  1
  C  C99  1  0.29206503  0.46442134  0.75900319  1
  C  C100  1  0.17252414  0.71054835  0.75816966  1
  C  C101  1  0.53484453  0.82621024  0.75917172  1
