# generated using pymatgen
data_Cu6NiC27
_symmetry_space_group_name_H-M   'P 1'
_cell_length_a   8.84160297
_cell_length_b   8.84160268
_cell_length_c   22.81408208
_cell_angle_alpha   90.00000000
_cell_angle_beta   90.00000000
_cell_angle_gamma   120.00000110
_symmetry_Int_Tables_number   1
_chemical_formula_structural   Cu6NiC27
_chemical_formula_sum   'Cu18 Ni3 C81'
_cell_volume   1544.52744870
_cell_formula_units_Z   3
loop_
 _symmetry_equiv_pos_site_id
 _symmetry_equiv_pos_as_xyz
  1  'x, y, z'
loop_
 _atom_site_type_symbol
 _atom_site_label
 _atom_site_symmetry_multiplicity
 _atom_site_fract_x
 _atom_site_fract_y
 _atom_site_fract_z
 _atom_site_occupancy
  C  C0  1  0.00000000  0.00000000  0.85547006  1
  C  C1  1  0.00000000  0.00000000  0.64037037  1
  C  C2  1  0.00000000  0.00000000  0.14794397  1
  C  C3  1  0.66666700  0.33333300  0.97850183  1
  C  C4  1  0.66666700  0.33333300  0.47438091  1
  C  C5  1  0.33333300  0.66666700  0.02437001  1
  C  C6  1  0.33333300  0.66666700  0.52108342  1
  C  C7  1  0.33333300  0.66666700  0.30738534  1
  C  C8  1  0.33333300  0.66666700  0.80796152  1
  Ni  Ni9  1  0.00000000  0.00000000  0.35633036  1
  Ni  Ni10  1  0.66666700  0.33333300  0.68790605  1
  Ni  Ni11  1  0.66666700  0.33333300  0.18837285  1
  Cu  Cu12  1  0.28948360  0.00216687  0.25145942  1
  Cu  Cu13  1  0.71268327  0.71051640  0.25145942  1
  Cu  Cu14  1  0.99783313  0.28731673  0.25145942  1
  Cu  Cu15  1  0.28542058  0.28366997  0.74963627  1
  Cu  Cu16  1  0.99824939  0.71457942  0.74963627  1
  Cu  Cu17  1  0.71633003  0.00175061  0.74963627  1
  Cu  Cu18  1  0.95394544  0.33595760  0.58284936  1
  Cu  Cu19  1  0.38201316  0.04605456  0.58284936  1
  Cu  Cu20  1  0.66404240  0.61798684  0.58284936  1
  Cu  Cu21  1  0.95343446  0.62328408  0.08359232  1
  Cu  Cu22  1  0.66985062  0.04656554  0.08359232  1
  Cu  Cu23  1  0.37671592  0.33014938  0.08359232  1
  Cu  Cu24  1  0.61777202  0.66615269  0.91645864  1
  Cu  Cu25  1  0.04837967  0.38222798  0.91645864  1
  Cu  Cu26  1  0.33384731  0.95162033  0.91645864  1
  Cu  Cu27  1  0.61891845  0.95079712  0.41617464  1
  Cu  Cu28  1  0.33187767  0.38108155  0.41617464  1
  Cu  Cu29  1  0.04920288  0.66812233  0.41617464  1
  C  C30  1  0.20893966  0.02928515  0.30509276  1
  C  C31  1  0.82034550  0.79106034  0.30509276  1
  C  C32  1  0.97071485  0.17965450  0.30509276  1
  C  C33  1  0.19101159  0.17056014  0.80506606  1
  C  C34  1  0.97954855  0.80898841  0.80506606  1
  C  C35  1  0.82943986  0.02045145  0.80506606  1
  C  C36  1  0.80014643  0.96616918  0.69583472  1
  C  C37  1  0.16602275  0.19985357  0.69583472  1
  C  C38  1  0.03383082  0.83397725  0.69583472  1
  C  C39  1  0.80045118  0.83304462  0.19518752  1
  C  C40  1  0.03259345  0.19954882  0.19518752  1
  C  C41  1  0.16695538  0.96740655  0.19518752  1
  C  C42  1  0.88577366  0.37168459  0.63840453  1
  C  C43  1  0.48591193  0.11422634  0.63840453  1
  C  C44  1  0.62831541  0.51408807  0.63840453  1
  C  C45  1  0.88528435  0.51058532  0.13655486  1
  C  C46  1  0.62530196  0.11471565  0.13655486  1
  C  C47  1  0.48941468  0.37469804  0.13655486  1
  C  C48  1  0.46778569  0.30560127  0.02777325  1
  C  C49  1  0.83781658  0.53221431  0.02777325  1
  C  C50  1  0.69439873  0.16218342  0.02777325  1
  C  C51  1  0.46464585  0.16285771  0.52846710  1
  C  C52  1  0.69821286  0.53535415  0.52846710  1
  C  C53  1  0.83714229  0.30178714  0.52846710  1
  C  C54  1  0.53341317  0.69639230  0.97079451  1
  C  C55  1  0.16297813  0.46658683  0.97079451  1
  C  C56  1  0.30360770  0.83702187  0.97079451  1
  C  C57  1  0.52499259  0.83819555  0.47131383  1
  C  C58  1  0.31320196  0.47500741  0.47131383  1
  C  C59  1  0.16180445  0.68679804  0.47131383  1
  C  C60  1  0.13304288  0.63230818  0.36243384  1
  C  C61  1  0.49926429  0.86695712  0.36243384  1
  C  C62  1  0.36769182  0.50073571  0.36243384  1
  C  C63  1  0.13416429  0.49720102  0.86207456  1
  C  C64  1  0.36303574  0.86583571  0.86207456  1
  C  C65  1  0.50279898  0.63696426  0.86207456  1
  C  C66  1  0.02549440  0.82320618  0.41238622  1
  C  C67  1  0.79771178  0.97450560  0.41238622  1
  C  C68  1  0.17679382  0.20228822  0.41238622  1
  C  C69  1  0.02546976  0.19850189  0.90618206  1
  C  C70  1  0.17303213  0.97453024  0.90618206  1
  C  C71  1  0.80149811  0.82696787  0.90618206  1
  C  C72  1  0.97595436  0.17081906  0.59281285  1
  C  C73  1  0.19486469  0.02404564  0.59281285  1
  C  C74  1  0.82918094  0.80513531  0.59281285  1
  C  C75  1  0.97712974  0.80707647  0.09058989  1
  C  C76  1  0.82994673  0.02287026  0.09058989  1
  C  C77  1  0.19292353  0.17005327  0.09058989  1
  C  C78  1  0.69283799  0.15737908  0.74538591  1
  C  C79  1  0.46454209  0.30716201  0.74538591  1
  C  C80  1  0.84262092  0.53545791  0.74538591  1
  C  C81  1  0.68478863  0.53181931  0.24094856  1
  C  C82  1  0.84703168  0.31521137  0.24094856  1
  C  C83  1  0.46818069  0.15296832  0.24094856  1
  C  C84  1  0.64054756  0.50522388  0.92699583  1
  C  C85  1  0.86467732  0.35945244  0.92699583  1
  C  C86  1  0.49477612  0.13532268  0.92699583  1
  C  C87  1  0.63274309  0.13335212  0.42810263  1
  C  C88  1  0.50061003  0.36725691  0.42810263  1
  C  C89  1  0.86664788  0.49938997  0.42810263  1
  C  C90  1  0.35381882  0.49215408  0.06938789  1
  C  C91  1  0.13833426  0.64618118  0.06938789  1
  C  C92  1  0.50784592  0.86166574  0.06938789  1
  C  C93  1  0.35119650  0.86031957  0.57079552  1
  C  C94  1  0.50912208  0.64880350  0.57079552  1
  C  C95  1  0.13968043  0.49087792  0.57079552  1
  C  C96  1  0.30137854  0.83080569  0.25904468  1
  C  C97  1  0.52942615  0.69862146  0.25904468  1
  C  C98  1  0.16919431  0.47057385  0.25904468  1
  C  C99  1  0.29950388  0.46625457  0.76150752  1
  C  C100  1  0.16674969  0.70049612  0.76150752  1
  C  C101  1  0.53374543  0.83325031  0.76150752  1
