# generated using pymatgen
data_Cu2NiC30
_symmetry_space_group_name_H-M   'P 1'
_cell_length_a   7.66825214
_cell_length_b   7.57828659
_cell_length_c   9.80513118
_cell_angle_alpha   69.99243247
_cell_angle_beta   71.92556054
_cell_angle_gamma   69.87152060
_symmetry_Int_Tables_number   1
_chemical_formula_structural   Cu2NiC30
_chemical_formula_sum   'Cu2 Ni1 C30'
_cell_volume   490.59448988
_cell_formula_units_Z   1
loop_
 _symmetry_equiv_pos_site_id
 _symmetry_equiv_pos_as_xyz
  1  'x, y, z'
loop_
 _atom_site_type_symbol
 _atom_site_label
 _atom_site_symmetry_multiplicity
 _atom_site_fract_x
 _atom_site_fract_y
 _atom_site_fract_z
 _atom_site_occupancy
  C  C0  1  0.51966800  0.58793200  0.22788100  1
  C  C1  1  0.53803700  0.47759600  0.79181900  1
  Ni  Ni2  1  0.17775800  0.34219700  0.36172800  1
  Cu  Cu3  1  0.01091100  0.49704800  0.99153500  1
  Cu  Cu4  1  0.51910900  0.97557300  0.49483800  1
  C  C5  1  0.25706700  0.09736700  0.20512800  1
  C  C6  1  0.14864900  0.30107100  0.69603800  1
  C  C7  1  0.14034600  0.88572500  0.77374300  1
  C  C8  1  0.85966100  0.11170500  0.20534900  1
  C  C9  1  0.86220200  0.69607500  0.29651200  1
  C  C10  1  0.74243000  0.88817000  0.79126800  1
  C  C11  1  0.94814700  0.52199600  0.57069200  1
  C  C12  1  0.53067400  0.02226300  0.96361700  1
  C  C13  1  0.04413800  0.06163400  0.27172900  1
  C  C14  1  0.93978500  0.41090400  0.66200200  1
  C  C15  1  0.22785400  0.32021200  0.13408100  1
  C  C16  1  0.12411300  0.09178400  0.79990900  1
  C  C17  1  0.31160200  0.06614300  0.35230800  1
  C  C18  1  0.19904800  0.39535100  0.78531200  1
  C  C19  1  0.28327000  0.28050100  0.54517800  1
  C  C20  1  0.13908000  0.73549800  0.92092600  1
  C  C21  1  0.37950300  0.96363100  0.10860700  1
  C  C22  1  0.68399100  0.16214400  0.32408000  1
  C  C23  1  0.30923800  0.84001700  0.65140400  1
  C  C24  1  0.62907200  0.06055700  0.86862200  1
  C  C25  1  0.87403200  0.26240900  0.05819100  1
  C  C26  1  0.67706100  0.72714000  0.41237200  1
  C  C27  1  0.86841000  0.56862200  0.20396700  1
  C  C28  1  0.66541300  0.90825300  0.66203300  1
  C  C29  1  0.87901300  0.90670100  0.17976700  1
  C  C30  1  0.76245800  0.69168100  0.90522800  1
  C  C31  1  0.03916100  0.60932800  0.36824200  1
  C  C32  1  0.94984100  0.93456100  0.71589200  1
