# generated using pymatgen
data_Cu3Ni6C73
_symmetry_space_group_name_H-M   'P 1'
_cell_length_a   18.20811058
_cell_length_b   9.08137788
_cell_length_c   22.31465174
_cell_angle_alpha   90.19896820
_cell_angle_beta   89.77314584
_cell_angle_gamma   120.26197682
_symmetry_Int_Tables_number   1
_chemical_formula_structural   Cu3Ni6C73
_chemical_formula_sum   'Cu9 Ni18 C219'
_cell_volume   3186.99071561
_cell_formula_units_Z   3
loop_
 _symmetry_equiv_pos_site_id
 _symmetry_equiv_pos_as_xyz
  1  'x, y, z'
loop_
 _atom_site_type_symbol
 _atom_site_label
 _atom_site_symmetry_multiplicity
 _atom_site_fract_x
 _atom_site_fract_y
 _atom_site_fract_z
 _atom_site_occupancy
  C  C0  1  0.19513095  0.36577082  0.24830437  1
  C  C1  1  0.68981946  0.36105593  0.24796539  1
  C  C2  1  0.99719715  0.64626940  0.25103114  1
  C  C3  1  0.49530009  0.63792865  0.24285230  1
  C  C4  1  0.31607328  0.63324924  0.74695114  1
  C  C5  1  0.81507061  0.62899501  0.73796241  1
  C  C6  1  0.19136917  0.02186652  0.74757628  1
  C  C7  1  0.69415432  0.02390536  0.74773550  1
  C  C8  1  0.15204743  0.32553516  0.57873407  1
  C  C9  1  0.66367605  0.34424565  0.58062504  1
  C  C10  1  0.01177462  0.69844163  0.57997268  1
  C  C11  1  0.52217267  0.70411466  0.58193255  1
  C  C12  1  0.32391501  0.97051086  0.59004278  1
  C  C13  1  0.82334389  0.95430680  0.58951787  1
  C  C14  1  0.15474624  0.97833597  0.08130309  1
  C  C15  1  0.64689045  0.96229824  0.07708181  1
  C  C16  1  0.82266118  0.67866453  0.08990845  1
  C  C17  1  0.02004164  0.33820658  0.08152740  1
  C  C18  1  0.52258458  0.35066182  0.08712653  1
  C  C19  1  0.49180922  0.68041875  0.92325828  1
  C  C20  1  0.98935695  0.67785717  0.91779555  1
  C  C21  1  0.84476691  0.03203725  0.90765341  1
  C  C22  1  0.16321820  0.28244835  0.91091671  1
  C  C23  1  0.66542172  0.27851505  0.91613086  1
  C  C24  1  0.49207347  0.30556563  0.41880030  1
  C  C25  1  0.98865257  0.30022129  0.42108715  1
  C  C26  1  0.16572491  0.05253826  0.41641087  1
  C  C27  1  0.66709415  0.05308668  0.41620114  1
  C  C28  1  0.34755607  0.65807918  0.40730183  1
  C  C29  1  0.84618824  0.65447592  0.41762398  1
  C  C30  1  0.00382910  -0.00009150  0.50082860  1
  C  C31  1  0.51259942  0.01755611  0.49740309  1
  C  C32  1  0.00844991  0.00523446  0.99708204  1
  C  C33  1  0.50183088  0.99257769  0.00024656  1
  C  C34  1  0.33131109  0.30669242  0.82740125  1
  C  C35  1  0.82693425  0.31095866  0.82609382  1
  C  C36  1  0.32464338  0.32979228  0.32592671  1
  C  C37  1  0.82131921  0.32699009  0.32870682  1
  C  C38  1  0.18455975  0.67840264  0.16493298  1
  C  C39  1  0.66639135  0.66887231  0.16322943  1
  C  C40  1  0.16446902  0.66849103  0.66624529  1
  C  C41  1  0.67426615  0.67003931  0.66290589  1
  C  C42  1  0.00539783  0.00345808  0.34838402  1
  C  C43  1  0.50590578  0.00457714  0.34670493  1
  C  C44  1  0.00478736  0.00894756  0.84654187  1
  C  C45  1  0.50356335  0.01054752  0.85010015  1
  C  C46  1  0.32709422  0.31093155  0.68727150  1
  C  C47  1  0.82417159  0.32031780  0.68421609  1
  C  C48  1  0.32961261  0.34348207  0.18550373  1
  C  C49  1  0.82306458  0.33108052  0.18687626  1
  C  C50  1  0.81913096  0.31100720  0.98395416  1
  C  C51  1  0.32142693  0.32754273  0.48312839  1
  C  C52  1  0.81970927  0.33935584  0.48772968  1
  C  C53  1  0.17184725  0.67126888  0.01773344  1
  C  C54  1  0.65935932  0.66370516  0.02028941  1
  C  C55  1  0.16384259  0.66454496  0.51712923  1
  C  C56  1  0.67154145  0.66329310  0.52054675  1
  Ni  Ni57  1  0.15279238  0.00121113  0.25327312  1
  Ni  Ni58  1  0.65126682  0.99925063  0.25369356  1
  Ni  Ni59  1  0.35605361  0.71103433  0.25371911  1
  Ni  Ni60  1  0.85547853  0.70811234  0.25192041  1
  Ni  Ni61  1  0.14875309  0.29978686  0.75203465  1
  Ni  Ni62  1  0.65006621  0.30130678  0.75522786  1
  Ni  Ni63  1  0.35704469  0.00606587  0.75231756  1
  Ni  Ni64  1  0.85653000  0.01039375  0.75407570  1
  Ni  Ni65  1  0.18467890  0.03139090  0.58315925  1
  Ni  Ni66  1  0.68203845  0.03030400  0.58354343  1
  Ni  Ni67  1  0.83615535  0.63184726  0.58460797  1
  Ni  Ni68  1  0.47798826  0.62041170  0.08462318  1
  Ni  Ni69  1  0.18250695  0.33905166  0.08658228  1
  Ni  Ni70  1  0.68381996  0.33532465  0.08372978  1
  Ni  Ni71  1  0.16586342  0.95963963  0.92051147  1
  Ni  Ni72  1  0.66538937  0.96114352  0.91844674  1
  Ni  Ni73  1  0.16496578  0.37095954  0.41909917  1
  Ni  Ni74  1  0.66378212  0.36882919  0.41801603  1
  Cu  Cu75  1  0.00010344  0.00551840  0.65085733  1
  Cu  Cu76  1  0.50582499  0.01946705  0.65548291  1
  Cu  Cu77  1  0.00531042  0.99707466  0.15512550  1
  Cu  Cu78  1  0.50153821  0.97941940  0.14962982  1
  Cu  Cu79  1  0.32566629  0.32362706  0.98742883  1
  Cu  Cu80  1  0.17710617  0.67657133  0.31337942  1
  Cu  Cu81  1  0.67585908  0.67352512  0.31249392  1
  Cu  Cu82  1  0.17221708  0.67806773  0.81361519  1
  Cu  Cu83  1  0.67148184  0.67478388  0.81353704  1
  C  C84  1  0.99788025  0.29437350  0.25125551  1
  C  C85  1  0.49757691  0.28985269  0.25138676  1
  C  C86  1  -0.00001522  0.70302064  0.75211090  1
  C  C87  1  0.49844032  0.70203359  0.75080535  1
  C  C88  1  0.47604043  0.33367740  0.58232606  1
  C  C89  1  0.97858239  0.33638011  0.58218533  1
  C  C90  1  0.33540401  0.62849442  0.58329058  1
  C  C91  1  0.97839521  0.62153571  0.08252044  1
  C  C92  1  0.33340552  0.03923761  0.08518568  1
  C  C93  1  0.83711561  0.04600757  0.08319476  1
  C  C94  1  0.31472494  0.66754338  0.91740401  1
  C  C95  1  0.81577053  0.66680904  0.91948896  1
  C  C96  1  0.02009785  0.37671455  0.91901156  1
  C  C97  1  0.51846490  0.37224144  0.91773716  1
  C  C98  1  0.31551160  0.96535620  0.41990100  1
  C  C99  1  0.81560553  0.96584771  0.41855890  1
  C  C100  1  0.01991346  0.66323728  0.41695865  1
  C  C101  1  0.51931519  0.66307500  0.41905593  1
  C  C102  1  0.10699600  0.03291213  0.30935788  1
  C  C103  1  0.60856670  0.03185100  0.31137875  1
  C  C104  1  0.40761918  0.79809986  0.31429166  1
  C  C105  1  0.91153491  0.80208197  0.30988975  1
  C  C106  1  0.48894313  0.19139387  0.30564158  1
  C  C107  1  0.98651529  0.19055660  0.30408259  1
  C  C108  1  0.10929400  0.18071899  0.81008245  1
  C  C109  1  0.60621407  0.17716908  0.81077446  1
  C  C110  1  0.48580035  0.78085179  0.80433916  1
  C  C111  1  0.98829146  0.78396197  0.80594767  1
  C  C112  1  0.41120664  0.00589281  0.80724903  1
  C  C113  1  0.90593390  0.01372215  0.81418785  1
  C  C114  1  0.39179761  0.95521227  0.68785560  1
  C  C115  1  0.89438095  0.96060000  0.69345165  1
  C  C116  1  0.09196581  0.21945897  0.68981570  1
  C  C117  1  0.59575482  0.23263235  0.69076620  1
  C  C118  1  0.01835835  0.81353943  0.69752333  1
  C  C119  1  0.51550679  0.81242196  0.69539588  1
  C  C120  1  0.39619746  0.83493385  0.19414381  1
  C  C121  1  0.89466293  0.82429358  0.18815109  1
  C  C122  1  0.01562466  0.22049878  0.19527722  1
  C  C123  1  0.51393308  0.21475150  0.19649707  1
  C  C124  1  0.09037215  0.94790314  0.19098717  1
  C  C125  1  0.59112557  0.95279933  0.19214668  1
  C  C126  1  0.43529250  0.35760670  0.63514378  1
  C  C127  1  0.93782266  0.35766366  0.63514188  1
  C  C128  1  0.24439078  0.11442069  0.64120802  1
  C  C129  1  0.73892313  0.10998090  0.64264900  1
  C  C130  1  0.32571357  0.52770542  0.63725466  1
  C  C131  1  0.82518736  0.51841175  0.64315028  1
  C  C132  1  0.43454705  0.49738986  0.14084220  1
  C  C133  1  0.93914992  0.51973021  0.13664433  1
  C  C134  1  0.31870845  0.12173085  0.13612937  1
  C  C135  1  0.82785721  0.13165536  0.13571057  1
  C  C136  1  0.23554043  0.35278726  0.14434973  1
  C  C137  1  0.74339449  0.37014528  0.14163969  1
  C  C138  1  0.21654968  0.28459076  0.02459591  1
  C  C139  1  0.71956492  0.28721547  0.02415981  1
  C  C140  1  0.42206300  0.53600636  0.02020163  1
  C  C141  1  0.92723504  0.53997560  0.02811114  1
  C  C142  1  0.35020777  0.14481706  0.02826286  1
  C  C143  1  0.85290325  0.14982749  0.02791798  1
  C  C144  1  0.22232174  0.14734708  0.52302568  1
  C  C145  1  0.71764811  0.14709400  0.52358307  1
  C  C146  1  0.34920667  0.55030559  0.52901073  1
  C  C147  1  0.85955648  0.56279952  0.52377932  1
  C  C148  1  0.42569924  0.30844678  0.52711920  1
  C  C149  1  0.92897347  0.31084368  0.52655336  1
  C  C150  1  0.27090902  0.68466081  0.96958315  1
  C  C151  1  0.77333079  0.69136039  0.97152947  1
  C  C152  1  0.07428696  0.45683607  0.97203863  1
  C  C153  1  0.57077043  0.45195567  0.97130250  1
  C  C154  1  0.15213367  0.84177798  0.97794346  1
  C  C155  1  0.65406926  0.84108245  0.97470287  1
  C  C156  1  0.27341356  0.85640304  0.47228824  1
  C  C157  1  0.77388638  0.85794620  0.47102444  1
  C  C158  1  0.15158506  0.46351736  0.47670434  1
  C  C159  1  0.64708941  0.46003041  0.47437225  1
  C  C160  1  0.07449058  0.69224828  0.46954851  1
  C  C161  1  0.57403995  0.69074193  0.47130385  1
  C  C162  1  0.06108876  0.64033218  0.36140051  1
  C  C163  1  0.55774738  0.63581413  0.36314183  1
  C  C164  1  0.25879071  0.89238522  0.36550350  1
  C  C165  1  0.75918615  0.89171115  0.36399355  1
  C  C166  1  0.18154048  0.49439804  0.35799067  1
  C  C167  1  0.68191864  0.49288338  0.35654955  1
  C  C168  1  0.06057116  0.48489755  0.86445738  1
  C  C169  1  0.55861091  0.48391254  0.86374901  1
  C  C170  1  0.17910886  0.87473472  0.85762264  1
  C  C171  1  0.68154051  0.87284419  0.85635724  1
  C  C172  1  0.26070278  0.63174608  0.86175956  1
  C  C173  1  0.76146599  0.63056811  0.86412908  1
  C  C174  1  0.00932760  0.81449246  0.41224136  1
  C  C175  1  0.50819129  0.81395698  0.41423967  1
  C  C176  1  0.39871435  0.97614654  0.41203153  1
  C  C177  1  0.89903030  0.97594606  0.41045689  1
  C  C178  1  0.07811635  0.18272390  0.41299221  1
  C  C179  1  0.57714574  0.18025510  0.41203427  1
  C  C180  1  0.00944129  0.20399662  0.91322260  1
  C  C181  1  0.50949868  0.20279803  0.91141654  1
  C  C182  1  0.08105700  0.97923421  0.91421399  1
  C  C183  1  0.57883265  0.97459274  0.91339081  1
  C  C184  1  0.40008240  0.81507476  0.91132664  1
  C  C185  1  0.90072929  0.82286544  0.91270755  1
  C  C186  1  0.48224585  0.17197363  0.58638314  1
  C  C187  1  0.98803534  0.17930206  0.58567825  1
  C  C188  1  0.08885435  0.01740440  0.59007102  1
  C  C189  1  0.58174361  0.01215320  0.59013623  1
  C  C190  1  0.41289602  0.80440385  0.58647253  1
  C  C191  1  0.92212579  0.83167867  0.58871101  1
  C  C192  1  0.48771596  0.81317506  0.08344135  1
  C  C193  1  0.98463616  0.79579874  0.08537608  1
  C  C194  1  0.41189178  0.02851728  0.08911774  1
  C  C195  1  0.91524487  0.02627042  0.08741964  1
  C  C196  1  0.08285198  0.15397343  0.08937352  1
  C  C197  1  0.58334603  0.16410208  0.09147775  1
  C  C198  1  0.34344644  0.16687061  0.74687734  1
  C  C199  1  0.84339191  0.17124578  0.74655972  1
  C  C200  1  0.24552152  0.33532042  0.74358464  1
  C  C201  1  0.74510445  0.33096806  0.74848602  1
  C  C202  1  0.42223388  0.53536348  0.74113494  1
  C  C203  1  0.92511225  0.53493962  0.74444416  1
  C  C204  1  0.34809265  0.52487480  0.24823811  1
  C  C205  1  0.85109398  0.52541142  0.24527867  1
  C  C206  1  0.42383875  0.31271734  0.24559611  1
  C  C207  1  0.92503729  0.31794345  0.24218152  1
  C  C208  1  0.24482669  0.16463453  0.24394159  1
  C  C209  1  0.74428459  0.16329113  0.24544488  1
  C  C210  1  0.32144540  0.50772585  0.92034413  1
  C  C211  1  0.82802055  0.51727389  0.92448553  1
  C  C212  1  0.43312893  0.36076693  0.92159606  1
  C  C213  1  0.93559289  0.36338145  0.92459179  1
  C  C214  1  0.25347351  0.15758290  0.92178610  1
  C  C215  1  0.75375729  0.14848020  0.91750490  1
  C  C216  1  0.32832450  0.13964584  0.42476533  1
  C  C217  1  0.82869708  0.14015909  0.42369949  1
  C  C218  1  0.25247640  0.35933004  0.41841450  1
  C  C219  1  0.75073284  0.35576470  0.41766851  1
  C  C220  1  0.43406165  0.50556251  0.42476834  1
  C  C221  1  0.93636415  0.50428059  0.42091161  1
  C  C222  1  0.16471967  0.49497591  0.07655438  1
  C  C223  1  0.67527830  0.50560825  0.07576555  1
  C  C224  1  0.06587715  0.64936473  0.07807139  1
  C  C225  1  0.57377247  0.65026714  0.07919516  1
  C  C226  1  0.25630764  0.86904297  0.07700277  1
  C  C227  1  0.76127187  0.87324684  0.07768332  1
  C  C228  1  0.17064655  0.83725728  0.57663629  1
  C  C229  1  0.66541285  0.83652768  0.57575107  1
  C  C230  1  0.25828732  0.64557739  0.57808275  1
  C  C231  1  0.75120303  0.65077078  0.57968506  1
  C  C232  1  0.06615782  0.48833156  0.57806174  1
  C  C233  1  0.56309805  0.48237235  0.57801427  1
  C  C234  1  0.14827643  0.81148874  0.25788393  1
  C  C235  1  0.64782791  0.81004543  0.25798618  1
  C  C236  1  0.25607371  0.67596645  0.25141456  1
  C  C237  1  0.75704753  0.67612674  0.25019822  1
  C  C238  1  0.07710248  0.46711430  0.25519040  1
  C  C239  1  0.57724296  0.46568515  0.25475766  1
  C  C240  1  0.15647010  0.49197102  0.75740948  1
  C  C241  1  0.65700706  0.49196660  0.75858288  1
  C  C242  1  0.07971979  0.69220714  0.75620242  1
  C  C243  1  0.57696354  0.68929078  0.75446820  1
  C  C244  1  0.25808647  0.82886210  0.75127215  1
  C  C245  1  0.75825431  0.83008159  0.75252746  1
