# generated using pymatgen
data_Cu6Ni6C
_symmetry_space_group_name_H-M   'P 1'
_cell_length_a   7.62422189
_cell_length_b   7.62422189
_cell_length_c   7.62422189
_cell_angle_alpha   60.00000000
_cell_angle_beta   60.00000000
_cell_angle_gamma   60.00000000
_symmetry_Int_Tables_number   1
_chemical_formula_structural   Cu6Ni6C
_chemical_formula_sum   'Cu12 Ni12 C2'
_cell_volume   313.38022201
_cell_formula_units_Z   2
loop_
 _symmetry_equiv_pos_site_id
 _symmetry_equiv_pos_as_xyz
  1  'x, y, z'
loop_
 _atom_site_type_symbol
 _atom_site_label
 _atom_site_symmetry_multiplicity
 _atom_site_fract_x
 _atom_site_fract_y
 _atom_site_fract_z
 _atom_site_occupancy
  C  C0  1  0.75000000  0.75000000  0.75000000  1
  C  C1  1  0.25000000  0.25000000  0.25000000  1
  Ni  Ni2  1  0.94860100  0.78417800  0.05139900  1
  Ni  Ni3  1  0.78417800  0.94860100  0.21582200  1
  Ni  Ni4  1  0.78417800  0.21582200  0.05139900  1
  Ni  Ni5  1  0.78417800  0.05139900  0.94860100  1
  Ni  Ni6  1  0.21582200  0.78417800  0.94860100  1
  Ni  Ni7  1  0.05139900  0.94860100  0.78417800  1
  Ni  Ni8  1  0.05139900  0.78417800  0.21582200  1
  Ni  Ni9  1  0.21582200  0.94860100  0.05139900  1
  Ni  Ni10  1  0.94860100  0.05139900  0.21582200  1
  Ni  Ni11  1  0.05139900  0.21582200  0.94860100  1
  Ni  Ni12  1  0.21582200  0.05139900  0.78417800  1
  Ni  Ni13  1  0.94860100  0.21582200  0.78417800  1
  Cu  Cu14  1  0.63101000  0.91039400  0.36899000  1
  Cu  Cu15  1  0.91039400  0.63101000  0.08960600  1
  Cu  Cu16  1  0.63101000  0.36899000  0.08960600  1
  Cu  Cu17  1  0.63101000  0.08960600  0.91039400  1
  Cu  Cu18  1  0.36899000  0.63101000  0.91039400  1
  Cu  Cu19  1  0.08960600  0.91039400  0.63101000  1
  Cu  Cu20  1  0.08960600  0.63101000  0.36899000  1
  Cu  Cu21  1  0.36899000  0.91039400  0.08960600  1
  Cu  Cu22  1  0.91039400  0.08960600  0.36899000  1
  Cu  Cu23  1  0.08960600  0.36899000  0.91039400  1
  Cu  Cu24  1  0.36899000  0.08960600  0.63101000  1
  Cu  Cu25  1  0.91039400  0.36899000  0.63101000  1
