# generated using pymatgen
data_Cu4NiC10
_symmetry_space_group_name_H-M   'P 1'
_cell_length_a   5.50277671
_cell_length_b   5.50277680
_cell_length_c   11.07756275
_cell_angle_alpha   90.00000000
_cell_angle_beta   90.00000000
_cell_angle_gamma   119.99999954
_symmetry_Int_Tables_number   1
_chemical_formula_structural   Cu4NiC10
_chemical_formula_sum   'Cu4 Ni1 C10'
_cell_volume   290.49498576
_cell_formula_units_Z   1
loop_
 _symmetry_equiv_pos_site_id
 _symmetry_equiv_pos_as_xyz
  1  'x, y, z'
loop_
 _atom_site_type_symbol
 _atom_site_label
 _atom_site_symmetry_multiplicity
 _atom_site_fract_x
 _atom_site_fract_y
 _atom_site_fract_z
 _atom_site_occupancy
  C  C0  1  -0.00000000  -0.00000000  0.01651035  1
  C  C1  1  -0.00000000  -0.00000000  0.36880419  1
  Ni  Ni2  1  -0.00000000  -0.00000000  0.70928166  1
  Cu  Cu3  1  0.66666600  0.33333400  0.18082337  1
  Cu  Cu4  1  0.66666600  0.33333400  0.83909214  1
  Cu  Cu5  1  0.33333400  0.66666700  0.83909214  1
  Cu  Cu6  1  0.33333400  0.66666700  0.18082337  1
  C  C7  1  0.32104468  0.32104568  0.78917315  1
  C  C8  1  0.67895532  -0.00000000  0.78917315  1
  C  C9  1  0.99999900  0.67895332  0.78917315  1
  C  C10  1  0.66078860  0.66078760  0.23925626  1
  C  C11  1  0.00000100  0.33921140  0.23925626  1
  C  C12  1  0.33921140  -0.00000000  0.23925626  1
  C  C13  1  0.33333400  0.66666700  0.01123427  1
  C  C14  1  0.66666600  0.33333400  0.01123427  1
