# generated using pymatgen
data_Cu2Ni10C7
_symmetry_space_group_name_H-M   'P 1'
_cell_length_a   8.32363836
_cell_length_b   5.78085609
_cell_length_c   5.89177396
_cell_angle_alpha   65.93033299
_cell_angle_beta   62.23808099
_cell_angle_gamma   63.49984792
_symmetry_Int_Tables_number   1
_chemical_formula_structural   Cu2Ni10C7
_chemical_formula_sum   'Cu2 Ni10 C7'
_cell_volume   217.22960575
_cell_formula_units_Z   1
loop_
 _symmetry_equiv_pos_site_id
 _symmetry_equiv_pos_as_xyz
  1  'x, y, z'
loop_
 _atom_site_type_symbol
 _atom_site_label
 _atom_site_symmetry_multiplicity
 _atom_site_fract_x
 _atom_site_fract_y
 _atom_site_fract_z
 _atom_site_occupancy
  C  C0  1  0.33914212  0.65657236  0.15389023  1
  C  C1  1  0.88161183  0.65306668  0.68794083  1
  C  C2  1  0.67467418  0.34708568  0.32330621  1
  C  C3  1  0.33443979  0.64614165  0.65271161  1
  C  C4  1  0.11474012  0.31037166  0.29315543  1
  C  C5  1  0.54285318  0.01533726  0.07305399  1
  C  C6  1  0.98623980  0.00002139  0.99061350  1
  Ni  Ni7  1  0.35629490  0.38246759  0.99673065  1
  Ni  Ni8  1  0.59955466  0.59594712  0.50891829  1
  Ni  Ni9  1  0.94699291  0.24871016  0.16968472  1
  Ni  Ni10  1  0.72218017  0.08470737  0.14845370  1
  Ni  Ni11  1  0.05398282  0.74017400  0.80614306  1
  Ni  Ni12  1  0.40257623  0.39744445  0.47274529  1
  Ni  Ni13  1  0.30058763  0.93530312  0.32544482  1
  Ni  Ni14  1  0.64494261  0.63894599  0.01936008  1
  Ni  Ni15  1  0.97508361  0.28672200  0.67542355  1
  Ni  Ni16  1  0.04115048  0.69136525  0.30121751  1
  Cu  Cu17  1  0.70854766  0.04634326  0.64713421  1
  Cu  Cu18  1  0.28181428  0.91850800  0.83740834  1
