# generated using pymatgen
data_Cu6NiC4
_symmetry_space_group_name_H-M   'P 1'
_cell_length_a   7.41692741
_cell_length_b   8.37909513
_cell_length_c   8.37909474
_cell_angle_alpha   88.80185128
_cell_angle_beta   63.73105367
_cell_angle_gamma   63.73104962
_symmetry_Int_Tables_number   1
_chemical_formula_structural   Cu6NiC4
_chemical_formula_sum   'Cu6 Ni1 C4'
_cell_volume   408.70079601
_cell_formula_units_Z   1
loop_
 _symmetry_equiv_pos_site_id
 _symmetry_equiv_pos_as_xyz
  1  'x, y, z'
loop_
 _atom_site_type_symbol
 _atom_site_label
 _atom_site_symmetry_multiplicity
 _atom_site_fract_x
 _atom_site_fract_y
 _atom_site_fract_z
 _atom_site_occupancy
  C  C0  1  0.50000000  0.00000000  0.00000000  1
  C  C1  1  -0.00000000  0.00000000  0.00000000  1
  C  C2  1  0.50000000  0.62774037  0.37225963  1
  C  C3  1  0.50000000  0.37225963  0.62774037  1
  Ni  Ni4  1  0.50000000  0.50000000  0.50000000  1
  Cu  Cu5  1  0.90750327  0.81501965  0.81501965  1
  Cu  Cu6  1  0.00000000  0.77807990  0.22192010  1
  Cu  Cu7  1  0.53754356  0.18498035  0.18498035  1
  Cu  Cu8  1  1.00000000  0.22192010  0.77807990  1
  Cu  Cu9  1  0.09249673  0.18498035  0.18498035  1
  Cu  Cu10  1  0.46245644  0.81501965  0.81501965  1
