# generated using pymatgen
data_Cu2NiC17
_symmetry_space_group_name_H-M   'P 1'
_cell_length_a   9.05096150
_cell_length_b   9.07057143
_cell_length_c   22.58185697
_cell_angle_alpha   89.96103075
_cell_angle_beta   90.04013723
_cell_angle_gamma   119.98100756
_symmetry_Int_Tables_number   1
_chemical_formula_structural   Cu2NiC17
_chemical_formula_sum   'Cu12 Ni6 C102'
_cell_volume   1605.84119547
_cell_formula_units_Z   6
loop_
 _symmetry_equiv_pos_site_id
 _symmetry_equiv_pos_as_xyz
  1  'x, y, z'
loop_
 _atom_site_type_symbol
 _atom_site_label
 _atom_site_symmetry_multiplicity
 _atom_site_fract_x
 _atom_site_fract_y
 _atom_site_fract_z
 _atom_site_occupancy
  C  C0  1  0.99530078  0.98877932  0.50301233  1
  C  C1  1  0.97780995  0.99030270  0.99552619  1
  C  C2  1  0.66232046  0.33446478  0.82873870  1
  C  C3  1  0.66159102  0.33614823  0.32819814  1
  C  C4  1  0.33422788  0.65711238  0.16224919  1
  C  C5  1  0.33136253  0.66366834  0.66555587  1
  C  C6  1  0.64420844  0.01015670  0.24610279  1
  C  C7  1  0.99566388  0.35408635  0.74682041  1
  C  C8  1  0.36165790  0.00750283  0.75050206  1
  C  C9  1  0.30092964  0.33359973  0.58729325  1
  C  C10  1  0.66807682  0.96775934  0.58456933  1
  C  C11  1  0.29481289  0.96101063  0.08302376  1
  C  C12  1  0.03846175  0.33712952  0.08179235  1
  C  C13  1  0.97888254  0.68217097  0.91554965  1
  C  C14  1  0.32063702  0.29303223  0.91418424  1
  C  C15  1  0.96026104  0.29099935  0.41683170  1
  C  C16  1  0.33483713  0.03704821  0.41382304  1
  C  C17  1  0.70270970  0.67299988  0.41826369  1
  C  C18  1  0.00320616  0.00116546  0.34812760  1
  C  C19  1  0.99910630  0.00283344  0.85244557  1
  C  C20  1  0.00130947  0.99762361  0.65141819  1
  C  C21  1  0.99945228  0.99171819  0.14950681  1
  C  C22  1  0.66573248  0.34220606  0.68463129  1
  C  C23  1  0.66259874  0.33788901  0.18731934  1
  C  C24  1  0.66727392  0.33138387  0.48252991  1
  C  C25  1  0.34071575  0.66854481  0.01711959  1
  C  C26  1  0.33305569  0.67022809  0.51893793  1
  C  C27  1  0.66693643  0.33160653  0.97770537  1
  C  C28  1  0.33197178  0.66981562  0.31176664  1
  C  C29  1  0.33848507  0.66443024  0.81667315  1
  Ni  Ni30  1  0.29614643  0.00278090  0.25027476  1
  Ni  Ni31  1  0.29713522  0.29805493  0.75013210  1
  Ni  Ni32  1  0.62958198  0.66978995  0.91890460  1
  Ni  Ni33  1  0.04091324  0.37465050  0.91903061  1
  Ni  Ni34  1  0.33532709  0.95758918  0.91840893  1
  Ni  Ni35  1  0.62850068  0.96028051  0.41774844  1
  Cu  Cu36  1  0.70449561  0.70546569  0.25252509  1
  Cu  Cu37  1  0.00363167  0.29630857  0.24985992  1
  Cu  Cu38  1  0.00295289  0.70456012  0.75227225  1
  Cu  Cu39  1  0.70229071  0.99633080  0.74875221  1
  Cu  Cu40  1  0.96265729  0.33248055  0.58373879  1
  Cu  Cu41  1  0.37101639  0.03886938  0.58357335  1
  Cu  Cu42  1  0.66869211  0.63023536  0.58097223  1
  Cu  Cu43  1  0.95445507  0.62279767  0.08329472  1
  Cu  Cu44  1  0.66740262  0.04471346  0.08510598  1
  Cu  Cu45  1  0.37526129  0.33373519  0.08332152  1
  Cu  Cu46  1  0.33272860  0.37812837  0.41704247  1
  Cu  Cu47  1  0.04386871  0.66655177  0.41599812  1
  C  C48  1  0.21111157  0.02262622  0.31064574  1
  C  C49  1  0.80433779  0.78622890  0.30983727  1
  C  C50  1  0.97340978  0.18529126  0.30558080  1
  C  C51  1  0.21084568  0.18160972  0.80829897  1
  C  C52  1  0.97782934  0.78058244  0.80885753  1
  C  C53  1  0.81820012  0.02474121  0.80164472  1
  C  C54  1  0.77541221  0.96652581  0.69112727  1
  C  C55  1  0.17580557  0.21661076  0.69126503  1
  C  C56  1  0.03426401  0.82156682  0.69839471  1
  C  C57  1  0.78295408  0.82763489  0.19937525  1
  C  C58  1  0.03215331  0.21620840  0.19399815  1
  C  C59  1  0.18060928  0.96876839  0.19118350  1
  C  C60  1  0.87595926  0.35141648  0.63958278  1
  C  C61  1  0.48381205  0.12515608  0.63841794  1
  C  C62  1  0.64170095  0.51245274  0.63403472  1
  C  C63  1  0.86509117  0.50871252  0.13632536  1
  C  C64  1  0.64549827  0.12779680  0.14103607  1
  C  C65  1  0.48418991  0.35094412  0.13736743  1
  C  C66  1  0.46963426  0.31508075  0.02689493  1
  C  C67  1  0.84548514  0.52953480  0.02604293  1
  C  C68  1  0.68544479  0.16509390  0.03049863  1
  C  C69  1  0.45600673  0.14969295  0.52707123  1
  C  C70  1  0.68867534  0.54845744  0.52320339  1
  C  C71  1  0.85225857  0.30990907  0.52743738  1
  C  C72  1  0.53894479  0.69404505  0.97544243  1
  C  C73  1  0.15337291  0.45743969  0.97733169  1
  C  C74  1  0.30011613  0.84304423  0.97670952  1
  C  C75  1  0.54085038  0.84201118  0.47541857  1
  C  C76  1  0.30279821  0.45473917  0.47329158  1
  C  C77  1  0.15614401  0.69467488  0.47016675  1
  C  C78  1  0.13632146  0.64127733  0.36132225  1
  C  C79  1  0.49981538  0.85522652  0.36023103  1
  C  C80  1  0.35244361  0.49535900  0.36333367  1
  C  C81  1  0.13435844  0.50363319  0.86055248  1
  C  C82  1  0.36482569  0.86568124  0.85928039  1
  C  C83  1  0.49806356  0.63133435  0.86120331  1
  C  C84  1  0.02459538  0.82593681  0.40990422  1
  C  C85  1  0.81769374  0.98125946  0.41135280  1
  C  C86  1  0.17437599  0.19767431  0.41046008  1
  C  C87  1  0.02186631  0.18994131  0.90975307  1
  C  C88  1  0.17346423  0.98561539  0.91029802  1
  C  C89  1  0.82230889  0.81983911  0.91026217  1
  C  C90  1  0.97439288  0.16584320  0.58627176  1
  C  C91  1  0.19479423  0.02693275  0.58828216  1
  C  C92  1  0.82262409  0.81162140  0.58697139  1
  C  C93  1  0.97285244  0.80189205  0.08513131  1
  C  C94  1  0.83541785  0.03981058  0.08550071  1
  C  C95  1  0.19838289  0.16664762  0.08458695  1
  C  C96  1  0.68057731  0.15562823  0.74389567  1
  C  C97  1  0.48357697  0.31304487  0.74399815  1
  C  C98  1  0.85535005  0.51962027  0.74466582  1
  C  C99  1  0.68141435  0.52811317  0.24550748  1
  C  C100  1  0.84506460  0.31686785  0.24471047  1
  C  C101  1  0.49341293  0.15615322  0.24641404  1
  C  C102  1  0.63432898  0.48739841  0.92458700  1
  C  C103  1  0.85525421  0.36947521  0.92394970  1
  C  C104  1  0.50733667  0.14995541  0.92518263  1
  C  C105  1  0.63890664  0.14642516  0.41882253  1
  C  C106  1  0.49804899  0.36670000  0.41914714  1
  C  C107  1  0.86631481  0.50361616  0.41885173  1
  C  C108  1  0.34715535  0.48717816  0.08035128  1
  C  C109  1  0.13388380  0.64062295  0.07966890  1
  C  C110  1  0.50419059  0.87104595  0.07919298  1
  C  C111  1  0.35922717  0.86289645  0.57866838  1
  C  C112  1  0.50171485  0.64278010  0.57895982  1
  C  C113  1  0.14528974  0.48645642  0.57910847  1
  C  C114  1  0.31516730  0.82544224  0.25811501  1
  C  C115  1  0.52118141  0.68820637  0.25957849  1
  C  C116  1  0.16668363  0.47556869  0.25957914  1
  C  C117  1  0.30664752  0.48689279  0.75770918  1
  C  C118  1  0.17256566  0.69313935  0.75657877  1
  C  C119  1  0.51727372  0.83797800  0.75707001  1
