# generated using pymatgen
data_CuNi2C17
_symmetry_space_group_name_H-M   'P 1'
_cell_length_a   15.40675568
_cell_length_b   26.54903542
_cell_length_c   8.90496260
_cell_angle_alpha   90.00000000
_cell_angle_beta   124.92469137
_cell_angle_gamma   90.00000000
_symmetry_Int_Tables_number   1
_chemical_formula_structural   CuNi2C17
_chemical_formula_sum   'Cu12 Ni24 C204'
_cell_volume   2986.45312390
_cell_formula_units_Z   12
loop_
 _symmetry_equiv_pos_site_id
 _symmetry_equiv_pos_as_xyz
  1  'x, y, z'
loop_
 _atom_site_type_symbol
 _atom_site_label
 _atom_site_symmetry_multiplicity
 _atom_site_fract_x
 _atom_site_fract_y
 _atom_site_fract_z
 _atom_site_occupancy
  C  C0  1  0.25748135  0.25313985  0.00853830  1
  C  C1  1  0.25136800  0.58624960  0.01826010  1
  C  C2  1  0.25220445  0.91735786  0.01944814  1
  C  C3  1  0.75748135  0.24686015  0.50853830  1
  C  C4  1  0.75220445  0.58264214  0.51944814  1
  C  C5  1  0.75136800  0.91375040  0.51826010  1
  C  C6  1  0.75136800  0.08624960  0.01826010  1
  C  C7  1  0.75220445  0.41735786  0.01944814  1
  C  C8  1  0.75748135  0.75313985  0.00853830  1
  C  C9  1  0.25220445  0.08264214  0.51944814  1
  C  C10  1  0.25136800  0.41375040  0.51826010  1
  C  C11  1  0.25748135  0.74686015  0.50853830  1
  C  C12  1  0.49685965  0.03419121  0.75027735  1
  C  C13  1  0.49874264  0.36821514  0.75595296  1
  C  C14  1  0.49712677  0.70075146  0.74659193  1
  C  C15  1  0.49712677  0.29924854  0.24659193  1
  C  C16  1  0.49874264  0.63178486  0.25595296  1
  C  C17  1  0.49685965  0.96580879  0.25027735  1
  C  C18  1  0.99712677  0.20075146  0.74659193  1
  C  C19  1  0.99685965  0.53419121  0.75027735  1
  C  C20  1  0.99874264  0.86821514  0.75595296  1
  C  C21  1  0.99874264  0.13178486  0.25595296  1
  C  C22  1  0.99685965  0.46580879  0.25027735  1
  C  C23  1  0.99712677  0.79924854  0.24659193  1
  C  C24  1  0.81484984  0.64318797  0.20692752  1
  C  C25  1  0.81527461  0.97752867  0.21566620  1
  C  C26  1  0.19418725  0.30860005  0.28885630  1
  C  C27  1  0.19418725  0.69139995  0.78885630  1
  C  C28  1  0.81527461  0.02247133  0.71566620  1
  C  C29  1  0.81484984  0.35681203  0.70692752  1
  C  C30  1  0.31484984  0.14318797  0.20692752  1
  C  C31  1  0.31527461  0.47752867  0.21566620  1
  C  C32  1  0.69418725  0.80860005  0.28885630  1
  C  C33  1  0.69418725  0.19139995  0.78885630  1
  C  C34  1  0.31527461  0.52247133  0.71566620  1
  C  C35  1  0.31484984  0.85681203  0.70692752  1
  C  C36  1  0.10938707  0.24770707  0.57099825  1
  C  C37  1  0.10383754  0.58275255  0.56728883  1
  C  C38  1  0.10613343  0.91756620  0.56662167  1
  C  C39  1  0.10613343  0.08243380  0.06662167  1
  C  C40  1  0.10383754  0.41724745  0.06728883  1
  C  C41  1  0.10938707  0.75229293  0.07099825  1
  C  C42  1  0.60383754  0.08275255  0.56728883  1
  C  C43  1  0.60613343  0.41756620  0.56662167  1
  C  C44  1  0.60938707  0.74770707  0.57099825  1
  C  C45  1  0.60938707  0.25229293  0.07099825  1
  C  C46  1  0.60613343  0.58243380  0.06662167  1
  C  C47  1  0.60383754  0.91724745  0.06728883  1
  C  C48  1  0.89674555  0.24902126  0.93940778  1
  C  C49  1  0.89225647  0.58131156  0.93399355  1
  C  C50  1  0.89299963  0.91251034  0.93559718  1
  C  C51  1  0.89299963  0.08748966  0.43559718  1
  C  C52  1  0.89225647  0.41868844  0.43399355  1
  C  C53  1  0.89674555  0.75097874  0.43940778  1
  C  C54  1  0.39225647  0.08131156  0.93399355  1
  C  C55  1  0.39299963  0.41251034  0.93559718  1
  C  C56  1  0.39674555  0.74902126  0.93940778  1
  C  C57  1  0.39674555  0.25097874  0.43940778  1
  C  C58  1  0.39299963  0.58748966  0.43559718  1
  C  C59  1  0.39225647  0.91868844  0.43399355  1
  Ni  Ni60  1  0.35477987  0.29912501  0.74757800  1
  Ni  Ni61  1  0.35514073  0.63351678  0.74979024  1
  Ni  Ni62  1  0.35387474  0.96744735  0.74597678  1
  Ni  Ni63  1  0.64514642  0.29666884  0.73754578  1
  Ni  Ni64  1  0.64605232  0.62701624  0.73832094  1
  Ni  Ni65  1  0.64578932  0.96061041  0.73880930  1
  Ni  Ni66  1  0.64578932  0.03938959  0.23880930  1
  Ni  Ni67  1  0.64605232  0.37298376  0.23832094  1
  Ni  Ni68  1  0.64514642  0.70333116  0.23754578  1
  Ni  Ni69  1  0.35387474  0.03255265  0.24597678  1
  Ni  Ni70  1  0.35514073  0.36648322  0.24979024  1
  Ni  Ni71  1  0.35477987  0.70087499  0.24757800  1
  Ni  Ni72  1  0.85514073  0.13351678  0.74979024  1
  Ni  Ni73  1  0.85387474  0.46744735  0.74597678  1
  Ni  Ni74  1  0.85477987  0.79912501  0.74757800  1
  Ni  Ni75  1  0.14605232  0.12701624  0.73832094  1
  Ni  Ni76  1  0.14578932  0.46061041  0.73880930  1
  Ni  Ni77  1  0.14514642  0.79666884  0.73754578  1
  Ni  Ni78  1  0.14514642  0.20333116  0.23754578  1
  Ni  Ni79  1  0.14578932  0.53938959  0.23880930  1
  Ni  Ni80  1  0.14605232  0.87298376  0.23832094  1
  Ni  Ni81  1  0.85477987  0.20087499  0.24757800  1
  Ni  Ni82  1  0.85387474  0.53255265  0.24597678  1
  Ni  Ni83  1  0.85514073  0.86648322  0.24979024  1
  Cu  Cu84  1  0.99889515  0.32091621  0.74530259  1
  Cu  Cu85  1  0.99136649  0.65535053  0.74254768  1
  Cu  Cu86  1  0.99640478  0.98762652  0.73983461  1
  Cu  Cu87  1  0.99640478  0.01237348  0.23983461  1
  Cu  Cu88  1  0.99136649  0.34464947  0.24254768  1
  Cu  Cu89  1  0.99889515  0.67908379  0.24530259  1
  Cu  Cu90  1  0.49136649  0.15535053  0.74254768  1
  Cu  Cu91  1  0.49640478  0.48762652  0.73983461  1
  Cu  Cu92  1  0.49889515  0.82091621  0.74530259  1
  Cu  Cu93  1  0.49889515  0.17908379  0.24530259  1
  Cu  Cu94  1  0.49640478  0.51237348  0.23983461  1
  Cu  Cu95  1  0.49136649  0.84464947  0.24254768  1
  C  C96  1  0.14811775  0.19071137  0.73956677  1
  C  C97  1  0.14990908  0.52487944  0.74053862  1
  C  C98  1  0.14892159  0.85912758  0.73832465  1
  C  C99  1  0.85151811  0.19418675  0.76483827  1
  C  C100  1  0.85455319  0.52743458  0.76562571  1
  C  C101  1  0.85260432  0.86000453  0.76326962  1
  C  C102  1  0.85260432  0.13999547  0.26326962  1
  C  C103  1  0.85455319  0.47256542  0.26562571  1
  C  C104  1  0.85151811  0.80581325  0.26483827  1
  C  C105  1  0.14892159  0.14087242  0.23832465  1
  C  C106  1  0.14990908  0.47512056  0.24053862  1
  C  C107  1  0.14811775  0.80928863  0.23956677  1
  C  C108  1  0.64990908  0.02487944  0.74053862  1
  C  C109  1  0.64892159  0.35912758  0.73832465  1
  C  C110  1  0.64811775  0.69071137  0.73956677  1
  C  C111  1  0.35455319  0.02743458  0.76562571  1
  C  C112  1  0.35260432  0.36000453  0.76326962  1
  C  C113  1  0.35151811  0.69418675  0.76483827  1
  C  C114  1  0.35151811  0.30581325  0.26483827  1
  C  C115  1  0.35260432  0.63999547  0.26326962  1
  C  C116  1  0.35455319  0.97256542  0.26562571  1
  C  C117  1  0.64811775  0.30928863  0.23956677  1
  C  C118  1  0.64892159  0.64087242  0.23832465  1
  C  C119  1  0.64990908  0.97512056  0.24053862  1
  C  C120  1  0.43119820  0.18730757  0.56766392  1
  C  C121  1  0.43221224  0.52073887  0.56998838  1
  C  C122  1  0.43594003  0.85582980  0.58236712  1
  C  C123  1  0.56254242  0.18918187  0.91332896  1
  C  C124  1  0.56100608  0.52123683  0.91486862  1
  C  C125  1  0.56708335  0.85266741  0.92630369  1
  C  C126  1  0.56708335  0.14733259  0.42630369  1
  C  C127  1  0.56100608  0.47876317  0.41486862  1
  C  C128  1  0.56254242  0.81081813  0.41332896  1
  C  C129  1  0.43594003  0.14417020  0.08236712  1
  C  C130  1  0.43221224  0.47926113  0.06998838  1
  C  C131  1  0.43119820  0.81269243  0.06766392  1
  C  C132  1  0.93221224  0.02073887  0.56998838  1
  C  C133  1  0.93594003  0.35582980  0.58236712  1
  C  C134  1  0.93119820  0.68730757  0.56766392  1
  C  C135  1  0.06100608  0.02123683  0.91486862  1
  C  C136  1  0.06708335  0.35266741  0.92630369  1
  C  C137  1  0.06254242  0.68918187  0.91332896  1
  C  C138  1  0.06254242  0.31081813  0.41332896  1
  C  C139  1  0.06708335  0.64733259  0.42630369  1
  C  C140  1  0.06100608  0.97876317  0.41486862  1
  C  C141  1  0.93119820  0.31269243  0.06766392  1
  C  C142  1  0.93594003  0.64417020  0.08236712  1
  C  C143  1  0.93221224  0.97926113  0.06998838  1
  C  C144  1  0.25277133  0.27455336  0.73591122  1
  C  C145  1  0.25341892  0.60904977  0.74347924  1
  C  C146  1  0.25471671  0.93990723  0.73748410  1
  C  C147  1  0.75097922  0.27495389  0.76231472  1
  C  C148  1  0.75282390  0.60633370  0.77214453  1
  C  C149  1  0.75498662  0.94323657  0.76860874  1
  C  C150  1  0.75498662  0.05676343  0.26860874  1
  C  C151  1  0.75282390  0.39366630  0.27214453  1
  C  C152  1  0.75097922  0.72504611  0.26231472  1
  C  C153  1  0.25471671  0.06009277  0.23748410  1
  C  C154  1  0.25341892  0.39095023  0.24347924  1
  C  C155  1  0.25277133  0.72544664  0.23591122  1
  C  C156  1  0.75341892  0.10904977  0.74347924  1
  C  C157  1  0.75471671  0.43990723  0.73748410  1
  C  C158  1  0.75277133  0.77455336  0.73591122  1
  C  C159  1  0.25282390  0.10633370  0.77214453  1
  C  C160  1  0.25498662  0.44323657  0.76860874  1
  C  C161  1  0.25097922  0.77495389  0.76231472  1
  C  C162  1  0.25097922  0.22504611  0.26231472  1
  C  C163  1  0.25498662  0.55676343  0.26860874  1
  C  C164  1  0.25282390  0.89366630  0.27214453  1
  C  C165  1  0.75277133  0.22544664  0.23591122  1
  C  C166  1  0.75471671  0.56009277  0.23748410  1
  C  C167  1  0.75341892  0.89095023  0.24347924  1
  C  C168  1  0.35606604  0.28568164  0.57099122  1
  C  C169  1  0.35893947  0.61678881  0.58109160  1
  C  C170  1  0.36293280  0.95053430  0.58355188  1
  C  C171  1  0.64113797  0.28450053  0.91664540  1
  C  C172  1  0.64133247  0.61793589  0.92132908  1
  C  C173  1  0.64438181  0.95064493  0.92447220  1
  C  C174  1  0.64438181  0.04935507  0.42447220  1
  C  C175  1  0.64133247  0.38206411  0.42132908  1
  C  C176  1  0.64113797  0.71549947  0.41664540  1
  C  C177  1  0.36293280  0.04946570  0.08355188  1
  C  C178  1  0.35893947  0.38321119  0.08109160  1
  C  C179  1  0.35606604  0.71431836  0.07099122  1
  C  C180  1  0.85893947  0.11678881  0.58109160  1
  C  C181  1  0.86293280  0.45053430  0.58355188  1
  C  C182  1  0.85606604  0.78568164  0.57099122  1
  C  C183  1  0.14133247  0.11793589  0.92132908  1
  C  C184  1  0.14438181  0.45064493  0.92447220  1
  C  C185  1  0.14113797  0.78450053  0.91664540  1
  C  C186  1  0.14113797  0.21549947  0.41664540  1
  C  C187  1  0.14438181  0.54935507  0.42447220  1
  C  C188  1  0.14133247  0.88206411  0.42132908  1
  C  C189  1  0.85606604  0.21431836  0.07099122  1
  C  C190  1  0.86293280  0.54946570  0.08355188  1
  C  C191  1  0.85893947  0.88321119  0.08109160  1
  C  C192  1  0.46209543  0.27593959  0.93522743  1
  C  C193  1  0.46004026  0.60798837  0.93784739  1
  C  C194  1  0.46046952  0.94136186  0.93661539  1
  C  C195  1  0.53833328  0.27350723  0.56017071  1
  C  C196  1  0.53571173  0.60774872  0.55920699  1
  C  C197  1  0.53752788  0.94111177  0.55963953  1
  C  C198  1  0.53752788  0.05888823  0.05963953  1
  C  C199  1  0.53571173  0.39225128  0.05920699  1
  C  C200  1  0.53833328  0.72649277  0.06017071  1
  C  C201  1  0.46046952  0.05863814  0.43661539  1
  C  C202  1  0.46004026  0.39201163  0.43784739  1
  C  C203  1  0.46209543  0.72406041  0.43522743  1
  C  C204  1  0.96004026  0.10798837  0.93784739  1
  C  C205  1  0.96046952  0.44136186  0.93661539  1
  C  C206  1  0.96209543  0.77593959  0.93522743  1
  C  C207  1  0.03571173  0.10774872  0.55920699  1
  C  C208  1  0.03752788  0.44111177  0.55963953  1
  C  C209  1  0.03833328  0.77350723  0.56017071  1
  C  C210  1  0.03833328  0.22649277  0.06017071  1
  C  C211  1  0.03752788  0.55888823  0.05963953  1
  C  C212  1  0.03571173  0.89225128  0.05920699  1
  C  C213  1  0.96209543  0.22406041  0.43522743  1
  C  C214  1  0.96046952  0.55863814  0.43661539  1
  C  C215  1  0.96004026  0.89201163  0.43784739  1
  C  C216  1  0.07905864  0.28605717  0.74293017  1
  C  C217  1  0.07746795  0.62216146  0.74071625  1
  C  C218  1  0.08003055  0.95396525  0.74316568  1
  C  C219  1  0.92149246  0.28725436  0.75856150  1
  C  C220  1  0.92031133  0.61957358  0.75802570  1
  C  C221  1  0.92046328  0.95346470  0.75305302  1
  C  C222  1  0.92046328  0.04653530  0.25305302  1
  C  C223  1  0.92031133  0.38042642  0.25802570  1
  C  C224  1  0.92149246  0.71274564  0.25856150  1
  C  C225  1  0.08003055  0.04603475  0.24316568  1
  C  C226  1  0.07746795  0.37783854  0.24071625  1
  C  C227  1  0.07905864  0.71394283  0.24293017  1
  C  C228  1  0.57746795  0.12216146  0.74071625  1
  C  C229  1  0.58003055  0.45396525  0.74316568  1
  C  C230  1  0.57905864  0.78605717  0.74293017  1
  C  C231  1  0.42031133  0.11957358  0.75802570  1
  C  C232  1  0.42046328  0.45346470  0.75305302  1
  C  C233  1  0.42149246  0.78725436  0.75856150  1
  C  C234  1  0.42149246  0.21274564  0.25856150  1
  C  C235  1  0.42046328  0.54653530  0.25305302  1
  C  C236  1  0.42031133  0.88042642  0.25802570  1
  C  C237  1  0.57905864  0.21394283  0.24293017  1
  C  C238  1  0.58003055  0.54603475  0.24316568  1
  C  C239  1  0.57746795  0.87783854  0.24071625  1
