# generated using pymatgen
data_CuNi3C22
_symmetry_space_group_name_H-M   'P 1'
_cell_length_a   18.05124254
_cell_length_b   9.03360693
_cell_length_c   22.53485933
_cell_angle_alpha   90.07678473
_cell_angle_beta   90.12074246
_cell_angle_gamma   120.16611435
_symmetry_Int_Tables_number   1
_chemical_formula_structural   CuNi3C22
_chemical_formula_sum   'Cu9 Ni27 C198'
_cell_volume   3177.03314070
_cell_formula_units_Z   9
loop_
 _symmetry_equiv_pos_site_id
 _symmetry_equiv_pos_as_xyz
  1  'x, y, z'
loop_
 _atom_site_type_symbol
 _atom_site_label
 _atom_site_symmetry_multiplicity
 _atom_site_fract_x
 _atom_site_fract_y
 _atom_site_fract_z
 _atom_site_occupancy
  C  C0  1  0.18345181  0.00736427  0.74295085  1
  C  C1  1  0.65619460  0.33788453  0.58727555  1
  C  C2  1  0.01309910  0.68271786  0.58760355  1
  C  C3  1  0.51135375  0.67934266  0.58756416  1
  C  C4  1  0.65578484  0.97381907  0.08621877  1
  C  C5  1  0.51023213  0.34349096  0.08714206  1
  C  C6  1  0.48205103  0.68048687  0.91040811  1
  C  C7  1  0.98406184  0.68301354  0.91133506  1
  C  C8  1  0.35569866  0.03194502  0.91598410  1
  C  C9  1  0.85591086  0.03267816  0.91381577  1
  C  C10  1  0.15990803  0.28861852  0.91600119  1
  C  C11  1  0.66024331  0.28787556  0.91371395  1
  C  C12  1  0.48297585  0.28483802  0.40921326  1
  C  C13  1  0.98384967  0.28833116  0.41556657  1
  C  C14  1  0.16055501  0.03351996  0.41515524  1
  C  C15  1  0.65974833  0.03209954  0.41338551  1
  C  C16  1  0.35695358  0.67939915  0.41439043  1
  C  C17  1  0.85542874  0.67891403  0.41419170  1
  C  C18  1  0.00005010  0.00916036  0.49581556  1
  C  C19  1  0.49625691  0.00123390  0.49384044  1
  C  C20  1  0.00089928  -0.00000997  0.99332105  1
  C  C21  1  0.49535964  0.99017554  0.99330620  1
  C  C22  1  0.34280955  0.35594059  0.82619581  1
  C  C23  1  0.83705059  0.34276071  0.82286147  1
  C  C24  1  0.33829799  0.33162287  0.32214176  1
  C  C25  1  0.83249596  0.33283456  0.32520378  1
  C  C26  1  0.16687911  0.66694030  0.16151796  1
  C  C27  1  0.66953052  0.66391823  0.16713766  1
  C  C28  1  0.16835950  0.65534706  0.66534031  1
  C  C29  1  0.67017991  0.67604578  0.66852257  1
  C  C30  1  0.00131483  0.99647776  0.64384871  1
  C  C31  1  0.49962805  0.98929418  0.64489632  1
  C  C32  1  0.00173970  0.99888093  0.14047855  1
  C  C33  1  0.49754040  0.00864859  0.14406426  1
  C  C34  1  0.33286050  0.33533361  0.98164907  1
  C  C35  1  0.83470585  0.33569459  0.98136076  1
  C  C36  1  0.33384703  0.33240705  0.48152806  1
  C  C37  1  0.83424021  0.33215944  0.48123942  1
  C  C38  1  0.16599080  0.66186912  0.02249720  1
  C  C39  1  0.66887590  0.66721970  0.02056766  1
  C  C40  1  0.16765236  0.66751316  0.52196372  1
  C  C41  1  0.66872323  0.67255733  0.52015510  1
  C  C42  1  0.16691880  0.66735244  0.31393458  1
  C  C43  1  0.66265171  0.65663344  0.31243224  1
  C  C44  1  0.16200126  0.66499915  0.81468822  1
  C  C45  1  0.66291310  0.66829438  0.81300514  1
  C  C46  1  0.99923923  0.99933000  0.35450924  1
  C  C47  1  0.49969599  0.01081645  0.35245324  1
  C  C48  1  0.99670902  0.98549480  0.85396089  1
  C  C49  1  0.49910256  0.98710602  0.85398252  1
  C  C50  1  0.34282627  0.35434537  0.67922415  1
  C  C51  1  0.84049426  0.34807214  0.68038208  1
  C  C52  1  0.34039861  0.33244630  0.17913230  1
  C  C53  1  0.83415651  0.33457802  0.17247772  1
  Ni  Ni54  1  0.49446091  0.29115770  0.25338460  1
  Ni  Ni55  1  0.99519685  0.69871450  0.75264016  1
  Ni  Ni56  1  0.49559996  0.69795680  0.75353586  1
  Ni  Ni57  1  0.47886617  0.32973243  0.58429596  1
  Ni  Ni58  1  0.97842828  0.33069798  0.58510507  1
  Ni  Ni59  1  0.19198470  0.04763707  0.58803937  1
  Ni  Ni60  1  0.69297944  0.04626777  0.58741304  1
  Ni  Ni61  1  0.32940089  0.61833066  0.58528610  1
  Ni  Ni62  1  0.83144641  0.62187778  0.58497110  1
  Ni  Ni63  1  0.47858502  0.62660398  0.08487524  1
  Ni  Ni64  1  0.97882034  0.61774245  0.08661057  1
  Ni  Ni65  1  0.32816627  0.04008727  0.08509766  1
  Ni  Ni66  1  0.83377485  0.04562452  0.08578631  1
  Ni  Ni67  1  0.19369613  0.33926173  0.08795316  1
  Ni  Ni68  1  0.69073915  0.33938397  0.08614147  1
  Ni  Ni69  1  0.30988908  0.66450255  0.91636591  1
  Ni  Ni70  1  0.81040436  0.66360172  0.91509525  1
  Ni  Ni71  1  0.02005912  0.37331619  0.91708869  1
  Ni  Ni72  1  0.52029895  0.37505040  0.91663449  1
  Ni  Ni73  1  0.16811477  0.95850451  0.91806538  1
  Ni  Ni74  1  0.66839796  0.95966142  0.91753036  1
  Ni  Ni75  1  0.31131529  0.95786971  0.41701880  1
  Ni  Ni76  1  0.81074402  0.95753351  0.41412569  1
  Ni  Ni77  1  0.16765113  0.37811426  0.41640065  1
  Ni  Ni78  1  0.66829419  0.37727092  0.41741038  1
  Ni  Ni79  1  0.02102449  0.66533204  0.41666857  1
  Ni  Ni80  1  0.52043067  0.66592710  0.41617886  1
  Cu  Cu81  1  0.14294857  0.99639257  0.25221740  1
  Cu  Cu82  1  0.64730124  0.00073837  0.25132638  1
  Cu  Cu83  1  0.35354558  0.71021959  0.25184466  1
  Cu  Cu84  1  0.85571695  0.71109114  0.25168707  1
  Cu  Cu85  1  0.00025558  0.29050009  0.25164971  1
  Cu  Cu86  1  0.14451366  0.29264933  0.75143677  1
  Cu  Cu87  1  0.64541972  0.29218696  0.75131545  1
  Cu  Cu88  1  0.35457728  0.99824558  0.75152812  1
  Cu  Cu89  1  0.85476978  0.99823488  0.75137900  1
  C  C90  1  0.10305185  0.01088769  0.30666711  1
  C  C91  1  0.60567176  0.01354137  0.30552642  1
  C  C92  1  0.40114112  0.78704684  0.30667230  1
  C  C93  1  0.90402704  0.79058691  0.30661197  1
  C  C94  1  0.48967439  0.18930294  0.31272450  1
  C  C95  1  0.99280069  0.19647085  0.30670728  1
  C  C96  1  0.10399523  0.19524337  0.80571572  1
  C  C97  1  0.60291962  0.19593560  0.80529576  1
  C  C98  1  0.48975001  0.79101000  0.81240805  1
  C  C99  1  0.99327273  0.79467399  0.81206861  1
  C  C100  1  0.40346566  0.01917117  0.80614604  1
  C  C101  1  0.90323498  0.01919161  0.80640955  1
  C  C102  1  0.40040219  0.98037275  0.69811481  1
  C  C103  1  0.90098174  0.97759137  0.69848204  1
  C  C104  1  0.08851425  0.20583531  0.69777929  1
  C  C105  1  0.58972547  0.20640073  0.69641582  1
  C  C106  1  0.01391590  0.83478002  0.69397794  1
  C  C107  1  0.51025657  0.82895819  0.69359030  1
  C  C108  1  0.39858546  0.82202382  0.19878711  1
  C  C109  1  0.90056388  0.82275218  0.19893453  1
  C  C110  1  0.01223695  0.20246096  0.19903259  1
  C  C111  1  0.51009352  0.19064587  0.19391331  1
  C  C112  1  0.08682561  0.97214434  0.19921422  1
  C  C113  1  0.59265900  0.97566084  0.19676566  1
  C  C114  1  0.44560984  0.38895736  0.63875201  1
  C  C115  1  0.94528149  0.39226425  0.63908917  1
  C  C116  1  0.24344372  0.11891422  0.64813237  1
  C  C117  1  0.74832350  0.12803402  0.64433840  1
  C  C118  1  0.31027034  0.50805035  0.64260616  1
  C  C119  1  0.80351516  0.49687557  0.63954816  1
  C  C120  1  0.44641568  0.50164815  0.13960178  1
  C  C121  1  0.94304550  0.51114387  0.14519686  1
  C  C122  1  0.31255468  0.11384190  0.14346693  1
  C  C123  1  0.80523484  0.11051441  0.14173004  1
  C  C124  1  0.24917915  0.37116556  0.14535953  1
  C  C125  1  0.74357106  0.37118175  0.14473672  1
  C  C126  1  0.23331568  0.30096045  0.02552791  1
  C  C127  1  0.73196367  0.29769615  0.02585543  1
  C  C128  1  0.41920122  0.53807804  0.02375789  1
  C  C129  1  0.91778761  0.53409738  0.02572051  1
  C  C130  1  0.35203397  0.16700903  0.02490433  1
  C  C131  1  0.84976306  0.16425676  0.02504720  1
  C  C132  1  0.23552924  0.16643130  0.52697082  1
  C  C133  1  0.73292610  0.16711995  0.52557135  1
  C  C134  1  0.35200783  0.53780741  0.52477931  1
  C  C135  1  0.85240532  0.53855485  0.52441512  1
  C  C136  1  0.41906611  0.30071983  0.52335722  1
  C  C137  1  0.91869694  0.30037543  0.52347234  1
  C  C138  1  0.25974517  0.68765688  0.97198132  1
  C  C139  1  0.75986607  0.68600607  0.97186722  1
  C  C140  1  0.08305897  0.47029455  0.97243801  1
  C  C141  1  0.58057445  0.46987105  0.97464902  1
  C  C142  1  0.15387857  0.82770921  0.97158932  1
  C  C143  1  0.65544085  0.83691234  0.97443979  1
  C  C144  1  0.25932327  0.83240016  0.47185469  1
  C  C145  1  0.76209116  0.83425638  0.47143999  1
  C  C146  1  0.15292349  0.47662574  0.47159870  1
  C  C147  1  0.65553081  0.47483172  0.47435455  1
  C  C148  1  0.08094515  0.69325985  0.47433781  1
  C  C149  1  0.58068995  0.69231729  0.47429758  1
  C  C150  1  0.06984146  0.63114696  0.35927538  1
  C  C151  1  0.56903240  0.63004096  0.35979641  1
  C  C152  1  0.24658952  0.86209044  0.35850283  1
  C  C153  1  0.74639160  0.86465532  0.35737910  1
  C  C154  1  0.18496974  0.50852081  0.35837437  1
  C  C155  1  0.68586473  0.50876452  0.36045083  1
  C  C156  1  0.06676543  0.50518397  0.85898422  1
  C  C157  1  0.56907873  0.50760505  0.85985400  1
  C  C158  1  0.18535918  0.86770595  0.85761684  1
  C  C159  1  0.68570367  0.86301603  0.86035539  1
  C  C160  1  0.24589805  0.63049300  0.85800173  1
  C  C161  1  0.74633772  0.62880937  0.85787272  1
  C  C162  1  0.01068997  0.83118265  0.41171116  1
  C  C163  1  0.51066245  0.83221601  0.41085283  1
  C  C164  1  0.40337464  0.97314808  0.41536117  1
  C  C165  1  0.90488008  0.97956289  0.41215268  1
  C  C166  1  0.08447094  0.19111084  0.41131184  1
  C  C167  1  0.58620542  0.18845668  0.41587700  1
  C  C168  1  0.00969737  0.18745099  0.91018267  1
  C  C169  1  0.51102290  0.18942839  0.91098777  1
  C  C170  1  0.08696106  0.98538969  0.91489259  1
  C  C171  1  0.58626305  0.98348993  0.91599773  1
  C  C172  1  0.40318604  0.83321296  0.91499044  1
  C  C173  1  0.90326686  0.83291486  0.91574749  1
  C  C174  1  0.49405022  0.16535500  0.59210902  1
  C  C175  1  0.98893375  0.16098739  0.59281384  1
  C  C176  1  0.09251486  0.02272149  0.59188124  1
  C  C177  1  0.59402465  0.02641336  0.59200790  1
  C  C178  1  0.41970444  0.81282562  0.59130766  1
  C  C179  1  0.92007368  0.81240385  0.59176926  1
  C  C180  1  0.49372919  0.82178654  0.09324848  1
  C  C181  1  0.98880801  0.81381592  0.09378224  1
  C  C182  1  0.41913647  0.02587255  0.09108693  1
  C  C183  1  0.91922166  0.02338131  0.09451812  1
  C  C184  1  0.09430431  0.16295616  0.09521345  1
  C  C185  1  0.59256167  0.16009530  0.09155321  1
  C  C186  1  0.33855340  0.14040419  0.74572379  1
  C  C187  1  0.84098676  0.14234063  0.74437624  1
  C  C188  1  0.22818998  0.30638873  0.74540518  1
  C  C189  1  0.72959730  0.31077993  0.74537606  1
  C  C190  1  0.41507889  0.50925216  0.74704646  1
  C  C191  1  0.91476560  0.51049529  0.74658235  1
  C  C192  1  0.33893906  0.53691826  0.24496382  1
  C  C193  1  0.84317523  0.53878763  0.24631635  1
  C  C194  1  0.41489433  0.32101282  0.24703955  1
  C  C195  1  0.92621307  0.31403763  0.24604599  1
  C  C196  1  0.22904848  0.14479279  0.24638816  1
  C  C197  1  0.73307121  0.15070259  0.24634603  1
  C  C198  1  0.31569588  0.48770489  0.92207397  1
  C  C199  1  0.81604817  0.48765781  0.92324412  1
  C  C200  1  0.42745856  0.36703346  0.92205001  1
  C  C201  1  0.92740747  0.36654282  0.92267657  1
  C  C202  1  0.25770954  0.14501555  0.92248759  1
  C  C203  1  0.75751221  0.14571856  0.92249443  1
  C  C204  1  0.31493240  0.14342518  0.42213497  1
  C  C205  1  0.81620255  0.14485392  0.42244872  1
  C  C206  1  0.25588238  0.36805908  0.42276771  1
  C  C207  1  0.75753921  0.36947286  0.42239601  1
  C  C208  1  0.42716361  0.48811852  0.42231131  1
  C  C209  1  0.92765469  0.48686033  0.42111272  1
  C  C210  1  0.17418240  0.49426133  0.07402434  1
  C  C211  1  0.66860897  0.49255633  0.07501535  1
  C  C212  1  0.07460462  0.65184429  0.07313996  1
  C  C213  1  0.57627245  0.65721482  0.07231931  1
  C  C214  1  0.25095956  0.84677673  0.07288633  1
  C  C215  1  0.75096139  0.85330104  0.07285346  1
  C  C216  1  0.17012056  0.84932747  0.57474605  1
  C  C217  1  0.66967847  0.84762624  0.57494971  1
  C  C218  1  0.25150058  0.65583645  0.57296249  1
  C  C219  1  0.75011990  0.65058472  0.57237683  1
  C  C220  1  0.07362292  0.49864043  0.57142895  1
  C  C221  1  0.57616248  0.49666751  0.57186985  1
  C  C222  1  0.14848762  0.83151150  0.25467185  1
  C  C223  1  0.65298518  0.83730108  0.25380668  1
  C  C224  1  0.26598494  0.70242742  0.25435578  1
  C  C225  1  0.76902570  0.70227737  0.25416768  1
  C  C226  1  0.08298423  0.46703675  0.25462814  1
  C  C227  1  0.58964065  0.48430643  0.25561766  1
  C  C228  1  0.15231402  0.46743495  0.75356522  1
  C  C229  1  0.65133495  0.46672708  0.75319317  1
  C  C230  1  0.09215463  0.70055606  0.75440114  1
  C  C231  1  0.58991695  0.69463437  0.75541054  1
  C  C232  1  0.26758304  0.83292926  0.75274820  1
  C  C233  1  0.76877749  0.83122268  0.75350036  1
