# generated using pymatgen
data_Cu12Ni3C2
_symmetry_space_group_name_H-M   'P 1'
_cell_length_a   8.56949214
_cell_length_b   8.56949187
_cell_length_c   22.33607163
_cell_angle_alpha   90.00000000
_cell_angle_beta   90.00000000
_cell_angle_gamma   120.00000104
_symmetry_Int_Tables_number   1
_chemical_formula_structural   Cu12Ni3C2
_chemical_formula_sum   'Cu72 Ni18 C12'
_cell_volume   1420.52073291
_cell_formula_units_Z   6
loop_
 _symmetry_equiv_pos_site_id
 _symmetry_equiv_pos_as_xyz
  1  'x, y, z'
loop_
 _atom_site_type_symbol
 _atom_site_label
 _atom_site_symmetry_multiplicity
 _atom_site_fract_x
 _atom_site_fract_y
 _atom_site_fract_z
 _atom_site_occupancy
  C  C0  1  -0.00000000  -0.00000000  0.35103845  1
  C  C1  1  -0.00000000  -0.00000000  0.64448870  1
  C  C2  1  -0.00000000  -0.00000000  0.14871076  1
  C  C3  1  0.66666700  0.33333300  0.68462224  1
  C  C4  1  0.66666700  0.33333300  0.18884430  1
  C  C5  1  0.66666700  0.33333300  0.48229455  1
  C  C6  1  -0.00000000  -0.00000000  0.84873577  1
  C  C7  1  0.66666700  0.33333300  0.98459723  1
  C  C8  1  0.33333300  0.66666700  0.02515196  1
  C  C9  1  0.33333300  0.66666700  0.52080163  1
  C  C10  1  0.33333300  0.66666700  0.31253237  1
  C  C11  1  0.33333300  0.66666700  0.80818204  1
  Ni  Ni12  1  0.28712549  0.01061986  0.24806477  1
  Ni  Ni13  1  0.72349436  0.71287451  0.24806477  1
  Ni  Ni14  1  0.98938014  0.27650564  0.24806477  1
  Ni  Ni15  1  0.29738192  0.28547894  0.74322333  1
  Ni  Ni16  1  0.98809702  0.70261808  0.74322333  1
  Ni  Ni17  1  0.71452106  0.01190298  0.74322333  1
  Ni  Ni18  1  0.94317264  0.32271314  0.58526823  1
  Ni  Ni19  1  0.37954151  0.05682736  0.58526823  1
  Ni  Ni20  1  0.67728686  0.62045849  0.58526823  1
  Ni  Ni21  1  0.95214594  0.63071492  0.09010967  1
  Ni  Ni22  1  0.67856998  0.04785406  0.09010967  1
  Ni  Ni23  1  0.36928508  0.32143002  0.09010967  1
  Ni  Ni24  1  0.62775184  0.66666700  0.91666700  1
  Ni  Ni25  1  0.03891416  0.37224816  0.91666700  1
  Ni  Ni26  1  0.33333300  0.96108584  0.91666700  1
  Ni  Ni27  1  0.64062725  0.97396125  0.41666700  1
  Ni  Ni28  1  0.33333300  0.35937275  0.41666700  1
  Ni  Ni29  1  0.02603875  0.66666700  0.41666700  1
  Cu  Cu30  1  0.20474294  0.03795183  0.30285704  1
  Cu  Cu31  1  0.83320889  0.79525706  0.30285704  1
  Cu  Cu32  1  0.96204817  0.16679111  0.30285704  1
  Cu  Cu33  1  0.23337597  0.18437790  0.80022643  1
  Cu  Cu34  1  0.95100193  0.76662403  0.80022643  1
  Cu  Cu35  1  0.81562210  0.04899807  0.80022643  1
  Cu  Cu36  1  0.80920903  0.98103622  0.69332655  1
  Cu  Cu37  1  0.17182719  0.19079097  0.69332655  1
  Cu  Cu38  1  0.01896378  0.82817281  0.69332655  1
  Cu  Cu39  1  0.80805627  0.82849536  0.19529141  1
  Cu  Cu40  1  0.02043908  0.19194373  0.19529141  1
  Cu  Cu41  1  0.17150464  0.97956092  0.19529141  1
  Cu  Cu42  1  0.85861073  0.35377208  0.63804159  1
  Cu  Cu43  1  0.49516236  0.14138927  0.63804159  1
  Cu  Cu44  1  0.64622792  0.50483764  0.63804159  1
  Cu  Cu45  1  0.85745797  0.50516019  0.14000645  1
  Cu  Cu46  1  0.64770322  0.14254203  0.14000645  1
  Cu  Cu47  1  0.49483981  0.35229678  0.14000645  1
  Cu  Cu48  1  0.43329103  0.28433493  0.03310657  1
  Cu  Cu49  1  0.85104490  0.56670897  0.03310657  1
  Cu  Cu50  1  0.71566507  0.14895510  0.03310657  1
  Cu  Cu51  1  0.46192406  0.16654189  0.53047596  1
  Cu  Cu52  1  0.70461883  0.53807594  0.53047596  1
  Cu  Cu53  1  0.83345811  0.29538117  0.53047596  1
  Cu  Cu54  1  0.54812960  0.69563243  0.97121430  1
  Cu  Cu55  1  0.14750183  0.45187040  0.97121430  1
  Cu  Cu56  1  0.30436757  0.85249817  0.97121430  1
  Cu  Cu57  1  0.56629722  0.85336093  0.46948352  1
  Cu  Cu58  1  0.28706271  0.43370278  0.46948352  1
  Cu  Cu59  1  0.14663907  0.71293729  0.46948352  1
  Cu  Cu60  1  0.10036878  0.62039671  0.36385048  1
  Cu  Cu61  1  0.52002693  0.89963122  0.36385048  1
  Cu  Cu62  1  0.37960329  0.47997307  0.36385048  1
  Cu  Cu63  1  0.11853640  0.48083583  0.86211970  1
  Cu  Cu64  1  0.36229843  0.88146360  0.86211970  1
  Cu  Cu65  1  0.51916417  0.63770157  0.86211970  1
  Cu  Cu66  1  0.00771763  0.82608033  0.40341386  1
  Cu  Cu67  1  0.81836270  0.99228237  0.40341386  1
  Cu  Cu68  1  0.17391967  0.18163730  0.40341386  1
  Cu  Cu69  1  0.02272311  0.19374458  0.91118767  1
  Cu  Cu70  1  0.17102147  0.97727689  0.91118767  1
  Cu  Cu71  1  0.80625542  0.82897853  0.91118767  1
  Cu  Cu72  1  0.96125005  0.16082848  0.59406872  1
  Cu  Cu73  1  0.19957843  0.03874995  0.59406872  1
  Cu  Cu74  1  0.83917152  0.80042157  0.59406872  1
  Cu  Cu75  1  0.97384687  0.81035726  0.10008484  1
  Cu  Cu76  1  0.83651039  0.02615313  0.10008484  1
  Cu  Cu77  1  0.18964274  0.16348961  0.10008484  1
  Cu  Cu78  1  0.69282013  0.16984339  0.73324816  1
  Cu  Cu79  1  0.47702426  0.30717987  0.73324816  1
  Cu  Cu80  1  0.83015661  0.52297574  0.73324816  1
  Cu  Cu81  1  0.70541695  0.53291143  0.23926428  1
  Cu  Cu82  1  0.82749548  0.29458305  0.23926428  1
  Cu  Cu83  1  0.46708857  0.17250452  0.23926428  1
  Cu  Cu84  1  0.64394389  0.50435447  0.92214533  1
  Cu  Cu85  1  0.86041158  0.35605611  0.92214533  1
  Cu  Cu86  1  0.49564553  0.13958842  0.92214533  1
  Cu  Cu87  1  0.65894937  0.15169570  0.42991914  1
  Cu  Cu88  1  0.49274733  0.34105063  0.42991914  1
  Cu  Cu89  1  0.84830430  0.50725267  0.42991914  1
  Cu  Cu90  1  0.35535609  0.48571704  0.08539735  1
  Cu  Cu91  1  0.13035994  0.64464391  0.08539735  1
  Cu  Cu92  1  0.51428296  0.86964006  0.08539735  1
  Cu  Cu93  1  0.36118908  0.87660483  0.57976070  1
  Cu  Cu94  1  0.51541475  0.63881092  0.57976070  1
  Cu  Cu95  1  0.12339517  0.48458525  0.57976070  1
  Cu  Cu96  1  0.30547692  0.84874875  0.25357330  1
  Cu  Cu97  1  0.54327083  0.69452308  0.25357330  1
  Cu  Cu98  1  0.15125125  0.45672917  0.25357330  1
  Cu  Cu99  1  0.31130991  0.46369394  0.74793665  1
  Cu  Cu100  1  0.15238304  0.68869009  0.74793665  1
  Cu  Cu101  1  0.53630606  0.84761696  0.74793665  1
