# generated using pymatgen
data_CuNiC6
_symmetry_space_group_name_H-M   'P 1'
_cell_length_a   6.25639500
_cell_length_b   8.47180649
_cell_length_c   8.47170594
_cell_angle_alpha   80.30135640
_cell_angle_beta   89.99988176
_cell_angle_gamma   89.99933316
_symmetry_Int_Tables_number   1
_chemical_formula_structural   CuNiC6
_chemical_formula_sum   'Cu4 Ni4 C24'
_cell_volume   442.60784024
_cell_formula_units_Z   4
loop_
 _symmetry_equiv_pos_site_id
 _symmetry_equiv_pos_as_xyz
  1  'x, y, z'
loop_
 _atom_site_type_symbol
 _atom_site_label
 _atom_site_symmetry_multiplicity
 _atom_site_fract_x
 _atom_site_fract_y
 _atom_site_fract_z
 _atom_site_occupancy
  C  C0  1  0.33448500  0.86999800  0.37909500  1
  C  C1  1  0.33448500  0.36999700  0.87909600  1
  C  C2  1  0.33449200  0.12090300  0.62999600  1
  C  C3  1  0.33449200  0.62090200  0.12999600  1
  C  C4  1  0.66551100  0.37000800  0.37909300  1
  C  C5  1  0.66551100  0.87000800  0.87909400  1
  C  C6  1  0.66550600  0.12090300  0.13000100  1
  C  C7  1  0.66550700  0.62090400  0.63000100  1
  Ni  Ni8  1  0.14822500  0.99840700  0.00158200  1
  Ni  Ni9  1  0.85177200  0.49841700  0.00157400  1
  Ni  Ni10  1  0.14822800  0.49841100  0.50158000  1
  Ni  Ni11  1  0.85177200  0.99841800  0.50157500  1
  Cu  Cu12  1  0.84801000  0.75017400  0.24983100  1
  Cu  Cu13  1  0.84801400  0.25017500  0.74982900  1
  Cu  Cu14  1  0.15198800  0.75017600  0.74982500  1
  Cu  Cu15  1  0.15199100  0.25017600  0.24982600  1
  C  C16  1  0.12697800  0.91243700  0.58755500  1
  C  C17  1  0.12698100  0.41243900  0.08755500  1
  C  C18  1  0.87302700  0.91243700  0.08755700  1
  C  C19  1  0.87302300  0.41243700  0.58755700  1
  C  C20  1  0.10386400  0.17958100  0.82043100  1
  C  C21  1  0.10387000  0.67957700  0.32043300  1
  C  C22  1  0.89613200  0.17958400  0.32042900  1
  C  C23  1  0.89613200  0.67958600  0.82042900  1
  C  C24  1  0.69925800  0.09495400  0.67648600  1
  C  C25  1  0.69925600  0.59495600  0.17648600  1
  C  C26  1  0.30074500  0.09495300  0.17648800  1
  C  C27  1  0.30074300  0.59495100  0.67648800  1
  C  C28  1  0.30075900  0.32353200  0.40502600  1
  C  C29  1  0.30075900  0.82353300  0.90502800  1
  C  C30  1  0.69924200  0.82353400  0.40502700  1
  C  C31  1  0.69924200  0.32353300  0.90503000  1
