# generated using pymatgen
data_Cu3NiC2
_symmetry_space_group_name_H-M   'P 1'
_cell_length_a   8.03267900
_cell_length_b   8.25863700
_cell_length_c   15.09932600
_cell_angle_alpha   90.00000000
_cell_angle_beta   90.00000000
_cell_angle_gamma   90.00000000
_symmetry_Int_Tables_number   1
_chemical_formula_structural   Cu3NiC2
_chemical_formula_sum   'Cu24 Ni8 C16'
_cell_volume   1001.67388551
_cell_formula_units_Z   8
loop_
 _symmetry_equiv_pos_site_id
 _symmetry_equiv_pos_as_xyz
  1  'x, y, z'
loop_
 _atom_site_type_symbol
 _atom_site_label
 _atom_site_symmetry_multiplicity
 _atom_site_fract_x
 _atom_site_fract_y
 _atom_site_fract_z
 _atom_site_occupancy
  C  C0  1  0.68158700  0.19569100  0.05742900  1
  C  C1  1  0.18158700  0.30430900  0.94257100  1
  C  C2  1  0.31841300  0.69569100  0.44257100  1
  C  C3  1  0.81841300  0.80430900  0.55742900  1
  C  C4  1  0.18158700  0.19569100  0.44257100  1
  C  C5  1  0.81841300  0.69569100  0.05742900  1
  C  C6  1  0.68158700  0.30430900  0.55742900  1
  C  C7  1  0.31841300  0.80430900  0.94257100  1
  C  C8  1  0.62999700  0.00473000  0.32453500  1
  C  C9  1  0.12999700  0.49527000  0.67546500  1
  C  C10  1  0.37000300  0.50473000  0.17546500  1
  C  C11  1  0.87000300  0.99527000  0.82453500  1
  C  C12  1  0.37000300  0.99527000  0.67546500  1
  C  C13  1  0.87000300  0.50473000  0.32453500  1
  C  C14  1  0.62999700  0.49527000  0.82453500  1
  C  C15  1  0.12999700  0.00473000  0.17546500  1
  Ni  Ni16  1  0.01839400  0.37697900  0.15059200  1
  Ni  Ni17  1  0.01839400  0.12302100  0.65059200  1
  Ni  Ni18  1  0.48160600  0.87697900  0.15059200  1
  Ni  Ni19  1  0.98160600  0.62302100  0.84940800  1
  Ni  Ni20  1  0.48160600  0.62302100  0.65059200  1
  Ni  Ni21  1  0.98160600  0.87697900  0.34940800  1
  Ni  Ni22  1  0.51839400  0.12302100  0.84940800  1
  Ni  Ni23  1  0.51839400  0.37697900  0.34940800  1
  Cu  Cu24  1  0.89257000  0.27110900  0.35421400  1
  Cu  Cu25  1  0.39257000  0.22889100  0.64578600  1
  Cu  Cu26  1  0.10743000  0.77110900  0.14578600  1
  Cu  Cu27  1  0.60743000  0.72889100  0.85421400  1
  Cu  Cu28  1  0.10743000  0.72889100  0.64578600  1
  Cu  Cu29  1  0.60743000  0.77110900  0.35421400  1
  Cu  Cu30  1  0.89257000  0.22889100  0.85421400  1
  Cu  Cu31  1  0.39257000  0.27110900  0.14578600  1
  Cu  Cu32  1  0.61476800  0.50497900  0.15103500  1
  Cu  Cu33  1  0.11476800  0.99502100  0.84896500  1
  Cu  Cu34  1  0.38523200  0.00497900  0.34896500  1
  Cu  Cu35  1  0.88523200  0.49502100  0.65103500  1
  Cu  Cu36  1  0.38523200  0.49502100  0.84896500  1
  Cu  Cu37  1  0.88523200  0.00497900  0.15103500  1
  Cu  Cu38  1  0.61476800  0.99502100  0.65103500  1
  Cu  Cu39  1  0.16438300  0.03868100  0.04611500  1
  Cu  Cu40  1  0.66438300  0.03868100  0.45388500  1
  Cu  Cu41  1  0.16438300  0.46131900  0.54611500  1
  Cu  Cu42  1  0.33561700  0.53868100  0.04611500  1
  Cu  Cu43  1  0.83561700  0.96131900  0.95388500  1
  Cu  Cu44  1  0.33561700  0.96131900  0.54611500  1
  Cu  Cu45  1  0.83561700  0.53868100  0.45388500  1
  Cu  Cu46  1  0.66438300  0.46131900  0.95388500  1
  Cu  Cu47  1  0.11476800  0.50497900  0.34896500  1
