# generated using pymatgen
data_Cu2NiC16
_symmetry_space_group_name_H-M   'P 1'
_cell_length_a   5.07886100
_cell_length_b   5.07886100
_cell_length_c   9.06067000
_cell_angle_alpha   90.00000000
_cell_angle_beta   90.00000000
_cell_angle_gamma   90.00000000
_symmetry_Int_Tables_number   1
_chemical_formula_structural   Cu2NiC16
_chemical_formula_sum   'Cu2 Ni1 C16'
_cell_volume   233.71843379
_cell_formula_units_Z   1
loop_
 _symmetry_equiv_pos_site_id
 _symmetry_equiv_pos_as_xyz
  1  'x, y, z'
loop_
 _atom_site_type_symbol
 _atom_site_label
 _atom_site_symmetry_multiplicity
 _atom_site_fract_x
 _atom_site_fract_y
 _atom_site_fract_z
 _atom_site_occupancy
  Ni  Ni0  1  0.00000000  0.50000000  0.75000000  1
  C  C1  1  0.00000000  0.00000000  0.65060300  1
  C  C2  1  0.50000000  0.50000000  0.18749000  1
  C  C3  1  0.50000000  0.50000000  0.84939700  1
  C  C4  1  0.00000000  0.00000000  0.31251000  1
  Cu  Cu5  1  0.50000000  0.50000000  0.49406600  1
  Cu  Cu6  1  0.00000000  0.00000000  0.00593400  1
  C  C7  1  0.72154600  0.72242300  0.68733300  1
  C  C8  1  0.27845400  0.27757700  0.68733300  1
  C  C9  1  0.71521000  0.71811500  0.31653800  1
  C  C10  1  0.21811500  0.78479000  0.18346200  1
  C  C11  1  0.78188500  0.21521000  0.18346200  1
  C  C12  1  0.77757700  0.22154600  0.81266700  1
  C  C13  1  0.31095800  0.32790700  0.00379900  1
  C  C14  1  0.17209300  0.81095800  0.49620100  1
  C  C15  1  0.82790700  0.18904200  0.49620100  1
  C  C16  1  0.68904200  0.67209300  0.00379900  1
  C  C17  1  0.28479000  0.28188500  0.31653800  1
  C  C18  1  0.22242300  0.77845400  0.81266700  1
