# generated using pymatgen
data_Cu4Ni7C30
_symmetry_space_group_name_H-M   'P 1'
_cell_length_a   9.08470039
_cell_length_b   9.07853531
_cell_length_c   22.70928142
_cell_angle_alpha   90.03624709
_cell_angle_beta   89.91770943
_cell_angle_gamma   120.03339458
_symmetry_Int_Tables_number   1
_chemical_formula_structural   Cu4Ni7C30
_chemical_formula_sum   'Cu12 Ni21 C90'
_cell_volume   1621.48796081
_cell_formula_units_Z   3
loop_
 _symmetry_equiv_pos_site_id
 _symmetry_equiv_pos_as_xyz
  1  'x, y, z'
loop_
 _atom_site_type_symbol
 _atom_site_label
 _atom_site_symmetry_multiplicity
 _atom_site_fract_x
 _atom_site_fract_y
 _atom_site_fract_z
 _atom_site_occupancy
  Ni  Ni0  1  0.36505420  0.36505131  0.25036129  1
  Ni  Ni1  1  0.99849981  0.63347195  0.24912400  1
  Ni  Ni2  1  0.63589262  0.63814757  0.74934359  1
  Ni  Ni3  1  0.99613042  0.36177479  0.75112250  1
  Ni  Ni4  1  0.36921672  0.00060371  0.74914765  1
  Ni  Ni5  1  0.30143231  0.32911615  0.58237398  1
  Ni  Ni6  1  0.03486750  0.70217750  0.58288656  1
  Ni  Ni7  1  0.66418356  0.96807921  0.58495243  1
  Ni  Ni8  1  0.29907893  0.96574928  0.08332772  1
  Ni  Ni9  1  0.66987401  0.69821402  0.08280200  1
  Ni  Ni10  1  0.03145290  0.33639352  0.08401511  1
  Ni  Ni11  1  0.96693760  0.66588469  0.91784444  1
  Ni  Ni12  1  0.69956988  0.03232111  0.91559506  1
  Ni  Ni13  1  0.96828746  0.30156997  0.41615784  1
  Ni  Ni14  1  0.33482696  0.03324016  0.41756485  1
  Ni  Ni15  1  0.99647733  0.99300440  0.49951573  1
  Ni  Ni16  1  0.00703865  0.00395167  0.99917751  1
  Ni  Ni17  1  0.65984413  0.33012662  0.83405694  1
  Ni  Ni18  1  0.66666833  0.33332012  0.33331270  1
  Ni  Ni19  1  0.33714549  0.67343213  0.16735678  1
  Ni  Ni20  1  0.33723622  0.67244213  0.66662373  1
  Cu  Cu21  1  0.99273343  0.99389235  0.35059088  1
  Cu  Cu22  1  0.00234977  0.00727254  0.85073316  1
  Cu  Cu23  1  0.99864663  0.99897633  0.64992726  1
  Cu  Cu24  1  0.99730067  0.99543695  0.15000938  1
  Cu  Cu25  1  0.66340302  0.32471679  0.68351430  1
  Cu  Cu26  1  0.67172340  0.33052530  0.18411932  1
  Cu  Cu27  1  0.66416844  0.33808862  0.98283584  1
  Cu  Cu28  1  0.66128023  0.33603497  0.48238900  1
  Cu  Cu29  1  0.32893069  0.66425733  0.01683089  1
  Cu  Cu30  1  0.33647476  0.67149769  0.51645361  1
  Cu  Cu31  1  0.34062167  0.67279930  0.31608240  1
  Cu  Cu32  1  0.33812626  0.66907066  0.81672043  1
  C  C33  1  0.70555786  0.00010023  0.75026628  1
  C  C34  1  0.37034919  0.03758948  0.58269347  1
  C  C35  1  0.96129643  0.62801119  0.08334694  1
  C  C36  1  0.29417176  0.00050760  0.25061363  1
  C  C37  1  0.70467598  0.70607392  0.24950817  1
  C  C38  1  0.99886983  0.29284258  0.25064538  1
  C  C39  1  0.29289475  0.29344178  0.74969161  1
  C  C40  1  0.99965223  0.70661138  0.75071208  1
  C  C41  1  0.95984873  0.33367378  0.58249957  1
  C  C42  1  0.66666907  0.62542575  0.58382534  1
  C  C43  1  0.66680202  0.04109565  0.08240847  1
  C  C44  1  0.37451413  0.33345187  0.08444741  1
  C  C45  1  0.62697299  0.66499539  0.91670973  1
  C  C46  1  0.03962271  0.37147301  0.91673569  1
  C  C47  1  0.33312228  0.96171515  0.91674102  1
  C  C48  1  0.62884989  0.96075751  0.41708343  1
  C  C49  1  0.33440126  0.37370729  0.41596432  1
  C  C50  1  0.03906617  0.66607053  0.41602337  1
  C  C51  1  0.20915667  0.02905027  0.30539925  1
  C  C52  1  0.82300582  0.79246876  0.30247966  1
  C  C53  1  0.97623601  0.18415419  0.30577908  1
  C  C54  1  0.20956748  0.17589331  0.80274683  1
  C  C55  1  0.97110797  0.78972873  0.80542944  1
  C  C56  1  0.82588356  0.03302336  0.80787223  1
  C  C57  1  0.79013488  0.96545959  0.69204249  1
  C  C58  1  0.18328368  0.21491858  0.69381487  1
  C  C59  1  0.03306088  0.81900162  0.69527172  1
  C  C60  1  0.78591696  0.81312607  0.19326598  1
  C  C61  1  0.03000095  0.21181982  0.19519701  1
  C  C62  1  0.18099788  0.97003347  0.19521741  1
  C  C63  1  0.88141399  0.36745302  0.63805448  1
  C  C64  1  0.49027022  0.12263182  0.64087497  1
  C  C65  1  0.63624175  0.51687330  0.63990360  1
  C  C66  1  0.87532493  0.50748154  0.14114107  1
  C  C67  1  0.63219846  0.12326108  0.13593793  1
  C  C68  1  0.48428739  0.36410139  0.13987418  1
  C  C69  1  0.45662767  0.29876124  0.03072258  1
  C  C70  1  0.84090701  0.54213658  0.02551215  1
  C  C71  1  0.69752326  0.15106158  0.02678622  1
  C  C72  1  0.45831586  0.15874237  0.52530120  1
  C  C73  1  0.69937323  0.54169027  0.53063200  1
  C  C74  1  0.84812002  0.30433769  0.52800767  1
  C  C75  1  0.54491021  0.69601205  0.97161076  1
  C  C76  1  0.14801195  0.45684173  0.97212037  1
  C  C77  1  0.30447838  0.84821667  0.97176745  1
  C  C78  1  0.54748048  0.85351962  0.47334461  1
  C  C79  1  0.30314215  0.45473912  0.47148431  1
  C  C80  1  0.15237005  0.69659361  0.47146974  1
  C  C81  1  0.12423787  0.63760482  0.36126026  1
  C  C82  1  0.51033164  0.87428477  0.36415141  1
  C  C83  1  0.35701648  0.48258548  0.36088106  1
  C  C84  1  0.12180384  0.48451786  0.86169554  1
  C  C85  1  0.36206344  0.87697587  0.86163034  1
  C  C86  1  0.51864015  0.64186009  0.86121017  1
  C  C87  1  0.02885943  0.83099176  0.41006719  1
  C  C88  1  0.80937109  0.98573162  0.41061618  1
  C  C89  1  0.17111753  0.19372112  0.41061792  1
  C  C90  1  0.01619627  0.19134619  0.91213459  1
  C  C91  1  0.16905667  0.97115730  0.91080328  1
  C  C92  1  0.80659097  0.82743092  0.91140010  1
  C  C93  1  0.97702160  0.17263592  0.58882916  1
  C  C94  1  0.18150984  0.01872603  0.58846484  1
  C  C95  1  0.82630288  0.80543693  0.58868190  1
  C  C96  1  0.98100986  0.81821347  0.08909579  1
  C  C97  1  0.82860291  0.02519051  0.08958406  1
  C  C98  1  0.19343480  0.17502443  0.09019404  1
  C  C99  1  0.68877044  0.17216151  0.74569355  1
  C  C100  1  0.47345350  0.31647318  0.74408696  1
  C  C101  1  0.83835510  0.52928953  0.74423652  1
  C  C102  1  0.68753453  0.52660798  0.24458671  1
  C  C103  1  0.84284882  0.31737158  0.24562946  1
  C  C104  1  0.46833535  0.16380304  0.24420147  1
  C  C105  1  0.65036348  0.50813974  0.92127328  1
  C  C106  1  0.86012667  0.35450722  0.92197939  1
  C  C107  1  0.49765437  0.13569683  0.92261609  1
  C  C108  1  0.64614234  0.14014305  0.42204895  1
  C  C109  1  0.49030600  0.34932892  0.42093365  1
  C  C110  1  0.86519107  0.50284494  0.42245335  1
  C  C111  1  0.35828502  0.49508123  0.07708755  1
  C  C112  1  0.15123217  0.64741209  0.07760179  1
  C  C113  1  0.50851838  0.86012116  0.07660511  1
  C  C114  1  0.35243245  0.84802149  0.57737956  1
  C  C115  1  0.50484898  0.64179452  0.57694078  1
  C  C116  1  0.14049729  0.49288023  0.57662998  1
  C  C117  1  0.30447201  0.83562755  0.25657924  1
  C  C118  1  0.52401715  0.68096777  0.25599807  1
  C  C119  1  0.16214800  0.47292150  0.25600769  1
  C  C120  1  0.30817218  0.47103425  0.75649652  1
  C  C121  1  0.15889153  0.68558579  0.75653730  1
  C  C122  1  0.51540887  0.82939842  0.75589915  1
