# generated using pymatgen
data_Cu6NiC28
_symmetry_space_group_name_H-M   'P 1'
_cell_length_a   5.71157447
_cell_length_b   6.76609198
_cell_length_c   13.67036957
_cell_angle_alpha   92.27393854
_cell_angle_beta   86.05908702
_cell_angle_gamma   114.31237909
_symmetry_Int_Tables_number   1
_chemical_formula_structural   Cu6NiC28
_chemical_formula_sum   'Cu6 Ni1 C28'
_cell_volume   480.26401393
_cell_formula_units_Z   1
loop_
 _symmetry_equiv_pos_site_id
 _symmetry_equiv_pos_as_xyz
  1  'x, y, z'
loop_
 _atom_site_type_symbol
 _atom_site_label
 _atom_site_symmetry_multiplicity
 _atom_site_fract_x
 _atom_site_fract_y
 _atom_site_fract_z
 _atom_site_occupancy
  C  C0  1  0.24774500  0.47801900  0.12735600  1
  C  C1  1  0.77754600  0.50270500  0.93583200  1
  C  C2  1  0.72418600  0.48668100  0.35929300  1
  C  C3  1  0.20027800  0.50823500  0.55028500  1
  C  C4  1  0.88664800  0.91594100  0.59835000  1
  C  C5  1  0.01152000  0.06175800  0.35169800  1
  C  C6  1  0.53596200  0.05376900  0.14243700  1
  C  C7  1  0.52924400  0.93722900  0.88971900  1
  Ni  Ni8  1  0.12276000  0.74272800  0.74887300  1
  Cu  Cu9  1  0.64015900  0.26217900  0.66960400  1
  Cu  Cu10  1  0.35967100  0.75491200  0.34450800  1
  Cu  Cu11  1  0.87837700  0.74519800  0.15554700  1
  Cu  Cu12  1  0.15001300  0.25736500  0.83525700  1
  Cu  Cu13  1  0.45214000  0.01702600  0.49760200  1
  Cu  Cu14  1  0.04167000  0.00493900  0.00370100  1
  C  C15  1  0.47556600  0.28093100  0.78987200  1
  C  C16  1  0.14806100  0.77995300  0.25059000  1
  C  C17  1  0.62827400  0.76682700  0.25267600  1
  C  C18  1  0.89654200  0.16749500  0.74176600  1
  C  C19  1  0.12812600  0.78834500  0.45391200  1
  C  C20  1  0.29924500  0.20560300  0.52254200  1
  C  C21  1  0.38256500  0.20681000  0.99383000  1
  C  C22  1  0.13511700  0.77510900  0.04240300  1
  C  C23  1  0.77533700  0.21910400  0.53656400  1
  C  C24  1  0.59043000  0.78926900  0.46092600  1
  C  C25  1  0.67496500  0.78952000  0.02755900  1
  C  C26  1  0.93092400  0.21870900  0.95827400  1
  C  C27  1  0.85047500  0.56813500  0.66378200  1
  C  C28  1  0.20041200  0.45174000  0.34676500  1
  C  C29  1  0.02077400  0.07188600  0.14331300  1
  C  C30  1  0.05022800  0.92637800  0.86021800  1
  C  C31  1  0.39138300  0.93155800  0.64398500  1
  C  C32  1  0.74399800  0.44243600  0.16120400  1
  C  C33  1  0.22377700  0.55821100  0.83039400  1
  C  C34  1  0.52683700  0.08329500  0.35936400  1
