# generated using pymatgen
data_Cu2NiC6
_symmetry_space_group_name_H-M   'P 1'
_cell_length_a   3.18248800
_cell_length_b   3.26568624
_cell_length_c   9.39656900
_cell_angle_alpha   90.00000000
_cell_angle_beta   90.00000000
_cell_angle_gamma   119.16076281
_symmetry_Int_Tables_number   1
_chemical_formula_structural   Cu2NiC6
_chemical_formula_sum   'Cu2 Ni1 C6'
_cell_volume   85.28096399
_cell_formula_units_Z   1
loop_
 _symmetry_equiv_pos_site_id
 _symmetry_equiv_pos_as_xyz
  1  'x, y, z'
loop_
 _atom_site_type_symbol
 _atom_site_label
 _atom_site_symmetry_multiplicity
 _atom_site_fract_x
 _atom_site_fract_y
 _atom_site_fract_z
 _atom_site_occupancy
  Ni  Ni0  1  0.66976300  0.33952600  0.25000000  1
  Cu  Cu1  1  0.99776500  0.99553000  0.54314100  1
  Cu  Cu2  1  0.99776500  0.99553000  0.95685900  1
  C  C3  1  0.34395100  0.68790300  0.25000000  1
  C  C4  1  0.65772700  0.31545300  0.75000000  1
  C  C5  1  0.33938800  0.67877500  0.37565300  1
  C  C6  1  0.66046000  0.32092100  0.62043700  1
  C  C7  1  0.66046000  0.32092100  0.87956300  1
  C  C8  1  0.33938800  0.67877500  0.12434700  1
