# generated using pymatgen
data_Cu2NiC14
_symmetry_space_group_name_H-M   'P 1'
_cell_length_a   8.84091460
_cell_length_b   8.84481040
_cell_length_c   22.77118667
_cell_angle_alpha   89.97458204
_cell_angle_beta   89.98512580
_cell_angle_gamma   120.02765504
_symmetry_Int_Tables_number   1
_chemical_formula_structural   Cu2NiC14
_chemical_formula_sum   'Cu12 Ni6 C84'
_cell_volume   1541.63235189
_cell_formula_units_Z   6
loop_
 _symmetry_equiv_pos_site_id
 _symmetry_equiv_pos_as_xyz
  1  'x, y, z'
loop_
 _atom_site_type_symbol
 _atom_site_label
 _atom_site_symmetry_multiplicity
 _atom_site_fract_x
 _atom_site_fract_y
 _atom_site_fract_z
 _atom_site_occupancy
  C  C0  1  0.99682185  0.99421166  0.85706636  1
  C  C1  1  0.66530336  0.33032873  0.19007259  1
  C  C2  1  0.66856543  0.33215933  0.97621410  1
  C  C3  1  0.33920013  0.66863807  0.02351719  1
  C  C4  1  0.32994223  0.66833070  0.52369183  1
  C  C5  1  0.33466426  0.66478075  0.80999636  1
  C  C6  1  0.99666831  0.99290862  0.35724518  1
  C  C7  1  0.00306677  0.99572629  0.64279780  1
  C  C8  1  0.99260553  0.99604867  0.14253091  1
  C  C9  1  0.66538694  0.33041633  0.69069268  1
  C  C10  1  0.66311506  0.33187985  0.47605221  1
  C  C11  1  0.32975395  0.66460672  0.30929572  1
  Ni  Ni12  1  0.71223105  0.71098950  0.24995022  1
  Ni  Ni13  1  0.00085384  0.71284588  0.75055090  1
  Ni  Ni14  1  0.38193603  0.04692033  0.58328415  1
  Ni  Ni15  1  0.66501040  0.04818312  0.08312926  1
  Ni  Ni16  1  0.61897884  0.66517616  0.91658878  1
  Ni  Ni17  1  0.04711960  0.66514738  0.41693242  1
  Cu  Cu18  1  0.28521115  0.00080781  0.24981577  1
  Cu  Cu19  1  0.99891214  0.28401910  0.24981634  1
  Cu  Cu20  1  0.28383502  0.28468758  0.75027248  1
  Cu  Cu21  1  0.71529924  0.99914888  0.75034122  1
  Cu  Cu22  1  0.95178339  0.33262338  0.58324965  1
  Cu  Cu23  1  0.66476220  0.61784419  0.58322589  1
  Cu  Cu24  1  0.95211582  0.61679326  0.08313281  1
  Cu  Cu25  1  0.38219486  0.33290722  0.08318336  1
  Cu  Cu26  1  0.04930688  0.38159944  0.91668736  1
  Cu  Cu27  1  0.33319843  0.95116744  0.91672133  1
  Cu  Cu28  1  0.61748725  0.95066333  0.41688697  1
  Cu  Cu29  1  0.33193490  0.38186679  0.41681093  1
  C  C30  1  0.20298907  0.03263205  0.30476953  1
  C  C31  1  0.83676228  0.80689320  0.30686827  1
  C  C32  1  0.96940114  0.17232192  0.30462792  1
  C  C33  1  0.20018769  0.17169867  0.80495344  1
  C  C34  1  0.97113560  0.80850017  0.80694409  1
  C  C35  1  0.83074180  0.03101600  0.80503940  1
  C  C36  1  0.79733327  0.96953357  0.69557542  1
  C  C37  1  0.17011171  0.20272771  0.69541281  1
  C  C38  1  0.02975267  0.83662189  0.69326344  1
  C  C39  1  0.80713891  0.83659794  0.19312295  1
  C  C40  1  0.03143669  0.20195610  0.19501433  1
  C  C41  1  0.17241369  0.97066018  0.19522653  1
  C  C42  1  0.86952087  0.36627611  0.63805064  1
  C  C43  1  0.50256500  0.13925330  0.64057971  1
  C  C44  1  0.63645942  0.50406726  0.63793643  1
  C  C45  1  0.86556325  0.50286261  0.13780487  1
  C  C46  1  0.63701978  0.13986878  0.14044887  1
  C  C47  1  0.49812538  0.36552116  0.13788791  1
  C  C48  1  0.46901792  0.30521245  0.02862862  1
  C  C49  1  0.83567618  0.53315491  0.02856641  1
  C  C50  1  0.69608792  0.16984618  0.02608404  1
  C  C51  1  0.47258238  0.16918651  0.52620181  1
  C  C52  1  0.69854648  0.53571017  0.52855413  1
  C  C53  1  0.83768790  0.30446311  0.52867934  1
  C  C54  1  0.52497929  0.69563030  0.97350233  1
  C  C55  1  0.16179699  0.46675010  0.97136001  1
  C  C56  1  0.30082226  0.83563811  0.97135447  1
  C  C57  1  0.53433150  0.83558078  0.47151789  1
  C  C58  1  0.30532711  0.46726664  0.47148828  1
  C  C59  1  0.17066578  0.69584017  0.47364551  1
  C  C60  1  0.13915629  0.63691527  0.35957830  1
  C  C61  1  0.50385988  0.86734052  0.36218376  1
  C  C62  1  0.36463673  0.49705701  0.36190426  1
  C  C63  1  0.13320930  0.49765375  0.86194194  1
  C  C64  1  0.36316582  0.86636824  0.86217656  1
  C  C65  1  0.49708771  0.63703167  0.85972918  1
  C  C66  1  0.02803688  0.83822250  0.40696020  1
  C  C67  1  0.80227869  0.97613575  0.40729411  1
  C  C68  1  0.17205537  0.19989170  0.40651349  1
  C  C69  1  0.02736265  0.19982423  0.90577916  1
  C  C70  1  0.17431004  0.97693156  0.90644939  1
  C  C71  1  0.81060985  0.83829837  0.90656082  1
  C  C72  1  0.97265471  0.17204261  0.59360941  1
  C  C73  1  0.18932248  0.02659976  0.59319325  1
  C  C74  1  0.82503096  0.80212603  0.59308843  1
  C  C75  1  0.97589245  0.80074517  0.09295263  1
  C  C76  1  0.83701782  0.02676393  0.09314763  1
  C  C77  1  0.20048330  0.17215363  0.09337927  1
  C  C78  1  0.69328325  0.16097532  0.74113829  1
  C  C79  1  0.46778431  0.30823673  0.74046848  1
  C  C80  1  0.83021003  0.52196874  0.73890042  1
  C  C81  1  0.69156814  0.52102046  0.23856350  1
  C  C82  1  0.83910036  0.30831452  0.23944351  1
  C  C83  1  0.46924124  0.16238553  0.24014213  1
  C  C84  1  0.64292320  0.49725543  0.92818934  1
  C  C85  1  0.86588460  0.36055366  0.92647503  1
  C  C86  1  0.49443867  0.13472315  0.92689761  1
  C  C87  1  0.64020995  0.13430943  0.42650418  1
  C  C88  1  0.49451941  0.36104542  0.42614650  1
  C  C89  1  0.85445958  0.49749969  0.42779841  1
  C  C90  1  0.35781015  0.49286686  0.07300714  1
  C  C91  1  0.13374832  0.63770981  0.07258184  1
  C  C92  1  0.49506372  0.85527286  0.07303729  1
  C  C93  1  0.35988914  0.85503283  0.57316498  1
  C  C94  1  0.50411650  0.63873201  0.57263302  1
  C  C95  1  0.13615284  0.49285501  0.57301820  1
  C  C96  1  0.30902442  0.84076978  0.25989421  1
  C  C97  1  0.52190069  0.69169779  0.26113859  1
  C  C98  1  0.16069740  0.46820056  0.25906528  1
  C  C99  1  0.30666715  0.46876843  0.76004144  1
  C  C100  1  0.17046813  0.69167316  0.76158708  1
  C  C101  1  0.53122312  0.83931654  0.76085955  1
