# generated using pymatgen
data_CuNi2C33
_symmetry_space_group_name_H-M   'P 1'
_cell_length_a   8.54479991
_cell_length_b   8.55104964
_cell_length_c   22.22381814
_cell_angle_alpha   89.40954028
_cell_angle_beta   90.16817917
_cell_angle_gamma   119.80742501
_symmetry_Int_Tables_number   1
_chemical_formula_structural   CuNi2C33
_chemical_formula_sum   'Cu3 Ni6 C99'
_cell_volume   1408.91786753
_cell_formula_units_Z   3
loop_
 _symmetry_equiv_pos_site_id
 _symmetry_equiv_pos_as_xyz
  1  'x, y, z'
loop_
 _atom_site_type_symbol
 _atom_site_label
 _atom_site_symmetry_multiplicity
 _atom_site_fract_x
 _atom_site_fract_y
 _atom_site_fract_z
 _atom_site_occupancy
  Ni  Ni0  1  0.99911053  0.99216331  0.50472383  1
  Ni  Ni1  1  0.00823416  0.99879267  0.99866029  1
  Ni  Ni2  1  0.66440659  0.32956057  0.83221620  1
  Ni  Ni3  1  0.66732217  0.33289694  0.33884520  1
  Ni  Ni4  1  0.32909896  0.66172768  0.16796284  1
  Ni  Ni5  1  0.34477589  0.66837745  0.66623158  1
  Cu  Cu6  1  0.99904460  0.99910020  0.64712473  1
  Cu  Cu7  1  0.00450928  0.99978345  0.13808829  1
  Cu  Cu8  1  0.33394996  0.66979124  0.32172106  1
  C  C9  1  0.00340119  0.00287716  0.36157125  1
  C  C10  1  0.00194079  0.01081592  0.85234480  1
  C  C11  1  0.63654599  0.31123214  0.68463304  1
  C  C12  1  0.67123478  0.34679710  0.18288494  1
  C  C13  1  0.66575754  0.33790971  0.97434760  1
  C  C14  1  0.66292975  0.33410585  0.48169845  1
  C  C15  1  0.32657391  0.65727892  0.01663800  1
  C  C16  1  0.34370237  0.67210968  0.51625003  1
  C  C17  1  0.33886814  0.66890045  0.81930249  1
  C  C18  1  0.29551076  0.30243181  0.75317262  1
  C  C19  1  0.69894459  0.99927239  0.75246861  1
  C  C20  1  0.38538480  0.03527022  0.57945455  1
  C  C21  1  0.65034211  0.60629201  0.58127389  1
  C  C22  1  0.95544499  0.60408901  0.07673952  1
  C  C23  1  0.39663117  0.35234870  0.07701693  1
  C  C24  1  0.62577033  0.67332451  0.91728146  1
  C  C25  1  0.04460649  0.37689020  0.91681739  1
  C  C26  1  0.32993051  0.95289494  0.91769175  1
  C  C27  1  0.63551391  0.97325374  0.41846248  1
  C  C28  1  0.33591565  0.36889203  0.41891679  1
  C  C29  1  0.03223853  0.66223246  0.41950941  1
  C  C30  1  0.30630384  0.01755936  0.24952279  1
  C  C31  1  0.71216335  0.69926433  0.24969433  1
  C  C32  1  0.98447459  0.28753674  0.24886790  1
  C  C33  1  0.00175909  0.70033576  0.75505428  1
  C  C34  1  0.95578883  0.34967494  0.58197910  1
  C  C35  1  0.64772699  0.04502257  0.07859523  1
  C  C36  1  0.22163786  0.03794433  0.30650493  1
  C  C37  1  0.81730693  0.78207814  0.30618209  1
  C  C38  1  0.96269666  0.18105551  0.30628978  1
  C  C39  1  0.20992932  0.17167008  0.80929271  1
  C  C40  1  0.96643822  0.78729616  0.80855445  1
  C  C41  1  0.82754788  0.03975111  0.80862842  1
  C  C42  1  0.75881016  0.95175922  0.69610506  1
  C  C43  1  0.19178409  0.24023354  0.69601669  1
  C  C44  1  0.04141940  0.80290692  0.69992808  1
  C  C45  1  0.79471650  0.79977608  0.19495039  1
  C  C46  1  0.00311817  0.20444962  0.19518600  1
  C  C47  1  0.20327150  0.99839169  0.19555755  1
  C  C48  1  0.87058087  0.36934554  0.63863642  1
  C  C49  1  0.49230308  0.11191480  0.64059135  1
  C  C50  1  0.62473445  0.49373941  0.64169719  1
  C  C51  1  0.87522409  0.49498371  0.13756158  1
  C  C52  1  0.62560114  0.12643953  0.13544824  1
  C  C53  1  0.50468985  0.37708049  0.13735572  1
  C  C54  1  0.48583215  0.32269626  0.02159805  1
  C  C55  1  0.84213567  0.50794024  0.02127185  1
  C  C56  1  0.67210864  0.15298457  0.02326648  1
  C  C57  1  0.48846114  0.15382716  0.52587804  1
  C  C58  1  0.67513470  0.51476343  0.52640568  1
  C  C59  1  0.84970306  0.32958180  0.52724578  1
  C  C60  1  0.54211459  0.71025287  0.97351092  1
  C  C61  1  0.16299280  0.45364016  0.97386122  1
  C  C62  1  0.29237056  0.83228766  0.97498402  1
  C  C63  1  0.54679530  0.83860753  0.47252203  1
  C  C64  1  0.29514354  0.46046518  0.47259692  1
  C  C65  1  0.16627652  0.70332874  0.47322761  1
  C  C66  1  0.08432618  0.61913269  0.36065528  1
  C  C67  1  0.53403582  0.92049854  0.36059616  1
  C  C68  1  0.37848092  0.46547356  0.35984683  1
  C  C69  1  0.12962665  0.50171940  0.86210412  1
  C  C70  1  0.36791342  0.86946837  0.86278903  1
  C  C71  1  0.50344229  0.63193771  0.86213204  1
  C  C72  1  0.01751319  0.83914929  0.41347512  1
  C  C73  1  0.82422267  0.98393137  0.41212927  1
  C  C74  1  0.16015998  0.17810979  0.41394786  1
  C  C75  1  0.02672500  0.18842393  0.90908952  1
  C  C76  1  0.15994294  0.97235454  0.90905512  1
  C  C77  1  0.81487758  0.84157176  0.90826573  1
  C  C78  1  0.97804135  0.19228831  0.58322173  1
  C  C79  1  0.20302779  0.01922790  0.58075022  1
  C  C80  1  0.81056874  0.79232283  0.58300059  1
  C  C81  1  0.97324188  0.78780286  0.07667145  1
  C  C82  1  0.80443328  0.02193492  0.08032048  1
  C  C83  1  0.20844603  0.19420773  0.07744640  1
  C  C84  1  0.68432666  0.17605829  0.74456224  1
  C  C85  1  0.48836906  0.32036943  0.74672921  1
  C  C86  1  0.84038810  0.51843641  0.75001304  1
  C  C87  1  0.70854863  0.51803237  0.24590903  1
  C  C88  1  0.80757382  0.29158560  0.24460030  1
  C  C89  1  0.48617803  0.19267778  0.24465921  1
  C  C90  1  0.64734327  0.50279391  0.92250750  1
  C  C91  1  0.85170095  0.35166702  0.92271658  1
  C  C92  1  0.50078138  0.14376450  0.92388561  1
  C  C93  1  0.67582589  0.16635778  0.43198628  1
  C  C94  1  0.49291826  0.33169655  0.43046874  1
  C  C95  1  0.83980556  0.50620434  0.43227292  1
  C  C96  1  0.39442824  0.53440078  0.07280444  1
  C  C97  1  0.14406804  0.61499990  0.07372936  1
  C  C98  1  0.47735102  0.86729956  0.07553206  1
  C  C99  1  0.37754508  0.84916566  0.57432531  1
  C  C100  1  0.46870200  0.60951861  0.57509456  1
  C  C101  1  0.13364095  0.51974929  0.57753942  1
  C  C102  1  0.33857897  0.86584237  0.25268666  1
  C  C103  1  0.52761458  0.66481777  0.25271979  1
  C  C104  1  0.13541403  0.47150604  0.25254503  1
  C  C105  1  0.32136017  0.49217124  0.76648825  1
  C  C106  1  0.16496370  0.68072571  0.76566097  1
  C  C107  1  0.50681191  0.83860597  0.76644764  1
