# generated using pymatgen
data_CuNiC11
_symmetry_space_group_name_H-M   'P 1'
_cell_length_a   8.93900261
_cell_length_b   8.95877071
_cell_length_c   22.45227376
_cell_angle_alpha   90.15849401
_cell_angle_beta   89.58291337
_cell_angle_gamma   119.88997765
_symmetry_Int_Tables_number   1
_chemical_formula_structural   CuNiC11
_chemical_formula_sum   'Cu9 Ni9 C99'
_cell_volume   1558.82420782
_cell_formula_units_Z   9
loop_
 _symmetry_equiv_pos_site_id
 _symmetry_equiv_pos_as_xyz
  1  'x, y, z'
loop_
 _atom_site_type_symbol
 _atom_site_label
 _atom_site_symmetry_multiplicity
 _atom_site_fract_x
 _atom_site_fract_y
 _atom_site_fract_z
 _atom_site_occupancy
  C  C0  1  0.00249613  0.63429821  0.25394198  1
  C  C1  1  0.29904542  0.34009667  0.58794081  1
  C  C2  1  0.02923890  0.69439308  0.58220463  1
  C  C3  1  0.67074694  0.96103188  0.58101777  1
  C  C4  1  0.66845902  0.70146963  0.08262696  1
  C  C5  1  0.03621530  0.34026533  0.08545105  1
  C  C6  1  0.97889951  0.68225131  0.91223673  1
  C  C7  1  0.32213562  0.29372905  0.90791549  1
  C  C8  1  0.70282650  0.67989277  0.41610363  1
  C  C9  1  0.99804553  0.00312417  0.49516588  1
  C  C10  1  -0.00001029  0.99448023  0.99562686  1
  C  C11  1  0.65820226  0.32137791  0.82135421  1
  C  C12  1  0.65698110  0.30787521  0.33060322  1
  C  C13  1  0.33566155  0.67739522  0.17124163  1
  C  C14  1  0.33189244  0.65393065  0.66454612  1
  C  C15  1  0.66931020  0.33357003  0.97971775  1
  C  C16  1  0.67958098  0.33381046  0.47985129  1
  C  C17  1  0.33552375  0.66317742  0.81336579  1
  C  C18  1  0.00034211  0.00363318  0.35234060  1
  C  C19  1  0.00225736  0.00936897  0.84639620  1
  C  C20  1  0.99803725  0.00998097  0.65532578  1
  C  C21  1  0.00565587  0.99158841  0.15637119  1
  C  C22  1  0.66488115  0.34533248  0.68419065  1
  C  C23  1  0.66767870  0.33136807  0.18483298  1
  C  C24  1  0.32467369  0.67240509  0.01011826  1
  C  C25  1  0.33257923  0.66732900  0.50883701  1
  C  C26  1  0.33585979  0.67724047  0.32376140  1
  Ni  Ni27  1  0.29930006  0.29188576  0.74976654  1
  Ni  Ni28  1  0.96214085  0.33459410  0.58670970  1
  Ni  Ni29  1  0.66523520  0.62847147  0.58381869  1
  Ni  Ni30  1  0.96455488  0.63038285  0.08583434  1
  Ni  Ni31  1  0.62909007  0.67293729  0.92014509  1
  Ni  Ni32  1  0.04184395  0.37006328  0.91893929  1
  Ni  Ni33  1  0.33166838  0.95935714  0.91696717  1
  Ni  Ni34  1  0.62869462  0.95947629  0.41662258  1
  Ni  Ni35  1  0.04194450  0.67269526  0.41569591  1
  Cu  Cu36  1  0.29723551  0.00286424  0.24999497  1
  Cu  Cu37  1  0.69896817  0.70190292  0.24926874  1
  Cu  Cu38  1  0.00163484  0.29419334  0.24851582  1
  Cu  Cu39  1  0.99898906  0.70485541  0.75050249  1
  Cu  Cu40  1  0.70533689  0.00277918  0.74978704  1
  Cu  Cu41  1  0.37459118  0.04030664  0.58461500  1
  Cu  Cu42  1  0.66434681  0.03851477  0.08551282  1
  Cu  Cu43  1  0.37164434  0.33139710  0.08488174  1
  Cu  Cu44  1  0.33123551  0.36942684  0.41695467  1
  C  C45  1  0.21379165  0.02613883  0.30315576  1
  C  C46  1  0.81083256  0.78449286  0.30177067  1
  C  C47  1  0.98033436  0.18632329  0.30033548  1
  C  C48  1  0.21646176  0.19122446  0.80768474  1
  C  C49  1  0.97831302  0.78572092  0.80537624  1
  C  C50  1  0.80852380  0.02048440  0.80277926  1
  C  C51  1  0.77385844  0.96886020  0.69408601  1
  C  C52  1  0.19146738  0.21733720  0.69282158  1
  C  C53  1  0.02563632  0.80766702  0.69593463  1
  C  C54  1  0.77749977  0.80437607  0.19325949  1
  C  C55  1  0.02079140  0.21637727  0.19147953  1
  C  C56  1  0.19068761  0.97251441  0.19525925  1
  C  C57  1  0.87445411  0.36398180  0.64006800  1
  C  C58  1  0.48169700  0.11848934  0.63709084  1
  C  C59  1  0.62942935  0.50982815  0.63677921  1
  C  C60  1  0.87763781  0.51527375  0.14055827  1
  C  C61  1  0.63994839  0.11941228  0.13792973  1
  C  C62  1  0.48153078  0.35521400  0.13586323  1
  C  C63  1  0.45542606  0.30942162  0.02887742  1
  C  C64  1  0.84495156  0.53541315  0.02925385  1
  C  C65  1  0.68696542  0.14953276  0.03120422  1
  C  C66  1  0.45995544  0.15168139  0.53068376  1
  C  C67  1  0.69099326  0.53964819  0.52643731  1
  C  C68  1  0.84401366  0.30585323  0.53045939  1
  C  C69  1  0.55064434  0.69289342  0.97837518  1
  C  C70  1  0.14640128  0.44379005  0.97629077  1
  C  C71  1  0.29790316  0.85085351  0.97281528  1
  C  C72  1  0.55467015  0.85283177  0.47469149  1
  C  C73  1  0.30676830  0.44292422  0.47302921  1
  C  C74  1  0.14144201  0.69174427  0.47332529  1
  C  C75  1  0.11329640  0.63556522  0.35862810  1
  C  C76  1  0.51847160  0.87972511  0.36178570  1
  C  C77  1  0.36768721  0.48248891  0.36484542  1
  C  C78  1  0.13003480  0.49589318  0.86568417  1
  C  C79  1  0.36136734  0.87207888  0.86225858  1
  C  C80  1  0.50563532  0.63660474  0.86667317  1
  C  C81  1  0.01020822  0.82699800  0.41096176  1
  C  C82  1  0.81056671  0.97866195  0.41075961  1
  C  C83  1  0.18106739  0.19640964  0.41023450  1
  C  C84  1  0.02097294  0.19208605  0.91030311  1
  C  C85  1  0.17301214  0.98354429  0.91049931  1
  C  C86  1  0.81318428  0.82021936  0.91058954  1
  C  C87  1  0.97753920  0.16883230  0.58735201  1
  C  C88  1  0.20036127  0.02414887  0.58761610  1
  C  C89  1  0.83411995  0.80650139  0.58766686  1
  C  C90  1  0.96819513  0.80530913  0.08779002  1
  C  C91  1  0.82798987  0.03029052  0.08695868  1
  C  C92  1  0.19568596  0.17885520  0.08772221  1
  C  C93  1  0.68429231  0.15444427  0.74495731  1
  C  C94  1  0.48099273  0.31434241  0.74556963  1
  C  C95  1  0.84879177  0.53016557  0.74687376  1
  C  C96  1  0.69104319  0.53033493  0.24427259  1
  C  C97  1  0.84494247  0.31632561  0.24586439  1
  C  C98  1  0.47065743  0.15776181  0.24343024  1
  C  C99  1  0.63920556  0.49918557  0.92391688  1
  C  C100  1  0.86223195  0.36283230  0.92369067  1
  C  C101  1  0.49489469  0.14436966  0.92346145  1
  C  C102  1  0.64445070  0.14173894  0.42370130  1
  C  C103  1  0.49453988  0.35666531  0.42333065  1
  C  C104  1  0.85219949  0.50729238  0.42194687  1
  C  C105  1  0.35832768  0.49043719  0.07938328  1
  C  C106  1  0.14100598  0.64052255  0.07844973  1
  C  C107  1  0.51606443  0.86234703  0.07897484  1
  C  C108  1  0.35441564  0.86582808  0.57772422  1
  C  C109  1  0.50487416  0.65148320  0.57755364  1
  C  C110  1  0.14280121  0.49648165  0.57829872  1
  C  C111  1  0.30921421  0.84164935  0.25395282  1
  C  C112  1  0.52523142  0.68135032  0.25505885  1
  C  C113  1  0.15613281  0.47095737  0.25257027  1
  C  C114  1  0.31477433  0.47714459  0.75705867  1
  C  C115  1  0.16142696  0.69051833  0.75625905  1
  C  C116  1  0.52802635  0.84215136  0.75674378  1
