# generated using pymatgen
data_Cu8Ni15C94
_symmetry_space_group_name_H-M   'P 1'
_cell_length_a   9.24455677
_cell_length_b   9.25677222
_cell_length_c   22.87349830
_cell_angle_alpha   89.98420506
_cell_angle_beta   90.04821070
_cell_angle_gamma   119.83615753
_symmetry_Int_Tables_number   1
_chemical_formula_structural   Cu8Ni15C94
_chemical_formula_sum   'Cu8 Ni15 C94'
_cell_volume   1697.94408099
_cell_formula_units_Z   1
loop_
 _symmetry_equiv_pos_site_id
 _symmetry_equiv_pos_as_xyz
  1  'x, y, z'
loop_
 _atom_site_type_symbol
 _atom_site_label
 _atom_site_symmetry_multiplicity
 _atom_site_fract_x
 _atom_site_fract_y
 _atom_site_fract_z
 _atom_site_occupancy
  Ni  Ni0  1  0.99558233  0.65394841  0.24574974  1
  Ni  Ni1  1  0.66001500  0.64548413  0.75029222  1
  Ni  Ni2  1  0.34766561  0.01271415  0.75056553  1
  Ni  Ni3  1  0.30509900  0.33743654  0.58486438  1
  Ni  Ni4  1  0.04470606  0.71611972  0.58092964  1
  Ni  Ni5  1  0.65741021  0.95105354  0.58257553  1
  Ni  Ni6  1  0.29618303  0.95243913  0.08328640  1
  Ni  Ni7  1  0.67104951  0.71402580  0.07595797  1
  Ni  Ni8  1  0.03253887  0.33927523  0.08534097  1
  Ni  Ni9  1  0.99992681  0.99219610  0.48806945  1
  Ni  Ni10  1  0.99220957  0.99104298  0.98739607  1
  Ni  Ni11  1  0.68226833  0.33286244  0.82605671  1
  Ni  Ni12  1  0.65293599  0.30169212  0.32585680  1
  Ni  Ni13  1  0.34387136  0.67620093  0.16976198  1
  Ni  Ni14  1  0.32768091  0.66053023  0.66846802  1
  Cu  Cu15  1  0.00026193  0.00748991  0.35062469  1
  Cu  Cu16  1  0.00069781  0.00364891  0.85075321  1
  Cu  Cu17  1  0.00221186  0.00254092  0.65772210  1
  Cu  Cu18  1  0.00505054  0.01140267  0.15735916  1
  Cu  Cu19  1  0.67110529  0.33106966  0.68649894  1
  Cu  Cu20  1  0.66357069  0.32192388  0.18838869  1
  Cu  Cu21  1  0.33097460  0.66766181  0.01127650  1
  Cu  Cu22  1  0.33620040  0.67005063  0.51061191  1
  C  C23  1  0.67697080  0.33310621  0.97402042  1
  C  C24  1  0.65669688  0.33347928  0.47434122  1
  C  C25  1  0.32823283  0.66573894  0.32344875  1
  C  C26  1  0.33181560  0.66295456  0.82261827  1
  C  C27  1  0.30235547  0.98655748  0.25224473  1
  C  C28  1  0.01234857  0.32035853  0.25111498  1
  C  C29  1  0.30596735  0.31547667  0.74995235  1
  C  C30  1  0.01248812  0.69739232  0.75125218  1
  C  C31  1  0.68083649  0.98558151  0.75175831  1
  C  C32  1  0.37298029  0.04336283  0.58094720  1
  C  C33  1  0.67113153  0.62705873  0.58135763  1
  C  C34  1  0.95416092  0.62663891  0.08219733  1
  C  C35  1  0.66990686  0.04298414  0.07904405  1
  C  C36  1  0.63036955  0.65597194  0.92142899  1
  C  C37  1  0.03208374  0.36978741  0.92171071  1
  C  C38  1  0.34456106  0.97442303  0.92024133  1
  C  C39  1  0.62903674  0.97271827  0.42120783  1
  C  C40  1  0.33731737  0.36998333  0.42133023  1
  C  C41  1  0.02314006  0.65588090  0.42103668  1
  C  C42  1  0.68268819  0.69669677  0.25135926  1
  C  C43  1  0.95555251  0.32990217  0.57890008  1
  C  C44  1  0.37843300  0.33076060  0.08023399  1
  C  C45  1  0.19404229  0.99269815  0.30038639  1
  C  C46  1  0.79815948  0.78823095  0.29906079  1
  C  C47  1  0.98515562  0.19771625  0.29875125  1
  C  C48  1  0.21229930  0.18451222  0.79601552  1
  C  C49  1  0.98523320  0.79621244  0.79825528  1
  C  C50  1  0.79862307  0.00731590  0.80045273  1
  C  C51  1  0.73763945  0.94823542  0.69203504  1
  C  C52  1  0.21938926  0.26372280  0.68933619  1
  C  C53  1  0.06052708  0.79541511  0.69210043  1
  C  C54  1  0.74412358  0.78645008  0.19452288  1
  C  C55  1  0.04281654  0.26696829  0.19017868  1
  C  C56  1  0.20708263  0.94387337  0.19248631  1
  C  C57  1  0.88057916  0.34821515  0.63243352  1
  C  C58  1  0.46802065  0.12109159  0.63719833  1
  C  C59  1  0.66103812  0.53533462  0.63771603  1
  C  C60  1  0.87236515  0.53562608  0.13862865  1
  C  C61  1  0.64556142  0.12526740  0.13208925  1
  C  C62  1  0.47306625  0.34991082  0.13334233  1
  C  C63  1  0.47081359  0.32023978  0.02730773  1
  C  C64  1  0.83747041  0.51205284  0.02807638  1
  C  C65  1  0.67508530  0.15553609  0.02337624  1
  C  C66  1  0.48735725  0.15912908  0.52705430  1
  C  C67  1  0.67492864  0.51338358  0.52738245  1
  C  C68  1  0.85242908  0.32148869  0.52650518  1
  C  C69  1  0.55877718  0.67005166  0.97918464  1
  C  C70  1  0.11123964  0.43606292  0.98044182  1
  C  C71  1  0.32730400  0.88832600  0.97818287  1
  C  C72  1  0.56499774  0.89084182  0.48015273  1
  C  C73  1  0.32409034  0.43729503  0.48017252  1
  C  C74  1  0.11138031  0.67376042  0.47854334  1
  C  C75  1  0.13095830  0.63541977  0.36899933  1
  C  C76  1  0.49731623  0.86092834  0.37145436  1
  C  C77  1  0.35947754  0.49922091  0.37134151  1
  C  C78  1  0.14077436  0.49828457  0.87162949  1
  C  C79  1  0.36440807  0.86663767  0.86873902  1
  C  C80  1  0.50454870  0.63621014  0.86951867  1
  C  C81  1  0.98947276  0.79642901  0.40923212  1
  C  C82  1  0.80226180  0.00375140  0.40954321  1
  C  C83  1  0.19782726  0.19518775  0.41099233  1
  C  C84  1  0.99749827  0.19501357  0.91095907  1
  C  C85  1  0.20273769  0.00794702  0.90987823  1
  C  C86  1  0.80441935  0.79858726  0.91109711  1
  C  C87  1  0.96377594  0.17219856  0.57930972  1
  C  C88  1  0.20524475  0.04271288  0.57683665  1
  C  C89  1  0.83387675  0.79762249  0.57671010  1
  C  C90  1  0.96205660  0.79766194  0.07706693  1
  C  C91  1  0.83792318  0.04309289  0.07772359  1
  C  C92  1  0.21226196  0.17308598  0.08086931  1
  C  C93  1  0.63561001  0.12462287  0.75035811  1
  C  C94  1  0.48959055  0.35396243  0.74925648  1
  C  C95  1  0.86121537  0.52176668  0.74840925  1
  C  C96  1  0.66253711  0.52795673  0.24882953  1
  C  C97  1  0.87558799  0.36984639  0.25164035  1
  C  C98  1  0.47831025  0.13407528  0.25183819  1
  C  C99  1  0.63361348  0.48428187  0.92202355  1
  C  C100  1  0.85717564  0.36955564  0.91954227  1
  C  C101  1  0.51634838  0.14880575  0.92013687  1
  C  C102  1  0.63057517  0.14684069  0.42059553  1
  C  C103  1  0.51113053  0.36717550  0.42052845  1
  C  C104  1  0.85100855  0.48336616  0.42206167  1
  C  C105  1  0.35169388  0.47692796  0.07642160  1
  C  C106  1  0.12980161  0.64521891  0.07837057  1
  C  C107  1  0.52032434  0.86351185  0.07565787  1
  C  C108  1  0.34686564  0.86519710  0.57679918  1
  C  C109  1  0.51385099  0.64515237  0.57742967  1
  C  C110  1  0.12765087  0.47676125  0.57561789  1
  C  C111  1  0.31710570  0.82079755  0.26565673  1
  C  C112  1  0.51360589  0.68137406  0.26202789  1
  C  C113  1  0.18100650  0.49609986  0.26573424  1
  C  C114  1  0.31897591  0.49074257  0.76606061  1
  C  C115  1  0.17487611  0.68405490  0.76730589  1
  C  C116  1  0.50481670  0.81672255  0.76427188  1
