# generated using pymatgen
data_Cu6Ni2C13
_symmetry_space_group_name_H-M   'P 1'
_cell_length_a   8.14928986
_cell_length_b   8.14928986
_cell_length_c   4.07543300
_cell_angle_alpha   90.00000000
_cell_angle_beta   90.00000000
_cell_angle_gamma   119.99999886
_symmetry_Int_Tables_number   1
_chemical_formula_structural   Cu6Ni2C13
_chemical_formula_sum   'Cu6 Ni2 C13'
_cell_volume   234.39261546
_cell_formula_units_Z   1
loop_
 _symmetry_equiv_pos_site_id
 _symmetry_equiv_pos_as_xyz
  1  'x, y, z'
loop_
 _atom_site_type_symbol
 _atom_site_label
 _atom_site_symmetry_multiplicity
 _atom_site_fract_x
 _atom_site_fract_y
 _atom_site_fract_z
 _atom_site_occupancy
  C  C0  1  0.00000000  0.00000000  0.00000000  1
  C  C1  1  0.09881600  0.42265900  0.09058800  1
  C  C2  1  0.57734100  0.67615800  0.09058800  1
  C  C3  1  0.32384200  0.90118400  0.09058800  1
  C  C4  1  0.67615800  0.57734100  0.90941200  1
  C  C5  1  0.90118400  0.32384200  0.90941200  1
  C  C6  1  0.42265900  0.09881600  0.90941200  1
  C  C7  1  0.11007400  0.77457600  0.51767100  1
  C  C8  1  0.22542400  0.33549900  0.51767100  1
  C  C9  1  0.66450100  0.88992600  0.51767100  1
  C  C10  1  0.77457600  0.11007400  0.48232900  1
  C  C11  1  0.88992600  0.66450100  0.48232900  1
  C  C12  1  0.33549900  0.22542400  0.48232900  1
  Ni  Ni13  1  0.33333300  0.66666700  0.41045000  1
  Ni  Ni14  1  0.66666700  0.33333300  0.58955000  1
  Cu  Cu15  1  0.69938800  0.69938800  0.00000000  1
  Cu  Cu16  1  0.00000000  0.30061200  0.00000000  1
  Cu  Cu17  1  0.30061200  0.00000000  0.00000000  1
  Cu  Cu18  1  0.20632400  0.20632400  0.50000000  1
  Cu  Cu19  1  0.00000000  0.79367600  0.50000000  1
  Cu  Cu20  1  0.79367600  0.00000000  0.50000000  1
