# generated using pymatgen
data_Cu3Ni4C67
_symmetry_space_group_name_H-M   'P 1'
_cell_length_a   17.09761041
_cell_length_b   8.50601548
_cell_length_c   21.92005584
_cell_angle_alpha   90.10680886
_cell_angle_beta   89.44510382
_cell_angle_gamma   119.77097086
_symmetry_Int_Tables_number   1
_chemical_formula_structural   Cu3Ni4C67
_chemical_formula_sum   'Cu9 Ni12 C201'
_cell_volume   2766.99691063
_cell_formula_units_Z   3
loop_
 _symmetry_equiv_pos_site_id
 _symmetry_equiv_pos_as_xyz
  1  'x, y, z'
loop_
 _atom_site_type_symbol
 _atom_site_label
 _atom_site_symmetry_multiplicity
 _atom_site_fract_x
 _atom_site_fract_y
 _atom_site_fract_z
 _atom_site_occupancy
  C  C0  1  0.00411826  0.64434904  0.25368050  1
  C  C1  1  0.50230809  0.36388024  0.74508644  1
  C  C2  1  0.16282883  0.30109926  0.91176514  1
  C  C3  1  0.66324957  0.30191699  0.91238410  1
  C  C4  1  0.16391268  0.02674046  0.41670591  1
  C  C5  1  0.66197646  0.02177805  0.41598845  1
  C  C6  1  0.99497969  0.99133874  0.50073613  1
  C  C7  1  0.49455863  0.00064462  0.50232706  1
  C  C8  1  0.99648770  0.00130829  0.99807117  1
  C  C9  1  0.49444521  0.99775519  0.99911458  1
  C  C10  1  0.33218462  0.33265696  0.83052816  1
  C  C11  1  0.83891084  0.33477234  0.82983104  1
  C  C12  1  0.33939251  0.34370261  0.33314539  1
  C  C13  1  0.83092539  0.32956228  0.33457722  1
  C  C14  1  0.17281782  0.67641426  0.16796254  1
  C  C15  1  0.66405782  0.67376807  0.16996542  1
  C  C16  1  0.16735021  0.65719233  0.66847562  1
  C  C17  1  0.66552106  0.65862234  0.66392293  1
  C  C18  1  0.00486522  0.00970089  0.65068182  1
  C  C19  1  0.50316692  0.01892557  0.64776298  1
  C  C20  1  0.00358425  0.99590516  0.15071554  1
  C  C21  1  0.50322962  0.99560335  0.15261071  1
  C  C22  1  0.83170423  0.33549038  0.68659175  1
  C  C23  1  0.33271194  0.32859655  0.18835642  1
  C  C24  1  0.16380032  0.65565595  0.01562530  1
  C  C25  1  0.66247178  0.65470842  0.01640252  1
  C  C26  1  0.16462588  0.67182697  0.51755648  1
  C  C27  1  0.65275969  0.65771285  0.52065066  1
  C  C28  1  0.65797778  0.66992204  0.31320941  1
  C  C29  1  0.15704292  0.64526628  0.81000354  1
  Ni  Ni30  1  0.00491119  0.99357902  0.35347274  1
  Ni  Ni31  1  0.50361307  0.98934004  0.35156477  1
  Ni  Ni32  1  0.00443782  0.02250680  0.84798595  1
  Ni  Ni33  1  0.50490801  0.01945548  0.84955344  1
  Ni  Ni34  1  0.32991545  0.33607488  0.68192139  1
  Ni  Ni35  1  0.82389329  0.31653838  0.18626478  1
  Ni  Ni36  1  0.33946383  0.33315819  0.98096695  1
  Ni  Ni37  1  0.84078655  0.33387066  0.98047774  1
  Ni  Ni38  1  0.35072584  0.35237380  0.48368175  1
  Ni  Ni39  1  0.83918005  0.34601345  0.48238658  1
  Ni  Ni40  1  0.16425130  0.67625099  0.31540320  1
  Ni  Ni41  1  0.66196200  0.65201049  0.81205133  1
  Cu  Cu42  1  0.14998970  0.00925513  0.24850763  1
  Cu  Cu43  1  0.64563502  0.99677737  0.24944497  1
  Cu  Cu44  1  0.14858979  0.29374440  0.74788120  1
  Cu  Cu45  1  0.65103607  0.29072340  0.74914176  1
  Cu  Cu46  1  0.47993805  0.33024069  0.58588869  1
  Cu  Cu47  1  0.02080666  0.38008584  0.91722040  1
  Cu  Cu48  1  0.51869375  0.37652271  0.91738722  1
  Cu  Cu49  1  0.01860952  0.65833143  0.41789142  1
  Cu  Cu50  1  0.51978580  0.66279321  0.41647606  1
  C  C51  1  0.35500312  0.70847647  0.24783155  1
  C  C52  1  0.85247077  0.71232815  0.24861942  1
  C  C53  1  0.00011990  0.28274281  0.24851377  1
  C  C54  1  0.50021133  0.28722758  0.24877657  1
  C  C55  1  0.99994500  0.71336701  0.74913258  1
  C  C56  1  0.50050845  0.72229269  0.74972607  1
  C  C57  1  0.35097244  0.98971183  0.75077770  1
  C  C58  1  0.85518189  0.00104443  0.74758692  1
  C  C59  1  0.97819661  0.33056840  0.58467406  1
  C  C60  1  0.18419899  0.03556920  0.58158843  1
  C  C61  1  0.69117736  0.04520319  0.58335889  1
  C  C62  1  0.33100161  0.63135629  0.58255043  1
  C  C63  1  0.83581357  0.63105116  0.58508891  1
  C  C64  1  0.47822446  0.62567985  0.08481783  1
  C  C65  1  0.97985300  0.62793397  0.08468360  1
  C  C66  1  0.33376364  0.03837655  0.08482605  1
  C  C67  1  0.83323098  0.03273650  0.08332086  1
  C  C68  1  0.18890296  0.33509098  0.08376761  1
  C  C69  1  0.68659499  0.33551837  0.08206174  1
  C  C70  1  0.31111542  0.67238096  0.91737418  1
  C  C71  1  0.81283249  0.67255928  0.91858752  1
  C  C72  1  0.16584086  0.94571385  0.91725218  1
  C  C73  1  0.66635726  0.94841546  0.91858733  1
  C  C74  1  0.31310422  0.95485859  0.41745255  1
  C  C75  1  0.81016069  0.94731944  0.41724844  1
  C  C76  1  0.16671738  0.38428189  0.41779978  1
  C  C77  1  0.66629786  0.38764979  0.41617460  1
  C  C78  1  0.10857616  0.04256031  0.31156059  1
  C  C79  1  0.60778655  0.04381820  0.31136345  1
  C  C80  1  0.40725375  0.78402961  0.30364786  1
  C  C81  1  0.90983148  0.78925641  0.30325633  1
  C  C82  1  0.47881307  0.17342079  0.30387061  1
  C  C83  1  0.98148887  0.17331876  0.30418787  1
  C  C84  1  0.11219446  0.17581130  0.81197410  1
  C  C85  1  0.61362413  0.18153366  0.81417171  1
  C  C86  1  0.48558635  0.79905550  0.80673937  1
  C  C87  1  0.97898057  0.78504689  0.80497383  1
  C  C88  1  0.40784072  0.02583372  0.80619500  1
  C  C89  1  0.90691100  0.03128004  0.80464279  1
  C  C90  1  0.39113602  0.95584978  0.69628379  1
  C  C91  1  0.89648303  0.96364833  0.69411567  1
  C  C92  1  0.08186910  0.19578393  0.69162492  1
  C  C93  1  0.57846259  0.19302827  0.69585958  1
  C  C94  1  0.01214509  0.82406946  0.69432506  1
  C  C95  1  0.50855140  0.82675194  0.69450522  1
  C  C96  1  0.39564951  0.82725908  0.19336897  1
  C  C97  1  0.89329745  0.82720142  0.19332665  1
  C  C98  1  0.00881595  0.19320455  0.19268348  1
  C  C99  1  0.51186264  0.19928985  0.19311309  1
  C  C100  1  0.07837741  0.95778751  0.19286238  1
  C  C101  1  0.58342644  0.96665318  0.19036855  1
  C  C102  1  0.43562703  0.36937671  0.64755221  1
  C  C103  1  0.93490556  0.36261237  0.63863557  1
  C  C104  1  0.24000942  0.11640705  0.63578940  1
  C  C105  1  0.75008208  0.13748383  0.63597668  1
  C  C106  1  0.30905719  0.51483560  0.63734618  1
  C  C107  1  0.82067725  0.51126638  0.63854864  1
  C  C108  1  0.43501551  0.50723846  0.13831979  1
  C  C109  1  0.93982744  0.51477027  0.14034900  1
  C  C110  1  0.31852093  0.12671619  0.13817638  1
  C  C111  1  0.81615105  0.11367932  0.13804621  1
  C  C112  1  0.24740734  0.36231349  0.13613202  1
  C  C113  1  0.74462812  0.36921372  0.13556566  1
  C  C114  1  0.22657716  0.30096601  0.02639745  1
  C  C115  1  0.72684712  0.30167181  0.02615351  1
  C  C116  1  0.42299116  0.54865249  0.02924923  1
  C  C117  1  0.92221747  0.54602634  0.03086704  1
  C  C118  1  0.35097524  0.14901799  0.02856738  1
  C  C119  1  0.85110697  0.14835687  0.02843440  1
  C  C120  1  0.22173719  0.14629177  0.52552047  1
  C  C121  1  0.72851965  0.15780012  0.52609704  1
  C  C122  1  0.34593273  0.55098133  0.52688304  1
  C  C123  1  0.85427858  0.55536421  0.52891537  1
  C  C124  1  0.41539593  0.28441073  0.52735096  1
  C  C125  1  0.92325264  0.29709509  0.52923377  1
  C  C126  1  0.27151171  0.70382268  0.97401984  1
  C  C127  1  0.77171109  0.70425090  0.97383942  1
  C  C128  1  0.08551608  0.46268337  0.97696204  1
  C  C129  1  0.58680696  0.46647770  0.97459247  1
  C  C130  1  0.15747768  0.84162158  0.97395548  1
  C  C131  1  0.65780165  0.84196233  0.97420782  1
  C  C132  1  0.27177624  0.84035545  0.47208711  1
  C  C133  1  0.77138396  0.83798240  0.47287201  1
  C  C134  1  0.15630004  0.47309723  0.47280547  1
  C  C135  1  0.65872298  0.47593646  0.47214474  1
  C  C136  1  0.08815582  0.70364994  0.47355220  1
  C  C137  1  0.58738698  0.71321405  0.47417048  1
  C  C138  1  0.05766670  0.62491543  0.35358751  1
  C  C139  1  0.56528539  0.63001360  0.35695344  1
  C  C140  1  0.25794305  0.87572525  0.36164542  1
  C  C141  1  0.75553351  0.86680736  0.36205661  1
  C  C142  1  0.18402078  0.49230211  0.36123643  1
  C  C143  1  0.68364994  0.49690470  0.36038478  1
  C  C144  1  0.06829467  0.50472333  0.85855645  1
  C  C145  1  0.56011406  0.49328453  0.85507442  1
  C  C146  1  0.18339505  0.87013083  0.86215132  1
  C  C147  1  0.68548101  0.87697296  0.86260575  1
  C  C148  1  0.25499668  0.64223911  0.86338462  1
  C  C149  1  0.75722675  0.63782897  0.86352378  1
  C  C150  1  0.01094734  0.84431698  0.41384860  1
  C  C151  1  0.51002606  0.84692966  0.41324227  1
  C  C152  1  0.40375721  0.98081737  0.40995087  1
  C  C153  1  0.90318660  0.97853917  0.40963517  1
  C  C154  1  0.08131147  0.20595042  0.41434323  1
  C  C155  1  0.58262372  0.20876225  0.41271362  1
  C  C156  1  0.01023927  0.17622638  0.91255336  1
  C  C157  1  0.51022351  0.17507801  0.91321785  1
  C  C158  1  0.08246360  0.95751010  0.91448143  1
  C  C159  1  0.58268822  0.95849748  0.91567121  1
  C  C160  1  0.40265557  0.82543321  0.91127736  1
  C  C161  1  0.90381128  0.82679291  0.91153295  1
  C  C162  1  0.48818125  0.14865657  0.59169925  1
  C  C163  1  0.98585413  0.16491603  0.59155085  1
  C  C164  1  0.09174943  0.01075601  0.58964780  1
  C  C165  1  0.59984192  0.01804311  0.59152001  1
  C  C166  1  0.41314955  0.80618231  0.59175835  1
  C  C167  1  0.91756082  0.81158038  0.59375330  1
  C  C168  1  0.48607823  0.80717557  0.09151997  1
  C  C169  1  0.98695523  0.80918858  0.09078874  1
  C  C170  1  0.41453315  0.01812011  0.09283087  1
  C  C171  1  0.91496964  0.01527182  0.09127241  1
  C  C172  1  0.09697931  0.17485746  0.09131628  1
  C  C173  1  0.59550875  0.17504029  0.08951680  1
  C  C174  1  0.34540594  0.15688019  0.74500599  1
  C  C175  1  0.85022121  0.16824317  0.73828284  1
  C  C176  1  0.24817517  0.31185425  0.74095811  1
  C  C177  1  0.74982832  0.31286237  0.74028404  1
  C  C178  1  0.42287450  0.53569171  0.74739202  1
  C  C179  1  0.92295415  0.52718392  0.74051692  1
  C  C180  1  0.35007554  0.53144595  0.23791299  1
  C  C181  1  0.85042058  0.53528517  0.24049447  1
  C  C182  1  0.42249882  0.31809663  0.23955284  1
  C  C183  1  0.92357246  0.31902520  0.24213214  1
  C  C184  1  0.24803847  0.18478643  0.23936152  1
  C  C185  1  0.74595181  0.17963459  0.24453233  1
  C  C186  1  0.31355428  0.49909823  0.92467804  1
  C  C187  1  0.81548271  0.50024340  0.92623128  1
  C  C188  1  0.41964302  0.35664924  0.92296829  1
  C  C189  1  0.92090394  0.35843603  0.92225254  1
  C  C190  1  0.24361604  0.13562418  0.92355770  1
  C  C191  1  0.74361886  0.13800529  0.92485398  1
  C  C192  1  0.31485438  0.13040776  0.42308387  1
  C  C193  1  0.81430449  0.12730277  0.42338486  1
  C  C194  1  0.24237011  0.34837626  0.42380900  1
  C  C195  1  0.74379949  0.35186453  0.42165487  1
  C  C196  1  0.41890187  0.48891919  0.42011412  1
  C  C197  1  0.91951445  0.48099959  0.42321751  1
  C  C198  1  0.18200195  0.50269233  0.07802223  1
  C  C199  1  0.67983597  0.50254651  0.07595857  1
  C  C200  1  0.07117056  0.64971118  0.07679064  1
  C  C201  1  0.56958566  0.64609424  0.07748228  1
  C  C202  1  0.25162606  0.85753099  0.07746466  1
  C  C203  1  0.75186612  0.85278810  0.07538651  1
  C  C204  1  0.17697929  0.85380909  0.57562855  1
  C  C205  1  0.68834506  0.86968093  0.57681556  1
  C  C206  1  0.25013696  0.65413183  0.57413456  1
  C  C207  1  0.75607429  0.65027864  0.57762798  1
  C  C208  1  0.06917114  0.49245580  0.57768215  1
  C  C209  1  0.57922380  0.51099498  0.57777301  1
  C  C210  1  0.15724254  0.82292377  0.25324040  1
  C  C211  1  0.65879409  0.82110996  0.25609650  1
  C  C212  1  0.26309615  0.68171270  0.25426822  1
  C  C213  1  0.76210984  0.68402161  0.25701707  1
  C  C214  1  0.08419885  0.46025540  0.25146294  1
  C  C215  1  0.58435001  0.46205979  0.25447579  1
  C  C216  1  0.15846971  0.49321205  0.75568399  1
  C  C217  1  0.65749723  0.49138432  0.75294063  1
  C  C218  1  0.08449782  0.70645700  0.75558564  1
  C  C219  1  0.58507603  0.71111779  0.75263569  1
  C  C220  1  0.26011735  0.83310106  0.76001099  1
  C  C221  1  0.76356651  0.84417930  0.75492619  1
