# generated using pymatgen
data_Cu4NiC10
_symmetry_space_group_name_H-M   'P 1'
_cell_length_a   6.02644351
_cell_length_b   6.02644305
_cell_length_c   6.29425246
_cell_angle_alpha   61.53211873
_cell_angle_beta   61.53212250
_cell_angle_gamma   59.10528731
_symmetry_Int_Tables_number   1
_chemical_formula_structural   Cu4NiC10
_chemical_formula_sum   'Cu4 Ni1 C10'
_cell_volume   164.08960293
_cell_formula_units_Z   1
loop_
 _symmetry_equiv_pos_site_id
 _symmetry_equiv_pos_as_xyz
  1  'x, y, z'
loop_
 _atom_site_type_symbol
 _atom_site_label
 _atom_site_symmetry_multiplicity
 _atom_site_fract_x
 _atom_site_fract_y
 _atom_site_fract_z
 _atom_site_occupancy
  Ni  Ni0  1  0.12500000  0.12500000  0.62500000  1
  C  C1  1  0.62500000  0.62500000  0.12500000  1
  C  C2  1  0.62500000  0.62500000  0.62500000  1
  Cu  Cu3  1  0.96069400  0.96069400  0.09239100  1
  Cu  Cu4  1  0.28930600  0.28930600  0.15760900  1
  Cu  Cu5  1  0.12500000  0.62500000  0.62500000  1
  Cu  Cu6  1  0.62500000  0.12500000  0.62500000  1
  C  C7  1  0.38750100  0.38750100  0.35907300  1
  C  C8  1  0.38826900  0.87457100  0.37764800  1
  C  C9  1  0.39900900  0.39900900  0.80420100  1
  C  C10  1  0.37542900  0.86173200  0.87235200  1
  C  C11  1  0.87457100  0.38826800  0.37764800  1
  C  C12  1  0.85099100  0.85099100  0.44579900  1
  C  C13  1  0.86173100  0.37542900  0.87235200  1
  C  C14  1  0.86249900  0.86249900  0.89092700  1
