# generated using pymatgen
data_Cu3Ni9C70
_symmetry_space_group_name_H-M   'P 1'
_cell_length_a   18.26182830
_cell_length_b   9.12691730
_cell_length_c   22.26926446
_cell_angle_alpha   90.04352293
_cell_angle_beta   89.81918438
_cell_angle_gamma   120.03365341
_symmetry_Int_Tables_number   1
_chemical_formula_structural   Cu3Ni9C70
_chemical_formula_sum   'Cu9 Ni27 C210'
_cell_volume   3213.32862212
_cell_formula_units_Z   3
loop_
 _symmetry_equiv_pos_site_id
 _symmetry_equiv_pos_as_xyz
  1  'x, y, z'
loop_
 _atom_site_type_symbol
 _atom_site_label
 _atom_site_symmetry_multiplicity
 _atom_site_fract_x
 _atom_site_fract_y
 _atom_site_fract_z
 _atom_site_occupancy
  C  C0  1  0.82187317  0.01309443  0.25646979  1
  C  C1  1  0.17544487  0.35376237  0.25528525  1
  C  C2  1  0.69174105  0.37131473  0.25373677  1
  C  C3  1  0.99755774  0.62757302  0.24784251  1
  C  C4  1  0.49761553  0.63524395  0.24963425  1
  C  C5  1  0.32033012  0.62845430  0.75303723  1
  C  C6  1  0.99522458  0.35583350  0.74199894  1
  C  C7  1  0.49861598  0.36896404  0.74477389  1
  C  C8  1  0.19015166  0.01182054  0.74957979  1
  C  C9  1  0.68207771  0.00439829  0.75014148  1
  C  C10  1  0.14735862  0.32182910  0.58145376  1
  C  C11  1  0.65181230  0.32523683  0.58075348  1
  C  C12  1  0.33703013  0.98773146  0.58814249  1
  C  C13  1  0.83423794  0.97321444  0.58222611  1
  C  C14  1  0.14718770  0.97561940  0.08063863  1
  C  C15  1  0.65090773  0.97347766  0.07789400  1
  C  C16  1  0.33404202  0.69121598  0.08127254  1
  C  C17  1  0.83725783  0.68796727  0.08830370  1
  C  C18  1  0.47892447  0.67385788  0.91467663  1
  C  C19  1  0.97782463  0.67376913  0.92307696  1
  C  C20  1  0.34714058  0.02915661  0.90697812  1
  C  C21  1  0.84714023  0.02761980  0.90867636  1
  C  C22  1  0.17361888  0.29788345  0.91020109  1
  C  C23  1  0.66804524  0.28605047  0.91139897  1
  C  C24  1  0.48174652  0.28923513  0.42707182  1
  C  C25  1  0.97712315  0.28099732  0.41942154  1
  C  C26  1  0.16701875  0.05047005  0.41529817  1
  C  C27  1  0.67504363  0.05099211  0.41647314  1
  C  C28  1  0.34846850  0.66819190  0.41349744  1
  C  C29  1  0.84746970  0.66356929  0.41836671  1
  C  C30  1  0.99791706  0.99080457  0.50255559  1
  C  C31  1  0.50670082  0.01099918  0.50586376  1
  C  C32  1  0.00409517  -0.00033116  0.00436714  1
  C  C33  1  0.50386816  0.00391720  0.99856131  1
  C  C34  1  0.32963142  0.33663204  0.82686560  1
  C  C35  1  0.82334624  0.33335019  0.82656900  1
  C  C36  1  0.32390549  0.31015046  0.33342201  1
  C  C37  1  0.82923688  0.32411594  0.33205300  1
  C  C38  1  0.15619301  0.65256747  0.16743338  1
  C  C39  1  0.66352246  0.65413267  0.16619125  1
  C  C40  1  0.16230251  0.67088270  0.66543700  1
  C  C41  1  0.65997295  0.66118548  0.66455773  1
  C  C42  1  0.99701970  0.01083745  0.64499491  1
  C  C43  1  0.51058961  0.01717705  0.65584825  1
  C  C44  1  0.00958063  0.00463416  0.15576699  1
  C  C45  1  0.50343092  0.98587281  0.14876888  1
  C  C46  1  0.82624662  0.32022721  0.67814789  1
  C  C47  1  0.32795703  0.34923595  0.18358477  1
  C  C48  1  0.16696748  0.67187868  0.01957039  1
  C  C49  1  0.66614720  0.66473437  0.01918329  1
  C  C50  1  0.16481441  0.66593278  0.51971600  1
  C  C51  1  0.67584757  0.66059939  0.52515817  1
  C  C52  1  0.17743480  0.67233472  0.30730350  1
  C  C53  1  0.67852112  0.68524064  0.80549239  1
  C  C54  1  0.00215987  0.01136721  0.35088656  1
  C  C55  1  0.50027881  0.00445582  0.35197641  1
  C  C56  1  0.99966512  0.99598395  0.85000055  1
  C  C57  1  0.50224297  0.99265896  0.84959464  1
  C  C58  1  0.33522572  0.32469561  0.68133140  1
  C  C59  1  0.83578494  0.34637616  0.18183383  1
  C  C60  1  0.32800426  0.33604091  0.98649392  1
  C  C61  1  0.82408806  0.33813029  0.98469159  1
  C  C62  1  0.32578931  0.31263125  0.48462763  1
  C  C63  1  0.82841283  0.32894140  0.48884622  1
  C  C64  1  0.67589986  0.67962138  0.31498370  1
  C  C65  1  0.17431125  0.67144212  0.81215141  1
  Ni  Ni66  1  0.15409991  0.00306305  0.25163917  1
  Ni  Ni67  1  0.64716847  0.99609175  0.25123318  1
  Ni  Ni68  1  0.35547287  0.71001569  0.24938229  1
  Ni  Ni69  1  0.85588153  0.71145145  0.25010155  1
  Ni  Ni70  1  0.00082211  0.29729773  0.25201605  1
  Ni  Ni71  1  0.14467942  0.29269208  0.74974219  1
  Ni  Ni72  1  0.65408132  0.30548680  0.75307613  1
  Ni  Ni73  1  0.50114725  0.70500885  0.75229594  1
  Ni  Ni74  1  0.35547237  0.00044115  0.75018884  1
  Ni  Ni75  1  0.85608378  0.01083733  0.75031800  1
  Ni  Ni76  1  0.48581829  0.33264013  0.58198783  1
  Ni  Ni77  1  0.98277917  0.34220333  0.58413186  1
  Ni  Ni78  1  0.17704788  0.02300874  0.58349369  1
  Ni  Ni79  1  0.67795329  0.02324996  0.58246588  1
  Ni  Ni80  1  0.83985918  0.63155652  0.58225353  1
  Ni  Ni81  1  0.48337850  0.62581701  0.08467908  1
  Ni  Ni82  1  0.98615212  0.63861241  0.08183585  1
  Ni  Ni83  1  0.17847867  0.33375996  0.08313959  1
  Ni  Ni84  1  0.67569056  0.33011613  0.08404702  1
  Ni  Ni85  1  0.31463727  0.66811918  0.91881557  1
  Ni  Ni86  1  0.80831641  0.66707148  0.91494356  1
  Ni  Ni87  1  0.16773661  0.95988178  0.91611449  1
  Ni  Ni88  1  0.66850925  0.95380847  0.91674772  1
  Ni  Ni89  1  0.30831522  0.94968650  0.41550312  1
  Ni  Ni90  1  0.81481376  0.96413656  0.41947037  1
  Ni  Ni91  1  0.16843012  0.38296109  0.41661783  1
  Ni  Ni92  1  0.66716511  0.37412271  0.41555670  1
  Cu  Cu93  1  0.49401968  0.28891915  0.24734967  1
  Cu  Cu94  1  0.99516858  0.69853704  0.74860005  1
  Cu  Cu95  1  0.33335805  0.63621129  0.58104022  1
  Cu  Cu96  1  0.33534806  0.04185829  0.08368064  1
  Cu  Cu97  1  0.83389116  0.03115849  0.08107374  1
  Cu  Cu98  1  0.02168313  0.37925496  0.91949291  1
  Cu  Cu99  1  0.52487085  0.38408163  0.91721204  1
  Cu  Cu100  1  0.02698043  0.66592748  0.41509487  1
  Cu  Cu101  1  0.52084487  0.66323657  0.41865780  1
  C  C102  1  0.12276169  0.05959079  0.31156107  1
  C  C103  1  0.61058525  0.03898712  0.31136476  1
  C  C104  1  0.41249995  0.77455235  0.30952098  1
  C  C105  1  0.90979079  0.78831639  0.31176934  1
  C  C106  1  0.48192511  0.20270194  0.30658733  1
  C  C107  1  0.98082277  0.19556158  0.31525455  1
  C  C108  1  0.11199400  0.18506068  0.81302782  1
  C  C109  1  0.61951554  0.18935923  0.81384884  1
  C  C110  1  0.47996129  0.76305750  0.81636168  1
  C  C111  1  0.98421579  0.76060721  0.80916034  1
  C  C112  1  0.40718292  0.02727427  0.81307821  1
  C  C113  1  0.91059113  0.05118965  0.81235609  1
  C  C114  1  0.40961551  0.98537060  0.69308054  1
  C  C115  1  0.90484356  0.98690316  0.69324974  1
  C  C116  1  0.08125954  0.18142829  0.69453758  1
  C  C117  1  0.58841714  0.20829790  0.69604373  1
  C  C118  1  0.00524048  0.81471400  0.70042019  1
  C  C119  1  0.51884133  0.85045187  0.70089442  1
  C  C120  1  0.40300364  0.82783976  0.19087443  1
  C  C121  1  0.90924069  0.83325110  0.19183951  1
  C  C122  1  0.01888031  0.18845288  0.19967028  1
  C  C123  1  0.50328609  0.19135407  0.19809936  1
  C  C124  1  0.08894963  0.97020918  0.19438729  1
  C  C125  1  0.58292250  0.97713037  0.19374967  1
  C  C126  1  0.44757543  0.37034032  0.64150532  1
  C  C127  1  0.93178293  0.35910110  0.64221943  1
  C  C128  1  0.24288516  0.09832227  0.63967025  1
  C  C129  1  0.74648690  0.12792469  0.63838770  1
  C  C130  1  0.31814044  0.52837570  0.63425826  1
  C  C131  1  0.82031874  0.48693942  0.63392775  1
  C  C132  1  0.43030360  0.50336601  0.14198564  1
  C  C133  1  0.94886669  0.52486698  0.14151455  1
  C  C134  1  0.32388378  0.13434251  0.13341189  1
  C  C135  1  0.81803641  0.10781815  0.13441408  1
  C  C136  1  0.24854058  0.36664564  0.13858934  1
  C  C137  1  0.74065330  0.38135050  0.14032464  1
  C  C138  1  0.21170021  0.27636774  0.02446594  1
  C  C139  1  0.70707313  0.26651995  0.02501141  1
  C  C140  1  0.42626094  0.55566027  0.02468215  1
  C  C141  1  0.92500629  0.55730403  0.02232058  1
  C  C142  1  0.34895747  0.13278824  0.02571797  1
  C  C143  1  0.84441301  0.13098166  0.02611430  1
  C  C144  1  0.20989412  0.14792511  0.52405130  1
  C  C145  1  0.70950473  0.14277688  0.52274007  1
  C  C146  1  0.34398109  0.55822319  0.52584070  1
  C  C147  1  0.85801959  0.57068222  0.51849547  1
  C  C148  1  0.42382170  0.28755720  0.52262014  1
  C  C149  1  0.92667563  0.29637082  0.52379374  1
  C  C150  1  0.25793063  0.67798018  0.97665478  1
  C  C151  1  0.75817737  0.68040106  0.97540019  1
  C  C152  1  0.07666628  0.47492565  0.97102839  1
  C  C153  1  0.57634512  0.47432724  0.97113559  1
  C  C154  1  0.15986213  0.83592680  0.97404041  1
  C  C155  1  0.65806980  0.83488897  0.97664174  1
  C  C156  1  0.25827302  0.83606116  0.47512127  1
  C  C157  1  0.75872357  0.83682161  0.47577167  1
  C  C158  1  0.15841343  0.48176012  0.47578741  1
  C  C159  1  0.66075291  0.48149130  0.47332171  1
  C  C160  1  0.07700155  0.67891978  0.46933872  1
  C  C161  1  0.57515762  0.67762204  0.46876427  1
  C  C162  1  0.06773428  0.65279224  0.35951935  1
  C  C163  1  0.55347149  0.63956076  0.35949685  1
  C  C164  1  0.24929703  0.84793376  0.35692432  1
  C  C165  1  0.75993250  0.90083121  0.35686337  1
  C  C166  1  0.17585889  0.49626793  0.35622070  1
  C  C167  1  0.67320034  0.46990994  0.35190979  1
  C  C168  1  0.05560018  0.47225823  0.86212102  1
  C  C169  1  0.56223651  0.47869045  0.86165033  1
  C  C170  1  0.17669059  0.87766998  0.85364088  1
  C  C171  1  0.67619995  0.85560964  0.85712156  1
  C  C172  1  0.25797234  0.62334173  0.85793847  1
  C  C173  1  0.74839305  0.64885751  0.85758820  1
  C  C174  1  0.02165057  0.82484367  0.41572320  1
  C  C175  1  0.51372060  0.81970417  0.41815418  1
  C  C176  1  0.40113845  0.96246264  0.41499728  1
  C  C177  1  0.90458430  0.96228631  0.42099356  1
  C  C178  1  0.08524195  0.19289192  0.41847840  1
  C  C179  1  0.57930624  0.18690604  0.41931402  1
  C  C180  1  0.01700730  0.21253254  0.91997902  1
  C  C181  1  0.51998792  0.21554196  0.91806552  1
  C  C182  1  0.08123259  0.97429993  0.91960157  1
  C  C183  1  0.58507382  0.97657758  0.91888039  1
  C  C184  1  0.40419163  0.84857918  0.92195871  1
  C  C185  1  0.90154775  0.83992522  0.91530623  1
  C  C186  1  0.49489154  0.16099020  0.58982634  1
  C  C187  1  0.99373088  0.17115143  0.59247423  1
  C  C188  1  0.08490139  0.00644561  0.59598545  1
  C  C189  1  0.58656674  0.00952976  0.59603184  1
  C  C190  1  0.40682920  0.80892166  0.58690014  1
  C  C191  1  0.91472190  0.82465055  0.59502515  1
  C  C192  1  0.49147962  0.81803478  0.09256710  1
  C  C193  1  0.99539653  0.82842499  0.08852285  1
  C  C194  1  0.40677260  0.00969810  0.09109865  1
  C  C195  1  0.90714357  0.00554792  0.08685117  1
  C  C196  1  0.08714596  0.16571622  0.09553109  1
  C  C197  1  0.58115136  0.16272512  0.09621837  1
  C  C198  1  0.34294761  0.16521635  0.74918220  1
  C  C199  1  0.84200004  0.17436575  0.74195328  1
  C  C200  1  0.24067177  0.32666259  0.74117148  1
  C  C201  1  0.74501713  0.31690269  0.73942246  1
  C  C202  1  0.41786842  0.52166252  0.74197792  1
  C  C203  1  0.92186673  0.52533965  0.74251436  1
  C  C204  1  0.34236900  0.51490180  0.24055690  1
  C  C205  1  0.84269000  0.52105676  0.24819814  1
  C  C206  1  0.42012114  0.31427739  0.24028510  1
  C  C207  1  0.91748783  0.31339668  0.24169738  1
  C  C208  1  0.24668655  0.17156884  0.23499660  1
  C  C209  1  0.74154061  0.15441700  0.24102878  1
  C  C210  1  0.32944710  0.50534601  0.92138248  1
  C  C211  1  0.81773854  0.49728578  0.91493607  1
  C  C212  1  0.43836495  0.35936147  0.92303363  1
  C  C213  1  0.93541024  0.35581167  0.92572623  1
  C  C214  1  0.25575386  0.14272657  0.92115659  1
  C  C215  1  0.75737899  0.13783612  0.91881928  1
  C  C216  1  0.31716708  0.13752593  0.41434668  1
  C  C217  1  0.82936731  0.15588070  0.42351072  1
  C  C218  1  0.25732274  0.37716995  0.41775445  1
  C  C219  1  0.75312714  0.36071821  0.41778756  1
  C  C220  1  0.43358991  0.51303456  0.42311637  1
  C  C221  1  0.94167708  0.51546528  0.41783481  1
  C  C222  1  0.17970634  0.51420101  0.07883107  1
  C  C223  1  0.67168709  0.50441599  0.07260316  1
  C  C224  1  0.08373122  0.66935813  0.07359871  1
  C  C225  1  0.58054244  0.66168865  0.08039931  1
  C  C226  1  0.25490767  0.87110677  0.08115574  1
  C  C227  1  0.75502932  0.85744735  0.07718826  1
  C  C228  1  0.17221431  0.83958504  0.57179106  1
  C  C229  1  0.67800182  0.84461731  0.57847156  1
  C  C230  1  0.25450147  0.65167070  0.57740978  1
  C  C231  1  0.75056219  0.64153159  0.57981422  1
  C  C232  1  0.08031883  0.50311750  0.57885620  1
  C  C233  1  0.58206823  0.49533777  0.57328478  1
  C  C234  1  0.15437747  0.82459298  0.25600627  1
  C  C235  1  0.64279704  0.81246795  0.24969010  1
  C  C236  1  0.25935345  0.68105746  0.25259396  1
  C  C237  1  0.76308479  0.70042031  0.24544360  1
  C  C238  1  0.08745195  0.48556988  0.25426605  1
  C  C239  1  0.57255441  0.45867797  0.24770280  1
  C  C240  1  0.14189770  0.47055204  0.74918836  1
  C  C241  1  0.65403273  0.48522227  0.75717771  1
  C  C242  1  0.07428344  0.68621487  0.74936849  1
  C  C243  1  0.58803745  0.69056914  0.75491761  1
  C  C244  1  0.26251947  0.82605525  0.74461597  1
  C  C245  1  0.76029345  0.84018643  0.75346734  1
