# generated using pymatgen
data_Cu12NiC24
_symmetry_space_group_name_H-M   'P 1'
_cell_length_a   9.73124401
_cell_length_b   14.46227711
_cell_length_c   3.09111857
_cell_angle_alpha   89.94623962
_cell_angle_beta   90.04369794
_cell_angle_gamma   89.02593240
_symmetry_Int_Tables_number   1
_chemical_formula_structural   Cu12NiC24
_chemical_formula_sum   'Cu12 Ni1 C24'
_cell_volume   434.96831251
_cell_formula_units_Z   1
loop_
 _symmetry_equiv_pos_site_id
 _symmetry_equiv_pos_as_xyz
  1  'x, y, z'
loop_
 _atom_site_type_symbol
 _atom_site_label
 _atom_site_symmetry_multiplicity
 _atom_site_fract_x
 _atom_site_fract_y
 _atom_site_fract_z
 _atom_site_occupancy
  Ni  Ni0  1  0.48253700  0.49944800  0.01694800  1
  Cu  Cu1  1  0.00715400  0.00739200  0.99972800  1
  Cu  Cu2  1  0.01156700  0.31684800  0.00609300  1
  Cu  Cu3  1  0.01533100  0.67860000  0.00717400  1
  Cu  Cu4  1  0.23034100  0.15724800  0.50174500  1
  Cu  Cu5  1  0.21869200  0.47715900  0.51165500  1
  Cu  Cu6  1  0.25388300  0.86650800  0.49900900  1
  Cu  Cu7  1  0.50183800  0.32090900  0.99479300  1
  Cu  Cu8  1  0.51459900  0.99607400  0.99774900  1
  Cu  Cu9  1  0.52638500  0.68596100  0.00362500  1
  Cu  Cu10  1  0.74666800  0.14292600  0.49484500  1
  Cu  Cu11  1  0.74960400  0.49468800  0.50922700  1
  Cu  Cu12  1  0.74112200  0.84032200  0.50129200  1
  C  C13  1  0.09511000  0.26202500  0.50579500  1
  C  C14  1  0.08886600  0.93418000  0.50044000  1
  C  C15  1  0.16056500  0.09765000  0.00166200  1
  C  C16  1  0.13466800  0.42627400  0.01102800  1
  C  C17  1  0.35585300  0.90733400  0.99895800  1
  C  C18  1  0.40696300  0.42035800  0.51369500  1
  C  C19  1  0.60369300  0.93503800  0.49827500  1
  C  C20  1  0.57213500  0.59246800  0.50699700  1
  C  C21  1  0.64584600  0.10063800  0.99526200  1
  C  C22  1  0.66413200  0.43742900  0.00872300  1
  C  C23  1  0.66730700  0.76811500  0.00196400  1
  C  C24  1  0.90413800  0.06420100  0.49893400  1
  C  C25  1  0.09070500  0.59372200  0.50871300  1
  C  C26  1  0.17252900  0.77054600  0.00219300  1
  C  C27  1  0.34266700  0.23051300  0.99796200  1
  C  C28  1  0.31304400  0.56991900  0.01087300  1
  C  C29  1  0.40701700  0.07074400  0.49812600  1
  C  C30  1  0.41300800  0.73674200  0.50272700  1
  C  C31  1  0.61195100  0.26251200  0.49314000  1
  C  C32  1  0.84479300  0.23340600  0.00279200  1
  C  C33  1  0.84813200  0.89597600  0.00067400  1
  C  C34  1  0.84484200  0.56835300  0.00834900  1
  C  C35  1  0.90087400  0.39682600  0.50860000  1
  C  C36  1  0.90430000  0.74094600  0.50523600  1
