# generated using pymatgen
data_CuNiC6
_symmetry_space_group_name_H-M   'P 1'
_cell_length_a   4.09280599
_cell_length_b   4.09274868
_cell_length_c   9.25528132
_cell_angle_alpha   102.71674024
_cell_angle_beta   102.77404340
_cell_angle_gamma   89.99999473
_symmetry_Int_Tables_number   1
_chemical_formula_structural   CuNiC6
_chemical_formula_sum   'Cu1 Ni1 C6'
_cell_volume   147.29450105
_cell_formula_units_Z   1
loop_
 _symmetry_equiv_pos_site_id
 _symmetry_equiv_pos_as_xyz
  1  'x, y, z'
loop_
 _atom_site_type_symbol
 _atom_site_label
 _atom_site_symmetry_multiplicity
 _atom_site_fract_x
 _atom_site_fract_y
 _atom_site_fract_z
 _atom_site_occupancy
  C  C0  1  0.68500000  0.68532400  0.37000000  1
  C  C1  1  0.31500000  0.31467600  0.63000000  1
  Ni  Ni2  1  0.50000000  0.50000000  0.00000000  1
  Cu  Cu3  1  0.00000000  0.00000000  0.00000000  1
  C  C4  1  0.25000000  0.74989800  0.50000000  1
  C  C5  1  0.75000000  0.25010200  0.50000000  1
  C  C6  1  0.00000000  0.50000000  0.00000000  1
  C  C7  1  0.50000000  0.00000000  0.00000000  1
