# generated using pymatgen
data_CuNi2
_symmetry_space_group_name_H-M   'P 1'
_cell_length_a   4.55519147
_cell_length_b   4.55519147
_cell_length_c   5.83925583
_cell_angle_alpha   106.39004035
_cell_angle_beta   111.85499233
_cell_angle_gamma   99.27005377
_symmetry_Int_Tables_number   1
_chemical_formula_structural   CuNi2
_chemical_formula_sum   'Cu2 Ni4'
_cell_volume   102.95376055
_cell_formula_units_Z   2
loop_
 _symmetry_equiv_pos_site_id
 _symmetry_equiv_pos_as_xyz
  1  'x, y, z'
loop_
 _atom_site_type_symbol
 _atom_site_label
 _atom_site_symmetry_multiplicity
 _atom_site_fract_x
 _atom_site_fract_y
 _atom_site_fract_z
 _atom_site_occupancy
  Ni  Ni0  1  0.97645600  0.93823600  0.66628600  1
  Ni  Ni1  1  0.77195000  0.31017000  0.83371400  1
  Ni  Ni2  1  0.22805000  0.68983000  0.16628600  1
  Ni  Ni3  1  0.02354400  0.06176400  0.33371400  1
  Cu  Cu4  1  0.50000000  0.50000000  0.50000000  1
  Cu  Cu5  1  0.50000000  0.00000000  0.00000000  1
