# generated using pymatgen
data_Cu8NiC16
_symmetry_space_group_name_H-M   'P 1'
_cell_length_a   5.15373603
_cell_length_b   5.15303658
_cell_length_c   12.08770187
_cell_angle_alpha   93.48432031
_cell_angle_beta   93.03870090
_cell_angle_gamma   75.94780068
_symmetry_Int_Tables_number   1
_chemical_formula_structural   Cu8NiC16
_chemical_formula_sum   'Cu8 Ni1 C16'
_cell_volume   310.59300762
_cell_formula_units_Z   1
loop_
 _symmetry_equiv_pos_site_id
 _symmetry_equiv_pos_as_xyz
  1  'x, y, z'
loop_
 _atom_site_type_symbol
 _atom_site_label
 _atom_site_symmetry_multiplicity
 _atom_site_fract_x
 _atom_site_fract_y
 _atom_site_fract_z
 _atom_site_occupancy
  Ni  Ni0  1  0.24284700  0.23435100  0.36589200  1
  Cu  Cu1  1  0.08189500  0.06020800  0.00769000  1
  Cu  Cu2  1  0.93991600  0.94379900  0.23764700  1
  Cu  Cu3  1  0.00375500  0.00287000  0.50810900  1
  Cu  Cu4  1  0.04824800  0.03280800  0.74892700  1
  Cu  Cu5  1  0.50288900  0.49482200  0.11975400  1
  Cu  Cu6  1  0.42590500  0.42318600  0.64296100  1
  Cu  Cu7  1  0.42867300  0.47349300  0.88221200  1
  Cu  Cu8  1  0.58648900  0.58429900  0.35385500  1
  C  C9  1  0.20730300  0.81517600  0.12548500  1
  C  C10  1  0.19584300  0.78287900  0.62559400  1
  C  C11  1  0.16768900  0.81369800  0.87646800  1
  C  C12  1  0.23064300  0.84079200  0.37291500  1
  C  C13  1  0.29941000  0.31144000  0.99824600  1
  C  C14  1  0.39145600  0.37920400  0.25037900  1
  C  C15  1  0.27262600  0.26539600  0.52644300  1
  C  C16  1  0.26881400  0.28571700  0.76572000  1
  C  C17  1  0.61559900  0.62020700  0.99414300  1
  C  C18  1  0.71512700  0.71019000  0.23125400  1
  C  C19  1  0.58532700  0.58657500  0.76157700  1
  C  C20  1  0.81979400  0.19899200  0.12051600  1
  C  C21  1  0.84639600  0.22997500  0.37344800  1
  C  C22  1  0.78757400  0.19360800  0.62980600  1
  C  C23  1  0.75456600  0.75647300  0.47636900  1
  C  C24  1  0.78954700  0.16818300  0.87681500  1
