# generated using pymatgen
data_Cu2NiC15
_symmetry_space_group_name_H-M   'P 1'
_cell_length_a   3.91534803
_cell_length_b   7.65813412
_cell_length_c   8.20133175
_cell_angle_alpha   88.50481585
_cell_angle_beta   76.19980549
_cell_angle_gamma   75.19343753
_symmetry_Int_Tables_number   1
_chemical_formula_structural   Cu2NiC15
_chemical_formula_sum   'Cu2 Ni1 C15'
_cell_volume   230.72304221
_cell_formula_units_Z   1
loop_
 _symmetry_equiv_pos_site_id
 _symmetry_equiv_pos_as_xyz
  1  'x, y, z'
loop_
 _atom_site_type_symbol
 _atom_site_label
 _atom_site_symmetry_multiplicity
 _atom_site_fract_x
 _atom_site_fract_y
 _atom_site_fract_z
 _atom_site_occupancy
  Ni  Ni0  1  0.73238011  0.40323065  0.13225244  1
  C  C1  1  0.63194331  0.27060930  0.46583375  1
  C  C2  1  0.38779747  0.69614806  0.52842335  1
  C  C3  1  0.65596069  0.90699072  0.78142909  1
  C  C4  1  0.33405018  0.08554633  0.24670200  1
  Cu  Cu5  1  0.11094755  0.72057012  0.05788714  1
  Cu  Cu6  1  0.93525353  0.36000464  0.77005580  1
  C  C7  1  0.71758475  0.61873991  0.94655533  1
  C  C8  1  0.25539819  0.41217332  0.07727523  1
  C  C9  1  0.61155633  0.11195629  0.66524388  1
  C  C10  1  0.38099182  0.88020878  0.35797039  1
  C  C11  1  0.43256563  0.46552300  0.66978077  1
  C  C12  1  0.56364374  0.51199716  0.36085686  1
  C  C13  1  0.80760322  0.15235265  0.23275137  1
  C  C14  1  0.18829274  0.84025398  0.78358800  1
  C  C15  1  0.13766660  0.25919863  0.46585035  1
  C  C16  1  0.84533898  0.72472670  0.58500120  1
  C  C17  1  0.50316817  0.97976975  0.01421005  1
