# generated using pymatgen
data_CuNiC12
_symmetry_space_group_name_H-M   'P 1'
_cell_length_a   9.06237946
_cell_length_b   9.07284980
_cell_length_c   22.14023764
_cell_angle_alpha   89.84264858
_cell_angle_beta   89.58650170
_cell_angle_gamma   119.82567130
_symmetry_Int_Tables_number   1
_chemical_formula_structural   CuNiC12
_chemical_formula_sum   'Cu9 Ni9 C108'
_cell_volume   1579.19663091
_cell_formula_units_Z   9
loop_
 _symmetry_equiv_pos_site_id
 _symmetry_equiv_pos_as_xyz
  1  'x, y, z'
loop_
 _atom_site_type_symbol
 _atom_site_label
 _atom_site_symmetry_multiplicity
 _atom_site_fract_x
 _atom_site_fract_y
 _atom_site_fract_z
 _atom_site_occupancy
  C  C0  1  0.63047179  0.99590557  0.25946385  1
  C  C1  1  0.36978671  0.36775267  0.24468264  1
  C  C2  1  0.00074336  0.62610600  0.25279806  1
  C  C3  1  0.64091430  0.64653796  0.73560917  1
  C  C4  1  0.98612208  0.34725605  0.75143673  1
  C  C5  1  0.38271276  0.01183871  0.73983525  1
  C  C6  1  0.31299957  0.33377695  0.58387050  1
  C  C7  1  0.04191837  0.71499404  0.57321491  1
  C  C8  1  0.65249714  0.94775672  0.58237525  1
  C  C9  1  0.28485502  0.95747747  0.07543109  1
  C  C10  1  0.66357664  0.68640260  0.08480607  1
  C  C11  1  0.05164206  0.34943610  0.07854592  1
  C  C12  1  0.98662123  0.67405315  0.92039293  1
  C  C13  1  0.71010079  0.04495575  0.90845587  1
  C  C14  1  0.31363198  0.28886833  0.92080122  1
  C  C15  1  0.96263354  0.30432343  0.41654903  1
  C  C16  1  0.32918850  0.00634822  0.42387548  1
  C  C17  1  0.71019142  0.68783885  0.42673277  1
  C  C18  1  0.99033402  0.98101535  0.50026939  1
  C  C19  1  0.01757122  0.01079149  0.99952588  1
  C  C20  1  0.66799671  0.31640302  0.83227757  1
  C  C21  1  0.67823181  0.33262203  0.34088393  1
  C  C22  1  0.32084692  0.65420665  0.15946800  1
  C  C23  1  0.35296966  0.68288864  0.65778554  1
  C  C24  1  0.99576376  0.99316072  0.35534182  1
  C  C25  1  0.00044978  0.01033138  0.85182388  1
  C  C26  1  0.98285725  0.98445144  0.64332698  1
  C  C27  1  0.00786700  0.99931623  0.14290469  1
  C  C28  1  0.65896791  0.32201838  0.67991312  1
  C  C29  1  0.66670732  0.33966363  0.17826297  1
  C  C30  1  0.31649611  0.65762214  0.01795113  1
  C  C31  1  0.34436124  0.68647656  0.51676307  1
  C  C32  1  0.33139724  0.67989805  0.32920695  1
  C  C33  1  0.66770890  0.33902870  0.98329024  1
  C  C34  1  0.66210678  0.33345938  0.48404559  1
  C  C35  1  0.33269569  0.68542706  0.81848169  1
  Ni  Ni36  1  0.70472370  -0.00013306  0.75149683  1
  Ni  Ni37  1  0.36685153  0.03622194  0.58635208  1
  Ni  Ni38  1  0.66155840  0.62332621  0.58609838  1
  Ni  Ni39  1  0.96191352  0.62809231  0.08666924  1
  Ni  Ni40  1  0.37282011  0.33783207  0.08571544  1
  Ni  Ni41  1  0.03869429  0.37226692  0.91828613  1
  Ni  Ni42  1  0.33372856  0.96759670  0.92080249  1
  Ni  Ni43  1  0.63471311  0.96950959  0.41587335  1
  Ni  Ni44  1  0.03305314  0.66154339  0.41630031  1
  Cu  Cu45  1  0.29509839  0.00036233  0.24892306  1
  Cu  Cu46  1  0.70453525  0.70544527  0.24969832  1
  Cu  Cu47  1  0.00058857  0.28982491  0.24857737  1
  Cu  Cu48  1  0.29499181  0.29775180  0.75127210  1
  Cu  Cu49  1  0.00287698  0.70749207  0.75200974  1
  Cu  Cu50  1  0.95914849  0.33408003  0.58392030  1
  Cu  Cu51  1  0.66824101  0.04368032  0.08436010  1
  Cu  Cu52  1  0.62296637  0.66522261  0.91691449  1
  Cu  Cu53  1  0.33413095  0.37326784  0.41480821  1
  C  C54  1  0.21399512  0.02547180  0.30305361  1
  C  C55  1  0.80902618  0.79093186  0.30319258  1
  C  C56  1  0.98565148  0.18895318  0.30314292  1
  C  C57  1  0.21368307  0.19148593  0.80573595  1
  C  C58  1  0.98169645  0.78719605  0.80675395  1
  C  C59  1  0.81294949  0.02045246  0.81176064  1
  C  C60  1  0.78279733  0.95821983  0.69203066  1
  C  C61  1  0.19122276  0.21859072  0.69693340  1
  C  C62  1  0.03193851  0.81320139  0.69747473  1
  C  C63  1  0.78502596  0.80950099  0.19453968  1
  C  C64  1  0.01600752  0.20451106  0.19367519  1
  C  C65  1  0.19204465  0.98184070  0.19456738  1
  C  C66  1  0.88329035  0.36218070  0.63928106  1
  C  C67  1  0.48311763  0.11710003  0.64508708  1
  C  C68  1  0.64438499  0.51503477  0.64659270  1
  C  C69  1  0.87963791  0.50958773  0.14560446  1
  C  C70  1  0.63868144  0.11947616  0.13926820  1
  C  C71  1  0.48090037  0.35913589  0.14597577  1
  C  C72  1  0.47898764  0.30982606  0.02606518  1
  C  C73  1  0.83206747  0.51801779  0.02687145  1
  C  C74  1  0.69358703  0.15291139  0.02957361  1
  C  C75  1  0.47654225  0.16483735  0.52670405  1
  C  C76  1  0.68451126  0.51756834  0.52671348  1
  C  C77  1  0.84947142  0.30910669  0.52992753  1
  C  C78  1  0.54822423  0.69364096  0.97175795  1
  C  C79  1  0.15640872  0.45327590  0.97601748  1
  C  C80  1  0.31102263  0.85089164  0.97798905  1
  C  C81  1  0.55133310  0.84173636  0.47256659  1
  C  C82  1  0.30482209  0.44870728  0.46919127  1
  C  C83  1  0.15198386  0.68692161  0.47375566  1
  C  C84  1  0.10142314  0.61527360  0.35409058  1
  C  C85  1  0.52005255  0.89616054  0.35451316  1
  C  C86  1  0.36218023  0.47941646  0.35969369  1
  C  C87  1  0.14096877  0.50346059  0.85842660  1
  C  C88  1  0.36362342  0.86754451  0.86010799  1
  C  C89  1  0.51481298  0.64061513  0.86292538  1
  C  C90  1  0.01720518  0.83360295  0.41030974  1
  C  C91  1  0.82991722  0.00620233  0.40914936  1
  C  C92  1  0.18678932  0.20092863  0.40744975  1
  C  C93  1  0.01004109  0.18175720  0.91173921  1
  C  C94  1  0.16443279  0.98122104  0.90944738  1
  C  C95  1  0.79772677  0.80957748  0.90970638  1
  C  C96  1  0.97215822  0.17825338  0.58817458  1
  C  C97  1  0.18529822  0.03477395  0.58690547  1
  C  C98  1  0.83365277  0.80981076  0.58243575  1
  C  C99  1  0.96230938  0.80876511  0.08506341  1
  C  C100  1  0.82436239  0.03169520  0.08880802  1
  C  C101  1  0.18488845  0.16727395  0.08460103  1
  C  C102  1  0.68204177  0.16939846  0.74803704  1
  C  C103  1  0.46870555  0.32062460  0.74806383  1
  C  C104  1  0.85457891  0.53412298  0.74741481  1
  C  C105  1  0.68954258  0.53320552  0.24734573  1
  C  C106  1  0.84265954  0.30506351  0.24703068  1
  C  C107  1  0.47084933  0.15213838  0.24454151  1
  C  C108  1  0.63341341  0.50463172  0.92025120  1
  C  C109  1  0.84940020  0.36315063  0.92191822  1
  C  C110  1  0.50998881  0.15575177  0.92176273  1
  C  C111  1  0.64721161  0.15947423  0.42525964  1
  C  C112  1  0.49196962  0.35854626  0.41968646  1
  C  C113  1  0.83665506  0.49255815  0.42505504  1
  C  C114  1  0.36720809  0.51320926  0.07783662  1
  C  C115  1  0.15253203  0.65628205  0.08050817  1
  C  C116  1  0.51922078  0.87244859  0.07758569  1
  C  C117  1  0.34160388  0.84654698  0.57978997  1
  C  C118  1  0.48659978  0.63092808  0.57835071  1
  C  C119  1  0.13008998  0.48307827  0.57623185  1
  C  C120  1  0.30989324  0.84339765  0.25218194  1
  C  C121  1  0.52939498  0.68281210  0.25437079  1
  C  C122  1  0.15584117  0.46221939  0.25024536  1
  C  C123  1  0.30975829  0.47018377  0.75690602  1
  C  C124  1  0.16233342  0.69073403  0.75607249  1
  C  C125  1  0.50508142  0.81905553  0.75972565  1
