# generated using pymatgen
data_CuNiC9
_symmetry_space_group_name_H-M   'P 1'
_cell_length_a   3.90305163
_cell_length_b   3.90305163
_cell_length_c   9.86314394
_cell_angle_alpha   79.05101733
_cell_angle_beta   79.05101733
_cell_angle_gamma   90.15935182
_symmetry_Int_Tables_number   1
_chemical_formula_structural   CuNiC9
_chemical_formula_sum   'Cu1 Ni1 C9'
_cell_volume   144.71513536
_cell_formula_units_Z   1
loop_
 _symmetry_equiv_pos_site_id
 _symmetry_equiv_pos_as_xyz
  1  'x, y, z'
loop_
 _atom_site_type_symbol
 _atom_site_label
 _atom_site_symmetry_multiplicity
 _atom_site_fract_x
 _atom_site_fract_y
 _atom_site_fract_z
 _atom_site_occupancy
  Ni  Ni0  1  0.16814994  0.16814994  0.55492099  1
  Cu  Cu1  1  0.99157178  0.99157178  0.94488233  1
  C  C2  1  0.78124905  0.78124905  0.32073613  1
  C  C3  1  0.57367454  0.57367454  0.75627453  1
  C  C4  1  0.34632082  0.34632082  0.19695848  1
  C  C5  1  0.67976056  0.67976056  0.53231034  1
  C  C6  1  0.56525465  0.06200592  0.77947875  1
  C  C7  1  0.06200592  0.56525465  0.77947875  1
  C  C8  1  0.31463975  0.81634602  0.25215596  1
  C  C9  1  0.45102098  0.45102098  0.98898178  1
  C  C10  1  0.81634602  0.31463975  0.25215596  1
