# generated using pymatgen
data_Cu7(NiC14)5
_symmetry_space_group_name_H-M   'P 1'
_cell_length_a   18.23549968
_cell_length_b   9.11633374
_cell_length_c   22.30858126
_cell_angle_alpha   90.03257524
_cell_angle_beta   90.02953334
_cell_angle_gamma   120.15597006
_symmetry_Int_Tables_number   1
_chemical_formula_structural   Cu7(NiC14)5
_chemical_formula_sum   'Cu21 Ni15 C210'
_cell_volume   3206.67909808
_cell_formula_units_Z   3
loop_
 _symmetry_equiv_pos_site_id
 _symmetry_equiv_pos_as_xyz
  1  'x, y, z'
loop_
 _atom_site_type_symbol
 _atom_site_label
 _atom_site_symmetry_multiplicity
 _atom_site_fract_x
 _atom_site_fract_y
 _atom_site_fract_z
 _atom_site_occupancy
  C  C0  1  0.80976186  0.00280963  0.25089197  1
  C  C1  1  0.68794856  0.35077263  0.24421074  1
  C  C2  1  0.50631187  0.64938781  0.24686346  1
  C  C3  1  0.30789441  0.61479663  0.75102741  1
  C  C4  1  0.00629438  0.37808330  0.74565242  1
  C  C5  1  0.17463823  0.00165916  0.74334668  1
  C  C6  1  0.15278384  0.32559593  0.57649095  1
  C  C7  1  0.66951430  0.36171856  0.58269690  1
  C  C8  1  0.01451265  0.69729575  0.57489278  1
  C  C9  1  0.52514666  0.68500310  0.58753702  1
  C  C10  1  0.32508568  0.99154172  0.58395667  1
  C  C11  1  0.82338110  0.95324757  0.58768671  1
  C  C12  1  0.16415297  0.96987625  0.07721472  1
  C  C13  1  0.65843841  0.98694038  0.06966242  1
  C  C14  1  0.31904653  0.69055519  0.08238023  1
  C  C15  1  0.82811520  0.66259334  0.07857495  1
  C  C16  1  0.02488619  0.36553839  0.08313366  1
  C  C17  1  0.51358840  0.32949689  0.06603184  1
  C  C18  1  0.49079649  0.66764484  0.91905244  1
  C  C19  1  0.98077822  0.66293221  0.91275987  1
  C  C20  1  0.35568641  0.04952851  0.92436450  1
  C  C21  1  0.84467096  0.03968415  0.91184630  1
  C  C22  1  0.16757199  0.29441350  0.91444441  1
  C  C23  1  0.66053576  0.28597575  0.92640731  1
  C  C24  1  0.48147176  0.30544478  0.42940686  1
  C  C25  1  0.99187108  0.31578377  0.42400401  1
  C  C26  1  0.15765521  0.03064440  0.43134143  1
  C  C27  1  0.67123156  0.04456606  0.42218920  1
  C  C28  1  0.34120243  0.64961812  0.41863003  1
  C  C29  1  0.85704442  0.66262336  0.42824891  1
  C  C30  1  0.00531297  0.98555534  0.49884594  1
  C  C31  1  0.50874659  0.01838065  0.50344995  1
  C  C32  1  0.00806364  0.99852393  0.99672436  1
  C  C33  1  0.50557209  0.02391255  0.99115900  1
  C  C34  1  0.33668556  0.33107028  0.83038711  1
  C  C35  1  0.82929919  0.33532053  0.82515238  1
  C  C36  1  0.31686437  0.32266526  0.33348955  1
  C  C37  1  0.84071653  0.34480430  0.33291282  1
  C  C38  1  0.16764153  0.67209348  0.15350462  1
  C  C39  1  0.66776135  0.66175764  0.16330660  1
  C  C40  1  0.15771926  0.67299324  0.67051021  1
  C  C41  1  0.67139381  0.66681367  0.65542169  1
  C  C42  1  0.00447687  0.98966137  0.65222817  1
  C  C43  1  0.50544031  0.01471907  0.64675696  1
  C  C44  1  0.00559745  0.99719870  0.14634881  1
  C  C45  1  0.50358746  0.00588279  0.14855927  1
  C  C46  1  0.16167369  0.65304295  0.31652925  1
  C  C47  1  0.66276236  0.67117098  0.81707109  1
  C  C48  1  0.00541049  0.00208075  0.35558190  1
  C  C49  1  0.50508333  0.00503297  0.34441376  1
  C  C50  1  0.00471247  0.99275907  0.83701487  1
  C  C51  1  0.50501627  0.00817273  0.85474932  1
  C  C52  1  0.33033813  0.31616618  0.68140648  1
  C  C53  1  0.82916603  0.34406024  0.68161691  1
  C  C54  1  0.32025698  0.31429672  0.17703881  1
  C  C55  1  0.83155779  0.34193711  0.18082495  1
  C  C56  1  0.33238693  0.31671872  0.98641813  1
  C  C57  1  0.82635021  0.33549567  0.98603606  1
  C  C58  1  0.32585089  0.32079041  0.48837240  1
  C  C59  1  0.83516924  0.34924893  0.49022279  1
  C  C60  1  0.16616751  0.66907102  0.02158040  1
  C  C61  1  0.66075027  0.65255094  0.01206973  1
  C  C62  1  0.15791622  0.66424744  0.51422316  1
  C  C63  1  0.66696964  0.66739141  0.52285216  1
  C  C64  1  0.66597023  0.67362079  0.31558689  1
  C  C65  1  0.16131200  0.65851626  0.81218040  1
  Ni  Ni66  1  0.65312436  0.00040337  0.25272400  1
  Ni  Ni67  1  0.15436805  0.30407280  0.75222212  1
  Ni  Ni68  1  0.99502176  0.68422816  0.75586755  1
  Ni  Ni69  1  0.47714927  0.33568018  0.58051002  1
  Ni  Ni70  1  0.18404489  0.02526645  0.58349710  1
  Ni  Ni71  1  0.69052493  0.04495606  0.58086334  1
  Ni  Ni72  1  0.83507908  0.63682638  0.58170902  1
  Ni  Ni73  1  0.97698207  0.61821329  0.08080471  1
  Ni  Ni74  1  0.33505333  0.03715916  0.08314305  1
  Ni  Ni75  1  0.18848567  0.33810673  0.07981982  1
  Ni  Ni76  1  0.68528948  0.34452836  0.08560266  1
  Ni  Ni77  1  0.51260344  0.36468020  0.91800440  1
  Ni  Ni78  1  0.66935976  0.96932835  0.92200689  1
  Ni  Ni79  1  0.16941700  0.37017539  0.42135353  1
  Ni  Ni80  1  0.01246027  0.66042974  0.41773999  1
  Cu  Cu81  1  0.15010383  0.00158859  0.25252566  1
  Cu  Cu82  1  0.35239701  0.70292011  0.25206051  1
  Cu  Cu83  1  0.85340318  0.70942520  0.25316450  1
  Cu  Cu84  1  0.99974152  0.29025895  0.25125137  1
  Cu  Cu85  1  0.49837917  0.29649694  0.25348894  1
  Cu  Cu86  1  0.64833447  0.29818555  0.75306170  1
  Cu  Cu87  1  0.50021042  0.70940316  0.75141634  1
  Cu  Cu88  1  0.35597892  0.00022331  0.75351391  1
  Cu  Cu89  1  0.85068894  0.99598958  0.75191444  1
  Cu  Cu90  1  0.98042154  0.33118406  0.58390116  1
  Cu  Cu91  1  0.33453752  0.63123433  0.58438201  1
  Cu  Cu92  1  0.47955599  0.62696014  0.08636598  1
  Cu  Cu93  1  0.83460491  0.03778802  0.08540284  1
  Cu  Cu94  1  0.31182472  0.66655330  0.91563693  1
  Cu  Cu95  1  0.81514663  0.67417341  0.91700428  1
  Cu  Cu96  1  0.01866376  0.36776337  0.91784214  1
  Cu  Cu97  1  0.16573689  0.95688889  0.91623458  1
  Cu  Cu98  1  0.31708912  0.95903371  0.41420478  1
  Cu  Cu99  1  0.81221006  0.95810603  0.41470912  1
  Cu  Cu100  1  0.66250908  0.37356140  0.41285036  1
  Cu  Cu101  1  0.51901547  0.66945758  0.41493435  1
  C  C102  1  0.10498434  0.01327541  0.30539860  1
  C  C103  1  0.60831022  0.03079534  0.31077737  1
  C  C104  1  0.40297521  0.79176197  0.30621552  1
  C  C105  1  0.90435280  0.80336847  0.30594056  1
  C  C106  1  0.48542102  0.19193441  0.30733134  1
  C  C107  1  0.99205086  0.18769739  0.30471494  1
  C  C108  1  0.11032637  0.18950030  0.81189264  1
  C  C109  1  0.60305027  0.19651383  0.80589947  1
  C  C110  1  0.49255726  0.79659935  0.80491035  1
  C  C111  1  0.98178400  0.76853623  0.81601860  1
  C  C112  1  0.40795405  0.01209092  0.80588778  1
  C  C113  1  0.90167209  0.01337946  0.80651223  1
  C  C114  1  0.39739106  0.97716860  0.69787655  1
  C  C115  1  0.89378300  0.97916609  0.69756185  1
  C  C116  1  0.08931665  0.20558685  0.69413305  1
  C  C117  1  0.59513690  0.21381068  0.69729341  1
  C  C118  1  0.00831447  0.81513240  0.69798451  1
  C  C119  1  0.50907254  0.81211212  0.69617434  1
  C  C120  1  0.39527315  0.80603183  0.19760353  1
  C  C121  1  0.89409264  0.81538297  0.19784273  1
  C  C122  1  0.00827319  0.20560388  0.19617784  1
  C  C123  1  0.50719865  0.20599958  0.19973515  1
  C  C124  1  0.09812787  0.98212951  0.19674868  1
  C  C125  1  0.58774677  0.97046591  0.19494323  1
  C  C126  1  0.43245793  0.37564912  0.63512269  1
  C  C127  1  0.93990518  0.35225181  0.63771777  1
  C  C128  1  0.24142415  0.10993652  0.64292309  1
  C  C129  1  0.75300958  0.13418245  0.63644122  1
  C  C130  1  0.32284253  0.52762422  0.63804778  1
  C  C131  1  0.81578523  0.50778970  0.63609490  1
  C  C132  1  0.43983220  0.52794681  0.14174960  1
  C  C133  1  0.93384587  0.49176797  0.13680259  1
  C  C134  1  0.32031923  0.12704991  0.14026339  1
  C  C135  1  0.82219441  0.11636780  0.13989577  1
  C  C136  1  0.24916072  0.38100943  0.13749531  1
  C  C137  1  0.74012516  0.37189982  0.14620539  1
  C  C138  1  0.22214549  0.28633910  0.02015645  1
  C  C139  1  0.72125669  0.29602963  0.02645719  1
  C  C140  1  0.42904986  0.54838008  0.03219131  1
  C  C141  1  0.91940509  0.55431199  0.01999163  1
  C  C142  1  0.36205499  0.15411087  0.02258374  1
  C  C143  1  0.85156494  0.14318558  0.03135136  1
  C  C144  1  0.22128171  0.14269681  0.52335348  1
  C  C145  1  0.72114521  0.15716981  0.51877777  1
  C  C146  1  0.35278804  0.56116102  0.52952943  1
  C  C147  1  0.86047246  0.57256446  0.52059996  1
  C  C148  1  0.42058773  0.28738900  0.51884591  1
  C  C149  1  0.93035096  0.30991432  0.52836694  1
  C  C150  1  0.27276458  0.69265604  0.96998408  1
  C  C151  1  0.77496261  0.69079930  0.97257097  1
  C  C152  1  0.07197886  0.45021036  0.97144471  1
  C  C153  1  0.57052708  0.44264681  0.97757698  1
  C  C154  1  0.15828859  0.85724403  0.97079359  1
  C  C155  1  0.65666828  0.85481442  0.98139746  1
  C  C156  1  0.28061857  0.86166610  0.46951291  1
  C  C157  1  0.77097458  0.85096356  0.46765930  1
  C  C158  1  0.15918512  0.46261223  0.48020785  1
  C  C159  1  0.65451841  0.45805707  0.46688704  1
  C  C160  1  0.07137658  0.69928072  0.47650754  1
  C  C161  1  0.57272695  0.69414452  0.46790511  1
  C  C162  1  0.06905539  0.64057206  0.36064192  1
  C  C163  1  0.55894606  0.64816039  0.35965982  1
  C  C164  1  0.26114230  0.86728872  0.36141760  1
  C  C165  1  0.76051516  0.87679768  0.35959222  1
  C  C166  1  0.18385996  0.50258105  0.36323875  1
  C  C167  1  0.66964274  0.47307884  0.35795216  1
  C  C168  1  0.06018264  0.46946140  0.86311712  1
  C  C169  1  0.57050342  0.49797237  0.86226255  1
  C  C170  1  0.17330045  0.87113948  0.86195693  1
  C  C171  1  0.68285806  0.86330492  0.86486283  1
  C  C172  1  0.25934028  0.64619953  0.86163118  1
  C  C173  1  0.75998387  0.65487507  0.86400872  1
  C  C174  1  0.00034676  0.82478528  0.40876894  1
  C  C175  1  0.50771346  0.82210051  0.41064380  1
  C  C176  1  0.40299251  0.97641825  0.40627741  1
  C  C177  1  0.89854856  0.97874297  0.40883061  1
  C  C178  1  0.08296530  0.18713851  0.41172323  1
  C  C179  1  0.58244866  0.20061522  0.41074535  1
  C  C180  1  0.00664305  0.19237787  0.91362416  1
  C  C181  1  0.50049879  0.17600150  0.90913461  1
  C  C182  1  0.08788717  0.97386586  0.91471526  1
  C  C183  1  0.58272818  0.97912479  0.91220715  1
  C  C184  1  0.39886096  0.81891798  0.90984075  1
  C  C185  1  0.89927983  0.83174274  0.91199692  1
  C  C186  1  0.48333381  0.15638113  0.59240067  1
  C  C187  1  0.98761788  0.17414733  0.58804471  1
  C  C188  1  0.08856890  0.00997943  0.58950858  1
  C  C189  1  0.59105667  0.02118495  0.59217527  1
  C  C190  1  0.41335691  0.80697957  0.59192670  1
  C  C191  1  0.91712976  0.83356428  0.59132812  1
  C  C192  1  0.48661585  0.80039037  0.09074574  1
  C  C193  1  0.98424604  0.81107636  0.09348110  1
  C  C194  1  0.41688704  0.00327679  0.09337638  1
  C  C195  1  0.91259229  0.01895345  0.09332569  1
  C  C196  1  0.09005481  0.16220509  0.09174006  1
  C  C197  1  0.58798851  0.17050659  0.09250954  1
  C  C198  1  0.34861393  0.15369836  0.74880479  1
  C  C199  1  0.84206893  0.14732214  0.74750004  1
  C  C200  1  0.24851241  0.32114854  0.74481990  1
  C  C201  1  0.73094951  0.30947978  0.74766089  1
  C  C202  1  0.42358699  0.54136814  0.74648151  1
  C  C203  1  0.91798069  0.49019871  0.74631170  1
  C  C204  1  0.34886625  0.53666124  0.24856109  1
  C  C205  1  0.84632256  0.54124113  0.24927639  1
  C  C206  1  0.42754514  0.33051162  0.24685208  1
  C  C207  1  0.92325727  0.30556188  0.24674857  1
  C  C208  1  0.23402848  0.15630729  0.24800920  1
  C  C209  1  0.74809657  0.16805921  0.24533139  1
  C  C210  1  0.32038196  0.51300208  0.92034146  1
  C  C211  1  0.82300870  0.52019930  0.91718278  1
  C  C212  1  0.42221243  0.36358897  0.91680276  1
  C  C213  1  0.93352444  0.35279685  0.92272355  1
  C  C214  1  0.24292571  0.12934174  0.91827605  1
  C  C215  1  0.75552343  0.15748190  0.92043131  1
  C  C216  1  0.32539239  0.12989318  0.41444384  1
  C  C217  1  0.82082171  0.12882423  0.41968015  1
  C  C218  1  0.25584066  0.35499641  0.41986738  1
  C  C219  1  0.73815432  0.35245382  0.41460207  1
  C  C220  1  0.43338354  0.51473517  0.41996052  1
  C  C221  1  0.92179437  0.48043726  0.41720035  1
  C  C222  1  0.16928648  0.49352510  0.07377045  1
  C  C223  1  0.67429129  0.51186115  0.07942576  1
  C  C224  1  0.07498939  0.66310668  0.07501069  1
  C  C225  1  0.56708893  0.65512592  0.08263461  1
  C  C226  1  0.25202194  0.84893701  0.07613793  1
  C  C227  1  0.76051105  0.86499893  0.07951165  1
  C  C228  1  0.17332085  0.83581570  0.57840097  1
  C  C229  1  0.67013160  0.84935020  0.57523547  1
  C  C230  1  0.26127971  0.65575788  0.57769466  1
  C  C231  1  0.75234009  0.66053236  0.57521056  1
  C  C232  1  0.06750408  0.48104293  0.57987888  1
  C  C233  1  0.57516963  0.48782074  0.57439445  1
  C  C234  1  0.15852892  0.84722424  0.25463831  1
  C  C235  1  0.65798396  0.82383151  0.25329429  1
  C  C236  1  0.26677153  0.68458697  0.25416733  1
  C  C237  1  0.76655365  0.68815294  0.25566231  1
  C  C238  1  0.07869463  0.46178352  0.25355159  1
  C  C239  1  0.58022248  0.46176198  0.25604680  1
  C  C240  1  0.16354762  0.49269436  0.75297923  1
  C  C241  1  0.65686113  0.46940821  0.75521044  1
  C  C242  1  0.08715239  0.69066931  0.75473723  1
  C  C243  1  0.57890578  0.69629554  0.75397995  1
  C  C244  1  0.27082877  0.84630414  0.75618134  1
  C  C245  1  0.76553507  0.83758245  0.75474846  1
