# generated using pymatgen
data_Cu4Ni2C9
_symmetry_space_group_name_H-M   'P 1'
_cell_length_a   6.86980733
_cell_length_b   6.86980733
_cell_length_c   7.85648550
_cell_angle_alpha   68.72066942
_cell_angle_beta   68.72066942
_cell_angle_gamma   57.74439362
_symmetry_Int_Tables_number   1
_chemical_formula_structural   Cu4Ni2C9
_chemical_formula_sum   'Cu8 Ni4 C18'
_cell_volume   285.36556785
_cell_formula_units_Z   2
loop_
 _symmetry_equiv_pos_site_id
 _symmetry_equiv_pos_as_xyz
  1  'x, y, z'
loop_
 _atom_site_type_symbol
 _atom_site_label
 _atom_site_symmetry_multiplicity
 _atom_site_fract_x
 _atom_site_fract_y
 _atom_site_fract_z
 _atom_site_occupancy
  C  C0  1  0.66070000  0.91262300  0.80453500  1
  C  C1  1  0.08737700  0.33930000  0.19546500  1
  C  C2  1  0.33930000  0.08737700  0.19546500  1
  C  C3  1  0.91262300  0.66070000  0.80453500  1
  C  C4  1  0.40420300  0.65779200  0.81615000  1
  C  C5  1  0.34220800  0.59579700  0.18385000  1
  C  C6  1  0.59579700  0.34220800  0.18385000  1
  C  C7  1  0.65779200  0.40420300  0.81615000  1
  C  C8  1  0.14669000  0.14669000  0.40257800  1
  C  C9  1  0.85331000  0.85331000  0.59742200  1
  C  C10  1  0.41001700  0.41001700  0.39021400  1
  C  C11  1  0.58998300  0.58998300  0.60978600  1
  C  C12  1  0.07756300  0.07756300  0.25394600  1
  C  C13  1  0.92243700  0.92243700  0.74605400  1
  C  C14  1  0.43748400  0.43748400  0.73514300  1
  C  C15  1  0.56251600  0.56251600  0.26485700  1
  C  C16  1  0.82264300  0.82264300  0.22535500  1
  C  C17  1  0.17735700  0.17735700  0.77464500  1
  Ni  Ni18  1  0.16184000  0.16184000  0.26129400  1
  Ni  Ni19  1  0.83816000  0.83816000  0.73870600  1
  Ni  Ni20  1  0.47884600  0.47884600  0.25324200  1
  Ni  Ni21  1  0.52115400  0.52115400  0.74675800  1
  Cu  Cu22  1  0.35622800  0.93726400  0.90502700  1
  Cu  Cu23  1  0.06273600  0.64377200  0.09497300  1
  Cu  Cu24  1  0.64377200  0.06273600  0.09497300  1
  Cu  Cu25  1  0.93726400  0.35622800  0.90502700  1
  Cu  Cu26  1  0.90571100  0.90571100  0.35238500  1
  Cu  Cu27  1  0.09428900  0.09428900  0.64761500  1
  Cu  Cu28  1  0.67202700  0.67202700  0.36702200  1
  Cu  Cu29  1  0.32797300  0.32797300  0.63297800  1
