# generated using pymatgen
data_Cu2NiC4
_symmetry_space_group_name_H-M   'P 1'
_cell_length_a   3.91762184
_cell_length_b   7.19646488
_cell_length_c   3.49000776
_cell_angle_alpha   76.61737605
_cell_angle_beta   90.00015873
_cell_angle_gamma   90.00009939
_symmetry_Int_Tables_number   1
_chemical_formula_structural   Cu2NiC4
_chemical_formula_sum   'Cu2 Ni1 C4'
_cell_volume   95.72211011
_cell_formula_units_Z   1
loop_
 _symmetry_equiv_pos_site_id
 _symmetry_equiv_pos_as_xyz
  1  'x, y, z'
loop_
 _atom_site_type_symbol
 _atom_site_label
 _atom_site_symmetry_multiplicity
 _atom_site_fract_x
 _atom_site_fract_y
 _atom_site_fract_z
 _atom_site_occupancy
  Ni  Ni0  1  0.25000000  0.64644969  0.92998037  1
  Cu  Cu1  1  0.25000000  0.17569418  0.68043711  1
  Cu  Cu2  1  0.74999800  0.89708209  0.31157849  1
  C  C3  1  0.25000200  0.79407004  0.35757738  1
  C  C4  1  0.75000000  0.08112108  0.72480986  1
  C  C5  1  0.25000000  0.35846183  0.09488605  1
  C  C6  1  0.75000100  0.63971409  0.92156374  1
