# generated using pymatgen
data_CuNiC7
_symmetry_space_group_name_H-M   'P 1'
_cell_length_a   3.91534206
_cell_length_b   3.91534236
_cell_length_c   15.88330412
_cell_angle_alpha   97.07990153
_cell_angle_beta   97.07990318
_cell_angle_gamma   89.99999214
_symmetry_Int_Tables_number   1
_chemical_formula_structural   CuNiC7
_chemical_formula_sum   'Cu2 Ni2 C14'
_cell_volume   239.76206040
_cell_formula_units_Z   2
loop_
 _symmetry_equiv_pos_site_id
 _symmetry_equiv_pos_as_xyz
  1  'x, y, z'
loop_
 _atom_site_type_symbol
 _atom_site_label
 _atom_site_symmetry_multiplicity
 _atom_site_fract_x
 _atom_site_fract_y
 _atom_site_fract_z
 _atom_site_occupancy
  Ni  Ni0  1  0.71604200  0.71604200  0.43208300  1
  Ni  Ni1  1  0.28395800  0.28395800  0.56791700  1
  Cu  Cu2  1  0.59711400  0.59711400  0.19422800  1
  Cu  Cu3  1  0.40288600  0.40288600  0.80577200  1
  C  C4  1  0.50000000  0.50000000  0.00000000  1
  C  C5  1  0.84541800  0.84541800  0.69083500  1
  C  C6  1  0.15458200  0.15458200  0.30916500  1
  C  C7  1  0.00000000  0.00000000  0.00000000  1
  C  C8  1  0.86034400  0.36034500  0.72068900  1
  C  C9  1  0.36034500  0.86034400  0.72068900  1
  C  C10  1  0.13965600  0.63965600  0.27931100  1
  C  C11  1  0.63965600  0.13965600  0.27931100  1
  C  C12  1  0.78913700  0.78913700  0.57827500  1
  C  C13  1  0.21086300  0.21086300  0.42172500  1
  C  C14  1  0.00000000  0.50000000  0.00000000  1
  C  C15  1  0.06728300  0.06728300  0.13456500  1
  C  C16  1  0.93271700  0.93271700  0.86543500  1
  C  C17  1  0.50000000  0.00000000  0.00000000  1
