# generated using pymatgen
data_Cu5NiC28
_symmetry_space_group_name_H-M   'P 1'
_cell_length_a   9.10956934
_cell_length_b   9.09289174
_cell_length_c   23.16758848
_cell_angle_alpha   90.09663048
_cell_angle_beta   90.15537385
_cell_angle_gamma   119.96881438
_symmetry_Int_Tables_number   1
_chemical_formula_structural   Cu5NiC28
_chemical_formula_sum   'Cu15 Ni3 C84'
_cell_volume   1662.43029850
_cell_formula_units_Z   3
loop_
 _symmetry_equiv_pos_site_id
 _symmetry_equiv_pos_as_xyz
  1  'x, y, z'
loop_
 _atom_site_type_symbol
 _atom_site_label
 _atom_site_symmetry_multiplicity
 _atom_site_fract_x
 _atom_site_fract_y
 _atom_site_fract_z
 _atom_site_occupancy
  C  C0  1  0.99762670  0.00088017  0.36684811  1
  C  C1  1  0.00178273  0.00385381  0.85590620  1
  C  C2  1  0.99557629  0.00740898  0.64228614  1
  C  C3  1  0.68004475  0.33625532  0.68755781  1
  C  C4  1  0.66279726  0.33297292  0.19511253  1
  C  C5  1  0.33190183  0.66405185  0.02811341  1
  C  C6  1  0.00299005  0.00443557  0.14341184  1
  C  C7  1  0.65772543  0.33254378  0.98042343  1
  C  C8  1  0.67325912  0.32524218  0.47764957  1
  C  C9  1  0.33994298  0.67081036  0.52256827  1
  C  C10  1  0.33983362  0.67578166  0.31093964  1
  C  C11  1  0.32839386  0.66205291  0.81511688  1
  Ni  Ni12  1  0.96446498  0.33750184  0.58221574  1
  Ni  Ni13  1  0.37445155  0.32223271  0.08618527  1
  Ni  Ni14  1  0.60741911  0.95784815  0.41647151  1
  Cu  Cu15  1  0.26759257  0.97371600  0.25091514  1
  Cu  Cu16  1  0.70578305  0.72577741  0.25197168  1
  Cu  Cu17  1  0.02279783  0.29146930  0.25059216  1
  Cu  Cu18  1  0.29823889  0.30426353  0.75309456  1
  Cu  Cu19  1  0.01045763  0.70734077  0.75381682  1
  Cu  Cu20  1  0.69024820  0.98589888  0.75403626  1
  Cu  Cu21  1  0.38094866  0.04316024  0.57808566  1
  Cu  Cu22  1  0.65927996  0.61327777  0.57765433  1
  Cu  Cu23  1  0.93948586  0.62937688  0.08394733  1
  Cu  Cu24  1  0.69036943  0.06206794  0.08302963  1
  Cu  Cu25  1  0.61407678  0.64967613  0.91830879  1
  Cu  Cu26  1  0.03396728  0.39019775  0.91834984  1
  Cu  Cu27  1  0.35455831  0.96696986  0.91870192  1
  Cu  Cu28  1  0.35529353  0.40324573  0.41629995  1
  Cu  Cu29  1  0.04786505  0.64679229  0.41627936  1
  C  C30  1  0.19726621  0.00471262  0.30212584  1
  C  C31  1  0.80531783  0.80441896  0.30313059  1
  C  C32  1  0.99416508  0.18778553  0.30099789  1
  C  C33  1  0.22134009  0.20170628  0.80422907  1
  C  C34  1  0.99416699  0.79184899  0.80480467  1
  C  C35  1  0.79741654  0.01519474  0.80453050  1
  C  C36  1  0.74851827  0.93978839  0.70207256  1
  C  C37  1  0.19310762  0.24287949  0.70141644  1
  C  C38  1  0.05037483  0.80707915  0.70117232  1
  C  C39  1  0.78118516  0.83492932  0.19929715  1
  C  C40  1  0.04599120  0.19889058  0.19747821  1
  C  C41  1  0.15232524  0.94355421  0.19882931  1
  C  C42  1  0.89335354  0.39125100  0.63522954  1
  C  C43  1  0.48248969  0.10715605  0.62978958  1
  C  C44  1  0.61463394  0.51106741  0.62922179  1
  C  C45  1  0.87577782  0.52286784  0.13433896  1
  C  C46  1  0.66369893  0.13300291  0.13485222  1
  C  C47  1  0.48269507  0.33760246  0.14064116  1
  C  C48  1  0.47812741  0.29057483  0.02737459  1
  C  C49  1  0.82530312  0.54417125  0.03141898  1
  C  C50  1  0.72576846  0.17964545  0.03114858  1
  C  C51  1  0.47510620  0.15620102  0.52614760  1
  C  C52  1  0.66565387  0.51526682  0.52529510  1
  C  C53  1  0.83154675  0.32106280  0.52330092  1
  C  C54  1  0.54549539  0.68018465  0.96998049  1
  C  C55  1  0.13664223  0.46212536  0.96932504  1
  C  C56  1  0.32449977  0.87006596  0.97088840  1
  C  C57  1  0.49475394  0.83276238  0.46832729  1
  C  C58  1  0.32765934  0.48559395  0.46741844  1
  C  C59  1  0.15148925  0.66250843  0.46738344  1
  C  C60  1  0.12538178  0.61231507  0.36334747  1
  C  C61  1  0.47687470  0.85922077  0.35778189  1
  C  C62  1  0.37381883  0.51238290  0.36329392  1
  C  C63  1  0.12464666  0.50750128  0.86692892  1
  C  C64  1  0.38252321  0.87783857  0.86822480  1
  C  C65  1  0.49518980  0.61434822  0.86772463  1
  C  C66  1  0.03849279  0.79934122  0.40994360  1
  C  C67  1  0.78578343  0.97589656  0.41139783  1
  C  C68  1  0.21000258  0.23633361  0.40957881  1
  C  C69  1  0.99924188  0.21996132  0.90517990  1
  C  C70  1  0.22703467  0.01239446  0.90590615  1
  C  C71  1  0.78492775  0.78155099  0.90544693  1
  C  C72  1  0.97802125  0.17119218  0.58038279  1
  C  C73  1  0.21341136  0.02229297  0.57895697  1
  C  C74  1  0.81080032  0.77744468  0.57961293  1
  C  C75  1  0.93082907  0.79300782  0.09568296  1
  C  C76  1  0.85426080  0.05234380  0.09228945  1
  C  C77  1  0.18469268  0.13195836  0.09770932  1
  C  C78  1  0.64602766  0.11754029  0.74657427  1
  C  C79  1  0.47313520  0.34838439  0.74547396  1
  C  C80  1  0.87363979  0.53338868  0.74975020  1
  C  C81  1  0.67035958  0.55356837  0.24393088  1
  C  C82  1  0.88730447  0.32560575  0.23816536  1
  C  C83  1  0.44144632  0.10037233  0.24013787  1
  C  C84  1  0.62209768  0.48333591  0.92688174  1
  C  C85  1  0.86631660  0.38759412  0.92612283  1
  C  C86  1  0.52682473  0.13693035  0.92700114  1
  C  C87  1  0.61507064  0.14398514  0.42553928  1
  C  C88  1  0.51510127  0.40029929  0.42228677  1
  C  C89  1  0.87313859  0.49518914  0.42264207  1
  C  C90  1  0.31968689  0.45531724  0.07100058  1
  C  C91  1  0.11330586  0.68187241  0.07031374  1
  C  C92  1  0.55633871  0.89266086  0.06983270  1
  C  C93  1  0.36282536  0.86833499  0.56624768  1
  C  C94  1  0.50734170  0.64100605  0.56541395  1
  C  C95  1  0.15020163  0.50646962  0.56176555  1
  C  C96  1  0.26466284  0.80111086  0.25892784  1
  C  C97  1  0.52792513  0.71286118  0.26012318  1
  C  C98  1  0.18789861  0.45909255  0.25758580  1
  C  C99  1  0.30571067  0.48002101  0.76857096  1
  C  C100  1  0.17591086  0.69374942  0.76790266  1
  C  C101  1  0.51675257  0.82098376  0.77036328  1
