# generated using pymatgen
data_Cu2Ni2C35
_symmetry_space_group_name_H-M   'P 1'
_cell_length_a   12.50052400
_cell_length_b   6.30891100
_cell_length_c   9.19047971
_cell_angle_alpha   72.91870354
_cell_angle_beta   90.00000000
_cell_angle_gamma   90.00000000
_symmetry_Int_Tables_number   1
_chemical_formula_structural   Cu2Ni2C35
_chemical_formula_sum   'Cu4 Ni4 C70'
_cell_volume   692.83248270
_cell_formula_units_Z   2
loop_
 _symmetry_equiv_pos_site_id
 _symmetry_equiv_pos_as_xyz
  1  'x, y, z'
loop_
 _atom_site_type_symbol
 _atom_site_label
 _atom_site_symmetry_multiplicity
 _atom_site_fract_x
 _atom_site_fract_y
 _atom_site_fract_z
 _atom_site_occupancy
  C  C0  1  0.50000000  0.00000000  0.50000000  1
  C  C1  1  0.00000000  0.00000000  0.00000000  1
  C  C2  1  0.35620600  0.32060800  0.47294100  1
  C  C3  1  0.85620600  0.67939200  0.02705900  1
  C  C4  1  0.64379400  0.67939200  0.52705900  1
  C  C5  1  0.14379400  0.32060800  0.97294100  1
  C  C6  1  0.44228400  0.33395200  0.59559400  1
  C  C7  1  0.94228400  0.66604800  0.90440600  1
  C  C8  1  0.55771600  0.66604800  0.40440600  1
  C  C9  1  0.05771600  0.33395200  0.09559400  1
  C  C10  1  0.68499200  0.00110800  0.63789000  1
  C  C11  1  0.18499200  0.99889200  0.86211000  1
  C  C12  1  0.31500800  0.99889200  0.36211000  1
  C  C13  1  0.81500800  0.00110800  0.13789000  1
  C  C14  1  0.59669600  0.94141900  0.76703700  1
  C  C15  1  0.09669600  0.05858100  0.73296300  1
  C  C16  1  0.40330400  0.05858100  0.23296300  1
  C  C17  1  0.90330400  0.94141900  0.26703700  1
  C  C18  1  0.62171700  0.09285200  0.25106200  1
  C  C19  1  0.12171700  0.90714800  0.24893800  1
  C  C20  1  0.37828300  0.90714800  0.74893800  1
  C  C21  1  0.87828300  0.09285200  0.75106200  1
  C  C22  1  0.58799600  0.32053200  0.28362200  1
  C  C23  1  0.08799600  0.67946800  0.21637800  1
  C  C24  1  0.41200400  0.67946800  0.71637800  1
  C  C25  1  0.91200400  0.32053200  0.78362200  1
  C  C26  1  0.92600600  0.37097500  0.33238900  1
  C  C27  1  0.42600600  0.62902500  0.16761100  1
  C  C28  1  0.07399400  0.62902500  0.66761100  1
  C  C29  1  0.57399400  0.37097500  0.83238900  1
  C  C30  1  0.82918600  0.46291900  0.43052500  1
  C  C31  1  0.32918600  0.53708100  0.06947500  1
  C  C32  1  0.17081400  0.53708100  0.56947500  1
  C  C33  1  0.67081400  0.46291900  0.93052500  1
  C  C34  1  0.79688800  0.39629300  0.27149200  1
  C  C35  1  0.29688800  0.60370700  0.22850800  1
  C  C36  1  0.20311200  0.60370700  0.72850800  1
  C  C37  1  0.70311200  0.39629300  0.77149200  1
  C  C38  1  0.83209700  0.19650500  0.43534900  1
  C  C39  1  0.33209700  0.80349500  0.06465100  1
  C  C40  1  0.66790300  0.19650500  0.93534900  1
  C  C41  1  0.16790300  0.80349500  0.56465100  1
  Ni  Ni42  1  0.63554000  0.73929400  0.09095000  1
  Ni  Ni43  1  0.13554000  0.26070600  0.40905000  1
  Ni  Ni44  1  0.36446000  0.26070600  0.90905000  1
  Ni  Ni45  1  0.86446000  0.73929400  0.59095000  1
  Cu  Cu46  1  0.84590800  0.35653300  0.36629900  1
  Cu  Cu47  1  0.34590800  0.64346700  0.13370100  1
  Cu  Cu48  1  0.15409200  0.64346700  0.63370100  1
  Cu  Cu49  1  0.65409200  0.35653300  0.86629900  1
  C  C50  1  0.43357700  0.29925000  0.49785700  1
  C  C51  1  0.93357700  0.70075000  0.00214300  1
  C  C52  1  0.56642300  0.70075000  0.50214300  1
  C  C53  1  0.06642300  0.29925000  0.99785700  1
  C  C54  1  0.61070700  0.03615200  0.66105400  1
  C  C55  1  0.11070700  0.96384800  0.83894600  1
  C  C56  1  0.38929300  0.96384800  0.33894600  1
  C  C57  1  0.88929300  0.03615200  0.16105400  1
  C  C58  1  0.60911400  0.16402200  0.33214200  1
  C  C59  1  0.10911400  0.83597800  0.16785800  1
  C  C60  1  0.39088600  0.83597800  0.66785800  1
  C  C61  1  0.89088600  0.16402200  0.83214200  1
  C  C62  1  0.67708700  0.94877900  0.11656900  1
  C  C63  1  0.17708700  0.05122100  0.38343100  1
  C  C64  1  0.32291300  0.05122100  0.88343100  1
  C  C65  1  0.82291300  0.94877900  0.61656900  1
  C  C66  1  0.56554000  0.61851900  0.22209600  1
  C  C67  1  0.06554000  0.38148100  0.27790400  1
  C  C68  1  0.43446000  0.38148100  0.77790400  1
  C  C69  1  0.93446000  0.61851900  0.72209600  1
  C  C70  1  0.57305000  0.78842000  0.94857500  1
  C  C71  1  0.07305000  0.21158000  0.55142500  1
  C  C72  1  0.42695000  0.21158000  0.05142500  1
  C  C73  1  0.92695000  0.78842000  0.44857500  1
  C  C74  1  0.72800700  0.59023500  0.08377900  1
  C  C75  1  0.22800700  0.40976500  0.41622100  1
  C  C76  1  0.27199300  0.40976500  0.91622100  1
  C  C77  1  0.77199300  0.59023500  0.58377900  1
