# generated using pymatgen
data_CuNi4C69
_symmetry_space_group_name_H-M   'P 1'
_cell_length_a   18.08227336
_cell_length_b   9.02652853
_cell_length_c   23.52165945
_cell_angle_alpha   89.87079083
_cell_angle_beta   89.89658048
_cell_angle_gamma   120.04829841
_symmetry_Int_Tables_number   1
_chemical_formula_structural   CuNi4C69
_chemical_formula_sum   'Cu3 Ni12 C207'
_cell_volume   3323.20558160
_cell_formula_units_Z   3
loop_
 _symmetry_equiv_pos_site_id
 _symmetry_equiv_pos_as_xyz
  1  'x, y, z'
loop_
 _atom_site_type_symbol
 _atom_site_label
 _atom_site_symmetry_multiplicity
 _atom_site_fract_x
 _atom_site_fract_y
 _atom_site_fract_z
 _atom_site_occupancy
  C  C0  1  0.81958946  0.99851677  0.24590826  1
  C  C1  1  0.99623852  0.63574091  0.25350568  1
  C  C2  1  0.31702652  0.64960368  0.75049402  1
  C  C3  1  0.81716414  0.64375143  0.74616781  1
  C  C4  1  0.99348775  0.35691840  0.75119840  1
  C  C5  1  0.68830630  0.00334229  0.74860342  1
  C  C6  1  0.99771627  0.99767742  0.49906933  1
  C  C7  1  0.50331383  0.00239168  0.49323709  1
  C  C8  1  0.00166107  0.00177350  0.00045950  1
  C  C9  1  0.50028620  0.00041342  0.00034637  1
  C  C10  1  0.33476120  0.31036988  0.83772739  1
  C  C11  1  0.83420894  0.32384584  0.83665472  1
  C  C12  1  0.33446394  0.33551945  0.32743556  1
  C  C13  1  0.82788079  0.34594523  0.33568626  1
  C  C14  1  0.17488080  0.66942855  0.17151392  1
  C  C15  1  0.66675607  0.65575796  0.17021788  1
  C  C16  1  0.17177860  0.68602344  0.66493054  1
  C  C17  1  0.67045241  0.67156145  0.66233500  1
  C  C18  1  0.99721218  0.98773251  0.35244975  1
  C  C19  1  0.99615520  0.00201080  0.85158741  1
  C  C20  1  0.49695768  0.00762887  0.85266505  1
  C  C21  1  0.99166739  0.99386695  0.64647479  1
  C  C22  1  0.49572641  0.00083549  0.64783505  1
  C  C23  1  0.99889964  0.99819022  0.14823015  1
  C  C24  1  0.49718337  0.99578652  0.14918401  1
  C  C25  1  0.33390086  0.31672149  0.68298397  1
  C  C26  1  0.33243500  0.33086816  0.47836624  1
  C  C27  1  0.16746922  0.66735371  0.01948327  1
  C  C28  1  0.66690664  0.66869805  0.01996029  1
  C  C29  1  0.66644214  0.65514908  0.31755793  1
  Ni  Ni30  1  0.49769501  0.99896009  0.35005004  1
  Ni  Ni31  1  0.83386091  0.31587697  0.67556575  1
  Ni  Ni32  1  0.33414556  0.33691501  0.18321601  1
  Ni  Ni33  1  0.82834355  0.34791675  0.18296554  1
  Ni  Ni34  1  0.33312776  0.33311645  0.98437794  1
  Ni  Ni35  1  0.83317599  0.33310029  0.98434110  1
  Ni  Ni36  1  0.83224025  0.33328193  0.48430198  1
  Ni  Ni37  1  0.16486603  0.66444397  0.51329154  1
  Ni  Ni38  1  0.66901771  0.66825190  0.51437181  1
  Ni  Ni39  1  0.17359483  0.67211195  0.32167549  1
  Ni  Ni40  1  0.17582122  0.69492820  0.81933436  1
  Ni  Ni41  1  0.67140754  0.67474135  0.81983041  1
  Cu  Cu42  1  0.84930427  0.69314535  0.24789598  1
  Cu  Cu43  1  0.34481992  0.99129147  0.75201550  1
  Cu  Cu44  1  0.84600876  0.00021642  0.75049721  1
  C  C45  1  0.15319011  0.00148852  0.25008855  1
  C  C46  1  0.64748525  0.00435882  0.25178237  1
  C  C47  1  0.35023199  0.70009990  0.25296284  1
  C  C48  1  0.00266642  0.30425266  0.25026764  1
  C  C49  1  0.49430706  0.28860487  0.25101530  1
  C  C50  1  0.14791113  0.30020392  0.75052464  1
  C  C51  1  0.65084982  0.30275203  0.74994117  1
  C  C52  1  0.00025694  0.69935572  0.74974478  1
  C  C53  1  0.50230931  0.70380515  0.75127335  1
  C  C54  1  0.48803790  0.34559032  0.58006991  1
  C  C55  1  0.98171127  0.34412256  0.58144664  1
  C  C56  1  0.18296071  0.02471630  0.58057539  1
  C  C57  1  0.68874111  0.03622920  0.58191115  1
  C  C58  1  0.32872846  0.62933277  0.58239149  1
  C  C59  1  0.82880914  0.61468469  0.58232964  1
  C  C60  1  0.47441019  0.61612086  0.08307814  1
  C  C61  1  0.97583587  0.61759138  0.08263816  1
  C  C62  1  0.33370712  0.05174207  0.08312701  1
  C  C63  1  0.83396712  0.05268272  0.08388846  1
  C  C64  1  0.19267360  0.33354998  0.08283227  1
  C  C65  1  0.68978542  0.33039291  0.08185758  1
  C  C66  1  0.31294952  0.65504972  0.91614241  1
  C  C67  1  0.81256348  0.65512990  0.91634341  1
  C  C68  1  0.01763882  0.37773563  0.91532224  1
  C  C69  1  0.51864777  0.38093220  0.91627733  1
  C  C70  1  0.17050511  0.96860152  0.91715397  1
  C  C71  1  0.67102615  0.96907954  0.91604470  1
  C  C72  1  0.31330107  0.95106356  0.41560244  1
  C  C73  1  0.81245260  0.96719400  0.42016061  1
  C  C74  1  0.16581452  0.38195990  0.41711162  1
  C  C75  1  0.66624098  0.36436477  0.42066326  1
  C  C76  1  0.02079267  0.65833462  0.41800455  1
  C  C77  1  0.52152362  0.67730546  0.41802304  1
  C  C78  1  0.11332176  0.02980481  0.30100742  1
  C  C79  1  0.60588931  0.02716372  0.30204030  1
  C  C80  1  0.40492400  0.78417587  0.30261243  1
  C  C81  1  0.91061817  0.78277660  0.30333407  1
  C  C82  1  0.48527701  0.18613482  0.30208591  1
  C  C83  1  0.98930028  0.19417083  0.30060271  1
  C  C84  1  0.11141051  0.19126445  0.80140621  1
  C  C85  1  0.61248104  0.18920404  0.80034041  1
  C  C86  1  0.48871038  0.78509414  0.80168907  1
  C  C87  1  0.98697755  0.78156821  0.80051704  1
  C  C88  1  0.40507799  0.01935033  0.80657878  1
  C  C89  1  0.91098214  0.04414647  0.80421818  1
  C  C90  1  0.38988415  0.95816280  0.69625404  1
  C  C91  1  0.88887274  0.95504106  0.69684606  1
  C  C92  1  0.09601747  0.21544456  0.69951995  1
  C  C93  1  0.59803013  0.22056759  0.69906668  1
  C  C94  1  0.01632252  0.80902904  0.69891445  1
  C  C95  1  0.51859324  0.81319051  0.70001449  1
  C  C96  1  0.38933564  0.80471672  0.20010920  1
  C  C97  1  0.89450413  0.82297095  0.19412331  1
  C  C98  1  0.01813918  0.22802386  0.19890953  1
  C  C99  1  0.50820420  0.21104601  0.19905733  1
  C  C100  1  0.09771425  0.97175562  0.19944205  1
  C  C101  1  0.59676234  0.98077843  0.19934920  1
  C  C102  1  0.44793545  0.36546225  0.63286425  1
  C  C103  1  0.94515753  0.36393269  0.63609697  1
  C  C104  1  0.23369763  0.10626104  0.63289066  1
  C  C105  1  0.73545471  0.11027043  0.63649324  1
  C  C106  1  0.32006002  0.53361899  0.63646110  1
  C  C107  1  0.82056626  0.52125725  0.63680528  1
  C  C108  1  0.43562974  0.51764277  0.13558878  1
  C  C109  1  0.93852700  0.52172353  0.13590567  1
  C  C110  1  0.32343994  0.12989296  0.13521351  1
  C  C111  1  0.82440359  0.12826771  0.13736640  1
  C  C112  1  0.24142539  0.35310409  0.13532116  1
  C  C113  1  0.73834819  0.35084810  0.13426260  1
  C  C114  1  0.23222076  0.31535580  0.03091945  1
  C  C115  1  0.72922683  0.31147790  0.03033496  1
  C  C116  1  0.42572526  0.53869517  0.03128081  1
  C  C117  1  0.92528995  0.53632868  0.03168586  1
  C  C118  1  0.34407409  0.14926916  0.03092831  1
  C  C119  1  0.84203814  0.15176445  0.03240603  1
  C  C120  1  0.22603487  0.13609755  0.53092763  1
  C  C121  1  0.73146268  0.14681836  0.53242490  1
  C  C122  1  0.33952428  0.53780794  0.53376095  1
  C  C123  1  0.84101075  0.53179137  0.53224944  1
  C  C124  1  0.43178589  0.31858266  0.53102938  1
  C  C125  1  0.92633451  0.31707166  0.53219951  1
  C  C126  1  0.27123129  0.68185831  0.96649145  1
  C  C127  1  0.77069228  0.68135073  0.96650845  1
  C  C128  1  0.07078082  0.46198377  0.96617824  1
  C  C129  1  0.57026831  0.46194551  0.96791309  1
  C  C130  1  0.15785301  0.86176255  0.96837219  1
  C  C131  1  0.65908426  0.85998538  0.96647308  1
  C  C132  1  0.27354018  0.85160225  0.46768467  1
  C  C133  1  0.76943583  0.85400475  0.46883897  1
  C  C134  1  0.15690936  0.46120429  0.46884604  1
  C  C135  1  0.65321850  0.44962387  0.47001012  1
  C  C136  1  0.07457780  0.68273737  0.46778282  1
  C  C137  1  0.57240551  0.69479280  0.46869561  1
  C  C138  1  0.05918616  0.64136228  0.36355508  1
  C  C139  1  0.55923475  0.64938604  0.36581946  1
  C  C140  1  0.26080787  0.87619250  0.36405682  1
  C  C141  1  0.76513779  0.89142074  0.36566063  1
  C  C142  1  0.17649274  0.48079843  0.36447125  1
  C  C143  1  0.68004099  0.46862413  0.36773844  1
  C  C144  1  0.05854804  0.47577693  0.86260828  1
  C  C145  1  0.56124183  0.48181756  0.86456921  1
  C  C146  1  0.17977262  0.88636981  0.86545988  1
  C  C147  1  0.67972502  0.88893345  0.86311176  1
  C  C148  1  0.26376356  0.63615421  0.86363939  1
  C  C149  1  0.76404119  0.63683627  0.86339504  1
  C  C150  1  0.01333664  0.81800574  0.41487920  1
  C  C151  1  0.51176319  0.83041020  0.41178024  1
  C  C152  1  0.40015278  0.97207816  0.40962662  1
  C  C153  1  0.89942455  0.98428721  0.41537457  1
  C  C154  1  0.08947840  0.20705414  0.41299860  1
  C  C155  1  0.58786761  0.19338617  0.41310762  1
  C  C156  1  0.01037587  0.20462006  0.91358041  1
  C  C157  1  0.51151506  0.20808816  0.91416935  1
  C  C158  1  0.09272961  0.98557059  0.91280127  1
  C  C159  1  0.59315893  0.98571978  0.91301667  1
  C  C160  1  0.40012261  0.81092621  0.91334341  1
  C  C161  1  0.89943647  0.81134998  0.91306660  1
  C  C162  1  0.49525375  0.18897017  0.58497743  1
  C  C163  1  0.99110452  0.18688189  0.58601801  1
  C  C164  1  0.09806165  0.01100728  0.58589951  1
  C  C165  1  0.60175453  0.01836348  0.58697456  1
  C  C166  1  0.40842636  0.79983216  0.58465119  1
  C  C167  1  0.90802680  0.79023021  0.58526187  1
  C  C168  1  0.48551380  0.79264841  0.08727314  1
  C  C169  1  0.98771619  0.79453701  0.08552734  1
  C  C170  1  0.41061377  0.02892952  0.08717585  1
  C  C171  1  0.91179768  0.03355276  0.08582634  1
  C  C172  1  0.10492845  0.18038121  0.08627685  1
  C  C173  1  0.60177566  0.17616838  0.08665780  1
  C  C174  1  0.33608770  0.16238872  0.74781782  1
  C  C175  1  0.83842429  0.17360271  0.74177922  1
  C  C176  1  0.23736448  0.33466429  0.74393070  1
  C  C177  1  0.73775757  0.32410287  0.74312759  1
  C  C178  1  0.42125815  0.53767663  0.74402374  1
  C  C179  1  0.91969385  0.53127402  0.74320516  1
  C  C180  1  0.34208027  0.52787488  0.24567847  1
  C  C181  1  0.84684667  0.51053964  0.24295340  1
  C  C182  1  0.41717412  0.30569341  0.24461767  1
  C  C183  1  0.92232111  0.31111486  0.24358570  1
  C  C184  1  0.23879311  0.15336985  0.24243765  1
  C  C185  1  0.73566538  0.15260615  0.24561432  1
  C  C186  1  0.32111454  0.50067390  0.92283309  1
  C  C187  1  0.82094734  0.50100303  0.92281340  1
  C  C188  1  0.43232054  0.36044725  0.92141131  1
  C  C189  1  0.93152963  0.35833791  0.92133410  1
  C  C190  1  0.24823808  0.13951689  0.92267907  1
  C  C191  1  0.74870507  0.13962727  0.92196936  1
  C  C192  1  0.32287386  0.12713479  0.42048948  1
  C  C193  1  0.82152941  0.13861311  0.42563364  1
  C  C194  1  0.24350362  0.36154816  0.42050240  1
  C  C195  1  0.74402892  0.34833592  0.42607147  1
  C  C196  1  0.43418154  0.52032447  0.42256686  1
  C  C197  1  0.93390692  0.50627599  0.42333575  1
  C  C198  1  0.18222072  0.48900342  0.07931579  1
  C  C199  1  0.67944272  0.48563236  0.07839434  1
  C  C200  1  0.06349781  0.63806650  0.07836394  1
  C  C201  1  0.56249223  0.63852439  0.07928641  1
  C  C202  1  0.25663712  0.87506228  0.07949136  1
  C  C203  1  0.75697685  0.87601195  0.07977941  1
  C  C204  1  0.17598053  0.85556053  0.57513725  1
  C  C205  1  0.67956757  0.86317011  0.57639954  1
  C  C206  1  0.25246028  0.64706558  0.57633400  1
  C  C207  1  0.75267915  0.63637165  0.57728669  1
  C  C208  1  0.06826981  0.49718449  0.57573448  1
  C  C209  1  0.57278198  0.49965480  0.57441654  1
  C  C210  1  0.15614906  0.83918066  0.25690417  1
  C  C211  1  0.65665501  0.84793595  0.25650195  1
  C  C212  1  0.26388414  0.68316635  0.25831456  1
  C  C213  1  0.75783156  0.68969887  0.25314205  1
  C  C214  1  0.07625949  0.48068833  0.25696813  1
  C  C215  1  0.57170909  0.46301269  0.25505000  1
  C  C216  1  0.15044769  0.46586199  0.75699560  1
  C  C217  1  0.65863195  0.47287816  0.75745749  1
  C  C218  1  0.07295491  0.66920847  0.75700325  1
  C  C219  1  0.57720420  0.68199458  0.75797971  1
  C  C220  1  0.25271713  0.81203959  0.75639241  1
  C  C221  1  0.75146450  0.82708335  0.75874368  1
