# generated using pymatgen
data_Cu2NiC16
_symmetry_space_group_name_H-M   'P 1'
_cell_length_a   9.33278213
_cell_length_b   6.01836171
_cell_length_c   5.99195830
_cell_angle_alpha   85.06545128
_cell_angle_beta   60.72202737
_cell_angle_gamma   60.87738069
_symmetry_Int_Tables_number   1
_chemical_formula_structural   Cu2NiC16
_chemical_formula_sum   'Cu2 Ni1 C16'
_cell_volume   251.29814475
_cell_formula_units_Z   1
loop_
 _symmetry_equiv_pos_site_id
 _symmetry_equiv_pos_as_xyz
  1  'x, y, z'
loop_
 _atom_site_type_symbol
 _atom_site_label
 _atom_site_symmetry_multiplicity
 _atom_site_fract_x
 _atom_site_fract_y
 _atom_site_fract_z
 _atom_site_occupancy
  Ni  Ni0  1  0.32508985  0.32002719  0.70609324  1
  C  C1  1  0.02324910  0.99066878  0.97015693  1
  C  C2  1  0.33929799  0.93686618  0.04076977  1
  C  C3  1  0.64267146  0.02873808  0.01690091  1
  C  C4  1  0.84645523  0.56693583  0.42770721  1
  Cu  Cu5  1  0.10905023  0.59364369  0.45632885  1
  Cu  Cu6  1  0.54936013  0.54462261  0.39650894  1
  C  C7  1  0.49296147  0.28393535  0.33330490  1
  C  C8  1  0.16447101  0.79775563  0.17131679  1
  C  C9  1  0.19005535  0.12599963  0.81764884  1
  C  C10  1  0.82484728  0.30122529  0.28745205  1
  C  C11  1  0.83807649  0.69986317  0.72757167  1
  C  C12  1  0.49689624  0.82324041  0.20528534  1
  C  C13  1  0.47994756  0.17563477  0.87491251  1
  C  C14  1  0.12557449  0.29388965  0.28374503  1
  C  C15  1  0.17419968  0.68482077  0.70433398  1
  C  C16  1  0.82847708  0.14104289  0.86569526  1
  C  C17  1  0.83603301  0.80225329  0.20244788  1
  C  C18  1  0.54900035  0.70133679  0.68890292  1
