# generated using pymatgen
data_Cu4NiC10
_symmetry_space_group_name_H-M   'P 1'
_cell_length_a   3.39905432
_cell_length_b   9.11827072
_cell_length_c   9.56671951
_cell_angle_alpha   108.37570014
_cell_angle_beta   100.22503195
_cell_angle_gamma   89.99925036
_symmetry_Int_Tables_number   1
_chemical_formula_structural   Cu4NiC10
_chemical_formula_sum   'Cu4 Ni1 C10'
_cell_volume   276.42091388
_cell_formula_units_Z   1
loop_
 _symmetry_equiv_pos_site_id
 _symmetry_equiv_pos_as_xyz
  1  'x, y, z'
loop_
 _atom_site_type_symbol
 _atom_site_label
 _atom_site_symmetry_multiplicity
 _atom_site_fract_x
 _atom_site_fract_y
 _atom_site_fract_z
 _atom_site_occupancy
  C  C0  1  0.64102541  0.14369814  0.28194600  1
  Ni  Ni1  1  0.98411968  0.52965686  0.96957238  1
  C  C2  1  0.45150998  0.01258898  0.90818929  1
  Cu  Cu3  1  0.70439386  0.80898289  0.40875800  1
  Cu  Cu4  1  0.29864911  0.18448853  0.59838883  1
  Cu  Cu5  1  0.66525828  0.48013758  0.33031251  1
  Cu  Cu6  1  0.35416329  0.52752582  0.70954377  1
  C  C7  1  0.82405126  0.01789855  0.64915649  1
  C  C8  1  0.17166594  0.97498020  0.34337509  1
  C  C9  1  0.76865068  0.35488451  0.53815286  1
  C  C10  1  0.24474141  0.65516976  0.48973300  1
  C  C11  1  0.91687842  0.70125316  0.83517768  1
  C  C12  1  0.09512705  0.29600465  0.19015920  1
  C  C13  1  0.57852181  0.62226966  0.15774903  1
  C  C14  1  0.42624384  0.35452271  0.85407188  1
