# generated using pymatgen
data_CuNiC8
_symmetry_space_group_name_H-M   'P 1'
_cell_length_a   3.98288300
_cell_length_b   5.16965817
_cell_length_c   6.41109292
_cell_angle_alpha   110.90458379
_cell_angle_beta   90.00380303
_cell_angle_gamma   112.65381071
_symmetry_Int_Tables_number   1
_chemical_formula_structural   CuNiC8
_chemical_formula_sum   'Cu1 Ni1 C8'
_cell_volume   112.34548832
_cell_formula_units_Z   1
loop_
 _symmetry_equiv_pos_site_id
 _symmetry_equiv_pos_as_xyz
  1  'x, y, z'
loop_
 _atom_site_type_symbol
 _atom_site_label
 _atom_site_symmetry_multiplicity
 _atom_site_fract_x
 _atom_site_fract_y
 _atom_site_fract_z
 _atom_site_occupancy
  Ni  Ni0  1  0.47812100  0.95675800  0.25547400  1
  C  C1  1  0.18463700  0.36971300  0.62976000  1
  C  C2  1  0.80488300  0.61020000  0.37572500  1
  Cu  Cu3  1  0.94627800  0.89328700  0.93269400  1
  C  C4  1  0.01906700  0.03836400  0.69012800  1
  C  C5  1  0.97843300  0.95742600  0.26912900  1
  C  C6  1  0.34881900  0.69814900  0.90446300  1
  C  C7  1  0.65171400  0.30373800  0.12755000  1
  C  C8  1  0.31640500  0.63318400  0.42908400  1
  C  C9  1  0.69128600  0.38293200  0.57599400  1
