# generated using pymatgen
data_CuNiC3
_symmetry_space_group_name_H-M   'P 1'
_cell_length_a   4.17039044
_cell_length_b   3.74401042
_cell_length_c   9.50801793
_cell_angle_alpha   101.34330124
_cell_angle_beta   102.50481637
_cell_angle_gamma   90.02070435
_symmetry_Int_Tables_number   1
_chemical_formula_structural   CuNiC3
_chemical_formula_sum   'Cu1 Ni1 C3'
_cell_volume   141.96204450
_cell_formula_units_Z   1
loop_
 _symmetry_equiv_pos_site_id
 _symmetry_equiv_pos_as_xyz
  1  'x, y, z'
loop_
 _atom_site_type_symbol
 _atom_site_label
 _atom_site_symmetry_multiplicity
 _atom_site_fract_x
 _atom_site_fract_y
 _atom_site_fract_z
 _atom_site_occupancy
  Ni  Ni0  1  0.75549200  0.76267900  0.51380100  1
  Cu  Cu1  1  0.00681600  0.00358100  0.00570900  1
  C  C2  1  0.33335100  0.83677500  0.67151700  1
  C  C3  1  0.66457800  0.17102600  0.33087600  1
  C  C4  1  0.98976400  0.49379500  0.98643100  1
