# generated using pymatgen
data_Cu3Ni2C
_symmetry_space_group_name_H-M   'P 1'
_cell_length_a   13.66459800
_cell_length_b   6.24477000
_cell_length_c   12.08429107
_cell_angle_alpha   78.83122416
_cell_angle_beta   90.00000000
_cell_angle_gamma   90.00000000
_symmetry_Int_Tables_number   1
_chemical_formula_structural   Cu3Ni2C
_chemical_formula_sum   'Cu18 Ni12 C6'
_cell_volume   1011.65034666
_cell_formula_units_Z   6
loop_
 _symmetry_equiv_pos_site_id
 _symmetry_equiv_pos_as_xyz
  1  'x, y, z'
loop_
 _atom_site_type_symbol
 _atom_site_label
 _atom_site_symmetry_multiplicity
 _atom_site_fract_x
 _atom_site_fract_y
 _atom_site_fract_z
 _atom_site_occupancy
  C  C0  1  0.75000000  0.87651700  0.47452000  1
  C  C1  1  0.25000000  0.12348300  0.52548000  1
  C  C2  1  0.42173000  0.20065900  0.12811900  1
  C  C3  1  0.92173000  0.79934100  0.87188100  1
  C  C4  1  0.57827000  0.79934100  0.87188100  1
  C  C5  1  0.07827000  0.20065900  0.12811900  1
  Ni  Ni6  1  0.88598400  0.54653200  0.22780900  1
  Ni  Ni7  1  0.25000000  0.61725200  0.20816400  1
  Ni  Ni8  1  0.44792700  0.77541100  0.44765600  1
  Ni  Ni9  1  0.94792700  0.22458900  0.55234400  1
  Ni  Ni10  1  0.55207300  0.22458900  0.55234400  1
  Ni  Ni11  1  0.05207300  0.77541100  0.44765600  1
  Ni  Ni12  1  0.75000000  0.15738000  0.09923200  1
  Ni  Ni13  1  0.25000000  0.84262000  0.90076800  1
  Ni  Ni14  1  0.38598400  0.45346800  0.77219100  1
  Ni  Ni15  1  0.11401600  0.45346800  0.77219100  1
  Ni  Ni16  1  0.61401600  0.54653200  0.22780900  1
  Ni  Ni17  1  0.75000000  0.38274800  0.79183600  1
  Cu  Cu18  1  0.75000000  0.75158900  0.07014400  1
  Cu  Cu19  1  0.25000000  0.24841100  0.92985600  1
  Cu  Cu20  1  0.75000000  0.42624100  0.37831300  1
  Cu  Cu21  1  0.25000000  0.57375900  0.62168700  1
  Cu  Cu22  1  0.75000000  0.03883000  0.71708500  1
  Cu  Cu23  1  0.25000000  0.96117000  0.28291500  1
  Cu  Cu24  1  0.39317800  0.73855800  0.05111700  1
  Cu  Cu25  1  0.89317800  0.26144200  0.94888300  1
  Cu  Cu26  1  0.60682200  0.26144200  0.94888300  1
  Cu  Cu27  1  0.10682200  0.73855800  0.05111700  1
  Cu  Cu28  1  0.42089200  0.08715600  0.70965300  1
  Cu  Cu29  1  0.92089200  0.91284400  0.29034700  1
  Cu  Cu30  1  0.57910800  0.91284400  0.29034700  1
  Cu  Cu31  1  0.07910800  0.08715600  0.70965300  1
  Cu  Cu32  1  0.07111600  0.40536500  0.38608700  1
  Cu  Cu33  1  0.92888400  0.59463500  0.61391300  1
  Cu  Cu34  1  0.57111600  0.59463500  0.61391300  1
  Cu  Cu35  1  0.42888400  0.40536500  0.38608700  1
