# generated using pymatgen
data_Cu7(NiC14)5
_symmetry_space_group_name_H-M   'P 1'
_cell_length_a   17.98633547
_cell_length_b   9.04575161
_cell_length_c   22.02105906
_cell_angle_alpha   89.98112304
_cell_angle_beta   90.04983943
_cell_angle_gamma   120.52832938
_symmetry_Int_Tables_number   1
_chemical_formula_structural   Cu7(NiC14)5
_chemical_formula_sum   'Cu21 Ni15 C210'
_cell_volume   3086.16549098
_cell_formula_units_Z   3
loop_
 _symmetry_equiv_pos_site_id
 _symmetry_equiv_pos_as_xyz
  1  'x, y, z'
loop_
 _atom_site_type_symbol
 _atom_site_label
 _atom_site_symmetry_multiplicity
 _atom_site_fract_x
 _atom_site_fract_y
 _atom_site_fract_z
 _atom_site_occupancy
  C  C0  1  0.81097423  0.00391231  0.24670417  1
  C  C1  1  0.68652954  0.35674082  0.24497455  1
  C  C2  1  0.50065476  0.64880246  0.24356440  1
  C  C3  1  0.30867497  0.61243645  0.74624646  1
  C  C4  1  0.00241062  0.36477112  0.74129344  1
  C  C5  1  0.17473956  0.99408927  0.74224464  1
  C  C6  1  0.15230366  0.32504642  0.57340547  1
  C  C7  1  0.67521409  0.36591240  0.58514322  1
  C  C8  1  0.01276853  0.68619923  0.57006411  1
  C  C9  1  0.51822062  0.67781808  0.59697887  1
  C  C10  1  0.32688990  0.99049070  0.58613122  1
  C  C11  1  0.82682174  0.97406725  0.59885683  1
  C  C12  1  0.17185706  0.98158140  0.07805023  1
  C  C13  1  0.65928720  0.99396377  0.06547941  1
  C  C14  1  0.32154103  0.67938886  0.09176543  1
  C  C15  1  0.82824438  0.66415828  0.08032619  1
  C  C16  1  0.01807286  0.35860183  0.09085311  1
  C  C17  1  0.51246843  0.33157559  0.06396731  1
  C  C18  1  0.49050198  0.66857972  0.92188889  1
  C  C19  1  0.97790087  0.65936772  0.91370276  1
  C  C20  1  0.35718579  0.04514373  0.92565190  1
  C  C21  1  0.84445341  0.04260832  0.91006701  1
  C  C22  1  0.16608050  0.28896760  0.91450232  1
  C  C23  1  0.66137646  0.29093909  0.92865997  1
  C  C24  1  0.48167063  0.30436450  0.42941035  1
  C  C25  1  0.98983482  0.31319378  0.42850041  1
  C  C26  1  0.15734814  0.02592866  0.43231712  1
  C  C27  1  0.66871757  0.04632696  0.42177900  1
  C  C28  1  0.34233111  0.65210192  0.41715363  1
  C  C29  1  0.85588300  0.67048114  0.42736607  1
  C  C30  1  0.00286441  0.98653383  0.50038027  1
  C  C31  1  0.50743350  0.01605965  0.50724642  1
  C  C32  1  0.00568420  0.99653114  0.00103615  1
  C  C33  1  0.50451483  0.02247349  0.99491326  1
  C  C34  1  0.34114630  0.33391273  0.82919789  1
  C  C35  1  0.82352721  0.33074648  0.82681950  1
  C  C36  1  0.31280137  0.32016934  0.33185646  1
  C  C37  1  0.84458275  0.34893508  0.33101239  1
  C  C38  1  0.16918834  0.67523806  0.16124605  1
  C  C39  1  0.66654654  0.66255751  0.16307561  1
  C  C40  1  0.15705466  0.67091024  0.66716556  1
  C  C41  1  0.67079774  0.66313773  0.66256725  1
  C  C42  1  0.00629181  0.00431667  0.35495311  1
  C  C43  1  0.50154290  0.00344874  0.34578941  1
  C  C44  1  0.99840168  0.98403719  0.84100330  1
  C  C45  1  0.50729935  0.00953548  0.85452367  1
  C  C46  1  0.33198787  0.32259588  0.68088793  1
  C  C47  1  0.82897612  0.34293562  0.68351014  1
  C  C48  1  0.32371224  0.31947089  0.18074191  1
  C  C49  1  0.83207189  0.33817492  0.18028470  1
  C  C50  1  0.33390509  0.31125315  0.98727091  1
  C  C51  1  0.82741881  0.34088435  0.98633011  1
  C  C52  1  0.32706407  0.32032587  0.48877512  1
  C  C53  1  0.83511265  0.35904616  0.49185553  1
  C  C54  1  0.16698005  0.66663396  0.02364167  1
  C  C55  1  0.66276950  0.65820050  0.01552446  1
  C  C56  1  0.16196712  0.66690198  0.51649329  1
  C  C57  1  0.66834649  0.67321483  0.52549773  1
  C  C58  1  0.66319668  0.67552315  0.31190103  1
  C  C59  1  0.16007679  0.64757104  0.80911378  1
  Ni  Ni60  1  0.64792968  0.00290768  0.25065915  1
  Ni  Ni61  1  0.14726351  0.28671816  0.74987987  1
  Ni  Ni62  1  0.99526716  0.68218413  0.75628390  1
  Ni  Ni63  1  0.47959367  0.33135554  0.58243471  1
  Ni  Ni64  1  0.18479101  0.02554950  0.58554540  1
  Ni  Ni65  1  0.68657594  0.04666884  0.58331998  1
  Ni  Ni66  1  0.84098422  0.65144930  0.58627107  1
  Ni  Ni67  1  0.97928131  0.62744092  0.08193168  1
  Ni  Ni68  1  0.33987782  0.03520289  0.08723296  1
  Ni  Ni69  1  0.18622728  0.33065266  0.08218508  1
  Ni  Ni70  1  0.68289349  0.34117889  0.08765025  1
  Ni  Ni71  1  0.51842770  0.37746754  0.91379880  1
  Ni  Ni72  1  0.67066608  0.97088429  0.92088665  1
  Ni  Ni73  1  0.16965445  0.37061283  0.42099407  1
  Ni  Ni74  1  0.01519826  0.65892370  0.41575029  1
  C  C75  1  0.01481164  0.97334402  0.65156116  1
  C  C76  1  0.51302759  0.03739701  0.64842004  1
  C  C77  1  0.01355933  0.99093505  0.14651450  1
  C  C78  1  0.50769863  0.01561369  0.14680659  1
  C  C79  1  0.15823398  0.63239943  0.32355595  1
  C  C80  1  0.66530726  0.69166664  0.82272495  1
  Cu  Cu81  1  0.14877892  0.98767517  0.25183653  1
  Cu  Cu82  1  0.34688395  0.70138198  0.25207490  1
  Cu  Cu83  1  0.85692135  0.71841523  0.25129817  1
  Cu  Cu84  1  0.00737727  0.29637211  0.25123702  1
  Cu  Cu85  1  0.49864771  0.29680707  0.25164332  1
  Cu  Cu86  1  0.64680414  0.30906616  0.75217516  1
  Cu  Cu87  1  0.50687975  0.72076499  0.75098407  1
  Cu  Cu88  1  0.36160392  0.99840883  0.75041497  1
  Cu  Cu89  1  0.83900318  0.97755380  0.75591575  1
  Cu  Cu90  1  0.98127173  0.32939654  0.58371309  1
  Cu  Cu91  1  0.33743528  0.63878333  0.58534164  1
  Cu  Cu92  1  0.48130903  0.63502618  0.08785023  1
  Cu  Cu93  1  0.83707165  0.03545556  0.08636570  1
  Cu  Cu94  1  0.31108489  0.66416709  0.91426840  1
  Cu  Cu95  1  0.81056595  0.67071981  0.91509152  1
  Cu  Cu96  1  0.01785002  0.36670981  0.91744837  1
  Cu  Cu97  1  0.16756958  0.95663919  0.91554441  1
  Cu  Cu98  1  0.31148836  0.95292059  0.41146838  1
  Cu  Cu99  1  0.81096957  0.95977416  0.41348442  1
  Cu  Cu100  1  0.66358597  0.37721950  0.41248128  1
  Cu  Cu101  1  0.51760948  0.66852464  0.41471080  1
  C  C102  1  0.09954492  0.99386839  0.30338966  1
  C  C103  1  0.60497520  0.02837602  0.31114712  1
  C  C104  1  0.39718594  0.79519511  0.30688176  1
  C  C105  1  0.90228769  0.81621670  0.30527064  1
  C  C106  1  0.48786924  0.19723202  0.30695009  1
  C  C107  1  0.00244459  0.19553842  0.30478806  1
  C  C108  1  0.10279725  0.18024110  0.81130274  1
  C  C109  1  0.59801642  0.20520385  0.80421899  1
  C  C110  1  0.50158559  0.80887683  0.80560784  1
  C  C111  1  0.98275419  0.76639454  0.81713876  1
  C  C112  1  0.40764598  -0.00212546  0.80480221  1
  C  C113  1  0.89016179  0.98982384  0.81028858  1
  C  C114  1  0.40512058  0.97211669  0.69372735  1
  C  C115  1  0.87810730  0.96058620  0.69973425  1
  C  C116  1  0.07590386  0.17688863  0.69033574  1
  C  C117  1  0.59333292  0.22757692  0.69261591  1
  C  C118  1  0.01403669  0.81430467  0.69618053  1
  C  C119  1  0.51309714  0.82161612  0.69393125  1
  C  C120  1  0.39128389  0.79754959  0.19573142  1
  C  C121  1  0.89972707  0.82721221  0.19418636  1
  C  C122  1  0.01397839  0.21321245  0.19340855  1
  C  C123  1  0.50655131  0.20633826  0.19663838  1
  C  C124  1  0.09823599  0.96932066  0.19179383  1
  C  C125  1  0.57565345  0.96911803  0.19230101  1
  C  C126  1  0.43614389  0.38190862  0.63595557  1
  C  C127  1  0.93922667  0.33654843  0.64010615  1
  C  C128  1  0.24161042  0.10948791  0.64576627  1
  C  C129  1  0.75289862  0.13479934  0.63787420  1
  C  C130  1  0.32635141  0.53689684  0.64045245  1
  C  C131  1  0.81844258  0.51181102  0.63775840  1
  C  C132  1  0.44006002  0.54312776  0.14482091  1
  C  C133  1  0.93490302  0.49158357  0.13613829  1
  C  C134  1  0.32510557  0.13461839  0.14124462  1
  C  C135  1  0.82674962  0.11326687  0.14259359  1
  C  C136  1  0.25005091  0.37840288  0.13884483  1
  C  C137  1  0.73989086  0.37113416  0.14789428  1
  C  C138  1  0.21870689  0.27134799  0.02217721  1
  C  C139  1  0.72040488  0.29673903  0.02749107  1
  C  C140  1  0.43004559  0.54172124  0.03383781  1
  C  C141  1  0.92133038  0.56914531  0.01963536  1
  C  C142  1  0.36945510  0.14994537  0.02442949  1
  C  C143  1  0.84551579  0.13945802  0.03228807  1
  C  C144  1  0.22172869  0.14227790  0.52472197  1
  C  C145  1  0.71584490  0.16603309  0.52107570  1
  C  C146  1  0.34750886  0.55519507  0.53008022  1
  C  C147  1  0.87055709  0.59524500  0.52331808  1
  C  C148  1  0.42050953  0.27538493  0.52019957  1
  C  C149  1  0.93078426  0.32502206  0.52938114  1
  C  C150  1  0.26894257  0.68387108  0.96859821  1
  C  C151  1  0.76983672  0.68025205  0.97173646  1
  C  C152  1  0.07087556  0.45585070  0.97097251  1
  C  C153  1  0.57585795  0.45909198  0.97376972  1
  C  C154  1  0.16640919  0.86249476  0.97062784  1
  C  C155  1  0.65945318  0.85280737  0.97923460  1
  C  C156  1  0.27421767  0.85912963  0.46806800  1
  C  C157  1  0.76615360  0.85114354  0.46604030  1
  C  C158  1  0.16034408  0.46800246  0.47891593  1
  C  C159  1  0.66112929  0.46895202  0.46666767  1
  C  C160  1  0.07633597  0.69574306  0.47353136  1
  C  C161  1  0.57223745  0.68698823  0.46699519  1
  C  C162  1  0.06536305  0.61756190  0.35555084  1
  C  C163  1  0.55798387  0.65800251  0.35702233  1
  C  C164  1  0.25430495  0.85985146  0.35717015  1
  C  C165  1  0.76256372  0.87681993  0.35610618  1
  C  C166  1  0.19289658  0.50471845  0.35913796  1
  C  C167  1  0.66462041  0.47000087  0.35612726  1
  C  C168  1  0.06068558  0.45947724  0.86082929  1
  C  C169  1  0.57165247  0.51871399  0.85493674  1
  C  C170  1  0.16949510  0.86591759  0.86015875  1
  C  C171  1  0.69398707  0.88410479  0.86062757  1
  C  C172  1  0.26151638  0.65104543  0.85826118  1
  C  C173  1  0.75486325  0.64952439  0.86074985  1
  C  C174  1  0.00490662  0.82629777  0.40709245  1
  C  C175  1  0.50485343  0.82195315  0.41393647  1
  C  C176  1  0.39920879  0.97036106  0.40567994  1
  C  C177  1  0.89970186  0.98367595  0.41109111  1
  C  C178  1  0.08094852  0.18725412  0.41308519  1
  C  C179  1  0.58231807  0.20009602  0.41389370  1
  C  C180  1  0.00367325  0.18730261  0.91670910  1
  C  C181  1  0.50666343  0.18718499  0.90690673  1
  C  C182  1  0.08889060  0.97519805  0.91788813  1
  C  C183  1  0.58170005  0.97592745  0.91346762  1
  C  C184  1  0.40044684  0.81871064  0.91153422  1
  C  C185  1  0.89663408  0.83249085  0.91200216  1
  C  C186  1  0.48041115  0.14412220  0.59489274  1
  C  C187  1  0.98794334  0.17127981  0.58058511  1
  C  C188  1  0.08763282  0.01076637  0.58919891  1
  C  C189  1  0.58657240  0.02832868  0.59620764  1
  C  C190  1  0.41942146  0.81198903  0.58884247  1
  C  C191  1  0.92527297  0.85247959  0.60080050  1
  C  C192  1  0.48676502  0.80851112  0.08620134  1
  C  C193  1  0.98040209  0.81747399  0.09489388  1
  C  C194  1  0.42311259  0.99874134  0.09985048  1
  C  C195  1  0.91879135  0.02604201  0.08922285  1
  C  C196  1  0.08615029  0.14753853  0.09418161  1
  C  C197  1  0.58501894  0.15844386  0.09197462  1
  C  C198  1  0.35737939  0.15617261  0.74653784  1
  C  C199  1  0.82704554  0.12693636  0.75496020  1
  C  C200  1  0.24383082  0.30911426  0.74390317  1
  C  C201  1  0.72889292  0.31395115  0.74720464  1
  C  C202  1  0.42787574  0.54874379  0.74774905  1
  C  C203  1  0.91671937  0.48658360  0.74683211  1
  C  C204  1  0.34315719  0.53221894  0.25211479  1
  C  C205  1  0.85165097  0.55063328  0.24994217  1
  C  C206  1  0.42719313  0.33280777  0.24643481  1
  C  C207  1  0.92962433  0.31229696  0.24904211  1
  C  C208  1  0.23294113  0.14814811  0.24851882  1
  C  C209  1  0.74499983  0.17013363  0.24340916  1
  C  C210  1  0.31854521  0.50765746  0.91789852  1
  C  C211  1  0.82059425  0.51769252  0.91368313  1
  C  C212  1  0.42477257  0.36776769  0.91472214  1
  C  C213  1  0.93152299  0.35357185  0.92046249  1
  C  C214  1  0.24686003  0.13251814  0.91457896  1
  C  C215  1  0.75600457  0.16335803  0.92027472  1
  C  C216  1  0.32157116  0.12585704  0.41022795  1
  C  C217  1  0.81866920  0.13106127  0.41750260  1
  C  C218  1  0.25563137  0.35260236  0.41966211  1
  C  C219  1  0.74095525  0.35829019  0.41139790  1
  C  C220  1  0.43083874  0.50993736  0.41868792  1
  C  C221  1  0.92116287  0.48195715  0.41690777  1
  C  C222  1  0.16457993  0.48274977  0.07433663  1
  C  C223  1  0.66803198  0.50402767  0.08174335  1
  C  C224  1  0.07879500  0.67703450  0.07575515  1
  C  C225  1  0.57001042  0.66360626  0.08572977  1
  C  C226  1  0.25720280  0.84431644  0.07864999  1
  C  C227  1  0.76167610  0.85778487  0.08207236  1
  C  C228  1  0.17026516  0.83314664  0.58064968  1
  C  C229  1  0.66349692  0.84919305  0.57547631  1
  C  C230  1  0.26245954  0.66460020  0.58026399  1
  C  C231  1  0.75975441  0.68053225  0.57667201  1
  C  C232  1  0.07001402  0.48287551  0.58232913  1
  C  C233  1  0.57960665  0.48043139  0.57475013  1
  C  C234  1  0.15830835  0.83437310  0.25162487  1
  C  C235  1  0.65252607  0.82557475  0.24734210  1
  C  C236  1  0.25879859  0.68263890  0.25231033  1
  C  C237  1  0.76682428  0.69029848  0.24916738  1
  C  C238  1  0.08932243  0.47372897  0.25258864  1
  C  C239  1  0.58217245  0.46648064  0.25230817  1
  C  C240  1  0.15636932  0.47607367  0.74632279  1
  C  C241  1  0.65640755  0.48070315  0.75206805  1
  C  C242  1  0.08760993  0.68617681  0.75332502  1
  C  C243  1  0.58715424  0.70794140  0.75163338  1
  C  C244  1  0.27316853  0.84429953  0.74821456  1
  C  C245  1  0.74951614  0.80621381  0.75816164  1
