# generated using pymatgen
data_Cu6Ni2C7
_symmetry_space_group_name_H-M   'P 1'
_cell_length_a   4.04315679
_cell_length_b   4.04315995
_cell_length_c   17.46333280
_cell_angle_alpha   90.00000000
_cell_angle_beta   90.00000000
_cell_angle_gamma   90.00000000
_symmetry_Int_Tables_number   1
_chemical_formula_structural   Cu6Ni2C7
_chemical_formula_sum   'Cu6 Ni2 C7'
_cell_volume   285.47536462
_cell_formula_units_Z   1
loop_
 _symmetry_equiv_pos_site_id
 _symmetry_equiv_pos_as_xyz
  1  'x, y, z'
loop_
 _atom_site_type_symbol
 _atom_site_label
 _atom_site_symmetry_multiplicity
 _atom_site_fract_x
 _atom_site_fract_y
 _atom_site_fract_z
 _atom_site_occupancy
  C  C0  1  0.25000000  0.25000000  0.07493413  1
  C  C1  1  0.75000000  0.75000000  0.92506587  1
  C  C2  1  0.25000000  0.25000000  0.27921026  1
  C  C3  1  0.75000000  0.75000000  0.72078974  1
  C  C4  1  0.75000000  0.25000000  0.50000000  1
  C  C5  1  0.75000000  0.75000000  0.17933679  1
  C  C6  1  0.25000000  0.25000000  0.82066321  1
  Ni  Ni7  1  0.75000000  0.75000000  0.40817847  1
  Ni  Ni8  1  0.25000000  0.25000000  0.59182153  1
  Cu  Cu9  1  0.75000000  0.25000000  0.20530593  1
  Cu  Cu10  1  0.25000000  0.75000000  0.20459093  1
  Cu  Cu11  1  0.25000000  0.75000000  0.79540707  1
  Cu  Cu12  1  0.75000000  0.25000000  0.79469607  1
  Cu  Cu13  1  0.75000000  0.75000000  0.06138018  1
  Cu  Cu14  1  0.25000000  0.25000000  0.93861982  1
