# generated using pymatgen
data_Cu2NiC17
_symmetry_space_group_name_H-M   'P 1'
_cell_length_a   9.32016409
_cell_length_b   9.33781275
_cell_length_c   22.75663255
_cell_angle_alpha   90.16684012
_cell_angle_beta   90.08084637
_cell_angle_gamma   120.13610578
_symmetry_Int_Tables_number   1
_chemical_formula_structural   Cu2NiC17
_chemical_formula_sum   'Cu12 Ni6 C102'
_cell_volume   1712.79680275
_cell_formula_units_Z   6
loop_
 _symmetry_equiv_pos_site_id
 _symmetry_equiv_pos_as_xyz
  1  'x, y, z'
loop_
 _atom_site_type_symbol
 _atom_site_label
 _atom_site_symmetry_multiplicity
 _atom_site_fract_x
 _atom_site_fract_y
 _atom_site_fract_z
 _atom_site_occupancy
  C  C0  1  0.99065633  0.98337127  0.50509458  1
  C  C1  1  0.95681435  0.98084884  0.99487565  1
  C  C2  1  0.66250033  0.34083558  0.82896121  1
  C  C3  1  0.65528463  0.33289684  0.32836142  1
  C  C4  1  0.32904261  0.64009407  0.16691481  1
  C  C5  1  0.33515958  0.66457026  0.67083145  1
  C  C6  1  0.66006568  0.01215664  0.24302729  1
  C  C7  1  0.00393559  0.34084158  0.74512700  1
  C  C8  1  0.35796971  0.00998600  0.75412439  1
  C  C9  1  0.30464880  0.33280532  0.59353755  1
  C  C10  1  0.66335773  0.96881212  0.58510888  1
  C  C11  1  0.29095088  0.95550026  0.07851919  1
  C  C12  1  0.03795260  0.33928877  0.07560976  1
  C  C13  1  0.99712568  0.68288158  0.91664121  1
  C  C14  1  0.31347440  0.28976389  0.91271358  1
  C  C15  1  0.96099261  0.28720389  0.41212955  1
  C  C16  1  0.33785247  0.03808006  0.40576696  1
  C  C17  1  0.69966664  0.68130885  0.41685148  1
  C  C18  1  0.00306425  0.99964771  0.34549961  1
  C  C19  1  0.99265188  0.99580495  0.85026470  1
  C  C20  1  0.99511440  0.99087597  0.65395457  1
  C  C21  1  0.00036717  0.99335006  0.14860561  1
  C  C22  1  0.67289885  0.34837017  0.68389711  1
  C  C23  1  0.66385537  0.34282350  0.18683462  1
  C  C24  1  0.66870285  0.33606515  0.48178889  1
  C  C25  1  0.34636837  0.66977865  0.01822080  1
  C  C26  1  0.32613143  0.66787888  0.51938630  1
  C  C27  1  0.66588046  0.33258747  0.97575927  1
  C  C28  1  0.33213545  0.67371237  0.31253485  1
  C  C29  1  0.34178536  0.66505897  0.82124809  1
  Ni  Ni30  1  0.30804166  0.99858814  0.25162320  1
  Ni  Ni31  1  0.30491682  0.31140650  0.75198697  1
  Ni  Ni32  1  0.63510898  0.65987865  0.92047169  1
  Ni  Ni33  1  0.03200521  0.37045645  0.92083727  1
  Ni  Ni34  1  0.33858933  0.96389378  0.92041774  1
  Ni  Ni35  1  0.63121261  0.96567133  0.41823650  1
  Cu  Cu36  1  0.68731032  0.69985388  0.25656006  1
  Cu  Cu37  1  0.00923020  0.31019198  0.24974846  1
  Cu  Cu38  1  0.01645780  0.69499740  0.75732880  1
  Cu  Cu39  1  0.68438674  0.99182681  0.74698839  1
  Cu  Cu40  1  0.96917046  0.32356146  0.58387630  1
  Cu  Cu41  1  0.36200185  0.03612734  0.58370894  1
  Cu  Cu42  1  0.66896799  0.64146379  0.57707358  1
  Cu  Cu43  1  0.95584835  0.62864987  0.07920206  1
  Cu  Cu44  1  0.67476414  0.05399806  0.08404536  1
  Cu  Cu45  1  0.36771418  0.32331624  0.07913200  1
  Cu  Cu46  1  0.33381714  0.37677541  0.41565891  1
  Cu  Cu47  1  0.03583101  0.66325331  0.41285324  1
  C  C48  1  0.22552479  0.01179596  0.31259418  1
  C  C49  1  0.76973013  0.77276964  0.31621917  1
  C  C50  1  0.98075610  0.20190415  0.30495166  1
  C  C51  1  0.21478069  0.19562215  0.80854156  1
  C  C52  1  0.99415975  0.76373210  0.81553505  1
  C  C53  1  0.81003823  0.01959011  0.79546293  1
  C  C54  1  0.74906110  0.96794710  0.68717741  1
  C  C55  1  0.18648493  0.23096108  0.69307178  1
  C  C56  1  0.03047710  0.81009668  0.70603068  1
  C  C57  1  0.78283360  0.82483313  0.20663189  1
  C  C58  1  0.02673210  0.22437973  0.19396153  1
  C  C59  1  0.19563782  0.97592144  0.19352187  1
  C  C60  1  0.87695501  0.32606284  0.63972115  1
  C  C61  1  0.46531225  0.13318657  0.63798109  1
  C  C62  1  0.66586285  0.52749373  0.62617008  1
  C  C63  1  0.86051022  0.52869562  0.13232274  1
  C  C64  1  0.67606734  0.13512712  0.14260355  1
  C  C65  1  0.46324874  0.32510357  0.13340775  1
  C  C66  1  0.47140073  0.32650610  0.02317894  1
  C  C67  1  0.85281022  0.53219679  0.02209233  1
  C  C68  1  0.67709420  0.17203734  0.03241785  1
  C  C69  1  0.44936673  0.13446073  0.52669252  1
  C  C70  1  0.67653252  0.56792461  0.51647587  1
  C  C71  1  0.87340940  0.32468386  0.52760529  1
  C  C72  1  0.55693714  0.68444808  0.97858715  1
  C  C73  1  0.13230768  0.44924765  0.98056948  1
  C  C74  1  0.30149291  0.85684345  0.97928310  1
  C  C75  1  0.54825510  0.86343557  0.47800639  1
  C  C76  1  0.31611074  0.44939603  0.47422579  1
  C  C77  1  0.13342617  0.67894840  0.46877099  1
  C  C78  1  0.14246197  0.65936288  0.35971355  1
  C  C79  1  0.50298430  0.84453268  0.36222477  1
  C  C80  1  0.33195437  0.48901114  0.36473473  1
  C  C81  1  0.14559930  0.50599419  0.86631085  1
  C  C82  1  0.36211765  0.86002658  0.86427400  1
  C  C83  1  0.50603830  0.64449932  0.86457121  1
  C  C84  1  0.00991107  0.81358600  0.41020130  1
  C  C85  1  0.81750168  0.99179134  0.41319888  1
  C  C86  1  0.18504644  0.19756643  0.41104746  1
  C  C87  1  0.00667024  0.18920528  0.91109066  1
  C  C88  1  0.18892053  0.00054329  0.91007474  1
  C  C89  1  0.82517914  0.79952797  0.91261654  1
  C  C90  1  0.97472886  0.15976543  0.58174095  1
  C  C91  1  0.19002863  0.02344128  0.58531295  1
  C  C92  1  0.81924939  0.81782207  0.58231951  1
  C  C93  1  0.97897225  0.80524636  0.07822430  1
  C  C94  1  0.83652548  0.04671511  0.07739115  1
  C  C95  1  0.19680063  0.15878607  0.07549715  1
  C  C96  1  0.65917455  0.14438285  0.74685017  1
  C  C97  1  0.48953290  0.33438324  0.74803639  1
  C  C98  1  0.87627613  0.51256346  0.74925205  1
  C  C99  1  0.66538936  0.52783844  0.24933075  1
  C  C100  1  0.85866083  0.33529067  0.24600222  1
  C  C101  1  0.50251614  0.14274413  0.24996509  1
  C  C102  1  0.62418732  0.47448094  0.91950133  1
  C  C103  1  0.85120531  0.36922897  0.92172723  1
  C  C104  1  0.51334093  0.14814979  0.92553600  1
  C  C105  1  0.63564293  0.14366245  0.41333754  1
  C  C106  1  0.49867227  0.37339442  0.41223849  1
  C  C107  1  0.86653192  0.49930548  0.41069216  1
  C  C108  1  0.33524660  0.47051146  0.08185339  1
  C  C109  1  0.13017463  0.64372333  0.08084917  1
  C  C110  1  0.51442956  0.88404654  0.08152277  1
  C  C111  1  0.35130951  0.86500329  0.58501122  1
  C  C112  1  0.50662459  0.65005348  0.58407002  1
  C  C113  1  0.14884867  0.47262567  0.58579207  1
  C  C114  1  0.32038286  0.82154050  0.25716764  1
  C  C115  1  0.51001903  0.68463331  0.25634471  1
  C  C116  1  0.17234799  0.48148544  0.25742942  1
  C  C117  1  0.31102554  0.49322071  0.76147244  1
  C  C118  1  0.18501457  0.69464364  0.75776350  1
  C  C119  1  0.51039103  0.83526998  0.75862492  1
