# generated using pymatgen
data_Cu(NiC3)3
_symmetry_space_group_name_H-M   'P 1'
_cell_length_a   3.34756100
_cell_length_b   3.34748295
_cell_length_c   44.21319739
_cell_angle_alpha   90.01338246
_cell_angle_beta   89.99996734
_cell_angle_gamma   120.00074433
_symmetry_Int_Tables_number   1
_chemical_formula_structural   Cu(NiC3)3
_chemical_formula_sum   'Cu1 Ni3 C9'
_cell_volume   429.06802823
_cell_formula_units_Z   1
loop_
 _symmetry_equiv_pos_site_id
 _symmetry_equiv_pos_as_xyz
  1  'x, y, z'
loop_
 _atom_site_type_symbol
 _atom_site_label
 _atom_site_symmetry_multiplicity
 _atom_site_fract_x
 _atom_site_fract_y
 _atom_site_fract_z
 _atom_site_occupancy
  C  C0  1  0.00030900  0.00060300  0.37095800  1
  C  C1  1  0.33325200  0.66650500  0.70130800  1
  C  C2  1  0.33336800  0.66673600  0.61502000  1
  Ni  Ni3  1  0.33324500  0.66649000  0.09372500  1
  Ni  Ni4  1  0.33330500  0.66660900  0.47469400  1
  Ni  Ni5  1  0.66666900  0.33334000  0.27645700  1
  Cu  Cu6  1  0.66663400  0.33327000  0.65817300  1
  C  C7  1  0.66661200  0.33322300  0.05604800  1
  C  C8  1  0.66662700  0.33325500  0.43658100  1
  C  C9  1  0.66654800  0.33309700  0.13140500  1
  C  C10  1  0.66663300  0.33326800  0.51223500  1
  C  C11  1  0.33385400  0.66770900  0.31128600  1
  C  C12  1  0.33294500  0.66589500  0.24238500  1
