# generated using pymatgen
data_Cu(NiC3)3
_symmetry_space_group_name_H-M   'P 1'
_cell_length_a   3.33820700
_cell_length_b   3.33809808
_cell_length_c   45.85595304
_cell_angle_alpha   89.99595904
_cell_angle_beta   90.00000000
_cell_angle_gamma   120.00108931
_symmetry_Int_Tables_number   1
_chemical_formula_structural   Cu(NiC3)3
_chemical_formula_sum   'Cu1 Ni3 C9'
_cell_volume   442.52105905
_cell_formula_units_Z   1
loop_
 _symmetry_equiv_pos_site_id
 _symmetry_equiv_pos_as_xyz
  1  'x, y, z'
loop_
 _atom_site_type_symbol
 _atom_site_label
 _atom_site_symmetry_multiplicity
 _atom_site_fract_x
 _atom_site_fract_y
 _atom_site_fract_z
 _atom_site_occupancy
  C  C0  1  0.00002900  0.00005900  0.18432000  1
  C  C1  1  0.33332800  0.66665800  0.69902600  1
  C  C2  1  0.33337600  0.66675200  0.61611700  1
  Ni  Ni3  1  0.33328700  0.66657600  0.08669500  1
  Ni  Ni4  1  0.33327300  0.66654700  0.46952700  1
  Ni  Ni5  1  0.66670100  0.33340000  0.65757200  1
  Cu  Cu6  1  0.66671000  0.33341800  0.29002100  1
  C  C7  1  0.33334200  0.66668500  0.32657800  1
  C  C8  1  0.66665000  0.33330000  0.05046500  1
  C  C9  1  0.66662900  0.33325700  0.12363400  1
  C  C10  1  0.33338000  0.66676100  0.25323300  1
  C  C11  1  0.66666100  0.33332100  0.43643400  1
  C  C12  1  0.66663300  0.33326600  0.50262800  1
