# generated using pymatgen
data_Cu2NiC10
_symmetry_space_group_name_H-M   'P 1'
_cell_length_a   5.73120681
_cell_length_b   5.73120681
_cell_length_c   6.17365090
_cell_angle_alpha   84.66029823
_cell_angle_beta   95.33970177
_cell_angle_gamma   55.83983259
_symmetry_Int_Tables_number   1
_chemical_formula_structural   Cu2NiC10
_chemical_formula_sum   'Cu2 Ni1 C10'
_cell_volume   164.45069616
_cell_formula_units_Z   1
loop_
 _symmetry_equiv_pos_site_id
 _symmetry_equiv_pos_as_xyz
  1  'x, y, z'
loop_
 _atom_site_type_symbol
 _atom_site_label
 _atom_site_symmetry_multiplicity
 _atom_site_fract_x
 _atom_site_fract_y
 _atom_site_fract_z
 _atom_site_occupancy
  C  C0  1  0.15327491  0.20641871  0.46117010  1
  C  C1  1  0.79358129  0.84672509  0.46117010  1
  C  C2  1  0.59616138  0.40383862  0.62572932  1
  C  C3  1  0.90949328  0.09050672  0.99790300  1
  Ni  Ni4  1  0.38808979  0.61191021  0.18876684  1
  Cu  Cu5  1  0.67975420  0.71446370  0.96466939  1
  Cu  Cu6  1  0.28553630  0.32024580  0.96466939  1
  C  C7  1  0.35789397  0.64210603  0.86833148  1
  C  C8  1  0.05717518  0.58011338  0.16639397  1
  C  C9  1  0.41988662  0.94282482  0.16639397  1
  C  C10  1  0.91754862  0.47511133  0.77781803  1
  C  C11  1  0.52488867  0.08245138  0.77781803  1
  C  C12  1  0.74171579  0.25828421  0.31726138  1
