# generated using pymatgen
data_Cu2Ni4C11
_symmetry_space_group_name_H-M   'P 1'
_cell_length_a   5.20895756
_cell_length_b   5.78330441
_cell_length_c   7.38001053
_cell_angle_alpha   107.09286086
_cell_angle_beta   90.44103712
_cell_angle_gamma   115.46520298
_symmetry_Int_Tables_number   1
_chemical_formula_structural   Cu2Ni4C11
_chemical_formula_sum   'Cu2 Ni4 C11'
_cell_volume   189.52767155
_cell_formula_units_Z   1
loop_
 _symmetry_equiv_pos_site_id
 _symmetry_equiv_pos_as_xyz
  1  'x, y, z'
loop_
 _atom_site_type_symbol
 _atom_site_label
 _atom_site_symmetry_multiplicity
 _atom_site_fract_x
 _atom_site_fract_y
 _atom_site_fract_z
 _atom_site_occupancy
  C  C0  1  0.81204500  0.61523600  0.58163300  1
  Ni  Ni1  1  0.61785800  0.25223900  0.19890800  1
  Ni  Ni2  1  0.35072700  0.73685500  0.28233600  1
  Ni  Ni3  1  0.61530200  0.20702000  0.72045400  1
  Ni  Ni4  1  0.37574100  0.74254300  0.80760500  1
  Cu  Cu5  1  0.99758000  0.99613600  0.00405900  1
  Cu  Cu6  1  0.04379100  0.07701400  0.49463800  1
  C  C7  1  0.80671200  0.97399000  0.73540100  1
  C  C8  1  0.20900600  0.00277900  0.24479300  1
  C  C9  1  0.24901400  0.83644000  0.55330000  1
  C  C10  1  0.41007200  0.14011500  0.93956600  1
  C  C11  1  0.72759700  0.19226100  0.44516300  1
  C  C12  1  0.57586600  0.84472700  0.06661500  1
  C  C13  1  0.42869500  0.43050300  0.68086000  1
  C  C14  1  0.97400700  0.55226400  0.80988400  1
  C  C15  1  0.60821900  0.58358000  0.33132900  1
  C  C16  1  0.02276800  0.42046700  0.17753000  1
