# generated using pymatgen
data_Cu5(NiC)7
_symmetry_space_group_name_H-M   'P 1'
_cell_length_a   4.98423040
_cell_length_b   5.06346059
_cell_length_c   9.20127075
_cell_angle_alpha   92.34233272
_cell_angle_beta   87.89262212
_cell_angle_gamma   98.42974150
_symmetry_Int_Tables_number   1
_chemical_formula_structural   Cu5(NiC)7
_chemical_formula_sum   'Cu5 Ni7 C7'
_cell_volume   229.40460842
_cell_formula_units_Z   1
loop_
 _symmetry_equiv_pos_site_id
 _symmetry_equiv_pos_as_xyz
  1  'x, y, z'
loop_
 _atom_site_type_symbol
 _atom_site_label
 _atom_site_symmetry_multiplicity
 _atom_site_fract_x
 _atom_site_fract_y
 _atom_site_fract_z
 _atom_site_occupancy
  C  C0  1  0.00493100  0.51121400  0.33636300  1
  C  C1  1  0.98403000  0.00333800  0.00420400  1
  C  C2  1  0.03287100  0.02233800  0.33464500  1
  C  C3  1  0.00155300  0.98350700  0.66567800  1
  C  C4  1  0.49081100  0.49718600  0.83656200  1
  C  C5  1  0.52843100  0.44561100  0.15034900  1
  C  C6  1  0.46823500  0.51873700  0.52208700  1
  Ni  Ni7  1  0.14860200  0.81220500  0.48525800  1
  Ni  Ni8  1  0.31379700  0.27393000  0.99410700  1
  Ni  Ni9  1  0.32466300  0.32318400  0.34097800  1
  Ni  Ni10  1  0.29955100  0.29389800  0.67213900  1
  Ni  Ni11  1  0.68565400  0.68977300  0.00203900  1
  Ni  Ni12  1  0.67137400  0.71174800  0.67452800  1
  Ni  Ni13  1  0.86022500  0.20190600  0.18830700  1
  Cu  Cu14  1  0.16736100  0.75528000  0.18166800  1
  Cu  Cu15  1  0.16351700  0.80220100  0.84279300  1
  Cu  Cu16  1  0.69446100  0.71348400  0.33409600  1
  Cu  Cu17  1  0.82395700  0.26126900  0.48705400  1
  Cu  Cu18  1  0.82209200  0.17919100  0.82571300  1
