# generated using pymatgen
data_Cu2NiC12
_symmetry_space_group_name_H-M   'P 1'
_cell_length_a   7.67911554
_cell_length_b   7.67911608
_cell_length_c   7.67911700
_cell_angle_alpha   60.00000034
_cell_angle_beta   59.99999801
_cell_angle_gamma   59.99999852
_symmetry_Int_Tables_number   1
_chemical_formula_structural   Cu2NiC12
_chemical_formula_sum   'Cu2 Ni1 C12'
_cell_volume   320.19807071
_cell_formula_units_Z   1
loop_
 _symmetry_equiv_pos_site_id
 _symmetry_equiv_pos_as_xyz
  1  'x, y, z'
loop_
 _atom_site_type_symbol
 _atom_site_label
 _atom_site_symmetry_multiplicity
 _atom_site_fract_x
 _atom_site_fract_y
 _atom_site_fract_z
 _atom_site_occupancy
  Ni  Ni0  1  0.62500000  0.62500000  0.62500000  1
  C  C1  1  0.47960800  0.47960800  0.06117600  1
  C  C2  1  0.47960800  0.47960800  0.47960800  1
  C  C3  1  0.06117600  0.47960800  0.47960800  1
  C  C4  1  0.47960800  0.06117600  0.47960800  1
  Cu  Cu5  1  0.87500000  0.87500000  0.87500000  1
  Cu  Cu6  1  0.12500000  0.12500000  0.12500000  1
  C  C7  1  0.74727800  0.74727800  0.74727800  1
  C  C8  1  0.24785800  0.24785800  0.75642600  1
  C  C9  1  0.24785800  0.75642600  0.24785800  1
  C  C10  1  0.75642600  0.24785800  0.24785800  1
  C  C11  1  0.74727800  0.25816500  0.74727800  1
  C  C12  1  0.25816500  0.74727800  0.74727800  1
  C  C13  1  0.24785800  0.24785800  0.24785800  1
  C  C14  1  0.74727800  0.74727800  0.25816500  1
