# generated using pymatgen
data_Cu2Ni12C17
_symmetry_space_group_name_H-M   'P 1'
_cell_length_a   12.74284400
_cell_length_b   6.43945900
_cell_length_c   9.36987673
_cell_angle_alpha   75.08232345
_cell_angle_beta   90.00000000
_cell_angle_gamma   90.00000000
_symmetry_Int_Tables_number   1
_chemical_formula_structural   Cu2Ni12C17
_chemical_formula_sum   'Cu4 Ni24 C34'
_cell_volume   742.95091911
_cell_formula_units_Z   2
loop_
 _symmetry_equiv_pos_site_id
 _symmetry_equiv_pos_as_xyz
  1  'x, y, z'
loop_
 _atom_site_type_symbol
 _atom_site_label
 _atom_site_symmetry_multiplicity
 _atom_site_fract_x
 _atom_site_fract_y
 _atom_site_fract_z
 _atom_site_occupancy
  C  C0  1  0.15379900  0.65783500  0.13379800  1
  C  C1  1  0.65379900  0.34216500  0.36620200  1
  C  C2  1  0.84620100  0.34216500  0.86620200  1
  C  C3  1  0.34620100  0.65783500  0.63379800  1
  C  C4  1  0.00000000  0.00000000  0.50000000  1
  C  C5  1  0.50000000  0.00000000  0.00000000  1
  Ni  Ni6  1  0.36307500  0.32190500  0.97231300  1
  Ni  Ni7  1  0.59392900  0.92792400  0.26723400  1
  Ni  Ni8  1  0.09392900  0.07207600  0.23276600  1
  Ni  Ni9  1  0.40607100  0.07207600  0.73276600  1
  Ni  Ni10  1  0.90607100  0.92792400  0.76723400  1
  Ni  Ni11  1  0.68171200  0.99950400  0.14393500  1
  Ni  Ni12  1  0.18171200  0.00049600  0.35606500  1
  Ni  Ni13  1  0.31828800  0.00049600  0.85606500  1
  Ni  Ni14  1  0.81828800  0.99950400  0.64393500  1
  Ni  Ni15  1  0.59050100  0.31340400  0.79608000  1
  Ni  Ni16  1  0.09050100  0.68659600  0.70392000  1
  Ni  Ni17  1  0.40949900  0.68659600  0.20392000  1
  Ni  Ni18  1  0.90949900  0.31340400  0.29608000  1
  Ni  Ni19  1  0.62737300  0.09156500  0.76202900  1
  Ni  Ni20  1  0.86307500  0.67809500  0.52768700  1
  Ni  Ni21  1  0.12737300  0.90843500  0.73797100  1
  Ni  Ni22  1  0.13692500  0.32190500  0.47231300  1
  Ni  Ni23  1  0.63692500  0.67809500  0.02768700  1
  Ni  Ni24  1  0.94437400  0.66813000  0.40220800  1
  Ni  Ni25  1  0.44437400  0.33187000  0.09779200  1
  Ni  Ni26  1  0.05562600  0.33187000  0.59779200  1
  Ni  Ni27  1  0.55562600  0.66813000  0.90220800  1
  Ni  Ni28  1  0.37262700  0.90843500  0.23797100  1
  Ni  Ni29  1  0.87262700  0.09156500  0.26202900  1
  Cu  Cu30  1  0.14036400  0.26765100  0.90365100  1
  Cu  Cu31  1  0.35963600  0.26765100  0.40365100  1
  Cu  Cu32  1  0.64036400  0.73234900  0.59634900  1
  Cu  Cu33  1  0.85963600  0.73234900  0.09634900  1
  C  C34  1  0.61134900  0.16190300  0.84220900  1
  C  C35  1  0.11134900  0.83809700  0.65779100  1
  C  C36  1  0.38865100  0.83809700  0.15779100  1
  C  C37  1  0.88865100  0.16190300  0.34220900  1
  C  C38  1  0.75628500  0.57649500  0.08417800  1
  C  C39  1  0.56238000  0.70929600  0.99708200  1
  C  C40  1  0.06238000  0.29070400  0.50291800  1
  C  C41  1  0.43762000  0.29070400  0.00291800  1
  C  C42  1  0.93762000  0.70929600  0.49708200  1
  C  C43  1  0.74371500  0.57649500  0.58417800  1
  C  C44  1  0.89263700  0.02586700  0.66736400  1
  C  C45  1  0.39263700  0.97413300  0.83263600  1
  C  C46  1  0.10736300  0.97413300  0.33263600  1
  C  C47  1  0.60736300  0.02586700  0.16736400  1
  C  C48  1  0.24371500  0.42350500  0.91582200  1
  C  C49  1  0.43516400  0.40301600  0.26311000  1
  C  C50  1  0.93516400  0.59698400  0.23689000  1
  C  C51  1  0.56483600  0.59698400  0.73689000  1
  C  C52  1  0.06483600  0.40301600  0.76311000  1
  C  C53  1  0.31756000  0.03455700  0.37287000  1
  C  C54  1  0.81756000  0.96544300  0.12713000  1
  C  C55  1  0.68244000  0.96544300  0.62713000  1
  C  C56  1  0.43109500  0.22263500  0.55808000  1
  C  C57  1  0.93109500  0.77736500  0.94192000  1
  C  C58  1  0.56890500  0.77736500  0.44192000  1
  C  C59  1  0.06890500  0.22263500  0.05808000  1
  C  C60  1  0.25628500  0.42350500  0.41582200  1
  C  C61  1  0.18244000  0.03455700  0.87287000  1
