# generated using pymatgen
data_CuNi2C15
_symmetry_space_group_name_H-M   'P 1'
_cell_length_a   8.78770437
_cell_length_b   9.24934133
_cell_length_c   23.17751519
_cell_angle_alpha   84.80909902
_cell_angle_beta   90.00000000
_cell_angle_gamma   118.36227183
_symmetry_Int_Tables_number   1
_chemical_formula_structural   CuNi2C15
_chemical_formula_sum   'Cu6 Ni12 C90'
_cell_volume   1648.95612424
_cell_formula_units_Z   6
loop_
 _symmetry_equiv_pos_site_id
 _symmetry_equiv_pos_as_xyz
  1  'x, y, z'
loop_
 _atom_site_type_symbol
 _atom_site_label
 _atom_site_symmetry_multiplicity
 _atom_site_fract_x
 _atom_site_fract_y
 _atom_site_fract_z
 _atom_site_occupancy
  C  C0  1  0.97273259  0.96540597  0.49371650  1
  C  C1  1  0.99267338  0.96540597  0.99371650  1
  C  C2  1  0.63939959  0.29873897  0.82704950  1
  C  C3  1  0.65934038  0.29873897  0.32704950  1
  C  C4  1  0.30606559  0.63207297  0.16038350  1
  C  C5  1  0.32600638  0.63207297  0.66038350  1
  C  C6  1  0.99605780  0.00839338  0.63876602  1
  C  C7  1  0.01233558  0.00839338  0.13876602  1
  C  C8  1  0.66272480  0.34172638  0.97209902  1
  C  C9  1  0.67900258  0.34172638  0.47209902  1
  C  C10  1  0.32939080  0.67506038  0.30543302  1
  C  C11  1  0.34566858  0.67506038  0.80543302  1
  C  C12  1  0.02435456  0.03511304  0.35765748  1
  C  C13  1  0.01075848  0.03511304  0.85765748  1
  C  C14  1  0.69102156  0.36844604  0.69099048  1
  C  C15  1  0.67742548  0.36844604  0.19099048  1
  C  C16  1  0.35768756  0.70178004  0.02432448  1
  C  C17  1  0.34409148  0.70178004  0.52432448  1
  Ni  Ni18  1  0.31501420  0.05362375  0.25256925  1
  Ni  Ni19  1  0.97153797  0.27207216  0.24825831  1
  Ni  Ni20  1  0.30053419  0.27207216  0.74825831  1
  Ni  Ni21  1  0.73860955  0.05362375  0.75256925  1
  Ni  Ni22  1  0.98168120  0.38695675  0.58590225  1
  Ni  Ni23  1  0.63820497  0.60540516  0.58159131  1
  Ni  Ni24  1  0.96720119  0.60540516  0.08159131  1
  Ni  Ni25  1  0.40527655  0.38695675  0.08590225  1
  Ni  Ni26  1  0.64834720  0.72029075  0.91923625  1
  Ni  Ni27  1  0.30487097  0.93873916  0.91492531  1
  Ni  Ni28  1  0.63386719  0.93873916  0.41492531  1
  Ni  Ni29  1  0.07194255  0.72029075  0.41923625  1
  Cu  Cu30  1  0.71789192  0.67954196  0.24952472  1
  Cu  Cu31  1  0.96165003  0.67954196  0.74952472  1
  Cu  Cu32  1  0.38455892  0.01287496  0.58285772  1
  Cu  Cu33  1  0.62831703  0.01287496  0.08285772  1
  Cu  Cu34  1  0.05122492  0.34620896  0.91619172  1
  Cu  Cu35  1  0.29498303  0.34620896  0.41619172  1
  C  C36  1  0.21178011  0.06157625  0.30778776  1
  C  C37  1  0.80434759  0.75051474  0.30129105  1
  C  C38  1  0.94854701  0.16126438  0.30929626  1
  C  C39  1  0.21271737  0.16126438  0.80929626  1
  C  C40  1  0.94616716  0.75051474  0.80129105  1
  C  C41  1  0.84979614  0.06157625  0.80778776  1
  C  C42  1  0.80981034  0.02129415  0.69894534  1
  C  C43  1  0.19525737  0.18887109  0.69844765  1
  C  C44  1  0.98427252  0.77996299  0.69486274  1
  C  C45  1  0.79569047  0.77996299  0.19486274  1
  C  C46  1  0.99361372  0.18887109  0.19844765  1
  C  C47  1  0.21148381  0.02129415  0.19894534  1
  C  C48  1  0.87844711  0.39490925  0.64112076  1
  C  C49  1  0.47101459  0.08384774  0.63462405  1
  C  C50  1  0.61521401  0.49459738  0.64262926  1
  C  C51  1  0.87938437  0.49459738  0.14262926  1
  C  C52  1  0.61283416  0.08384774  0.13462405  1
  C  C53  1  0.51646314  0.39490925  0.14112076  1
  C  C54  1  0.47647734  0.35462715  0.03227834  1
  C  C55  1  0.86192437  0.52220409  0.03178065  1
  C  C56  1  0.65093952  0.11329599  0.02819574  1
  C  C57  1  0.46235747  0.11329599  0.52819574  1
  C  C58  1  0.66028072  0.52220409  0.53178065  1
  C  C59  1  0.87815081  0.35462715  0.53227834  1
  C  C60  1  0.54511311  0.72824325  0.97445476  1
  C  C61  1  0.13768059  0.41718174  0.96795805  1
  C  C62  1  0.28188001  0.82793138  0.97596326  1
  C  C63  1  0.54605037  0.82793138  0.47596326  1
  C  C64  1  0.27950016  0.41718174  0.46795805  1
  C  C65  1  0.18312914  0.72824325  0.47445476  1
  C  C66  1  0.14314334  0.68796115  0.36561234  1
  C  C67  1  0.52859037  0.85553809  0.36511465  1
  C  C68  1  0.31760552  0.44662999  0.36152974  1
  C  C69  1  0.12902347  0.44662999  0.86152974  1
  C  C70  1  0.32694672  0.85553809  0.86511465  1
  C  C71  1  0.54481681  0.68796115  0.86561234  1
  C  C72  1  0.07857120  0.89486425  0.41084840  1
  C  C73  1  0.81682937  0.94165142  0.40945210  1
  C  C74  1  0.12000379  0.18528269  0.41410523  1
  C  C75  1  0.06527890  0.18528269  0.91410523  1
  C  C76  1  0.12482205  0.94165142  0.90945210  1
  C  C77  1  0.81629305  0.89486425  0.91084840  1
  C  C78  1  0.03653014  0.25435445  0.59543535  1
  C  C79  1  0.19824476  0.96394474  0.58360904  1
  C  C80  1  0.78351339  0.78226862  0.58542680  1
  C  C81  1  0.99875523  0.78226862  0.08542680  1
  C  C82  1  0.76569998  0.96394474  0.08360904  1
  C  C83  1  0.21782431  0.25435445  0.09543535  1
  C  C84  1  0.74523820  0.22819725  0.74418140  1
  C  C85  1  0.48349637  0.27498442  0.74278510  1
  C  C86  1  0.78667079  0.51861569  0.74743823  1
  C  C87  1  0.73194590  0.51861569  0.24743823  1
  C  C88  1  0.79148905  0.27498442  0.24278510  1
  C  C89  1  0.48296005  0.22819725  0.24418140  1
  C  C90  1  0.70319714  0.58768745  0.92876835  1
  C  C91  1  0.86491176  0.29727774  0.91694204  1
  C  C92  1  0.45018039  0.11560162  0.91875980  1
  C  C93  1  0.66542223  0.11560162  0.41875980  1
  C  C94  1  0.43236698  0.29727774  0.41694204  1
  C  C95  1  0.88449131  0.58768745  0.42876835  1
  C  C96  1  0.41190420  0.56153125  0.07751540  1
  C  C97  1  0.15016237  0.60831842  0.07611910  1
  C  C98  1  0.45333679  0.85194969  0.08077223  1
  C  C99  1  0.39861190  0.85194969  0.58077223  1
  C  C100  1  0.45815505  0.60831842  0.57611910  1
  C  C101  1  0.14962605  0.56153125  0.57751540  1
  C  C102  1  0.36986314  0.92102145  0.26210235  1
  C  C103  1  0.53157776  0.63061174  0.25027604  1
  C  C104  1  0.11684639  0.44893562  0.25209380  1
  C  C105  1  0.33208823  0.44893562  0.75209380  1
  C  C106  1  0.09903298  0.63061174  0.75027604  1
  C  C107  1  0.55115731  0.92102145  0.76210235  1
