# generated using pymatgen
data_Cu2NiC17
_symmetry_space_group_name_H-M   'P 1'
_cell_length_a   15.54279545
_cell_length_b   26.81986656
_cell_length_c   8.95781097
_cell_angle_alpha   90.00000000
_cell_angle_beta   125.16066060
_cell_angle_gamma   90.00000000
_symmetry_Int_Tables_number   1
_chemical_formula_structural   Cu2NiC17
_chemical_formula_sum   'Cu24 Ni12 C204'
_cell_volume   3052.78983133
_cell_formula_units_Z   12
loop_
 _symmetry_equiv_pos_site_id
 _symmetry_equiv_pos_as_xyz
  1  'x, y, z'
loop_
 _atom_site_type_symbol
 _atom_site_label
 _atom_site_symmetry_multiplicity
 _atom_site_fract_x
 _atom_site_fract_y
 _atom_site_fract_z
 _atom_site_occupancy
  C  C0  1  0.25851144  0.25355483  0.01190756  1
  C  C1  1  0.25136938  0.58653424  0.02145607  1
  C  C2  1  0.25258429  0.91724988  0.02295730  1
  C  C3  1  0.75851144  0.24644517  0.51190756  1
  C  C4  1  0.75258429  0.58275012  0.52295730  1
  C  C5  1  0.75136938  0.91346576  0.52145607  1
  C  C6  1  0.75136938  0.08653424  0.02145607  1
  C  C7  1  0.75258429  0.41724988  0.02295730  1
  C  C8  1  0.75851144  0.75355483  0.01190756  1
  C  C9  1  0.25258429  0.08275012  0.52295730  1
  C  C10  1  0.25136938  0.41346576  0.52145607  1
  C  C11  1  0.25851144  0.74644517  0.51190756  1
  C  C12  1  0.49535383  0.03700569  0.75181335  1
  C  C13  1  0.49785126  0.37134472  0.75845985  1
  C  C14  1  0.49579934  0.70366771  0.74915922  1
  C  C15  1  0.49579934  0.29633229  0.24915922  1
  C  C16  1  0.49785126  0.62865528  0.25845985  1
  C  C17  1  0.49535383  0.96299431  0.25181335  1
  C  C18  1  0.99579934  0.20366771  0.74915922  1
  C  C19  1  0.99535383  0.53700569  0.75181335  1
  C  C20  1  0.99785126  0.87134472  0.75845985  1
  C  C21  1  0.99785126  0.12865528  0.25845985  1
  C  C22  1  0.99535383  0.46299431  0.25181335  1
  C  C23  1  0.99579934  0.79633229  0.24915922  1
  C  C24  1  0.81434492  0.64556168  0.20897087  1
  C  C25  1  0.81484340  0.97981896  0.21765415  1
  C  C26  1  0.19663878  0.30900136  0.28442212  1
  C  C27  1  0.19663878  0.69099864  0.78442212  1
  C  C28  1  0.81484340  0.02018104  0.71765415  1
  C  C29  1  0.81434492  0.35443832  0.70897087  1
  C  C30  1  0.31434492  0.14556168  0.20897087  1
  C  C31  1  0.31484340  0.47981896  0.21765415  1
  C  C32  1  0.69663878  0.80900136  0.28442212  1
  C  C33  1  0.69663878  0.19099864  0.78442212  1
  C  C34  1  0.31484340  0.52018104  0.71765415  1
  C  C35  1  0.31434492  0.85443832  0.70897087  1
  C  C36  1  0.10890687  0.24773105  0.57060518  1
  C  C37  1  0.10457006  0.58282914  0.56814355  1
  C  C38  1  0.10658295  0.91760580  0.56744407  1
  C  C39  1  0.10658295  0.08239420  0.06744407  1
  C  C40  1  0.10457006  0.41717086  0.06814355  1
  C  C41  1  0.10890687  0.75226895  0.07060518  1
  C  C42  1  0.60457006  0.08282914  0.56814355  1
  C  C43  1  0.60658295  0.41760580  0.56744407  1
  C  C44  1  0.60890687  0.74773105  0.57060518  1
  C  C45  1  0.60890687  0.25226895  0.07060518  1
  C  C46  1  0.60658295  0.58239420  0.06744407  1
  C  C47  1  0.60457006  0.91717086  0.06814355  1
  Ni  Ni48  1  0.89830566  0.24914199  0.94419537  1
  Ni  Ni49  1  0.89269329  0.58126879  0.93592955  1
  Ni  Ni50  1  0.89335978  0.91233456  0.93887100  1
  Ni  Ni51  1  0.89335978  0.08766544  0.43887100  1
  Ni  Ni52  1  0.89269329  0.41873121  0.43592955  1
  Ni  Ni53  1  0.89830566  0.75085801  0.44419537  1
  Ni  Ni54  1  0.39269329  0.08126879  0.93592955  1
  Ni  Ni55  1  0.39335978  0.41233456  0.93887100  1
  Ni  Ni56  1  0.39830566  0.74914199  0.94419537  1
  Ni  Ni57  1  0.39830566  0.25085801  0.44419537  1
  Ni  Ni58  1  0.39335978  0.58766544  0.43887100  1
  Ni  Ni59  1  0.39269329  0.91873121  0.43592955  1
  Cu  Cu60  1  0.35354121  0.29854454  0.74917034  1
  Cu  Cu61  1  0.35487328  0.63251530  0.75413529  1
  Cu  Cu62  1  0.35380653  0.96639904  0.74994309  1
  Cu  Cu63  1  0.64529187  0.29794279  0.73963489  1
  Cu  Cu64  1  0.64580107  0.62861412  0.73967411  1
  Cu  Cu65  1  0.64576397  0.96231121  0.74025699  1
  Cu  Cu66  1  0.64576397  0.03768879  0.24025699  1
  Cu  Cu67  1  0.64580107  0.37138588  0.23967411  1
  Cu  Cu68  1  0.64529187  0.70205721  0.23963489  1
  Cu  Cu69  1  0.35380653  0.03360096  0.24994309  1
  Cu  Cu70  1  0.35487328  0.36748470  0.25413529  1
  Cu  Cu71  1  0.35354121  0.70145546  0.24917034  1
  Cu  Cu72  1  0.85487328  0.13251530  0.75413529  1
  Cu  Cu73  1  0.85380653  0.46639904  0.74994309  1
  Cu  Cu74  1  0.85354121  0.79854454  0.74917034  1
  Cu  Cu75  1  0.14580107  0.12861412  0.73967411  1
  Cu  Cu76  1  0.14576397  0.46231121  0.74025699  1
  Cu  Cu77  1  0.14529187  0.79794279  0.73963489  1
  Cu  Cu78  1  0.14529187  0.20205721  0.23963489  1
  Cu  Cu79  1  0.14576397  0.53768879  0.24025699  1
  Cu  Cu80  1  0.14580107  0.87138588  0.23967411  1
  Cu  Cu81  1  0.85354121  0.20145546  0.24917034  1
  Cu  Cu82  1  0.85380653  0.53360096  0.24994309  1
  Cu  Cu83  1  0.85487328  0.86748470  0.25413529  1
  C  C84  1  0.00134189  0.32069996  0.74671837  1
  C  C85  1  0.99433595  0.65489463  0.74237077  1
  C  C86  1  0.99829945  0.98769043  0.73957116  1
  C  C87  1  0.99829945  0.01230957  0.23957116  1
  C  C88  1  0.99433595  0.34510537  0.24237077  1
  C  C89  1  0.00134189  0.67930004  0.24671837  1
  C  C90  1  0.49433595  0.15489463  0.74237077  1
  C  C91  1  0.49829945  0.48769043  0.73957116  1
  C  C92  1  0.50134189  0.82069996  0.74671837  1
  C  C93  1  0.50134189  0.17930004  0.24671837  1
  C  C94  1  0.49829945  0.51230957  0.23957116  1
  C  C95  1  0.49433595  0.84510537  0.24237077  1
  C  C96  1  0.14662572  0.19167063  0.74096465  1
  C  C97  1  0.14863506  0.52587161  0.74279000  1
  C  C98  1  0.14760387  0.85998675  0.74022835  1
  C  C99  1  0.84781291  0.19289225  0.76036968  1
  C  C100  1  0.85135837  0.52610112  0.76013965  1
  C  C101  1  0.84862039  0.85905737  0.75744146  1
  C  C102  1  0.84862039  0.14094263  0.25744146  1
  C  C103  1  0.85135837  0.47389888  0.26013965  1
  C  C104  1  0.84781291  0.80710775  0.26036968  1
  C  C105  1  0.14760387  0.14001325  0.24022835  1
  C  C106  1  0.14863506  0.47412839  0.24279000  1
  C  C107  1  0.14662572  0.80832937  0.24096465  1
  C  C108  1  0.64863506  0.02587161  0.74279000  1
  C  C109  1  0.64760387  0.35998675  0.74022835  1
  C  C110  1  0.64662572  0.69167063  0.74096465  1
  C  C111  1  0.35135837  0.02610112  0.76013965  1
  C  C112  1  0.34862039  0.35905737  0.75744146  1
  C  C113  1  0.34781291  0.69289225  0.76036968  1
  C  C114  1  0.34781291  0.30710775  0.26036968  1
  C  C115  1  0.34862039  0.64094263  0.25744146  1
  C  C116  1  0.35135837  0.97389888  0.26013965  1
  C  C117  1  0.64662572  0.30832937  0.24096465  1
  C  C118  1  0.64760387  0.64001325  0.24022835  1
  C  C119  1  0.64863506  0.97412839  0.24279000  1
  C  C120  1  0.43191241  0.18436577  0.56400497  1
  C  C121  1  0.43290505  0.51917575  0.56731264  1
  C  C122  1  0.43727788  0.85445646  0.58249118  1
  C  C123  1  0.56142466  0.18991844  0.91031678  1
  C  C124  1  0.56076317  0.52204879  0.91285314  1
  C  C125  1  0.56816578  0.85284418  0.92736378  1
  C  C126  1  0.56816578  0.14715582  0.42736378  1
  C  C127  1  0.56076317  0.47795121  0.41285314  1
  C  C128  1  0.56142466  0.81008156  0.41031678  1
  C  C129  1  0.43727788  0.14554354  0.08249118  1
  C  C130  1  0.43290505  0.48082425  0.06731264  1
  C  C131  1  0.43191241  0.81563423  0.06400497  1
  C  C132  1  0.93290505  0.01917575  0.56731264  1
  C  C133  1  0.93727788  0.35445646  0.58249118  1
  C  C134  1  0.93191241  0.68436577  0.56400497  1
  C  C135  1  0.06076317  0.02204879  0.91285314  1
  C  C136  1  0.06816578  0.35284418  0.92736378  1
  C  C137  1  0.06142466  0.68991844  0.91031678  1
  C  C138  1  0.06142466  0.31008156  0.41031678  1
  C  C139  1  0.06816578  0.64715582  0.42736378  1
  C  C140  1  0.06076317  0.97795121  0.41285314  1
  C  C141  1  0.93191241  0.31563423  0.06400497  1
  C  C142  1  0.93727788  0.64554354  0.08249118  1
  C  C143  1  0.93290505  0.98082425  0.06731264  1
  C  C144  1  0.25243240  0.27358952  0.73652510  1
  C  C145  1  0.25389427  0.60791609  0.74692230  1
  C  C146  1  0.25497274  0.93882457  0.73999069  1
  C  C147  1  0.74946895  0.27724467  0.75857378  1
  C  C148  1  0.75067593  0.60854698  0.76671715  1
  C  C149  1  0.75316546  0.94607403  0.76383924  1
  C  C150  1  0.75316546  0.05392597  0.26383924  1
  C  C151  1  0.75067593  0.39145302  0.26671715  1
  C  C152  1  0.74946895  0.72275533  0.25857378  1
  C  C153  1  0.25497274  0.06117543  0.23999069  1
  C  C154  1  0.25389427  0.39208391  0.24692230  1
  C  C155  1  0.25243240  0.72641048  0.23652510  1
  C  C156  1  0.75389427  0.10791609  0.74692230  1
  C  C157  1  0.75497274  0.43882457  0.73999069  1
  C  C158  1  0.75243240  0.77358952  0.73652510  1
  C  C159  1  0.25067593  0.10854698  0.76671715  1
  C  C160  1  0.25316546  0.44607403  0.76383924  1
  C  C161  1  0.24946895  0.77724467  0.75857378  1
  C  C162  1  0.24946895  0.22275533  0.25857378  1
  C  C163  1  0.25316546  0.55392597  0.26383924  1
  C  C164  1  0.25067593  0.89145302  0.26671715  1
  C  C165  1  0.75243240  0.22641048  0.23652510  1
  C  C166  1  0.75497274  0.56117543  0.23999069  1
  C  C167  1  0.75389427  0.89208391  0.24692230  1
  C  C168  1  0.35131866  0.28639431  0.56939360  1
  C  C169  1  0.35389540  0.61670029  0.58134294  1
  C  C170  1  0.35924262  0.95008657  0.58455047  1
  C  C171  1  0.63915303  0.28433443  0.91491693  1
  C  C172  1  0.63997143  0.61761907  0.91993237  1
  C  C173  1  0.64328208  0.95022169  0.92331584  1
  C  C174  1  0.64328208  0.04977831  0.42331584  1
  C  C175  1  0.63997143  0.38238093  0.41993237  1
  C  C176  1  0.63915303  0.71566557  0.41491693  1
  C  C177  1  0.35924262  0.04991343  0.08455047  1
  C  C178  1  0.35389540  0.38329971  0.08134294  1
  C  C179  1  0.35131866  0.71360569  0.06939360  1
  C  C180  1  0.85389540  0.11670029  0.58134294  1
  C  C181  1  0.85924262  0.45008657  0.58455047  1
  C  C182  1  0.85131866  0.78639431  0.56939360  1
  C  C183  1  0.13997143  0.11761907  0.91993237  1
  C  C184  1  0.14328208  0.45022169  0.92331584  1
  C  C185  1  0.13915303  0.78433443  0.91491693  1
  C  C186  1  0.13915303  0.21566557  0.41491693  1
  C  C187  1  0.14328208  0.54977831  0.42331584  1
  C  C188  1  0.13997143  0.88238093  0.41993237  1
  C  C189  1  0.85131866  0.21360569  0.06939360  1
  C  C190  1  0.85924262  0.54991343  0.08455047  1
  C  C191  1  0.85389540  0.88329971  0.08134294  1
  C  C192  1  0.46180061  0.27579951  0.93460838  1
  C  C193  1  0.46094895  0.60793861  0.94067969  1
  C  C194  1  0.46141701  0.94104264  0.93935377  1
  C  C195  1  0.54149066  0.27484656  0.55722749  1
  C  C196  1  0.53809530  0.60961118  0.55564795  1
  C  C197  1  0.54010226  0.94280273  0.55659849  1
  C  C198  1  0.54010226  0.05719727  0.05659849  1
  C  C199  1  0.53809530  0.39038882  0.05564795  1
  C  C200  1  0.54149066  0.72515344  0.05722749  1
  C  C201  1  0.46141701  0.05895736  0.43935377  1
  C  C202  1  0.46094895  0.39206139  0.44067969  1
  C  C203  1  0.46180061  0.72420049  0.43460838  1
  C  C204  1  0.96094895  0.10793861  0.94067969  1
  C  C205  1  0.96141701  0.44104264  0.93935377  1
  C  C206  1  0.96180061  0.77579951  0.93460838  1
  C  C207  1  0.03809530  0.10961118  0.55564795  1
  C  C208  1  0.04010226  0.44280273  0.55659849  1
  C  C209  1  0.04149066  0.77484656  0.55722749  1
  C  C210  1  0.04149066  0.22515344  0.05722749  1
  C  C211  1  0.04010226  0.55719727  0.05659849  1
  C  C212  1  0.03809530  0.89038882  0.05564795  1
  C  C213  1  0.96180061  0.22420049  0.43460838  1
  C  C214  1  0.96141701  0.55895736  0.43935377  1
  C  C215  1  0.96094895  0.89206139  0.44067969  1
  C  C216  1  0.08160280  0.28661113  0.74378805  1
  C  C217  1  0.08186132  0.62284449  0.74382803  1
  C  C218  1  0.08274646  0.95495805  0.74359014  1
  C  C219  1  0.92392671  0.28656382  0.75520689  1
  C  C220  1  0.92369500  0.61820682  0.75437729  1
  C  C221  1  0.92296418  0.95307607  0.74933292  1
  C  C222  1  0.92296418  0.04692393  0.24933292  1
  C  C223  1  0.92369500  0.38179318  0.25437729  1
  C  C224  1  0.92392671  0.71343618  0.25520689  1
  C  C225  1  0.08274646  0.04504195  0.24359014  1
  C  C226  1  0.08186132  0.37715551  0.24382803  1
  C  C227  1  0.08160280  0.71338887  0.24378805  1
  C  C228  1  0.58186132  0.12284449  0.74382803  1
  C  C229  1  0.58274646  0.45495805  0.74359014  1
  C  C230  1  0.58160280  0.78661113  0.74378805  1
  C  C231  1  0.42369500  0.11820682  0.75437729  1
  C  C232  1  0.42296418  0.45307607  0.74933292  1
  C  C233  1  0.42392671  0.78656382  0.75520689  1
  C  C234  1  0.42392671  0.21343618  0.25520689  1
  C  C235  1  0.42296418  0.54692393  0.24933292  1
  C  C236  1  0.42369500  0.88179318  0.25437729  1
  C  C237  1  0.58160280  0.21338887  0.24378805  1
  C  C238  1  0.58274646  0.54504195  0.24359014  1
  C  C239  1  0.58186132  0.87715551  0.24382803  1
