# generated using pymatgen
data_Cu2NiC10
_symmetry_space_group_name_H-M   'P 1'
_cell_length_a   4.99779595
_cell_length_b   5.15526750
_cell_length_c   5.69182340
_cell_angle_alpha   93.31218379
_cell_angle_beta   87.10850592
_cell_angle_gamma   91.76003642
_symmetry_Int_Tables_number   1
_chemical_formula_structural   Cu2NiC10
_chemical_formula_sum   'Cu2 Ni1 C10'
_cell_volume   146.16148024
_cell_formula_units_Z   1
loop_
 _symmetry_equiv_pos_site_id
 _symmetry_equiv_pos_as_xyz
  1  'x, y, z'
loop_
 _atom_site_type_symbol
 _atom_site_label
 _atom_site_symmetry_multiplicity
 _atom_site_fract_x
 _atom_site_fract_y
 _atom_site_fract_z
 _atom_site_occupancy
  Ni  Ni0  1  0.53153800  0.05845700  0.99147500  1
  Cu  Cu1  1  0.47363300  0.26565100  0.60561200  1
  Cu  Cu2  1  0.52335800  0.74223300  0.36546900  1
  C  C3  1  0.02100600  0.27569200  0.16625200  1
  C  C4  1  0.99033900  0.72565600  0.82541300  1
  C  C5  1  0.76554800  0.40744200  0.37880500  1
  C  C6  1  0.31815000  0.10387900  0.31130200  1
  C  C7  1  0.24217300  0.59305200  0.60758700  1
  C  C8  1  0.69928700  0.89425100  0.67306200  1
  C  C9  1  0.82064000  0.90303900  0.13920300  1
  C  C10  1  0.23860100  0.58596700  0.09287200  1
  C  C11  1  0.19215700  0.09285400  0.84934500  1
  C  C12  1  0.76690300  0.40182500  0.89836500  1
