# generated using pymatgen
data_CuNi2C
_symmetry_space_group_name_H-M   'P 1'
_cell_length_a   4.39086000
_cell_length_b   6.06034123
_cell_length_c   7.66026900
_cell_angle_alpha   90.00000000
_cell_angle_beta   90.00000000
_cell_angle_gamma   111.23916478
_symmetry_Int_Tables_number   1
_chemical_formula_structural   CuNi2C
_chemical_formula_sum   'Cu2 Ni4 C2'
_cell_volume   189.99501130
_cell_formula_units_Z   2
loop_
 _symmetry_equiv_pos_site_id
 _symmetry_equiv_pos_as_xyz
  1  'x, y, z'
loop_
 _atom_site_type_symbol
 _atom_site_label
 _atom_site_symmetry_multiplicity
 _atom_site_fract_x
 _atom_site_fract_y
 _atom_site_fract_z
 _atom_site_occupancy
  C  C0  1  0.93603900  0.87207800  0.25000000  1
  C  C1  1  0.06396100  0.12792200  0.75000000  1
  Ni  Ni2  1  0.35174000  0.70348000  0.54775400  1
  Ni  Ni3  1  0.64826000  0.29652000  0.45224600  1
  Ni  Ni4  1  0.35174000  0.70348000  0.95224600  1
  Ni  Ni5  1  0.64826000  0.29652000  0.04775400  1
  Cu  Cu6  1  0.78701500  0.57403000  0.75000000  1
  Cu  Cu7  1  0.21298500  0.42597000  0.25000000  1
