# generated using pymatgen
data_CuNiC33
_symmetry_space_group_name_H-M   'P 1'
_cell_length_a   9.23468779
_cell_length_b   9.23468746
_cell_length_c   24.16144202
_cell_angle_alpha   90.00000000
_cell_angle_beta   90.00000000
_cell_angle_gamma   120.00000121
_symmetry_Int_Tables_number   1
_chemical_formula_structural   CuNiC33
_chemical_formula_sum   'Cu3 Ni3 C99'
_cell_volume   1784.42334355
_cell_formula_units_Z   3
loop_
 _symmetry_equiv_pos_site_id
 _symmetry_equiv_pos_as_xyz
  1  'x, y, z'
loop_
 _atom_site_type_symbol
 _atom_site_label
 _atom_site_symmetry_multiplicity
 _atom_site_fract_x
 _atom_site_fract_y
 _atom_site_fract_z
 _atom_site_occupancy
  Ni  Ni0  1  -0.00000000  0.00000000  0.99663188  1
  Ni  Ni1  1  0.66666700  0.33333300  0.83678050  1
  Ni  Ni2  1  0.66666700  0.33333300  0.33332063  1
  Cu  Cu3  1  -0.00000000  0.00000000  0.35506589  1
  Cu  Cu4  1  -0.00000000  0.00000000  0.85178088  1
  Cu  Cu5  1  0.66666700  0.33333300  0.98132502  1
  C  C6  1  -0.00000000  0.00000000  0.64672660  1
  C  C7  1  -0.00000000  0.00000000  0.14988941  1
  C  C8  1  0.66666700  0.33333300  0.68500735  1
  C  C9  1  0.66666700  0.33333300  0.18339558  1
  C  C10  1  0.66666700  0.33333300  0.48121494  1
  C  C11  1  0.33333300  0.66666700  0.02067353  1
  C  C12  1  0.33333300  0.66666700  0.52044900  1
  C  C13  1  0.33333300  0.66666700  0.31214013  1
  C  C14  1  0.33333300  0.66666700  0.81237579  1
  C  C15  1  0.29494498  0.00267038  0.25091891  1
  C  C16  1  0.70772540  0.70505502  0.25091891  1
  C  C17  1  0.99732962  0.29227460  0.25091891  1
  C  C18  1  0.29391141  0.29188191  0.75036957  1
  C  C19  1  0.99797049  0.70608859  0.75036957  1
  C  C20  1  0.70811809  0.00202951  0.75036957  1
  C  C21  1  0.95845000  0.33313405  0.58331182  1
  C  C22  1  0.37468505  0.04155000  0.58331182  1
  C  C23  1  0.66686595  0.62531495  0.58331182  1
  C  C24  1  0.95956464  0.62876201  0.08263389  1
  C  C25  1  0.66919837  0.04043536  0.08263389  1
  C  C26  1  0.37123799  0.33080163  0.08263389  1
  C  C27  1  0.62600313  0.66676709  0.91664743  1
  C  C28  1  0.04076297  0.37399687  0.91664743  1
  C  C29  1  0.33323291  0.95923703  0.91664743  1
  C  C30  1  0.62327059  0.95880161  0.41642525  1
  C  C31  1  0.33553003  0.37672941  0.41642525  1
  C  C32  1  0.04119839  0.66446997  0.41642525  1
  C  C33  1  0.21904517  0.03065573  0.30008484  1
  C  C34  1  0.81161057  0.78095483  0.30008484  1
  C  C35  1  0.96934427  0.18838943  0.30008484  1
  C  C36  1  0.21957992  0.18896123  0.79975621  1
  C  C37  1  0.96938132  0.78042008  0.79975621  1
  C  C38  1  0.81103877  0.03061868  0.79975621  1
  C  C39  1  0.78765634  0.97933980  0.70004560  1
  C  C40  1  0.19168346  0.21234366  0.70004560  1
  C  C41  1  0.02066020  0.80831654  0.70004560  1
  C  C42  1  0.78627751  0.80690927  0.20038830  1
  C  C43  1  0.02063176  0.21372249  0.20038830  1
  C  C44  1  0.19309073  0.97936824  0.20038830  1
  C  C45  1  0.87947401  0.36033903  0.63280062  1
  C  C46  1  0.48086603  0.12052599  0.63280062  1
  C  C47  1  0.63966097  0.51913397  0.63280062  1
  C  C48  1  0.88038725  0.52613907  0.13302444  1
  C  C49  1  0.64575282  0.11961275  0.13302444  1
  C  C50  1  0.47386093  0.35424718  0.13302444  1
  C  C51  1  0.44673802  0.30254821  0.03347628  1
  C  C52  1  0.85581120  0.55326198  0.03347628  1
  C  C53  1  0.69745179  0.14418880  0.03347628  1
  C  C54  1  0.45393538  0.14789416  0.53382613  1
  C  C55  1  0.69395977  0.54606462  0.53382613  1
  C  C56  1  0.85210584  0.30604023  0.53382613  1
  C  C57  1  0.54212065  0.68525625  0.96680411  1
  C  C58  1  0.14313461  0.45787935  0.96680411  1
  C  C59  1  0.31474375  0.85686539  0.96680411  1
  C  C60  1  0.54051904  0.85759977  0.46650251  1
  C  C61  1  0.31707972  0.45948096  0.46650251  1
  C  C62  1  0.14240023  0.68292028  0.46650251  1
  C  C63  1  0.12019997  0.63710004  0.36675200  1
  C  C64  1  0.51689907  0.87980003  0.36675200  1
  C  C65  1  0.36289996  0.48310093  0.36675200  1
  C  C66  1  0.12471842  0.47646755  0.86652162  1
  C  C67  1  0.35174812  0.87528158  0.86652162  1
  C  C68  1  0.52353245  0.64825188  0.86652162  1
  C  C69  1  0.02331843  0.81173679  0.41009273  1
  C  C70  1  0.78841836  0.97668157  0.41009273  1
  C  C71  1  0.18826321  0.21158164  0.41009273  1
  C  C72  1  0.02553937  0.20692817  0.91275851  1
  C  C73  1  0.18138880  0.97446063  0.91275851  1
  C  C74  1  0.79307183  0.81861120  0.91275851  1
  C  C75  1  0.97542239  0.18380768  0.59167981  1
  C  C76  1  0.20838529  0.02457761  0.59167981  1
  C  C77  1  0.81619232  0.79161471  0.59167981  1
  C  C78  1  0.97972817  0.79919910  0.09043665  1
  C  C79  1  0.81947093  0.02027183  0.09043665  1
  C  C80  1  0.20080090  0.18052907  0.09043665  1
  C  C81  1  0.68739688  0.15233617  0.74284930  1
  C  C82  1  0.46494029  0.31260312  0.74284930  1
  C  C83  1  0.84766383  0.53505971  0.74284930  1
  C  C84  1  0.68706763  0.53413535  0.24321089  1
  C  C85  1  0.84706872  0.31293237  0.24321089  1
  C  C86  1  0.46586465  0.15293128  0.24321089  1
  C  C87  1  0.64109667  0.51482566  0.92057123  1
  C  C88  1  0.87372999  0.35890333  0.92057123  1
  C  C89  1  0.48517434  0.12627001  0.92057123  1
  C  C90  1  0.63891848  0.12869896  0.42242367  1
  C  C91  1  0.48978147  0.36108152  0.42242367  1
  C  C92  1  0.87130104  0.51021853  0.42242367  1
  C  C93  1  0.35389357  0.48067233  0.07600478  1
  C  C94  1  0.12677777  0.64610643  0.07600478  1
  C  C95  1  0.51932767  0.87322223  0.07600478  1
  C  C96  1  0.35758954  0.87539760  0.57509580  1
  C  C97  1  0.51780706  0.64241046  0.57509580  1
  C  C98  1  0.12460240  0.48219294  0.57509580  1
  C  C99  1  0.31243858  0.85278705  0.25750095  1
  C  C100  1  0.54034747  0.68756142  0.25750095  1
  C  C101  1  0.14721295  0.45965253  0.25750095  1
  C  C102  1  0.31197664  0.45953494  0.75704910  1
  C  C103  1  0.14755730  0.68802336  0.75704910  1
  C  C104  1  0.54046506  0.85244270  0.75704910  1
