# generated using pymatgen
data_Cu3Ni5C52
_symmetry_space_group_name_H-M   'P 1'
_cell_length_a   9.14676284
_cell_length_b   9.05237576
_cell_length_c   22.26910115
_cell_angle_alpha   90.01364477
_cell_angle_beta   90.00000000
_cell_angle_gamma   120.34551851
_symmetry_Int_Tables_number   1
_chemical_formula_structural   Cu3Ni5C52
_chemical_formula_sum   'Cu6 Ni10 C104'
_cell_volume   1591.25825428
_cell_formula_units_Z   2
loop_
 _symmetry_equiv_pos_site_id
 _symmetry_equiv_pos_as_xyz
  1  'x, y, z'
loop_
 _atom_site_type_symbol
 _atom_site_label
 _atom_site_symmetry_multiplicity
 _atom_site_fract_x
 _atom_site_fract_y
 _atom_site_fract_z
 _atom_site_occupancy
  C  C0  1  0.64859151  0.00968423  0.23687792  1
  C  C1  1  0.37804111  0.34709637  0.24845651  1
  C  C2  1  0.99256637  0.65150148  0.24297100  1
  C  C3  1  0.65893511  0.65150148  0.74297100  1
  C  C4  1  0.96905527  0.34709637  0.74845651  1
  C  C5  1  0.36109273  0.00968423  0.73687792  1
  C  C6  1  0.29632031  0.33197351  0.57644792  1
  C  C7  1  0.03565419  0.33197351  0.07644792  1
  C  C8  1  0.95718100  0.66046180  0.91226109  1
  C  C9  1  0.71969157  0.04759999  0.91162450  1
  C  C10  1  0.32790743  0.04759999  0.41162450  1
  C  C11  1  0.70327980  0.66046180  0.41226109  1
  C  C12  1  0.99917473  0.01718062  0.50068083  1
  C  C13  1  0.01800589  0.01718062  0.00068083  1
  C  C14  1  0.67781945  0.33360264  0.83152132  1
  C  C15  1  0.65578419  0.33360264  0.33152132  1
  C  C16  1  0.35545863  0.69432713  0.15448274  1
  C  C17  1  0.33886749  0.69432713  0.65448274  1
  C  C18  1  0.33899320  0.66210948  0.31562284  1
  C  C19  1  0.32311528  0.66210948  0.81562284  1
  Ni  Ni20  1  0.02166678  0.00803434  0.34497820  1
  Ni  Ni21  1  0.98636757  0.00803434  0.84497820  1
  Ni  Ni22  1  0.96709357  0.95652322  0.65769916  1
  Ni  Ni23  1  0.98942965  0.95652322  0.15769916  1
  Ni  Ni24  1  0.68537178  0.33540510  0.68201748  1
  Ni  Ni25  1  0.65003432  0.33540510  0.18201748  1
  Ni  Ni26  1  0.67718667  0.33495852  0.98439388  1
  Ni  Ni27  1  0.65777285  0.33495852  0.48439388  1
  Ni  Ni28  1  0.32938437  0.65198294  0.01442465  1
  Ni  Ni29  1  0.32259757  0.65198294  0.51442465  1
  Cu  Cu30  1  0.30292532  0.00040239  0.25125049  1
  Cu  Cu31  1  0.71165199  0.71229132  0.25411739  1
  Cu  Cu32  1  0.00063933  0.71229132  0.75411739  1
  Cu  Cu33  1  0.69747707  0.00040239  0.75125049  1
  Cu  Cu34  1  0.03311640  0.35927168  0.92268121  1
  Cu  Cu35  1  0.32615428  0.35927168  0.42268121  1
  C  C36  1  0.00539138  0.30001295  0.24976130  1
  C  C37  1  0.29462157  0.30001295  0.74976130  1
  C  C38  1  0.96548784  0.33405766  0.58265092  1
  C  C39  1  0.36658619  0.03480050  0.58183232  1
  C  C40  1  0.66735568  0.63085817  0.58321756  1
  C  C41  1  0.96350349  0.63085817  0.08321756  1
  C  C42  1  0.66821531  0.03480050  0.08183232  1
  C  C43  1  0.36857082  0.33405766  0.08265092  1
  C  C44  1  0.61933637  0.66066674  0.91849850  1
  C  C45  1  0.33474903  0.95803691  0.91892236  1
  C  C46  1  0.62328688  0.95803691  0.41892236  1
  C  C47  1  0.04132937  0.66066674  0.41849850  1
  C  C48  1  0.24037882  0.05281550  0.31168383  1
  C  C49  1  0.82099464  0.79226143  0.31514756  1
  C  C50  1  0.97483642  0.19238599  0.30274175  1
  C  C51  1  0.21754957  0.19238599  0.80274175  1
  C  C52  1  0.97126679  0.79226143  0.81514756  1
  C  C53  1  0.81243667  0.05281550  0.81168383  1
  C  C54  1  0.77259822  0.94196314  0.69642238  1
  C  C55  1  0.19220739  0.23904262  0.69503974  1
  C  C56  1  0.07218782  0.84648784  0.69864351  1
  C  C57  1  0.77430002  0.84648784  0.19864351  1
  C  C58  1  0.04683523  0.23904262  0.19503974  1
  C  C59  1  0.16936492  0.94196314  0.19642238  1
  C  C60  1  0.89027240  0.34652084  0.64082916  1
  C  C61  1  0.46708725  0.11868276  0.63726587  1
  C  C62  1  0.65025748  0.52486866  0.63734060  1
  C  C63  1  0.87461218  0.52486866  0.13734060  1
  C  C64  1  0.65159651  0.11868276  0.13726587  1
  C  C65  1  0.45624944  0.34652084  0.14082916  1
  C  C66  1  0.46203975  0.32199383  0.03040837  1
  C  C67  1  0.86912805  0.54784776  0.02694413  1
  C  C68  1  0.68264718  0.13765528  0.02700900  1
  C  C69  1  0.45500910  0.13765528  0.52700900  1
  C  C70  1  0.67872071  0.54784776  0.52694413  1
  C  C71  1  0.85995508  0.32199383  0.53040837  1
  C  C72  1  0.53786945  0.68831284  0.97056340  1
  C  C73  1  0.13496016  0.45059114  0.98313036  1
  C  C74  1  0.31668229  0.85162056  0.97125294  1
  C  C75  1  0.53493727  0.85162056  0.47125294  1
  C  C76  1  0.31562998  0.45059114  0.48313036  1
  C  C77  1  0.15044239  0.68831284  0.47056340  1
  C  C78  1  0.13238420  0.65321876  0.36200338  1
  C  C79  1  0.51213566  0.86554968  0.36254280  1
  C  C80  1  0.34402764  0.49198189  0.36451873  1
  C  C81  1  0.14795325  0.49198189  0.86451873  1
  C  C82  1  0.35341302  0.86554968  0.86254280  1
  C  C83  1  0.52083356  0.65321876  0.86200338  1
  C  C84  1  0.01921293  0.81184896  0.41467150  1
  C  C85  1  0.78778088  0.96984166  0.41179252  1
  C  C86  1  0.15991875  0.17025339  0.41475179  1
  C  C87  1  0.01033464  0.17025339  0.91475179  1
  C  C88  1  0.18206078  0.96984166  0.91179252  1
  C  C89  1  0.79263603  0.81184896  0.91467150  1
  C  C90  1  0.98988780  0.18321108  0.58359555  1
  C  C91  1  0.20082991  0.02867827  0.58421292  1
  C  C92  1  0.82316766  0.80276000  0.58538594  1
  C  C93  1  0.97959233  0.80276000  0.08538594  1
  C  C94  1  0.82784836  0.02867827  0.08421292  1
  C  C95  1  0.19332328  0.18321108  0.08359555  1
  C  C96  1  0.65582862  0.15520141  0.74195275  1
  C  C97  1  0.47012125  0.33263176  0.74333673  1
  C  C98  1  0.83543978  0.52142568  0.74451222  1
  C  C99  1  0.68598690  0.52142568  0.24451222  1
  C  C100  1  0.86251152  0.33263176  0.24333673  1
  C  C101  1  0.49937379  0.15520141  0.24195275  1
  C  C102  1  0.62657328  0.50127534  0.91951421  1
  C  C103  1  0.84967039  0.35727886  0.91808000  1
  C  C104  1  0.49341573  0.12467486  0.91806873  1
  C  C105  1  0.63126013  0.12467486  0.41806873  1
  C  C106  1  0.50760947  0.35727886  0.41808000  1
  C  C107  1  0.87470306  0.50127534  0.41951421  1
  C  C108  1  0.35417162  0.49320482  0.08088852  1
  C  C109  1  0.13391943  0.64542285  0.08277666  1
  C  C110  1  0.51590015  0.86075971  0.07747044  1
  C  C111  1  0.34485856  0.86075971  0.57747044  1
  C  C112  1  0.51150242  0.64542285  0.58277666  1
  C  C113  1  0.13903220  0.49320482  0.58088852  1
  C  C114  1  0.31543170  0.82152897  0.26194920  1
  C  C115  1  0.50914093  0.67609334  0.26266266  1
  C  C116  1  0.16214270  0.47923585  0.26016508  1
  C  C117  1  0.31709215  0.47923585  0.76016508  1
  C  C118  1  0.16695140  0.67609334  0.76266266  1
  C  C119  1  0.50609627  0.82152897  0.76194920  1
