# generated using pymatgen
data_Cu2Ni2C9
_symmetry_space_group_name_H-M   'P 1'
_cell_length_a   3.33607200
_cell_length_b   3.33576956
_cell_length_c   45.82446001
_cell_angle_alpha   89.99731860
_cell_angle_beta   89.99932406
_cell_angle_gamma   119.99830592
_symmetry_Int_Tables_number   1
_chemical_formula_structural   Cu2Ni2C9
_chemical_formula_sum   'Cu2 Ni2 C9'
_cell_volume   441.63842999
_cell_formula_units_Z   1
loop_
 _symmetry_equiv_pos_site_id
 _symmetry_equiv_pos_as_xyz
  1  'x, y, z'
loop_
 _atom_site_type_symbol
 _atom_site_label
 _atom_site_symmetry_multiplicity
 _atom_site_fract_x
 _atom_site_fract_y
 _atom_site_fract_z
 _atom_site_occupancy
  C  C0  1  0.99996800  0.99996200  0.56738800  1
  C  C1  1  0.66684500  0.33346900  0.05221700  1
  C  C2  1  0.66676700  0.33342100  0.13513200  1
  Ni  Ni3  1  0.33341700  0.66674400  0.09367600  1
  Ni  Ni4  1  0.66665800  0.33332600  0.28196600  1
  Cu  Cu5  1  0.33324200  0.66662300  0.46222800  1
  Cu  Cu6  1  0.66666100  0.33330300  0.66520100  1
  C  C7  1  0.33330500  0.66662300  0.31841100  1
  C  C8  1  0.66663200  0.33335800  0.42563000  1
  C  C9  1  0.66659200  0.33326600  0.49908300  1
  C  C10  1  0.33330100  0.66665700  0.24550200  1
  C  C11  1  0.33324300  0.66654900  0.69827900  1
  C  C12  1  0.33336900  0.66669700  0.63174100  1
