# generated using pymatgen
data_Cu2NiC18
_symmetry_space_group_name_H-M   'P 1'
_cell_length_a   9.32576829
_cell_length_b   9.32345434
_cell_length_c   22.50352517
_cell_angle_alpha   89.70581060
_cell_angle_beta   89.77967073
_cell_angle_gamma   119.96645064
_symmetry_Int_Tables_number   1
_chemical_formula_structural   Cu2NiC18
_chemical_formula_sum   'Cu12 Ni6 C108'
_cell_volume   1695.00804181
_cell_formula_units_Z   6
loop_
 _symmetry_equiv_pos_site_id
 _symmetry_equiv_pos_as_xyz
  1  'x, y, z'
loop_
 _atom_site_type_symbol
 _atom_site_label
 _atom_site_symmetry_multiplicity
 _atom_site_fract_x
 _atom_site_fract_y
 _atom_site_fract_z
 _atom_site_occupancy
  C  C0  1  0.61576008  0.99645099  0.25905334  1
  C  C1  1  0.36018078  0.34231088  0.25387280  1
  C  C2  1  0.00991030  0.65120368  0.23548291  1
  C  C3  1  0.64207036  0.65386141  0.73111688  1
  C  C4  1  0.97512222  0.33757466  0.75025836  1
  C  C5  1  0.38134899  0.00243905  0.75668355  1
  C  C6  1  0.32366648  0.34918334  0.59054622  1
  C  C7  1  0.00867053  0.69257485  0.58172210  1
  C  C8  1  0.67490259  0.95189058  0.58644354  1
  C  C9  1  0.27693404  0.95065338  0.08690744  1
  C  C10  1  0.68519316  0.69403927  0.08340079  1
  C  C11  1  0.02458207  0.34802023  0.09270460  1
  C  C12  1  0.99240599  0.68612592  0.93239162  1
  C  C13  1  0.67311031  0.02801488  0.90147533  1
  C  C14  1  0.33202125  0.28899935  0.91632380  1
  C  C15  1  0.95804578  0.28394950  0.41166767  1
  C  C16  1  0.34806323  0.02682707  0.39900622  1
  C  C17  1  0.69672504  0.68604230  0.42778154  1
  C  C18  1  0.95725628  0.97595754  0.49838390  1
  C  C19  1  0.01557689  0.97853447  0.00203451  1
  C  C20  1  0.65327654  0.29892811  0.83091772  1
  C  C21  1  0.65259219  0.30672309  0.33032178  1
  C  C22  1  0.31906236  0.68321145  0.17067354  1
  C  C23  1  0.35914007  0.68136321  0.66644165  1
  C  C24  1  0.99071276  0.99741746  0.84458177  1
  C  C25  1  0.66802095  0.33226459  0.98892295  1
  C  C26  1  0.66535570  0.33187409  0.48404103  1
  C  C27  1  0.32717298  0.67640942  0.01839173  1
  C  C28  1  0.35412534  0.67983891  0.51442566  1
  C  C29  1  0.33905160  0.67975094  0.81639735  1
  C  C30  1  0.00627558  0.99989961  0.34596756  1
  C  C31  1  0.98584375  0.99021295  0.65079643  1
  C  C32  1  0.00584684  0.98787438  0.15411995  1
  C  C33  1  0.66448589  0.33218892  0.68064121  1
  C  C34  1  0.66221337  0.32791792  0.18363969  1
  C  C35  1  0.34343639  0.69028166  0.31778382  1
  Ni  Ni36  1  0.30183349  0.00162358  0.25002849  1
  Ni  Ni37  1  0.69710005  0.00997665  0.74645358  1
  Ni  Ni38  1  0.67391989  0.63740842  0.58481981  1
  Ni  Ni39  1  0.96230929  0.63643993  0.08802018  1
  Ni  Ni40  1  0.33205067  0.98123597  0.91648850  1
  Ni  Ni41  1  0.64963261  0.97293594  0.41263750  1
  Cu  Cu42  1  0.70173008  0.70229152  0.25080732  1
  Cu  Cu43  1  0.00097880  0.29443792  0.24957996  1
  Cu  Cu44  1  0.30292824  0.29795943  0.74545734  1
  Cu  Cu45  1  0.99300328  0.69138915  0.74624328  1
  Cu  Cu46  1  0.96973571  0.33094988  0.58595515  1
  Cu  Cu47  1  0.35721111  0.03476171  0.58699318  1
  Cu  Cu48  1  0.67820164  0.03441145  0.08922389  1
  Cu  Cu49  1  0.35992250  0.32888086  0.08848208  1
  Cu  Cu50  1  0.63563004  0.66288530  0.91764913  1
  Cu  Cu51  1  0.03006601  0.36026011  0.91651400  1
  Cu  Cu52  1  0.32489334  0.36558854  0.41207947  1
  Cu  Cu53  1  0.03778691  0.67010969  0.41334426  1
  C  C54  1  0.21730230  0.03460769  0.30903610  1
  C  C55  1  0.80499804  0.78583262  0.30313983  1
  C  C56  1  0.98234310  0.19288647  0.30301159  1
  C  C57  1  0.22876954  0.20644978  0.80171148  1
  C  C58  1  0.97586511  0.76614115  0.80174417  1
  C  C59  1  0.79430539  0.04229903  0.81009495  1
  C  C60  1  0.80712823  0.99281785  0.69323365  1
  C  C61  1  0.19987714  0.20504010  0.69404813  1
  C  C62  1  0.01763920  0.80241415  0.69487399  1
  C  C63  1  0.77842857  0.80523449  0.19666570  1
  C  C64  1  0.01748571  0.21283386  0.19554644  1
  C  C65  1  0.18667991  0.97624995  0.19217636  1
  C  C66  1  0.87786934  0.34251506  0.63772065  1
  C  C67  1  0.46908008  0.11991800  0.63718187  1
  C  C68  1  0.65531013  0.51505340  0.64054202  1
  C  C69  1  0.85442210  0.51088393  0.14294400  1
  C  C70  1  0.64953365  0.12001782  0.13926894  1
  C  C71  1  0.46451480  0.34026671  0.13966063  1
  C  C72  1  0.42863336  0.30258113  0.03257800  1
  C  C73  1  0.86934196  0.56495608  0.02447211  1
  C  C74  1  0.69748504  0.12387776  0.03265592  1
  C  C75  1  0.42885816  0.12568315  0.53057049  1
  C  C76  1  0.69614619  0.56204816  0.52197926  1
  C  C77  1  0.87245541  0.30327424  0.53072057  1
  C  C78  1  0.55018212  0.67071879  0.97242774  1
  C  C79  1  0.13000212  0.44480453  0.96974660  1
  C  C80  1  0.31305039  0.87437203  0.97695437  1
  C  C81  1  0.58062013  0.87307277  0.47598264  1
  C  C82  1  0.30577474  0.43887534  0.46794190  1
  C  C83  1  0.12725201  0.68612713  0.46976462  1
  C  C84  1  0.12876578  0.65203288  0.36242460  1
  C  C85  1  0.52281482  0.87472657  0.35809968  1
  C  C86  1  0.33681656  0.47028716  0.36012754  1
  C  C87  1  0.11551616  0.45327238  0.86166881  1
  C  C88  1  0.35216802  0.89312310  0.85669373  1
  C  C89  1  0.53650434  0.64784039  0.86440788  1
  C  C90  1  0.02184371  0.82137427  0.40787230  1
  C  C91  1  0.83577868  0.99102612  0.40518272  1
  C  C92  1  0.17689828  0.19651854  0.40844054  1
  C  C93  1  0.00878857  0.19166070  0.91632607  1
  C  C94  1  0.16366166  0.99730173  0.91523847  1
  C  C95  1  0.80007020  0.81702837  0.91560429  1
  C  C96  1  0.00334291  0.19060624  0.59121571  1
  C  C97  1  0.19297820  0.02508592  0.59473431  1
  C  C98  1  0.84223120  0.82468372  0.58884196  1
  C  C99  1  0.98071334  0.82338387  0.09167473  1
  C  C100  1  0.83379404  0.02701124  0.09716152  1
  C  C101  1  0.18683567  0.18759305  0.09415973  1
  C  C102  1  0.67149964  0.17377030  0.73971254  1
  C  C103  1  0.47245743  0.32019821  0.74165431  1
  C  C104  1  0.84054845  0.52589811  0.74110551  1
  C  C105  1  0.68645264  0.53460096  0.24659120  1
  C  C106  1  0.85110568  0.31406032  0.24677707  1
  C  C107  1  0.49250675  0.16849976  0.24469028  1
  C  C108  1  0.65795571  0.51636052  0.91844091  1
  C  C109  1  0.86567149  0.34969837  0.91838016  1
  C  C110  1  0.50047166  0.16585078  0.91690979  1
  C  C111  1  0.66560928  0.15843088  0.41329443  1
  C  C112  1  0.47819396  0.35237257  0.41312894  1
  C  C113  1  0.86997198  0.52033658  0.41430243  1
  C  C114  1  0.35521885  0.48637889  0.08577422  1
  C  C115  1  0.14715989  0.65065933  0.09079659  1
  C  C116  1  0.53506391  0.86184620  0.08724348  1
  C  C117  1  0.32923520  0.86257705  0.58448632  1
  C  C118  1  0.50339065  0.65176789  0.58731048  1
  C  C119  1  0.13157822  0.48906597  0.58237112  1
  C  C120  1  0.31735945  0.83077646  0.25440865  1
  C  C121  1  0.52979405  0.67675307  0.25589634  1
  C  C122  1  0.15311046  0.46259280  0.25341710  1
  C  C123  1  0.31413779  0.46342481  0.74614066  1
  C  C124  1  0.13843501  0.66553377  0.74778148  1
  C  C125  1  0.51510348  0.83778090  0.74501861  1
