# generated using pymatgen
data_Cu4NiC10
_symmetry_space_group_name_H-M   'P 1'
_cell_length_a   9.89512353
_cell_length_b   3.03075694
_cell_length_c   5.18274133
_cell_angle_alpha   88.95254123
_cell_angle_beta   89.84849050
_cell_angle_gamma   91.51636853
_symmetry_Int_Tables_number   1
_chemical_formula_structural   Cu4NiC10
_chemical_formula_sum   'Cu4 Ni1 C10'
_cell_volume   155.34777713
_cell_formula_units_Z   1
loop_
 _symmetry_equiv_pos_site_id
 _symmetry_equiv_pos_as_xyz
  1  'x, y, z'
loop_
 _atom_site_type_symbol
 _atom_site_label
 _atom_site_symmetry_multiplicity
 _atom_site_fract_x
 _atom_site_fract_y
 _atom_site_fract_z
 _atom_site_occupancy
  Ni  Ni0  1  0.59736900  0.81424800  0.96879800  1
  Cu  Cu1  1  0.65468800  0.30457000  0.45674800  1
  Cu  Cu2  1  0.14131200  0.24088000  0.03906400  1
  Cu  Cu3  1  0.34436000  0.75077500  0.53543700  1
  Cu  Cu4  1  0.87362900  0.74679800  0.92325800  1
  C  C5  1  0.40008000  0.29219700  0.94968100  1
  C  C6  1  0.00538800  0.17459800  0.56669000  1
  C  C7  1  0.47458500  0.30867700  0.82270700  1
  C  C8  1  0.98455200  0.21714400  0.74960000  1
  C  C9  1  0.53648100  0.79982000  0.33959800  1
  C  C10  1  0.02440800  0.72411200  0.16961600  1
  C  C11  1  0.74475200  0.32567100  0.08877200  1
  C  C12  1  0.26709000  0.24328900  0.33918800  1
  C  C13  1  0.23293600  0.75621800  0.86934600  1
  C  C14  1  0.73050900  0.80100300  0.65371700  1
