# generated using pymatgen
data_Cu(NiC4)2
_symmetry_space_group_name_H-M   'P 1'
_cell_length_a   6.62573279
_cell_length_b   6.62573272
_cell_length_c   6.27710200
_cell_angle_alpha   61.72583443
_cell_angle_beta   61.72583477
_cell_angle_gamma   55.33681702
_symmetry_Int_Tables_number   1
_chemical_formula_structural   Cu(NiC4)2
_chemical_formula_sum   'Cu1 Ni2 C8'
_cell_volume   191.51245076
_cell_formula_units_Z   1
loop_
 _symmetry_equiv_pos_site_id
 _symmetry_equiv_pos_as_xyz
  1  'x, y, z'
loop_
 _atom_site_type_symbol
 _atom_site_label
 _atom_site_symmetry_multiplicity
 _atom_site_fract_x
 _atom_site_fract_y
 _atom_site_fract_z
 _atom_site_occupancy
  Ni  Ni0  1  0.80706300  0.80706300  0.69293700  1
  Ni  Ni1  1  0.19293700  0.19293700  0.30706300  1
  Cu  Cu2  1  0.00000000  0.00000000  0.00000000  1
  C  C3  1  0.50000000  0.50000000  0.00000000  1
  C  C4  1  0.50000000  0.50000000  0.50000000  1
  C  C5  1  0.26657200  0.73342800  0.76782600  1
  C  C6  1  0.26657200  0.73342800  0.23217400  1
  C  C7  1  0.73342800  0.26657200  0.76782600  1
  C  C8  1  0.24203900  0.24203900  0.75796100  1
  C  C9  1  0.73342800  0.26657200  0.23217400  1
  C  C10  1  0.75796100  0.75796100  0.24203900  1
