# generated using pymatgen
data_Cu4(NiC4)3
_symmetry_space_group_name_H-M   'P 1'
_cell_length_a   9.03156763
_cell_length_b   9.03156763
_cell_length_c   9.03156763
_cell_angle_alpha   109.47122063
_cell_angle_beta   109.47122063
_cell_angle_gamma   109.47122063
_symmetry_Int_Tables_number   1
_chemical_formula_structural   Cu4(NiC4)3
_chemical_formula_sum   'Cu8 Ni6 C24'
_cell_volume   567.11028509
_cell_formula_units_Z   2
loop_
 _symmetry_equiv_pos_site_id
 _symmetry_equiv_pos_as_xyz
  1  'x, y, z'
loop_
 _atom_site_type_symbol
 _atom_site_label
 _atom_site_symmetry_multiplicity
 _atom_site_fract_x
 _atom_site_fract_y
 _atom_site_fract_z
 _atom_site_occupancy
  Ni  Ni0  1  0.62500000  0.37500000  0.25000000  1
  Ni  Ni1  1  0.37500000  0.25000000  0.62500000  1
  Ni  Ni2  1  0.25000000  0.62500000  0.37500000  1
  Ni  Ni3  1  0.87500000  0.12500000  0.75000000  1
  Ni  Ni4  1  0.75000000  0.87500000  0.12500000  1
  Ni  Ni5  1  0.12500000  0.75000000  0.87500000  1
  Cu  Cu6  1  0.50000000  0.00000000  0.33184300  1
  Cu  Cu7  1  0.33184300  0.50000000  0.00000000  1
  Cu  Cu8  1  0.83184300  0.50000000  0.00000000  1
  Cu  Cu9  1  0.66815700  0.66815700  0.66815700  1
  Cu  Cu10  1  0.00000000  0.83184300  0.50000000  1
  Cu  Cu11  1  0.00000000  0.33184300  0.50000000  1
  Cu  Cu12  1  0.50000000  0.00000000  0.83184300  1
  Cu  Cu13  1  0.16815700  0.16815700  0.16815700  1
  C  C14  1  0.34852900  0.19007800  0.42042700  1
  C  C15  1  0.92042700  0.69007800  0.84852900  1
  C  C16  1  0.07957300  0.26965100  0.92810200  1
  C  C17  1  0.84852900  0.92042700  0.69007800  1
  C  C18  1  0.92810200  0.07957300  0.26965100  1
  C  C19  1  0.69007800  0.84852900  0.92042700  1
  C  C20  1  0.57957300  0.42810200  0.76965100  1
  C  C21  1  0.80992200  0.73034900  0.15845200  1
  C  C22  1  0.15147100  0.57189800  0.84154800  1
  C  C23  1  0.34154800  0.07189800  0.65147100  1
  C  C24  1  0.26965100  0.92810200  0.07957300  1
  C  C25  1  0.30992200  0.65845200  0.23034900  1
  C  C26  1  0.76965100  0.57957300  0.42810200  1
  C  C27  1  0.15845200  0.80992200  0.73034900  1
  C  C28  1  0.42810200  0.76965100  0.57957300  1
  C  C29  1  0.65147100  0.34154800  0.07189800  1
  C  C30  1  0.07189800  0.65147100  0.34154800  1
  C  C31  1  0.57189800  0.84154800  0.15147100  1
  C  C32  1  0.19007800  0.42042700  0.34852900  1
  C  C33  1  0.73034900  0.15845200  0.80992200  1
  C  C34  1  0.23034900  0.30992200  0.65845200  1
  C  C35  1  0.65845200  0.23034900  0.30992200  1
  C  C36  1  0.42042700  0.34852900  0.19007800  1
  C  C37  1  0.84154800  0.15147100  0.57189800  1
