# generated using pymatgen
data_CuNiC11
_symmetry_space_group_name_H-M   'P 1'
_cell_length_a   9.12826648
_cell_length_b   9.15249937
_cell_length_c   22.93095972
_cell_angle_alpha   90.25762084
_cell_angle_beta   90.21099029
_cell_angle_gamma   120.09214387
_symmetry_Int_Tables_number   1
_chemical_formula_structural   CuNiC11
_chemical_formula_sum   'Cu9 Ni9 C99'
_cell_volume   1657.53334288
_cell_formula_units_Z   9
loop_
 _symmetry_equiv_pos_site_id
 _symmetry_equiv_pos_as_xyz
  1  'x, y, z'
loop_
 _atom_site_type_symbol
 _atom_site_label
 _atom_site_symmetry_multiplicity
 _atom_site_fract_x
 _atom_site_fract_y
 _atom_site_fract_z
 _atom_site_occupancy
  C  C0  1  0.64808530  0.00731578  0.25805780  1
  C  C1  1  0.00093264  0.61879600  0.24669062  1
  C  C2  1  0.62830837  0.63430131  0.74255675  1
  C  C3  1  0.36909104  0.01816478  0.75940882  1
  C  C4  1  0.66635035  0.95139014  0.58618627  1
  C  C5  1  0.98005740  0.69221629  0.92410292  1
  C  C6  1  0.68652265  0.00965259  0.90912836  1
  C  C7  1  0.96065524  0.30043375  0.40634464  1
  C  C8  1  0.70920757  0.69269673  0.42606225  1
  C  C9  1  0.00116164  0.97102676  0.50148911  1
  C  C10  1  0.01278919  0.98217260  0.99819467  1
  C  C11  1  0.63749183  0.31529931  0.83012197  1
  C  C12  1  0.66690134  0.31675289  0.33252251  1
  C  C13  1  0.29801206  0.62792402  0.15941472  1
  C  C14  1  0.33035807  0.62866788  0.66596383  1
  C  C15  1  0.66438085  0.34535245  0.98074003  1
  C  C16  1  0.67115537  0.34170250  0.48188751  1
  C  C17  1  0.34746447  0.66884457  0.81536631  1
  Ni  Ni18  1  0.99752541  0.99891272  0.35019515  1
  Ni  Ni19  1  0.00447100  0.01124721  0.84914062  1
  Ni  Ni20  1  0.99103462  0.99721948  0.65205726  1
  Ni  Ni21  1  0.00251070  0.00221144  0.14364155  1
  Ni  Ni22  1  0.65911251  0.33689905  0.68430153  1
  Ni  Ni23  1  0.68814764  0.34315821  0.17794317  1
  Ni  Ni24  1  0.33321034  0.68143759  0.01657503  1
  Ni  Ni25  1  0.34030678  0.67494249  0.51533462  1
  Ni  Ni26  1  0.32039133  0.66179639  0.31997500  1
  Cu  Cu27  1  0.00508025  0.29534245  0.24951139  1
  Cu  Cu28  1  0.29048306  0.29514807  0.74792815  1
  Cu  Cu29  1  0.69965680  0.00355089  0.75009646  1
  Cu  Cu30  1  0.66644333  0.63515979  0.58480245  1
  Cu  Cu31  1  0.97494538  0.63959900  0.08451620  1
  Cu  Cu32  1  0.62981108  0.67026601  0.91889374  1
  Cu  Cu33  1  0.33176268  0.96583141  0.91548871  1
  Cu  Cu34  1  0.63135113  0.96747074  0.41542039  1
  Cu  Cu35  1  0.03568679  0.66854062  0.41658368  1
  C  C36  1  0.30039968  0.00445526  0.24870204  1
  C  C37  1  0.69702324  0.69712231  0.24981812  1
  C  C38  1  0.00354031  0.70034581  0.75155089  1
  C  C39  1  0.96115719  0.33608297  0.58202700  1
  C  C40  1  0.37142873  0.03991386  0.58248493  1
  C  C41  1  0.66647412  0.03956197  0.08309512  1
  C  C42  1  0.37714226  0.33563482  0.08401411  1
  C  C43  1  0.03834445  0.37629444  0.91916957  1
  C  C44  1  0.33700081  0.36921752  0.41767506  1
  C  C45  1  0.22382829  0.02319661  0.30321383  1
  C  C46  1  0.80105911  0.76705798  0.30456171  1
  C  C47  1  0.97432578  0.18942270  0.31068013  1
  C  C48  1  0.21610437  0.16603145  0.80230633  1
  C  C49  1  0.97076586  0.77297547  0.80443408  1
  C  C50  1  0.80383739  0.02520430  0.81028727  1
  C  C51  1  0.76743727  0.95132958  0.69177939  1
  C  C52  1  0.18565285  0.21093052  0.68760706  1
  C  C53  1  0.03861559  0.80953893  0.69982108  1
  C  C54  1  0.78435021  0.80594177  0.19959134  1
  C  C55  1  0.01805955  0.19357891  0.19355333  1
  C  C56  1  0.19092135  0.97479038  0.19754190  1
  C  C57  1  0.87751321  0.34997536  0.63476369  1
  C  C58  1  0.46749373  0.11232574  0.63747551  1
  C  C59  1  0.65584891  0.53736277  0.64497723  1
  C  C60  1  0.89911948  0.54890447  0.14789826  1
  C  C61  1  0.64548387  0.11152528  0.13932916  1
  C  C62  1  0.47135435  0.34479806  0.13826884  1
  C  C63  1  0.47061190  0.32183361  0.03228627  1
  C  C64  1  0.84779113  0.52567445  0.02955759  1
  C  C65  1  0.66999974  0.14375879  0.03282737  1
  C  C66  1  0.47169640  0.14645937  0.53223828  1
  C  C67  1  0.67378349  0.52929329  0.52698522  1
  C  C68  1  0.85535979  0.32271379  0.52899637  1
  C  C69  1  0.53820710  0.69943123  0.97382655  1
  C  C70  1  0.13654789  0.44719412  0.97231925  1
  C  C71  1  0.27918037  0.83832854  0.97013118  1
  C  C72  1  0.55676206  0.84400882  0.47176385  1
  C  C73  1  0.30531197  0.44496320  0.46945200  1
  C  C74  1  0.14972913  0.68602891  0.47265305  1
  C  C75  1  0.09264728  0.61169314  0.35671451  1
  C  C76  1  0.52612773  0.88227074  0.35422685  1
  C  C77  1  0.37641000  0.47704075  0.36549851  1
  C  C78  1  0.12011796  0.48199794  0.86718979  1
  C  C79  1  0.36085787  0.87295779  0.85755015  1
  C  C80  1  0.51717904  0.64202729  0.85912437  1
  C  C81  1  0.00614255  0.83006495  0.41059756  1
  C  C82  1  0.82648321  0.99951039  0.41307577  1
  C  C83  1  0.18763469  0.19996131  0.41054929  1
  C  C84  1  0.00242872  0.20037819  0.91315865  1
  C  C85  1  0.16656575  0.98843290  0.90965582  1
  C  C86  1  0.81891919  0.83715259  0.91343284  1
  C  C87  1  0.96500265  0.17586349  0.58097240  1
  C  C88  1  0.20452232  0.02786647  0.58212531  1
  C  C89  1  0.83914610  0.82653233  0.58379787  1
  C  C90  1  0.98258699  0.82433437  0.08386497  1
  C  C91  1  0.82719543  0.03702302  0.08250993  1
  C  C92  1  0.20889946  0.18019997  0.08246452  1
  C  C93  1  0.66790612  0.16363480  0.74305285  1
  C  C94  1  0.48880555  0.33408303  0.74687828  1
  C  C95  1  0.85272783  0.53099049  0.74423252  1
  C  C96  1  0.67377616  0.52435202  0.24418054  1
  C  C97  1  0.82622399  0.30858112  0.24719050  1
  C  C98  1  0.47261629  0.15634961  0.24329197  1
  C  C99  1  0.65712626  0.50447570  0.92431606  1
  C  C100  1  0.86727327  0.36621078  0.92345898  1
  C  C101  1  0.51661340  0.14360120  0.92493727  1
  C  C102  1  0.65205766  0.15670716  0.42433597  1
  C  C103  1  0.48966305  0.35118374  0.42594523  1
  C  C104  1  0.84009411  0.50160417  0.42565639  1
  C  C105  1  0.36337906  0.48804249  0.08011274  1
  C  C106  1  0.15802946  0.64916088  0.08033552  1
  C  C107  1  0.51960765  0.86706680  0.08069350  1
  C  C108  1  0.35784894  0.87148706  0.57816996  1
  C  C109  1  0.49797028  0.65964063  0.58101609  1
  C  C110  1  0.13139147  0.48505668  0.57770707  1
  C  C111  1  0.32181413  0.85184900  0.25218353  1
  C  C112  1  0.53164078  0.69053085  0.25509269  1
  C  C113  1  0.16796101  0.49112049  0.25218182  1
  C  C114  1  0.30862748  0.48313695  0.75652623  1
  C  C115  1  0.15624861  0.68383992  0.75922233  1
  C  C116  1  0.50631035  0.83143648  0.75646564  1
