# generated using pymatgen
data_Cu2NiC16
_symmetry_space_group_name_H-M   'P 1'
_cell_length_a   8.87969812
_cell_length_b   8.83663275
_cell_length_c   22.66494228
_cell_angle_alpha   90.07847305
_cell_angle_beta   90.00000000
_cell_angle_gamma   120.16134559
_symmetry_Int_Tables_number   1
_chemical_formula_structural   Cu2NiC16
_chemical_formula_sum   'Cu12 Ni6 C96'
_cell_volume   1537.66357446
_cell_formula_units_Z   6
loop_
 _symmetry_equiv_pos_site_id
 _symmetry_equiv_pos_as_xyz
  1  'x, y, z'
loop_
 _atom_site_type_symbol
 _atom_site_label
 _atom_site_symmetry_multiplicity
 _atom_site_fract_x
 _atom_site_fract_y
 _atom_site_fract_z
 _atom_site_occupancy
  C  C0  1  0.00099309  0.63856981  0.24475654  1
  C  C1  1  0.63757672  0.63856981  0.74475654  1
  C  C2  1  0.66045171  0.95983721  0.58027205  1
  C  C3  1  0.29938649  0.95983721  0.08027205  1
  C  C4  1  0.69236628  0.02791211  0.91178251  1
  C  C5  1  0.33554482  0.02791211  0.41178251  1
  C  C6  1  0.98525731  0.99216910  0.49640030  1
  C  C7  1  0.00691179  0.99216910  0.99640030  1
  C  C8  1  0.66011381  0.31803516  0.82994425  1
  C  C9  1  0.65792235  0.31803516  0.32994425  1
  C  C10  1  0.33425458  0.65883220  0.16364617  1
  C  C11  1  0.32457662  0.65883220  0.66364617  1
  C  C12  1  0.99409627  0.00516094  0.35034887  1
  C  C13  1  0.01106467  0.00516094  0.85034887  1
  C  C14  1  0.66604152  0.32800006  0.68363276  1
  C  C15  1  0.66195954  0.32800006  0.18363276  1
  C  C16  1  0.31975648  0.66231281  0.01693584  1
  C  C17  1  0.34255533  0.66231281  0.51693584  1
  C  C18  1  0.99440885  0.99443268  0.64912375  1
  C  C19  1  0.00002383  0.99443268  0.14912375  1
  C  C20  1  0.67084719  0.34443272  0.98254543  1
  C  C21  1  0.67358653  0.34443272  0.48254543  1
  C  C22  1  0.34672084  0.68171061  0.31555474  1
  C  C23  1  0.33498877  0.68171061  0.81555474  1
  Ni  Ni24  1  0.29807916  0.00639039  0.25209246  1
  Ni  Ni25  1  0.70831123  0.00639039  0.75209246  1
  Ni  Ni26  1  0.66242575  0.62495957  0.58688030  1
  Ni  Ni27  1  0.96253482  0.62495957  0.08688030  1
  Ni  Ni28  1  0.32976910  0.96428930  0.92014550  1
  Ni  Ni29  1  0.63451921  0.96428930  0.42014550  1
  Cu  Cu30  1  0.70708226  0.70452485  0.25067453  1
  Cu  Cu31  1  0.99790187  0.29297035  0.25068987  1
  Cu  Cu32  1  0.29506848  0.29297035  0.75068987  1
  Cu  Cu33  1  0.99744260  0.70452485  0.75067453  1
  Cu  Cu34  1  0.96337680  0.33907242  0.58428468  1
  Cu  Cu35  1  0.37188902  0.03870178  0.58292105  1
  Cu  Cu36  1  0.66681377  0.03870178  0.08292105  1
  Cu  Cu37  1  0.37569661  0.33907242  0.08428468  1
  Cu  Cu38  1  0.62542407  0.66812243  0.91652402  1
  Cu  Cu39  1  0.04222899  0.37170316  0.91719268  1
  Cu  Cu40  1  0.32947317  0.37170316  0.41719268  1
  Cu  Cu41  1  0.04269736  0.66812243  0.41652402  1
  C  C42  1  0.20916283  0.02205170  0.30800986  1
  C  C43  1  0.81622811  0.78917270  0.30285242  1
  C  C44  1  0.97547196  0.18798299  0.30315801  1
  C  C45  1  0.21251103  0.18798299  0.80315801  1
  C  C46  1  0.97294459  0.78917270  0.80285242  1
  C  C47  1  0.81288887  0.02205170  0.80800986  1
  C  C48  1  0.79269009  0.97259614  0.69609036  1
  C  C49  1  0.19000857  0.21015127  0.69688825  1
  C  C50  1  0.02717379  0.81297568  0.69698724  1
  C  C51  1  0.78580188  0.81297568  0.19698724  1
  C  C52  1  0.02014271  0.21015127  0.19688825  1
  C  C53  1  0.17990605  0.97259614  0.19609036  1
  C  C54  1  0.88074679  0.35969114  0.63694777  1
  C  C55  1  0.48577466  0.12365153  0.63389667  1
  C  C56  1  0.64563315  0.52310523  0.64324570  1
  C  C57  1  0.87747309  0.52310523  0.14324570  1
  C  C58  1  0.63787787  0.12365153  0.13389667  1
  C  C59  1  0.47894535  0.35969114  0.13694777  1
  C  C60  1  0.45345426  0.30338887  0.03102486  1
  C  C61  1  0.84757798  0.53508353  0.03187590  1
  C  C62  1  0.69069445  0.14148818  0.02770734  1
  C  C63  1  0.45079472  0.14148818  0.52770734  1
  C  C64  1  0.68750655  0.53508353  0.53187590  1
  C  C65  1  0.84993561  0.30338887  0.53102486  1
  C  C66  1  0.53806744  0.69054169  0.96802177  1
  C  C67  1  0.14585571  0.45300562  0.96993630  1
  C  C68  1  0.31107715  0.85959542  0.97630083  1
  C  C69  1  0.54851726  0.85959542  0.47630083  1
  C  C70  1  0.30714891  0.45300562  0.46993630  1
  C  C71  1  0.15247325  0.69054169  0.46802177  1
  C  C72  1  0.11856782  0.64131819  0.36131911  1
  C  C73  1  0.51074226  0.87447986  0.36577923  1
  C  C74  1  0.35374562  0.47741360  0.36369283  1
  C  C75  1  0.12366698  0.47741360  0.86369283  1
  C  C76  1  0.36373660  0.87447986  0.86577923  1
  C  C77  1  0.52274937  0.64131819  0.86131911  1
  C  C78  1  0.02901085  0.82861415  0.41114754  1
  C  C79  1  0.81354791  0.98368843  0.41074361  1
  C  C80  1  0.17769766  0.19133256  0.41157211  1
  C  C81  1  0.01363490  0.19133256  0.91157211  1
  C  C82  1  0.17014052  0.98368843  0.91074361  1
  C  C83  1  0.79960330  0.82861415  0.91114754  1
  C  C84  1  0.97694735  0.17576447  0.58902780  1
  C  C85  1  0.19839713  0.02374929  0.58933859  1
  C  C86  1  0.82901012  0.81489897  0.58853745  1
  C  C87  1  0.98588885  0.81489897  0.08853745  1
  C  C88  1  0.82535216  0.02374929  0.08933859  1
  C  C89  1  0.19881712  0.17576447  0.08902780  1
  C  C90  1  0.68452633  0.16442983  0.74386984  1
  C  C91  1  0.47366237  0.31889487  0.74510006  1
  C  C92  1  0.83745353  0.53160962  0.74416251  1
  C  C93  1  0.69415709  0.53160962  0.24416251  1
  C  C94  1  0.84523351  0.31889487  0.24510006  1
  C  C95  1  0.47990450  0.16442983  0.24386984  1
  C  C96  1  0.64581521  0.51102487  0.92144442  1
  C  C97  1  0.86279760  0.35124277  0.92187827  1
  C  C98  1  0.50477085  0.14568150  0.92325181  1
  C  C99  1  0.64091165  0.14568150  0.42325181  1
  C  C100  1  0.48844617  0.35124277  0.42187827  1
  C  C101  1  0.86521066  0.51102487  0.42144442  1
  C  C102  1  0.35699322  0.49385459  0.07587664  1
  C  C103  1  0.14848798  0.65291521  0.08037651  1
  C  C104  1  0.50943576  0.86218173  0.07715178  1
  C  C105  1  0.35274497  0.86218173  0.57715178  1
  C  C106  1  0.50442623  0.65291521  0.58037651  1
  C  C107  1  0.13686037  0.49385459  0.57587664  1
  C  C108  1  0.30386180  0.83002575  0.25523963  1
  C  C109  1  0.53014357  0.68280632  0.25572916  1
  C  C110  1  0.15703180  0.47215207  0.25546952  1
  C  C111  1  0.31511928  0.47215207  0.75546952  1
  C  C112  1  0.15266175  0.68280632  0.75572916  1
  C  C113  1  0.52616296  0.83002575  0.75523963  1
