# generated using pymatgen
data_Cu2Ni2C9
_symmetry_space_group_name_H-M   'P 1'
_cell_length_a   5.18829993
_cell_length_b   5.18829993
_cell_length_c   6.37846100
_cell_angle_alpha   90.00000000
_cell_angle_beta   90.00000000
_cell_angle_gamma   67.05259331
_symmetry_Int_Tables_number   1
_chemical_formula_structural   Cu2Ni2C9
_chemical_formula_sum   'Cu2 Ni2 C9'
_cell_volume   158.11065442
_cell_formula_units_Z   1
loop_
 _symmetry_equiv_pos_site_id
 _symmetry_equiv_pos_as_xyz
  1  'x, y, z'
loop_
 _atom_site_type_symbol
 _atom_site_label
 _atom_site_symmetry_multiplicity
 _atom_site_fract_x
 _atom_site_fract_y
 _atom_site_fract_z
 _atom_site_occupancy
  C  C0  1  0.66066100  0.66066100  0.25000000  1
  Ni  Ni1  1  0.99838200  0.99838200  0.99532600  1
  Ni  Ni2  1  0.99838200  0.99838200  0.50467400  1
  Cu  Cu3  1  0.34089400  0.34089400  0.25000000  1
  Cu  Cu4  1  0.64045800  0.64045800  0.75000000  1
  C  C5  1  0.28228300  0.78433000  0.75000000  1
  C  C6  1  0.24819300  0.72150700  0.25000000  1
  C  C7  1  0.76148500  0.76148500  0.52769800  1
  C  C8  1  0.23847000  0.23847000  0.03167000  1
  C  C9  1  0.76148500  0.76148500  0.97230200  1
  C  C10  1  0.23847000  0.23847000  0.46833000  1
  C  C11  1  0.72150700  0.24819300  0.25000000  1
  C  C12  1  0.78433000  0.28228300  0.75000000  1
