# generated using pymatgen
data_Cu2NiC6
_symmetry_space_group_name_H-M   'P 1'
_cell_length_a   5.96766308
_cell_length_b   5.96766308
_cell_length_c   6.00445310
_cell_angle_alpha   90.00000000
_cell_angle_beta   90.00000000
_cell_angle_gamma   55.22142783
_symmetry_Int_Tables_number   1
_chemical_formula_structural   Cu2NiC6
_chemical_formula_sum   'Cu2 Ni1 C6'
_cell_volume   175.63738704
_cell_formula_units_Z   1
loop_
 _symmetry_equiv_pos_site_id
 _symmetry_equiv_pos_as_xyz
  1  'x, y, z'
loop_
 _atom_site_type_symbol
 _atom_site_label
 _atom_site_symmetry_multiplicity
 _atom_site_fract_x
 _atom_site_fract_y
 _atom_site_fract_z
 _atom_site_occupancy
  C  C0  1  0.35019378  0.35019378  0.25000000  1
  C  C1  1  0.65528607  0.65528607  0.75000000  1
  Ni  Ni2  1  0.26351033  0.26351033  0.75000000  1
  Cu  Cu3  1  0.01676005  0.01676005  0.25000000  1
  Cu  Cu4  1  0.98948633  0.98948633  0.75000000  1
  C  C5  1  0.14095352  0.14095352  0.98282279  1
  C  C6  1  0.14095352  0.14095352  0.51717721  1
  C  C7  1  0.88142820  0.88142820  0.00497201  1
  C  C8  1  0.88142820  0.88142820  0.49502799  1
