# generated using pymatgen
data_Cu(NiC2)4
_symmetry_space_group_name_H-M   'P 1'
_cell_length_a   6.37860812
_cell_length_b   6.37860812
_cell_length_c   9.52571328
_cell_angle_alpha   55.99252379
_cell_angle_beta   55.99252379
_cell_angle_gamma   27.64146819
_symmetry_Int_Tables_number   1
_chemical_formula_structural   Cu(NiC2)4
_chemical_formula_sum   'Cu1 Ni4 C8'
_cell_volume   146.98680893
_cell_formula_units_Z   1
loop_
 _symmetry_equiv_pos_site_id
 _symmetry_equiv_pos_as_xyz
  1  'x, y, z'
loop_
 _atom_site_type_symbol
 _atom_site_label
 _atom_site_symmetry_multiplicity
 _atom_site_fract_x
 _atom_site_fract_y
 _atom_site_fract_z
 _atom_site_occupancy
  Ni  Ni0  1  0.53743700  0.53743700  0.28297300  1
  Ni  Ni1  1  0.46256300  0.46256300  0.71702700  1
  Ni  Ni2  1  0.24158300  0.24158300  0.36044900  1
  Ni  Ni3  1  0.75841700  0.75841700  0.63955100  1
  Cu  Cu4  1  0.00000000  0.00000000  0.00000000  1
  C  C5  1  0.11021300  0.11021300  0.30430900  1
  C  C6  1  0.88978700  0.88978700  0.69569100  1
  C  C7  1  0.55929400  0.55929400  0.07210300  1
  C  C8  1  0.44070600  0.44070600  0.92789700  1
  C  C9  1  0.35413000  0.35413000  0.46254000  1
  C  C10  1  0.16069000  0.16069000  0.78440000  1
  C  C11  1  0.83931000  0.83931000  0.21560000  1
  C  C12  1  0.64587000  0.64587000  0.53746000  1
