# generated using pymatgen
data_CuNiC11
_symmetry_space_group_name_H-M   'P 1'
_cell_length_a   5.79456400
_cell_length_b   5.79456482
_cell_length_c   7.15627500
_cell_angle_alpha   90.00000000
_cell_angle_beta   90.00000000
_cell_angle_gamma   120.00000672
_symmetry_Int_Tables_number   1
_chemical_formula_structural   CuNiC11
_chemical_formula_sum   'Cu1 Ni1 C11'
_cell_volume   208.09383453
_cell_formula_units_Z   1
loop_
 _symmetry_equiv_pos_site_id
 _symmetry_equiv_pos_as_xyz
  1  'x, y, z'
loop_
 _atom_site_type_symbol
 _atom_site_label
 _atom_site_symmetry_multiplicity
 _atom_site_fract_x
 _atom_site_fract_y
 _atom_site_fract_z
 _atom_site_occupancy
  Ni  Ni0  1  0.00000000  0.00000000  0.49706600  1
  C  C1  1  0.66666700  0.33333300  0.17760500  1
  Cu  Cu2  1  0.00000000  0.00000000  0.01415900  1
  C  C3  1  0.33333300  0.66666700  0.30683200  1
  C  C4  1  0.66666700  0.33333300  0.70962500  1
  C  C5  1  0.34309400  0.17154700  0.81227800  1
  C  C6  1  0.82845300  0.17154700  0.81227800  1
  C  C7  1  0.82845300  0.65690600  0.81227800  1
  C  C8  1  0.16198500  0.83801500  0.17294200  1
  C  C9  1  0.33333300  0.66666700  0.55831500  1
  C  C10  1  0.66666700  0.33333300  0.45038400  1
  C  C11  1  0.16198500  0.32397000  0.17294200  1
  C  C12  1  0.67603000  0.83801500  0.17294200  1
