# generated using pymatgen
data_Cu(NiC)2
_symmetry_space_group_name_H-M   'P 1'
_cell_length_a   3.27132700
_cell_length_b   3.27131441
_cell_length_c   30.22000500
_cell_angle_alpha   90.00004700
_cell_angle_beta   90.00003079
_cell_angle_gamma   120.00038133
_symmetry_Int_Tables_number   1
_chemical_formula_structural   Cu(NiC)2
_chemical_formula_sum   'Cu2 Ni4 C4'
_cell_volume   280.07203055
_cell_formula_units_Z   2
loop_
 _symmetry_equiv_pos_site_id
 _symmetry_equiv_pos_as_xyz
  1  'x, y, z'
loop_
 _atom_site_type_symbol
 _atom_site_label
 _atom_site_symmetry_multiplicity
 _atom_site_fract_x
 _atom_site_fract_y
 _atom_site_fract_z
 _atom_site_occupancy
  C  C0  1  0.72804300  0.38012900  0.85259800  1
  C  C1  1  0.66668800  0.33337600  0.34699200  1
  C  C2  1  0.33331000  0.66662100  0.11563200  1
  C  C3  1  0.33331200  0.66662300  0.57835700  1
  Ni  Ni4  1  0.33335900  0.66671900  0.40286800  1
  Ni  Ni5  1  0.66664800  0.33329400  0.52205600  1
  Ni  Ni6  1  0.66664600  0.33329200  0.63462200  1
  Ni  Ni7  1  0.33335000  0.66670200  0.29104600  1
  Cu  Cu8  1  0.66664500  0.33329000  0.06459000  1
  Cu  Cu9  1  0.66664300  0.33328600  0.16668100  1
