# generated using pymatgen
data_Cu(NiC7)5
_symmetry_space_group_name_H-M   'P 1'
_cell_length_a   9.12747701
_cell_length_b   9.08007023
_cell_length_c   22.29623356
_cell_angle_alpha   90.37025788
_cell_angle_beta   89.97320170
_cell_angle_gamma   119.77806629
_symmetry_Int_Tables_number   1
_chemical_formula_structural   Cu(NiC7)5
_chemical_formula_sum   'Cu3 Ni15 C105'
_cell_volume   1603.82786466
_cell_formula_units_Z   3
loop_
 _symmetry_equiv_pos_site_id
 _symmetry_equiv_pos_as_xyz
  1  'x, y, z'
loop_
 _atom_site_type_symbol
 _atom_site_label
 _atom_site_symmetry_multiplicity
 _atom_site_fract_x
 _atom_site_fract_y
 _atom_site_fract_z
 _atom_site_occupancy
  C  C0  1  0.63810068  0.99799583  0.25138084  1
  C  C1  1  0.99549854  0.62910478  0.25419184  1
  C  C2  1  0.63502799  0.63780058  0.74822015  1
  C  C3  1  0.00221464  0.36681655  0.75194190  1
  C  C4  1  0.36624240  0.99770072  0.75205692  1
  C  C5  1  0.29260212  0.33265532  0.58580988  1
  C  C6  1  0.04162787  0.70901004  0.58235975  1
  C  C7  1  0.66917799  0.95847194  0.58378803  1
  C  C8  1  0.29350382  0.95913230  0.07999540  1
  C  C9  1  0.66866210  0.70785588  0.08662913  1
  C  C10  1  0.04131741  0.33173491  0.08380584  1
  C  C11  1  0.98099845  0.66748364  0.91562388  1
  C  C12  1  0.32644594  0.30575642  0.91930000  1
  C  C13  1  0.97189974  0.31357828  0.41361199  1
  C  C14  1  0.69181855  0.66906805  0.41867291  1
  C  C15  1  0.00920620  0.99502865  0.49718045  1
  C  C16  1  0.99534122  0.00653352  0.99654868  1
  C  C17  1  0.66816253  0.31528239  0.83504702  1
  C  C18  1  0.65512156  0.32653007  0.33337267  1
  C  C19  1  0.33427494  0.64454803  0.16914070  1
  C  C20  1  0.33410382  0.66808513  0.66757298  1
  C  C21  1  0.00023555  0.99975990  0.64757866  1
  C  C22  1  0.00319797  0.00331540  0.14786756  1
  C  C23  1  0.33022092  0.66715355  0.01392204  1
  C  C24  1  0.33339021  0.67638001  0.51311976  1
  C  C25  1  0.33236447  0.66526850  0.32168784  1
  C  C26  1  0.33058485  0.67112351  0.82347144  1
  C  C27  1  0.97940055  0.98736733  0.34547249  1
  C  C28  1  0.00906445  0.01475544  0.84303234  1
  C  C29  1  0.66791319  0.33305630  0.68415654  1
  C  C30  1  0.67468911  0.34350785  0.18218846  1
  C  C31  1  0.66574730  0.31764539  0.98511718  1
  C  C32  1  0.67160920  0.32889736  0.48557326  1
  Ni  Ni33  1  0.70208646  0.69295819  0.24740568  1
  Ni  Ni34  1  0.98957984  0.29477699  0.24950731  1
  Ni  Ni35  1  0.30753683  0.29878857  0.74878724  1
  Ni  Ni36  1  0.99070164  0.69827387  0.74987580  1
  Ni  Ni37  1  0.70726999  0.00780626  0.74830265  1
  Ni  Ni38  1  0.95114284  0.33637285  0.58393002  1
  Ni  Ni39  1  0.39125335  0.05607127  0.58400572  1
  Ni  Ni40  1  0.66314212  0.60925029  0.58277743  1
  Ni  Ni41  1  0.94766131  0.61180723  0.08188190  1
  Ni  Ni42  1  0.66467850  0.05090060  0.08627024  1
  Ni  Ni43  1  0.39306157  0.33639553  0.08241853  1
  Ni  Ni44  1  0.01085106  0.34347510  0.91643436  1
  Ni  Ni45  1  0.33074927  0.98709524  0.91622010  1
  Ni  Ni46  1  0.65217090  0.98570742  0.41602581  1
  Ni  Ni47  1  0.01252131  0.66873473  0.41663614  1
  Cu  Cu48  1  0.29980388  0.00868444  0.25087992  1
  Cu  Cu49  1  0.65080160  0.66835932  0.91708835  1
  Cu  Cu50  1  0.33176421  0.34850062  0.41802614  1
  C  C51  1  0.20561556  0.02512417  0.30246141  1
  C  C52  1  0.82008322  0.78096377  0.30381173  1
  C  C53  1  0.96869127  0.17828498  0.30489908  1
  C  C54  1  0.21804497  0.18282920  0.80447427  1
  C  C55  1  0.96704121  0.79236756  0.80550788  1
  C  C56  1  0.83204186  0.03592515  0.80116193  1
  C  C57  1  0.77244654  0.97517723  0.68985232  1
  C  C58  1  0.20197383  0.22598571  0.69245089  1
  C  C59  1  0.02058100  0.79939389  0.69283175  1
  C  C60  1  0.78142368  0.79631921  0.19142352  1
  C  C61  1  0.01325765  0.22158216  0.19155324  1
  C  C62  1  0.20774901  0.98308345  0.19433291  1
  C  C63  1  0.86331447  0.35338165  0.64138691  1
  C  C64  1  0.49034963  0.13743389  0.64312183  1
  C  C65  1  0.64723731  0.50788517  0.64092916  1
  C  C66  1  0.86745352  0.51153585  0.14044381  1
  C  C67  1  0.64559051  0.13642990  0.14424897  1
  C  C68  1  0.50009275  0.35360804  0.13864294  1
  C  C69  1  0.47835412  0.32235412  0.02439465  1
  C  C70  1  0.83953287  0.52177717  0.02585347  1
  C  C71  1  0.68394427  0.15743977  0.03065675  1
  C  C72  1  0.48318483  0.16450105  0.52928860  1
  C  C73  1  0.67711824  0.51982449  0.52572385  1
  C  C74  1  0.84995958  0.32136967  0.52651284  1
  C  C75  1  0.57251963  0.69261936  0.97116675  1
  C  C76  1  0.12761375  0.41869883  0.97194863  1
  C  C77  1  0.29396177  0.87358972  0.97151148  1
  C  C78  1  0.58036146  0.87066842  0.47095017  1
  C  C79  1  0.29847493  0.42108599  0.47282256  1
  C  C80  1  0.11659102  0.69889020  0.47382776  1
  C  C81  1  0.08892004  0.62736090  0.36238856  1
  C  C82  1  0.54809812  0.90952871  0.35947385  1
  C  C83  1  0.36595157  0.46445872  0.36753224  1
  C  C84  1  0.08735797  0.45991062  0.86182307  1
  C  C85  1  0.36330150  0.91307526  0.85977541  1
  C  C86  1  0.54328485  0.63920434  0.86405592  1
  C  C87  1  0.99140865  0.82812731  0.40672965  1
  C  C88  1  0.83461073  0.00656435  0.40814525  1
  C  C89  1  0.17719033  0.18183054  0.40780466  1
  C  C90  1  0.00078194  0.16900166  0.90594959  1
  C  C91  1  0.16622581  0.00122807  0.90807469  1
  C  C92  1  0.82173908  0.81771402  0.91055009  1
  C  C93  1  0.96753497  0.17561199  0.58316908  1
  C  C94  1  0.21382493  0.03743851  0.58308025  1
  C  C95  1  0.82330361  0.78615933  0.58231004  1
  C  C96  1  0.96603424  0.79010784  0.08212298  1
  C  C97  1  0.82301262  0.03156728  0.08547288  1
  C  C98  1  0.21652652  0.17576067  0.08290955  1
  C  C99  1  0.69605096  0.17492247  0.74653436  1
  C  C100  1  0.48289364  0.30693679  0.74592415  1
  C  C101  1  0.82459893  0.52092101  0.74698137  1
  C  C102  1  0.69486900  0.51653866  0.24452046  1
  C  C103  1  0.81847137  0.30075077  0.24820294  1
  C  C104  1  0.47083195  0.16046783  0.24928574  1
  C  C105  1  0.66733981  0.51266342  0.92188450  1
  C  C106  1  0.83715443  0.33506268  0.92569609  1
  C  C107  1  0.48595491  0.16933700  0.92504071  1
  C  C108  1  0.67681710  0.16734709  0.42516154  1
  C  C109  1  0.48560115  0.33330134  0.42443038  1
  C  C110  1  0.83065749  0.50812621  0.42345103  1
  C  C111  1  0.37367102  0.49602897  0.08186448  1
  C  C112  1  0.12435516  0.62872784  0.08057039  1
  C  C113  1  0.50471466  0.87350511  0.08368898  1
  C  C114  1  0.37369270  0.87758887  0.58242512  1
  C  C115  1  0.50361895  0.62753931  0.58165266  1
  C  C116  1  0.12791506  0.49596403  0.58306602  1
  C  C117  1  0.31883144  0.85580721  0.25679715  1
  C  C118  1  0.53076897  0.68130879  0.25571105  1
  C  C119  1  0.13579110  0.47703605  0.25659101  1
  C  C120  1  0.33424607  0.47822569  0.75742024  1
  C  C121  1  0.14345327  0.67101934  0.75673962  1
  C  C122  1  0.53018001  0.85449752  0.75755432  1
