# generated using pymatgen
data_Cu8Ni8C25
_symmetry_space_group_name_H-M   'P 1'
_cell_length_a   5.57414646
_cell_length_b   11.08749660
_cell_length_c   11.20461076
_cell_angle_alpha   54.36444412
_cell_angle_beta   54.30652536
_cell_angle_gamma   54.34573127
_symmetry_Int_Tables_number   1
_chemical_formula_structural   Cu8Ni8C25
_chemical_formula_sum   'Cu8 Ni8 C25'
_cell_volume   424.99350782
_cell_formula_units_Z   1
loop_
 _symmetry_equiv_pos_site_id
 _symmetry_equiv_pos_as_xyz
  1  'x, y, z'
loop_
 _atom_site_type_symbol
 _atom_site_label
 _atom_site_symmetry_multiplicity
 _atom_site_fract_x
 _atom_site_fract_y
 _atom_site_fract_z
 _atom_site_occupancy
  C  C0  1  0.61478900  0.80953500  0.84450800  1
  Ni  Ni1  1  0.34869200  0.17301200  0.17333400  1
  Ni  Ni2  1  0.17167600  0.06435800  0.59975100  1
  Ni  Ni3  1  0.12755500  0.57242600  0.07745800  1
  Ni  Ni4  1  0.12238500  0.56894400  0.58309000  1
  Ni  Ni5  1  0.83697900  0.41265100  0.44676800  1
  Ni  Ni6  1  0.84632200  0.41628600  0.94144500  1
  Ni  Ni7  1  0.84214500  0.92208700  0.40377600  1
  Ni  Ni8  1  0.81616500  0.92573300  0.93837500  1
  Cu  Cu9  1  0.14036500  0.06597800  0.07909100  1
  Cu  Cu10  1  0.33537700  0.65939800  0.18979900  1
  Cu  Cu11  1  0.35098500  0.17152100  0.69283200  1
  Cu  Cu12  1  0.63668200  0.31909400  0.33542900  1
  Cu  Cu13  1  0.34057500  0.66172200  0.68969100  1
  Cu  Cu14  1  0.64336300  0.32160400  0.83340500  1
  Cu  Cu15  1  0.64473500  0.80524100  0.32981500  1
  Cu  Cu16  1  0.99340800  0.97828100  0.52236900  1
  C  C17  1  0.05852600  0.36454000  0.22650200  1
  C  C18  1  0.41512200  0.02656000  0.38433600  1
  C  C19  1  0.72393600  0.21720900  0.04036700  1
  C  C20  1  0.22287200  0.27483400  0.48756900  1
  C  C21  1  0.55656400  0.46323400  0.12486900  1
  C  C22  1  0.04301400  0.37665600  0.73389400  1
  C  C23  1  0.04256500  0.86076600  0.23316600  1
  C  C24  1  0.92344600  0.11527800  0.28341500  1
  C  C25  1  0.45931500  0.01096000  0.88532800  1
  C  C26  1  0.42695400  0.51381200  0.40099500  1
  C  C27  1  0.77433900  0.20587500  0.53811400  1
  C  C28  1  0.75253400  0.70646100  0.04021000  1
  C  C29  1  0.22541000  0.27799100  0.98423100  1
  C  C30  1  0.21431000  0.77285300  0.47993400  1
  C  C31  1  0.55517700  0.46417000  0.62590500  1
  C  C32  1  0.55333500  0.97007300  0.12758900  1
  C  C33  1  0.07316700  0.87185700  0.73533900  1
  C  C34  1  0.94431500  0.10670100  0.79667300  1
  C  C35  1  0.93689700  0.59679900  0.29254700  1
  C  C36  1  0.42615100  0.52161200  0.89522900  1
  C  C37  1  0.75298000  0.70662100  0.53643600  1
  C  C38  1  0.20290200  0.76685400  0.99199100  1
  C  C39  1  0.57373400  0.95814400  0.62392700  1
  C  C40  1  0.93740700  0.60644200  0.79099100  1
