# generated using pymatgen
data_Cu2Ni10C7
_symmetry_space_group_name_H-M   'P 1'
_cell_length_a   5.10203865
_cell_length_b   7.54617147
_cell_length_c   5.68681135
_cell_angle_alpha   97.24221303
_cell_angle_beta   97.51312271
_cell_angle_gamma   84.72407733
_symmetry_Int_Tables_number   1
_chemical_formula_structural   Cu2Ni10C7
_chemical_formula_sum   'Cu2 Ni10 C7'
_cell_volume   214.70079632
_cell_formula_units_Z   1
loop_
 _symmetry_equiv_pos_site_id
 _symmetry_equiv_pos_as_xyz
  1  'x, y, z'
loop_
 _atom_site_type_symbol
 _atom_site_label
 _atom_site_symmetry_multiplicity
 _atom_site_fract_x
 _atom_site_fract_y
 _atom_site_fract_z
 _atom_site_occupancy
  C  C0  1  0.50092514  0.17131750  0.17288593  1
  C  C1  1  0.54756014  0.68671561  0.14455682  1
  C  C2  1  0.42658660  0.97405157  0.56882779  1
  C  C3  1  0.55965821  0.36324543  0.77592128  1
  C  C4  1  0.98798912  0.67171867  0.68492411  1
  C  C5  1  0.99482491  0.34043587  0.34574199  1
  C  C6  1  0.98672043  0.98759349  0.01488320  1
  Ni  Ni7  1  0.84799827  0.43579402  0.63634725  1
  Ni  Ni8  1  0.82439061  0.76274721  0.97973058  1
  Ni  Ni9  1  0.86889395  0.10507531  0.30111820  1
  Ni  Ni10  1  0.64225009  0.10484939  0.84278344  1
  Ni  Ni11  1  0.66683938  0.76417592  0.48236131  1
  Ni  Ni12  1  0.66467158  0.42260489  0.13307550  1
  Ni  Ni13  1  0.33065211  0.57890754  0.85479296  1
  Ni  Ni14  1  0.35350551  0.23837832  0.49581274  1
  Ni  Ni15  1  0.33851558  0.92360320  0.20326667  1
  Ni  Ni16  1  0.14333187  0.90549586  0.72142712  1
  Cu  Cu17  1  0.15114051  0.24647131  0.02255205  1
  Cu  Cu18  1  0.14965800  0.57515090  0.36899106  1
