# generated using pymatgen
data_Cu5Ni2C63
_symmetry_space_group_name_H-M   'P 1'
_cell_length_a   17.69109274
_cell_length_b   8.88756754
_cell_length_c   23.21372861
_cell_angle_alpha   90.25876347
_cell_angle_beta   89.88337614
_cell_angle_gamma   120.20451288
_symmetry_Int_Tables_number   1
_chemical_formula_structural   Cu5Ni2C63
_chemical_formula_sum   'Cu15 Ni6 C189'
_cell_volume   3154.35066365
_cell_formula_units_Z   3
loop_
 _symmetry_equiv_pos_site_id
 _symmetry_equiv_pos_as_xyz
  1  'x, y, z'
loop_
 _atom_site_type_symbol
 _atom_site_label
 _atom_site_symmetry_multiplicity
 _atom_site_fract_x
 _atom_site_fract_y
 _atom_site_fract_z
 _atom_site_occupancy
  Ni  Ni0  1  0.00024466  -0.00023748  0.50195114  1
  Ni  Ni1  1  0.50239054  0.00595034  0.00132178  1
  Ni  Ni2  1  0.33457742  0.33406130  0.82782538  1
  Ni  Ni3  1  0.83368866  0.33295151  0.83104237  1
  Ni  Ni4  1  0.33568708  0.33896456  0.33486270  1
  Ni  Ni5  1  0.83239293  0.33009432  0.33368308  1
  Cu  Cu6  1  0.00611593  0.00404751  0.35721714  1
  Cu  Cu7  1  0.50090735  0.00043098  0.85779571  1
  Cu  Cu8  1  0.00027084  0.99914590  0.64363558  1
  Cu  Cu9  1  0.50258488  0.00505504  0.14504576  1
  Cu  Cu10  1  0.32757971  0.32855317  0.67708847  1
  Cu  Cu11  1  0.83886291  0.33962133  0.67931872  1
  Cu  Cu12  1  0.82643949  0.32480516  0.17827373  1
  Cu  Cu13  1  0.32440830  0.32734414  0.98340249  1
  Cu  Cu14  1  0.84226333  0.33902621  0.98602683  1
  Cu  Cu15  1  0.34251518  0.34493509  0.48653519  1
  Cu  Cu16  1  0.82506089  0.32270071  0.48618212  1
  Cu  Cu17  1  0.16278597  0.66618881  0.30489048  1
  Cu  Cu18  1  0.67088685  0.66347726  0.30609119  1
  Cu  Cu19  1  0.17337283  0.67653091  0.80506792  1
  Cu  Cu20  1  0.65964297  0.65586269  0.80446388  1
  C  C21  1  0.49921142  0.99326394  0.35663344  1
  C  C22  1  0.99776990  0.99850588  0.85128153  1
  C  C23  1  0.49978939  0.99886527  0.64926625  1
  C  C24  1  0.00037325  0.00284624  0.14905044  1
  C  C25  1  0.33599393  0.33462841  0.18030166  1
  C  C26  1  0.15798654  0.67597403  0.01202364  1
  C  C27  1  0.67968004  0.67283579  0.01221438  1
  C  C28  1  0.16997584  0.66649544  0.51737539  1
  C  C29  1  0.66168437  0.66822422  0.51952498  1
  C  C30  1  0.15234010  0.02208802  0.24004109  1
  C  C31  1  0.64336917  0.01662799  0.25809024  1
  C  C32  1  0.36089776  0.69338001  0.25024642  1
  C  C33  1  0.86311515  0.71732103  0.24439064  1
  C  C34  1  0.99604790  0.27753323  0.24489198  1
  C  C35  1  0.48493467  0.27684808  0.25040132  1
  C  C36  1  0.14418676  0.27027572  0.75757749  1
  C  C37  1  0.64233989  0.27722944  0.74438177  1
  C  C38  1  0.99139216  0.71116983  0.75684439  1
  C  C39  1  0.49573114  0.71485920  0.74467186  1
  C  C40  1  0.36194258  0.00855776  0.74455770  1
  C  C41  1  0.86281170  0.01671375  0.75679392  1
  C  C42  1  0.49292544  0.32860392  0.58264239  1
  C  C43  1  0.99681080  0.35273580  0.57657718  1
  C  C44  1  0.18140872  0.01094897  0.57421762  1
  C  C45  1  0.66983841  0.00818319  0.58427507  1
  C  C46  1  0.33541183  0.65869316  0.58325681  1
  C  C47  1  0.82300968  0.64035159  0.57579577  1
  C  C48  1  0.48599689  0.61668458  0.08356831  1
  C  C49  1  0.99373887  0.65644169  0.08279194  1
  C  C50  1  0.32224536  0.02435017  0.08163292  1
  C  C51  1  0.83536432  0.01195969  0.08309373  1
  C  C52  1  0.17957214  0.33362373  0.08945924  1
  C  C53  1  0.68102734  0.35221659  0.07418555  1
  C  C54  1  0.30705264  0.67647554  0.92482109  1
  C  C55  1  0.82013029  0.68402698  0.91342271  1
  C  C56  1  0.02637415  0.36557865  0.91541045  1
  C  C57  1  0.52627959  0.38215915  0.92305340  1
  C  C58  1  0.15442599  0.95036917  0.91448158  1
  C  C59  1  0.66583194  0.94525883  0.92389418  1
  C  C60  1  0.31925426  0.95552588  0.41263730  1
  C  C61  1  0.80818948  0.94246204  0.42259303  1
  C  C62  1  0.16773928  0.38582436  0.42199407  1
  C  C63  1  0.65553613  0.35875685  0.41402467  1
  C  C64  1  0.02576219  0.66893366  0.42194103  1
  C  C65  1  0.52433551  0.68410592  0.41466155  1
  C  C66  1  0.12047520  0.05746250  0.29350669  1
  C  C67  1  0.59755366  0.04653205  0.31173891  1
  C  C68  1  0.41764769  0.77035085  0.30430755  1
  C  C69  1  0.91513459  0.80183042  0.29563962  1
  C  C70  1  0.46768066  0.16607290  0.30349666  1
  C  C71  1  0.98752916  0.17674328  0.29640437  1
  C  C72  1  0.10117063  0.15702395  0.81252444  1
  C  C73  1  0.60207768  0.17817640  0.79660006  1
  C  C74  1  0.48624600  0.79479932  0.79717647  1
  C  C75  1  0.97743749  0.79621279  0.81212605  1
  C  C76  1  0.41099574  0.02541008  0.79691794  1
  C  C77  1  0.92032592  0.04691953  0.81209590  1
  C  C78  1  0.40786782  0.99654129  0.68995188  1
  C  C79  1  0.90572654  0.00464835  0.70526766  1
  C  C80  1  0.09692924  0.18550893  0.70549834  1
  C  C81  1  0.58947110  0.18503187  0.68986075  1
  C  C82  1  -0.00315387  0.80674489  0.70526919  1
  C  C83  1  0.50253141  0.81979219  0.69057311  1
  C  C84  1  0.39993737  0.79497181  0.19925050  1
  C  C85  1  0.90867668  0.82024653  0.18896710  1
  C  C86  1  0.00471158  0.18780111  0.19009493  1
  C  C87  1  0.49755170  0.20167246  0.19873713  1
  C  C88  1  0.09369363  0.99464793  0.18952380  1
  C  C89  1  0.59727266  0.00621281  0.20538644  1
  C  C90  1  0.45669818  0.36860776  0.63292674  1
  C  C91  1  0.95907232  0.37560221  0.63003331  1
  C  C92  1  0.22889137  0.08425304  0.62817735  1
  C  C93  1  0.72708595  0.08184333  0.63406214  1
  C  C94  1  0.31433715  0.54887851  0.63413012  1
  C  C95  1  0.81246993  0.54025208  0.62825712  1
  C  C96  1  0.44178326  0.50144727  0.13987944  1
  C  C97  1  0.95749690  0.54479397  0.13289417  1
  C  C98  1  0.30824840  0.10923109  0.13579074  1
  C  C99  1  0.81479376  0.07927151  0.13458558  1
  C  C100  1  0.24267559  0.37308113  0.14045985  1
  C  C101  1  0.72802202  0.37431136  0.12835254  1
  C  C102  1  0.21136101  0.28682203  0.03880561  1
  C  C103  1  0.72416468  0.32698943  0.02464089  1
  C  C104  1  0.42918641  0.53515977  0.03458266  1
  C  C105  1  0.94069450  0.59034119  0.03109144  1
  C  C106  1  0.33881562  0.13193910  0.03126241  1
  C  C107  1  0.85598223  0.12498628  0.03332477  1
  C  C108  1  0.22379927  0.12336153  0.52466416  1
  C  C109  1  0.70370593  0.11294145  0.53254122  1
  C  C110  1  0.35698528  0.58740358  0.53325068  1
  C  C111  1  0.83477591  0.55945718  0.52428691  1
  C  C112  1  0.43857608  0.28649678  0.53132869  1
  C  C113  1  0.94211110  0.32994926  0.52650187  1
  C  C114  1  0.25968556  0.69337145  0.98055514  1
  C  C115  1  0.78060395  0.71259668  0.96915283  1
  C  C116  1  0.07921455  0.44905964  0.97252926  1
  C  C117  1  0.58322180  0.47960358  0.97620651  1
  C  C118  1  0.14095578  0.84255425  0.97042100  1
  C  C119  1  0.65888556  0.84031702  0.98020301  1
  C  C120  1  0.28067550  0.85074453  0.46605790  1
  C  C121  1  0.76026404  0.83480907  0.47734936  1
  C  C122  1  0.16243543  0.47732144  0.47752726  1
  C  C123  1  0.64290612  0.43987189  0.46742870  1
  C  C124  1  0.08260771  0.68470012  0.47418245  1
  C  C125  1  0.57522395  0.70977887  0.47044055  1
  C  C126  1  0.06687235  0.66186927  0.36818513  1
  C  C127  1  0.56648143  0.66243168  0.36474089  1
  C  C128  1  0.26733005  0.87811448  0.36118460  1
  C  C129  1  0.76143379  0.85535868  0.37049487  1
  C  C130  1  0.17064861  0.48081636  0.37062588  1
  C  C131  1  0.66913459  0.46095908  0.36243978  1
  C  C132  1  0.06889868  0.47573947  0.86659223  1
  C  C133  1  0.56767168  0.47212794  0.87012818  1
  C  C134  1  0.16922513  0.86807946  0.86570812  1
  C  C135  1  0.66925721  0.85615736  0.87255686  1
  C  C136  1  0.26107190  0.67019634  0.87273888  1
  C  C137  1  0.76431264  0.65464365  0.86451450  1
  C  C138  1  0.01914510  0.82782439  0.42497920  1
  C  C139  1  0.51875276  0.85001998  0.40996666  1
  C  C140  1  0.40741716  0.95742790  0.40622007  1
  C  C141  1  0.89502158  0.95842236  0.42548763  1
  C  C142  1  0.08779015  0.21346768  0.42520536  1
  C  C143  1  0.56926564  0.18356699  0.40804859  1
  C  C144  1  0.02130553  0.19093569  0.91104082  1
  C  C145  1  0.51851430  0.20941197  0.92628771  1
  C  C146  1  0.07176080  0.95787887  0.91017465  1
  C  C147  1  0.58622818  0.95829293  0.92730187  1
  C  C148  1  0.39414837  0.83259370  0.92868743  1
  C  C149  1  0.90707483  0.85280657  0.90889037  1
  C  C150  1  0.51088990  0.18256133  0.59402010  1
  C  C151  1  0.01221000  0.20492191  0.57967517  1
  C  C152  1  0.09032769  0.97140754  0.57779216  1
  C  C153  1  0.57920794  0.97978509  0.59521524  1
  C  C154  1  0.41139256  0.84088046  0.59448487  1
  C  C155  1  0.89594996  0.82078707  0.57978906  1
  C  C156  1  0.49621366  0.78994597  0.09130983  1
  C  C157  1  0.01221827  0.83887566  0.09412773  1
  C  C158  1  0.39592180  0.99588903  0.08982784  1
  C  C159  1  0.91286173  0.98468314  0.09330888  1
  C  C160  1  0.08977442  0.17639166  0.10128094  1
  C  C161  1  0.59012665  0.20654201  0.07716277  1
  C  C162  1  0.35326200  0.16426854  0.73998307  1
  C  C163  1  0.85413557  0.17324414  0.75634251  1
  C  C164  1  0.23216685  0.28987763  0.75763825  1
  C  C165  1  0.72916006  0.29503895  0.73870036  1
  C  C166  1  0.41734472  0.54096694  0.73932220  1
  C  C167  1  0.91272723  0.53624962  0.75672619  1
  C  C168  1  0.35385633  0.51295643  0.24320467  1
  C  C169  1  0.85392611  0.54410721  0.23934486  1
  C  C170  1  0.39946665  0.28543936  0.24271956  1
  C  C171  1  0.91691944  0.29104075  0.23921513  1
  C  C172  1  0.24066923  0.18900302  0.23095096  1
  C  C173  1  0.73086495  0.17409509  0.25887056  1
  C  C174  1  0.31238226  0.51829619  0.92865074  1
  C  C175  1  0.83412226  0.53679805  0.92169499  1
  C  C176  1  0.44010422  0.36771229  0.92777684  1
  C  C177  1  0.93829611  0.34006481  0.92188943  1
  C  C178  1  0.22993488  0.12439784  0.92198958  1
  C  C179  1  0.74471203  0.11765967  0.92815788  1
  C  C180  1  0.33732643  0.13481941  0.41926106  1
  C  C181  1  0.81505843  0.11346879  0.42624210  1
  C  C182  1  0.24615060  0.36932538  0.42544060  1
  C  C183  1  0.72851047  0.32558895  0.41981537  1
  C  C184  1  0.43529891  0.53544597  0.41971700  1
  C  C185  1  0.93898341  0.51235953  0.42602988  1
  C  C186  1  0.16947021  0.48663167  0.08137940  1
  C  C187  1  0.67969422  0.52206829  0.06743495  1
  C  C188  1  0.08250850  0.66547747  0.07122686  1
  C  C189  1  0.57193647  0.62961205  0.07866349  1
  C  C190  1  0.23948850  0.85017197  0.07422711  1
  C  C191  1  0.75582251  0.83457500  0.07109407  1
  C  C192  1  0.18182455  0.84125289  0.56673035  1
  C  C193  1  0.65723203  0.82643953  0.57386922  1
  C  C194  1  0.25723679  0.67848575  0.57059994  1
  C  C195  1  0.73845700  0.64753685  0.57036072  1
  C  C196  1  0.08606351  0.51857350  0.57147888  1
  C  C197  1  0.58109517  0.49144213  0.57028479  1
  C  C198  1  0.16474977  0.87349917  0.24296683  1
  C  C199  1  0.64768793  0.86008829  0.26539804  1
  C  C200  1  0.27388257  0.66503786  0.25962793  1
  C  C201  1  0.77846499  0.70774352  0.24442012  1
  C  C202  1  0.07511120  0.44809480  0.24489412  1
  C  C203  1  0.55689170  0.45262851  0.25883552  1
  C  C204  1  0.14818993  0.43600313  0.76424215  1
  C  C205  1  0.64722367  0.44586230  0.74444459  1
  C  C206  1  0.07046881  0.70272215  0.76344944  1
  C  C207  1  0.57573246  0.70573074  0.74452556  1
  C  C208  1  0.27694877  0.84886117  0.74342831  1
  C  C209  1  0.77949787  0.85922849  0.76435727  1
