# generated using pymatgen
data_CuNi2C31
_symmetry_space_group_name_H-M   'P 1'
_cell_length_a   8.74737128
_cell_length_b   8.79762135
_cell_length_c   22.75218431
_cell_angle_alpha   90.16506724
_cell_angle_beta   89.71995134
_cell_angle_gamma   119.92079979
_symmetry_Int_Tables_number   1
_chemical_formula_structural   CuNi2C31
_chemical_formula_sum   'Cu3 Ni6 C93'
_cell_volume   1517.53025080
_cell_formula_units_Z   3
loop_
 _symmetry_equiv_pos_site_id
 _symmetry_equiv_pos_as_xyz
  1  'x, y, z'
loop_
 _atom_site_type_symbol
 _atom_site_label
 _atom_site_symmetry_multiplicity
 _atom_site_fract_x
 _atom_site_fract_y
 _atom_site_fract_z
 _atom_site_occupancy
  C  C0  1  0.99722281  0.00544856  0.64569642  1
  C  C1  1  0.00632928  0.00678021  0.14062871  1
  C  C2  1  0.67346224  0.32319004  0.47572331  1
  C  C3  1  0.33494996  0.66011656  0.02234767  1
  C  C4  1  0.33685579  0.66742946  0.52254997  1
  C  C5  1  0.34007584  0.67341944  0.31076411  1
  Ni  Ni6  1  0.99357522  0.00050381  0.35362134  1
  Ni  Ni7  1  0.00199189  0.99944080  0.85126810  1
  Ni  Ni8  1  0.67759792  0.33914570  0.68792111  1
  Ni  Ni9  1  0.66138380  0.33790330  0.18612247  1
  Ni  Ni10  1  0.65597297  0.32807092  0.97821369  1
  Ni  Ni11  1  0.33172334  0.66741116  0.81494586  1
  Cu  Cu12  1  0.95189344  0.33890341  0.58766044  1
  Cu  Cu13  1  0.39808045  0.33549805  0.08287643  1
  Cu  Cu14  1  0.63748393  0.95584146  0.41514330  1
  C  C15  1  0.29144491  0.00948467  0.25113726  1
  C  C16  1  0.71897781  0.70454211  0.24997611  1
  C  C17  1  0.98714697  0.28563861  0.24944714  1
  C  C18  1  0.29750592  0.29628957  0.75283666  1
  C  C19  1  0.00053765  0.70603389  0.75347802  1
  C  C20  1  0.70266215  0.99813799  0.75426788  1
  C  C21  1  0.38351121  0.05000505  0.58650694  1
  C  C22  1  0.66547652  0.61463705  0.58653357  1
  C  C23  1  0.94483017  0.61010739  0.08290687  1
  C  C24  1  0.66523591  0.05534967  0.08268543  1
  C  C25  1  0.63000660  0.66858871  0.91301424  1
  C  C26  1  0.03624291  0.37083826  0.91431164  1
  C  C27  1  0.33275989  0.95987798  0.91374000  1
  C  C28  1  0.32431759  0.36797158  0.41457263  1
  C  C29  1  0.04512090  0.67867000  0.41440549  1
  C  C30  1  0.20750214  0.03610368  0.30367697  1
  C  C31  1  0.82747224  0.78835981  0.30223257  1
  C  C32  1  0.95915333  0.17591401  0.30160826  1
  C  C33  1  0.21496305  0.17920322  0.80462253  1
  C  C34  1  0.96945728  0.79147568  0.80554599  1
  C  C35  1  0.82186264  0.03233535  0.80534094  1
  C  C36  1  0.78320190  0.96347621  0.70127656  1
  C  C37  1  0.18222286  0.21518514  0.70038355  1
  C  C38  1  0.03524767  0.81830334  0.70085228  1
  C  C39  1  0.79444927  0.81604340  0.19731905  1
  C  C40  1  0.02168898  0.20556632  0.19675717  1
  C  C41  1  0.17895050  0.97766111  0.19846959  1
  C  C42  1  0.86265216  0.36752077  0.64514847  1
  C  C43  1  0.48988051  0.13060661  0.63914855  1
  C  C44  1  0.63232792  0.50594065  0.63927552  1
  C  C45  1  0.87575060  0.50436934  0.13648583  1
  C  C46  1  0.63739480  0.13009663  0.13656804  1
  C  C47  1  0.50712490  0.36991549  0.14285736  1
  C  C48  1  0.47351918  0.29882653  0.02314060  1
  C  C49  1  0.84055571  0.53430169  0.02968543  1
  C  C50  1  0.70365417  0.16293644  0.02961467  1
  C  C51  1  0.45501252  0.15713738  0.53308874  1
  C  C52  1  0.69308795  0.53965783  0.53290041  1
  C  C53  1  0.83483225  0.30151663  0.52822867  1
  C  C54  1  0.54859193  0.70227985  0.96611182  1
  C  C55  1  0.15153380  0.45232074  0.96689171  1
  C  C56  1  0.29893776  0.84759433  0.96642833  1
  C  C57  1  0.53874483  0.83441253  0.47239453  1
  C  C58  1  0.29036825  0.44672925  0.46744230  1
  C  C59  1  0.15275168  0.70247147  0.46738363  1
  C  C60  1  0.12235357  0.63722022  0.36268860  1
  C  C61  1  0.50469902  0.86146762  0.35856177  1
  C  C62  1  0.35386674  0.48181156  0.36267361  1
  C  C63  1  0.11852536  0.48779762  0.86255683  1
  C  C64  1  0.36407783  0.87494555  0.86161586  1
  C  C65  1  0.51102965  0.63408765  0.86184400  1
  C  C66  1  0.03682122  0.83760997  0.40515339  1
  C  C67  1  0.82642134  0.97556887  0.40465753  1
  C  C68  1  0.17309221  0.19410252  0.40530803  1
  C  C69  1  0.02061203  0.19643629  0.90549416  1
  C  C70  1  0.17425428  0.97835465  0.90513523  1
  C  C71  1  0.80417257  0.82956768  0.90492747  1
  C  C72  1  0.97326239  0.16511196  0.59536975  1
  C  C73  1  0.20398287  0.02512564  0.59398269  1
  C  C74  1  0.82412059  0.78992393  0.59455506  1
  C  C75  1  0.96221771  0.78568944  0.09136051  1
  C  C76  1  0.81823713  0.02726173  0.09067075  1
  C  C77  1  0.19767823  0.16617329  0.09158735  1
  C  C78  1  0.68181057  0.15216486  0.74518809  1
  C  C79  1  0.47243035  0.31337972  0.74212652  1
  C  C80  1  0.84026037  0.53311035  0.74627351  1
  C  C81  1  0.70364444  0.53120798  0.24331522  1
  C  C82  1  0.83029556  0.30361331  0.23959920  1
  C  C83  1  0.46859426  0.16129213  0.24369505  1
  C  C84  1  0.65091257  0.51452416  0.92216027  1
  C  C85  1  0.86123265  0.35380666  0.92527087  1
  C  C86  1  0.49296821  0.13293205  0.92114046  1
  C  C87  1  0.64148619  0.14230603  0.42061681  1
  C  C88  1  0.48582114  0.35948643  0.42308196  1
  C  C89  1  0.86689685  0.52512381  0.42186370  1
  C  C90  1  0.36592499  0.50399056  0.07317623  1
  C  C91  1  0.12635669  0.63859342  0.07464876  1
  C  C92  1  0.50703154  0.87940616  0.07430795  1
  C  C93  1  0.36584419  0.87598435  0.57828265  1
  C  C94  1  0.51058422  0.63779298  0.57977171  1
  C  C95  1  0.14449429  0.50559260  0.57553072  1
  C  C96  1  0.30214397  0.84611057  0.25656812  1
  C  C97  1  0.53874961  0.68163999  0.25656244  1
  C  C98  1  0.14501883  0.46078647  0.25649262  1
  C  C99  1  0.31300462  0.47077712  0.76165674  1
  C  C100  1  0.15925631  0.68773548  0.76206924  1
  C  C101  1  0.52854406  0.83684976  0.76227571  1
