# generated using pymatgen
data_Cu8Ni6C7
_symmetry_space_group_name_H-M   'P 1'
_cell_length_a   12.14905300
_cell_length_b   12.14905300
_cell_length_c   5.17107800
_cell_angle_alpha   90.00000000
_cell_angle_beta   90.00000000
_cell_angle_gamma   90.00000000
_symmetry_Int_Tables_number   1
_chemical_formula_structural   Cu8Ni6C7
_chemical_formula_sum   'Cu16 Ni12 C14'
_cell_volume   763.24846933
_cell_formula_units_Z   2
loop_
 _symmetry_equiv_pos_site_id
 _symmetry_equiv_pos_as_xyz
  1  'x, y, z'
loop_
 _atom_site_type_symbol
 _atom_site_label
 _atom_site_symmetry_multiplicity
 _atom_site_fract_x
 _atom_site_fract_y
 _atom_site_fract_z
 _atom_site_occupancy
  C  C0  1  0.50000000  0.00000000  0.40354900  1
  C  C1  1  0.53802400  0.21141200  0.11569400  1
  C  C2  1  0.46197600  0.78858800  0.11569400  1
  C  C3  1  0.21141200  0.46197600  0.88430600  1
  C  C4  1  0.78858800  0.53802400  0.88430600  1
  C  C5  1  0.71141200  0.03802400  0.11569400  1
  C  C6  1  0.96197600  0.71141200  0.88430600  1
  C  C7  1  0.03802400  0.28858800  0.88430600  1
  C  C8  1  0.28858800  0.96197600  0.11569400  1
  C  C9  1  0.00000000  0.50000000  0.59645100  1
  C  C10  1  0.24455000  0.74455000  0.29723000  1
  C  C11  1  0.25545000  0.24455000  0.70277000  1
  C  C12  1  0.74455000  0.75545000  0.70277000  1
  C  C13  1  0.75545000  0.25545000  0.29723000  1
  Ni  Ni14  1  0.63490100  0.29034300  0.24288900  1
  Ni  Ni15  1  0.20965700  0.86509900  0.24288900  1
  Ni  Ni16  1  0.42131000  0.92131000  0.20789100  1
  Ni  Ni17  1  0.07869000  0.42131000  0.79210900  1
  Ni  Ni18  1  0.92131000  0.57869000  0.79210900  1
  Ni  Ni19  1  0.57869000  0.07869000  0.20789100  1
  Ni  Ni20  1  0.36509900  0.70965700  0.24288900  1
  Ni  Ni21  1  0.29034300  0.36509900  0.75711100  1
  Ni  Ni22  1  0.70965700  0.63490100  0.75711100  1
  Ni  Ni23  1  0.79034300  0.13490100  0.24288900  1
  Ni  Ni24  1  0.86509900  0.79034300  0.75711100  1
  Ni  Ni25  1  0.13490100  0.20965700  0.75711100  1
  Cu  Cu26  1  0.54540700  0.21936400  0.83952900  1
  Cu  Cu27  1  0.26623800  0.06271900  0.24738000  1
  Cu  Cu28  1  0.43728100  0.23376200  0.24738000  1
  Cu  Cu29  1  0.93728100  0.26623800  0.75262000  1
  Cu  Cu30  1  0.06271900  0.73376200  0.75262000  1
  Cu  Cu31  1  0.73376200  0.93728100  0.24738000  1
  Cu  Cu32  1  0.76623800  0.43728100  0.75262000  1
  Cu  Cu33  1  0.23376200  0.56271900  0.75262000  1
  Cu  Cu34  1  0.56271900  0.76623800  0.24738000  1
  Cu  Cu35  1  0.21936400  0.45459300  0.16047100  1
  Cu  Cu36  1  0.28063600  0.95459300  0.83952900  1
  Cu  Cu37  1  0.04540700  0.28063600  0.16047100  1
  Cu  Cu38  1  0.95459300  0.71936400  0.16047100  1
  Cu  Cu39  1  0.71936400  0.04540700  0.83952900  1
  Cu  Cu40  1  0.78063600  0.54540700  0.16047100  1
  Cu  Cu41  1  0.45459300  0.78063600  0.83952900  1
