# generated using pymatgen
data_Cu4NiC
_symmetry_space_group_name_H-M   'P 1'
_cell_length_a   6.07594300
_cell_length_b   7.70010600
_cell_length_c   9.17788400
_cell_angle_alpha   90.00000000
_cell_angle_beta   90.00000000
_cell_angle_gamma   90.00000000
_symmetry_Int_Tables_number   1
_chemical_formula_structural   Cu4NiC
_chemical_formula_sum   'Cu16 Ni4 C4'
_cell_volume   429.39102136
_cell_formula_units_Z   4
loop_
 _symmetry_equiv_pos_site_id
 _symmetry_equiv_pos_as_xyz
  1  'x, y, z'
loop_
 _atom_site_type_symbol
 _atom_site_label
 _atom_site_symmetry_multiplicity
 _atom_site_fract_x
 _atom_site_fract_y
 _atom_site_fract_z
 _atom_site_occupancy
  C  C0  1  0.25000000  0.16271100  0.17758000  1
  C  C1  1  0.75000000  0.83728900  0.82242000  1
  C  C2  1  0.75000000  0.66271100  0.32242000  1
  C  C3  1  0.25000000  0.33728900  0.67758000  1
  Ni  Ni4  1  0.25000000  0.68405700  0.07010800  1
  Ni  Ni5  1  0.75000000  0.31594300  0.92989200  1
  Ni  Ni6  1  0.75000000  0.18405700  0.42989200  1
  Ni  Ni7  1  0.25000000  0.81594300  0.57010800  1
  Cu  Cu8  1  0.52905700  0.30945500  0.41940600  1
  Cu  Cu9  1  0.02905700  0.69054500  0.58059400  1
  Cu  Cu10  1  0.47094300  0.80945500  0.08059400  1
  Cu  Cu11  1  0.97094300  0.19054500  0.91940600  1
  Cu  Cu12  1  0.47094300  0.69054500  0.58059400  1
  Cu  Cu13  1  0.97094300  0.30945500  0.41940600  1
  Cu  Cu14  1  0.52905700  0.19054500  0.91940600  1
  Cu  Cu15  1  0.02905700  0.80945500  0.08059400  1
  Cu  Cu16  1  0.25000000  0.54704500  0.20826700  1
  Cu  Cu17  1  0.75000000  0.45295500  0.79173300  1
  Cu  Cu18  1  0.75000000  0.04704500  0.29173300  1
  Cu  Cu19  1  0.25000000  0.95295500  0.70826700  1
  Cu  Cu20  1  0.25000000  0.57914900  0.91414500  1
  Cu  Cu21  1  0.75000000  0.42085100  0.08585500  1
  Cu  Cu22  1  0.75000000  0.07914900  0.58585500  1
  Cu  Cu23  1  0.25000000  0.92085100  0.41414500  1
