# generated using pymatgen
data_Cu3Ni6C31
_symmetry_space_group_name_H-M   'P 1'
_cell_length_a   16.16486691
_cell_length_b   9.24550386
_cell_length_c   9.31015234
_cell_angle_alpha   89.96072235
_cell_angle_beta   125.42245834
_cell_angle_gamma   90.13573384
_symmetry_Int_Tables_number   1
_chemical_formula_structural   Cu3Ni6C31
_chemical_formula_sum   'Cu6 Ni12 C62'
_cell_volume   1133.86880486
_cell_formula_units_Z   2
loop_
 _symmetry_equiv_pos_site_id
 _symmetry_equiv_pos_as_xyz
  1  'x, y, z'
loop_
 _atom_site_type_symbol
 _atom_site_label
 _atom_site_symmetry_multiplicity
 _atom_site_fract_x
 _atom_site_fract_y
 _atom_site_fract_z
 _atom_site_occupancy
  Ni  Ni0  1  0.25155695  0.75296747  0.00008734  1
  Ni  Ni1  1  0.74836421  0.75949205  0.49522139  1
  Ni  Ni2  1  0.75155695  0.25296747  0.00008734  1
  Ni  Ni3  1  0.24836421  0.25949205  0.49522139  1
  Ni  Ni4  1  0.50023610  0.08375767  0.73882983  1
  Ni  Ni5  1  0.50526100  0.88100401  0.24512394  1
  Ni  Ni6  1  0.00023610  0.58375767  0.73882983  1
  Ni  Ni7  1  0.00526100  0.38100401  0.24512394  1
  Ni  Ni8  1  0.19033701  0.93177424  0.29576006  1
  Ni  Ni9  1  0.80731754  0.08243094  0.71327266  1
  Ni  Ni10  1  0.69033701  0.43177424  0.29576006  1
  Ni  Ni11  1  0.30731754  0.58243094  0.71327266  1
  Cu  Cu12  1  0.10243937  0.76244488  0.56108304  1
  Cu  Cu13  1  0.89778026  0.24144995  0.44108242  1
  Cu  Cu14  1  0.10751945  0.25213662  0.05509620  1
  Cu  Cu15  1  0.60243937  0.26244488  0.56108304  1
  Cu  Cu16  1  0.39778026  0.74144995  0.44108242  1
  Cu  Cu17  1  0.60751945  0.75213662  0.05509620  1
  C  C18  1  0.89632665  0.74557892  0.94828821  1
  C  C19  1  0.39632665  0.24557892  0.94828821  1
  C  C20  1  0.35273882  0.90801113  0.75605379  1
  C  C21  1  0.65111336  0.10791714  0.25381086  1
  C  C22  1  0.85273882  0.40801113  0.75605379  1
  C  C23  1  0.15111336  0.60791714  0.25381086  1
  C  C24  1  0.99687862  0.94068411  0.76690210  1
  C  C25  1  0.99236811  0.04744533  0.23505019  1
  C  C26  1  0.49687862  0.44068411  0.76690210  1
  C  C27  1  0.49236811  0.54744533  0.23505019  1
  C  C28  1  0.65159564  0.89345968  0.73648482  1
  C  C29  1  0.35716584  0.09574104  0.25597248  1
  C  C30  1  0.15159564  0.39345968  0.73648482  1
  C  C31  1  0.85716584  0.59574104  0.25597248  1
  C  C32  1  0.16147040  0.56032187  0.74214179  1
  C  C33  1  0.84721263  0.58908566  0.77688193  1
  C  C34  1  0.85347544  0.43071185  0.22930623  1
  C  C35  1  0.15543575  0.43187015  0.25283217  1
  C  C36  1  0.66147040  0.06032187  0.74214179  1
  C  C37  1  0.34721263  0.08908566  0.77688193  1
  C  C38  1  0.35347544  0.93071185  0.22930623  1
  C  C39  1  0.65543575  0.93187015  0.25283217  1
  C  C40  1  0.43431941  0.54339500  0.60672004  1
  C  C41  1  0.56526200  0.52563258  0.93781584  1
  C  C42  1  0.54561873  0.45506778  0.40097211  1
  C  C43  1  0.43473237  0.44327599  0.07008763  1
  C  C44  1  0.93431941  0.04339500  0.60672004  1
  C  C45  1  0.06526200  0.02563258  0.93781584  1
  C  C46  1  0.04561873  0.95506778  0.40097211  1
  C  C47  1  0.93473237  0.94327599  0.07008763  1
  C  C48  1  0.26153730  0.83108742  0.75298869  1
  C  C49  1  0.75085670  0.82997473  0.76787978  1
  C  C50  1  0.73217596  0.19433854  0.23390622  1
  C  C51  1  0.26457354  0.14746487  0.24926134  1
  C  C52  1  0.76153730  0.33108742  0.75298869  1
  C  C53  1  0.25085670  0.32997473  0.76787978  1
  C  C54  1  0.23217596  0.69433854  0.23390622  1
  C  C55  1  0.76457354  0.64746487  0.24926134  1
  C  C56  1  0.35154292  0.88639227  0.57825484  1
  C  C57  1  0.64270098  0.84970748  0.88571044  1
  C  C58  1  0.66196896  0.15912251  0.43022222  1
  C  C59  1  0.35893523  0.16736819  0.10033124  1
  C  C60  1  0.85154292  0.38639227  0.57825484  1
  C  C61  1  0.14270098  0.34970748  0.88571044  1
  C  C62  1  0.16196896  0.65912251  0.43022222  1
  C  C63  1  0.85893523  0.66736819  0.10033124  1
  C  C64  1  0.46105174  0.85325437  0.92680121  1
  C  C65  1  0.55882496  0.83851808  0.55766878  1
  C  C66  1  0.53106187  0.16919014  0.08624283  1
  C  C67  1  0.45477269  0.13988529  0.43102867  1
  C  C68  1  0.96105174  0.35325437  0.92680121  1
  C  C69  1  0.05882496  0.33851808  0.55766878  1
  C  C70  1  0.03106187  0.66919014  0.08624283  1
  C  C71  1  0.95477269  0.63988529  0.43102867  1
  C  C72  1  0.05796100  0.82514490  0.74735993  1
  C  C73  1  0.91294988  0.85494830  0.77218246  1
  C  C74  1  0.91601136  0.15336152  0.22503501  1
  C  C75  1  0.07654923  0.13458533  0.24024927  1
  C  C76  1  0.55796100  0.32514490  0.74735993  1
  C  C77  1  0.41294988  0.35494830  0.77218246  1
  C  C78  1  0.41601136  0.65336152  0.22503501  1
  C  C79  1  0.57654923  0.63458533  0.24024927  1
