# generated using pymatgen
data_Cu3NiC16
_symmetry_space_group_name_H-M   'P 1'
_cell_length_a   9.06766946
_cell_length_b   8.99342432
_cell_length_c   22.49524349
_cell_angle_alpha   89.74053061
_cell_angle_beta   90.31954516
_cell_angle_gamma   119.54542160
_symmetry_Int_Tables_number   1
_chemical_formula_structural   Cu3NiC16
_chemical_formula_sum   'Cu18 Ni6 C96'
_cell_volume   1595.89975253
_cell_formula_units_Z   6
loop_
 _symmetry_equiv_pos_site_id
 _symmetry_equiv_pos_as_xyz
  1  'x, y, z'
loop_
 _atom_site_type_symbol
 _atom_site_label
 _atom_site_symmetry_multiplicity
 _atom_site_fract_x
 _atom_site_fract_y
 _atom_site_fract_z
 _atom_site_occupancy
  C  C0  1  0.99943154  0.00048743  0.50102847  1
  C  C1  1  0.99599730  0.99464970  0.00198491  1
  C  C2  1  0.62356670  0.31325334  0.83113635  1
  C  C3  1  0.69319908  0.38417512  0.33623208  1
  C  C4  1  0.32289315  0.66582358  0.17821722  1
  C  C5  1  0.33532387  0.67069682  0.66236279  1
  C  C6  1  0.64547909  0.99727772  0.24886828  1
  C  C7  1  0.35405322  0.35615482  0.24861973  1
  C  C8  1  0.64181402  0.63537916  0.73659815  1
  C  C9  1  0.98822060  0.35366168  0.73315370  1
  C  C10  1  0.04780207  0.71176616  0.58509623  1
  C  C11  1  0.66411243  0.97010490  0.58573917  1
  C  C12  1  0.29786076  0.96540519  0.09728497  1
  C  C13  1  0.01682584  0.32990342  0.10076330  1
  C  C14  1  0.98037451  0.66688550  0.91898047  1
  C  C15  1  0.69032108  0.02507828  0.91865256  1
  C  C16  1  0.97689807  0.30350973  0.41556724  1
  C  C17  1  0.33094152  0.02963168  0.41723855  1
  C  C18  1  0.98411819  0.97956880  0.33450307  1
  C  C19  1  0.02401802  0.02000490  0.83962885  1
  C  C20  1  0.66046809  0.34653671  0.99749060  1
  C  C21  1  0.34849357  0.65669456  0.02505921  1
  C  C22  1  0.34051246  0.65169714  0.52066725  1
  C  C23  1  0.33080952  0.66954463  0.80979712  1
  Ni  Ni24  1  0.01030996  0.00697999  0.64329453  1
  Ni  Ni25  1  0.99404346  0.98958226  0.15959084  1
  Ni  Ni26  1  0.66141782  0.32940983  0.67786302  1
  Ni  Ni27  1  0.67068520  0.33787188  0.18216304  1
  Ni  Ni28  1  0.65883930  0.33863839  0.48101187  1
  Ni  Ni29  1  0.32347118  0.66459010  0.32113223  1
  Cu  Cu30  1  0.31826506  0.00103170  0.25180151  1
  Cu  Cu31  1  0.69132086  0.68213030  0.24966889  1
  Cu  Cu32  1  0.99740268  0.31868302  0.25181735  1
  Cu  Cu33  1  0.31340498  0.29612013  0.73628354  1
  Cu  Cu34  1  0.98697202  0.68860503  0.73692525  1
  Cu  Cu35  1  0.70723719  0.01215557  0.73641650  1
  Cu  Cu36  1  0.93224043  0.31465716  0.58260056  1
  Cu  Cu37  1  0.37477179  0.06818762  0.58081407  1
  Cu  Cu38  1  0.69250563  0.62901592  0.58437717  1
  Cu  Cu39  1  0.95713395  0.64596076  0.08993734  1
  Cu  Cu40  1  0.68447287  0.03924007  0.09476405  1
  Cu  Cu41  1  0.34159245  0.30580836  0.09900101  1
  Cu  Cu42  1  0.65173183  0.66812337  0.90718783  1
  Cu  Cu43  1  0.01703155  0.35290992  0.91882368  1
  Cu  Cu44  1  0.33427728  0.97736039  0.92654306  1
  Cu  Cu45  1  0.62524068  0.97426876  0.41623447  1
  Cu  Cu46  1  0.34730356  0.37419080  0.40852182  1
  Cu  Cu47  1  0.03205620  0.65227210  0.42027794  1
  C  C48  1  0.26999253  0.06116182  0.30875833  1
  C  C49  1  0.76977156  0.70354708  0.31185526  1
  C  C50  1  0.93251641  0.21400650  0.31009094  1
  C  C51  1  0.27114256  0.23010452  0.80083962  1
  C  C52  1  0.97959755  0.75926940  0.79879755  1
  C  C53  1  0.79429196  0.04016675  0.79824528  1
  C  C54  1  0.82627607  0.00494685  0.68771925  1
  C  C55  1  0.17377749  0.17094353  0.69321249  1
  C  C56  1  0.99628941  0.81334979  0.68720347  1
  C  C57  1  0.81830074  0.84151751  0.21157329  1
  C  C58  1  0.03387967  0.20751219  0.20648669  1
  C  C59  1  0.18511665  0.97273441  0.20268273  1
  C  C60  1  0.83774774  0.32194562  0.63788894  1
  C  C61  1  0.49053266  0.16943229  0.63148902  1
  C  C62  1  0.68872265  0.52701762  0.63911743  1
  C  C63  1  0.81803367  0.49524374  0.12546584  1
  C  C64  1  0.67607991  0.16424454  0.13934154  1
  C  C65  1  0.46823325  0.30605674  0.14420644  1
  C  C66  1  0.39675596  0.29105057  0.03548702  1
  C  C67  1  0.90266850  0.61581771  0.02340276  1
  C  C68  1  0.71188956  0.11769624  0.03119717  1
  C  C69  1  0.45252222  0.16104859  0.52029426  1
  C  C70  1  0.69174596  0.53228700  0.52722130  1
  C  C71  1  0.82457198  0.29541138  0.52545794  1
  C  C72  1  0.54116456  0.67104026  0.95905005  1
  C  C73  1  0.11441975  0.45459984  0.97483360  1
  C  C74  1  0.33923839  0.89546461  0.98693818  1
  C  C75  1  0.56034080  0.88311202  0.47627412  1
  C  C76  1  0.28940181  0.43624658  0.46235745  1
  C  C77  1  0.12191031  0.68468020  0.48097832  1
  C  C78  1  0.13974523  0.62617447  0.37081298  1
  C  C79  1  0.50442203  0.86482110  0.36404012  1
  C  C80  1  0.36768110  0.49027113  0.35357088  1
  C  C81  1  0.11155330  0.44419148  0.86092894  1
  C  C82  1  0.33580324  0.86560653  0.87428274  1
  C  C83  1  0.57228297  0.66955862  0.84637282  1
  C  C84  1  0.02118293  0.81500021  0.40804022  1
  C  C85  1  0.80837155  0.00685124  0.40909357  1
  C  C86  1  0.19714707  0.18986566  0.40049460  1
  C  C87  1  0.99113655  0.17120883  0.92252944  1
  C  C88  1  0.16874346  0.98336367  0.92416456  1
  C  C89  1  0.82546688  0.83057805  0.91465948  1
  C  C90  1  0.95984573  0.15544302  0.58556540  1
  C  C91  1  0.18802422  0.03556585  0.58701203  1
  C  C92  1  0.85593022  0.81238497  0.58416996  1
  C  C93  1  0.98085584  0.82163673  0.10742632  1
  C  C94  1  0.84127121  0.02027218  0.10861599  1
  C  C95  1  0.16411600  0.14560313  0.10754891  1
  C  C96  1  0.67426285  0.16409839  0.72955438  1
  C  C97  1  0.49563279  0.32968665  0.72744632  1
  C  C98  1  0.82687702  0.50710430  0.73400763  1
  C  C99  1  0.65557147  0.50465751  0.22766709  1
  C  C100  1  0.85536774  0.35432844  0.23047036  1
  C  C101  1  0.50156416  0.14591379  0.23590618  1
  C  C102  1  0.67327169  0.50972650  0.91090490  1
  C  C103  1  0.84205433  0.34304420  0.91698554  1
  C  C104  1  0.49598007  0.15201565  0.91943048  1
  C  C105  1  0.62779324  0.15027343  0.41896204  1
  C  C106  1  0.51511617  0.37215412  0.42090692  1
  C  C107  1  0.85646112  0.48527620  0.42347663  1
  C  C108  1  0.32067977  0.46559361  0.10578361  1
  C  C109  1  0.13017695  0.64939783  0.09839859  1
  C  C110  1  0.51598956  0.86853540  0.10007712  1
  C  C111  1  0.35862277  0.88608109  0.58304457  1
  C  C112  1  0.54177111  0.66424916  0.58991100  1
  C  C113  1  0.10575590  0.48061279  0.58465098  1
  C  C114  1  0.32471251  0.83215667  0.26292635  1
  C  C115  1  0.52102599  0.68512414  0.25178757  1
  C  C116  1  0.16903278  0.48728831  0.26164368  1
  C  C117  1  0.31621347  0.47036921  0.73155432  1
  C  C118  1  0.14274662  0.66223086  0.73154720  1
  C  C119  1  0.54024551  0.83964463  0.73343948  1
