# generated using pymatgen
data_CuNi3C16
_symmetry_space_group_name_H-M   'P 1'
_cell_length_a   9.17976090
_cell_length_b   9.18592813
_cell_length_c   22.35736730
_cell_angle_alpha   91.61883455
_cell_angle_beta   90.00000000
_cell_angle_gamma   119.97779349
_symmetry_Int_Tables_number   1
_chemical_formula_structural   CuNi3C16
_chemical_formula_sum   'Cu6 Ni18 C96'
_cell_volume   1632.19392610
_cell_formula_units_Z   6
loop_
 _symmetry_equiv_pos_site_id
 _symmetry_equiv_pos_as_xyz
  1  'x, y, z'
loop_
 _atom_site_type_symbol
 _atom_site_label
 _atom_site_symmetry_multiplicity
 _atom_site_fract_x
 _atom_site_fract_y
 _atom_site_fract_z
 _atom_site_occupancy
  Ni  Ni0  1  0.64160355  0.00536978  0.25354803  1
  Ni  Ni1  1  0.00318874  0.63570261  0.23798162  1
  Ni  Ni2  1  0.63251387  0.63570261  0.73798162  1
  Ni  Ni3  1  0.36376623  0.00536978  0.75354803  1
  Ni  Ni4  1  0.32577293  0.35104362  0.58679011  1
  Ni  Ni5  1  0.65940239  0.94873829  0.57760581  1
  Ni  Ni6  1  0.28933690  0.94873829  0.07760581  1
  Ni  Ni7  1  0.02527169  0.35104362  0.08679011  1
  Ni  Ni8  1  0.99641448  0.68625329  0.92537342  1
  Ni  Ni9  1  0.69365178  0.03468835  0.90776230  1
  Ni  Ni10  1  0.34103557  0.03468835  0.40776230  1
  Ni  Ni11  1  0.68983781  0.68625329  0.42537342  1
  Ni  Ni12  1  0.97654873  0.99499299  0.50074240  1
  Ni  Ni13  1  0.01844426  0.99499299  0.00074240  1
  Ni  Ni14  1  0.66494826  0.30465035  0.83470020  1
  Ni  Ni15  1  0.63970309  0.30465035  0.33470020  1
  Ni  Ni16  1  0.32313284  0.65799848  0.16702438  1
  Ni  Ni17  1  0.33486464  0.65799848  0.66702438  1
  Cu  Cu18  1  0.00707062  0.01671711  0.35034985  1
  Cu  Cu19  1  0.00964648  0.01671711  0.85034985  1
  Cu  Cu20  1  0.67331250  0.32899194  0.68375682  1
  Cu  Cu21  1  0.65568043  0.32899194  0.18375682  1
  Cu  Cu22  1  0.33565600  0.67034983  0.01653917  1
  Cu  Cu23  1  0.33469282  0.67034983  0.51653917  1
  C  C24  1  0.94620018  0.93880421  0.65493934  1
  C  C25  1  0.99260403  0.93880421  0.15493934  1
  C  C26  1  0.64714713  0.33907492  0.98579396  1
  C  C27  1  0.69192879  0.33907492  0.48579396  1
  C  C28  1  0.32788885  0.71192440  0.32152331  1
  C  C29  1  0.38403455  0.71192440  0.82152331  1
  C  C30  1  0.29703673  0.98630684  0.25430277  1
  C  C31  1  0.68927011  0.98630684  0.75430277  1
  C  C32  1  0.67787812  0.62527757  0.58345649  1
  C  C33  1  0.94740044  0.62527757  0.08345649  1
  C  C34  1  0.35184133  0.98466028  0.92281253  1
  C  C35  1  0.63281794  0.98466028  0.42281253  1
  C  C36  1  0.69759219  0.71326159  0.25032156  1
  C  C37  1  0.01719175  0.30622055  0.24643506  1
  C  C38  1  0.28902881  0.30622055  0.74643506  1
  C  C39  1  0.01566940  0.71326159  0.75032156  1
  C  C40  1  0.95871113  0.31914696  0.58134052  1
  C  C41  1  0.35376949  0.04160572  0.58282604  1
  C  C42  1  0.68783723  0.04160572  0.08282604  1
  C  C43  1  0.36043683  0.31914696  0.08134052  1
  C  C44  1  0.62399196  0.65026746  0.91361409  1
  C  C45  1  0.03328257  0.38268803  0.91534503  1
  C  C46  1  0.34940446  0.38268803  0.41534503  1
  C  C47  1  0.02627450  0.65026746  0.41361409  1
  C  C48  1  0.21996874  0.99920652  0.31658556  1
  C  C49  1  0.78840100  0.78687200  0.30673628  1
  C  C50  1  0.98268047  0.20019147  0.29818309  1
  C  C51  1  0.21751100  0.20019147  0.79818309  1
  C  C52  1  0.99847099  0.78687200  0.80673628  1
  C  C53  1  0.77923778  0.99920652  0.81658556  1
  C  C54  1  0.79170646  0.95674073  0.69610431  1
  C  C55  1  0.18946293  0.21776603  0.69091623  1
  C  C56  1  0.03144587  0.82918646  0.69927776  1
  C  C57  1  0.79774059  0.82918646  0.19927776  1
  C  C58  1  0.02830310  0.21776603  0.19091623  1
  C  C59  1  0.16503427  0.95674073  0.19610431  1
  C  C60  1  0.89049842  0.34251844  0.63695810  1
  C  C61  1  0.45446022  0.11105548  0.63857132  1
  C  C62  1  0.65269454  0.53157287  0.64501763  1
  C  C63  1  0.87887933  0.53157287  0.14501763  1
  C  C64  1  0.65659626  0.11105548  0.13857132  1
  C  C65  1  0.45202102  0.34251844  0.13695810  1
  C  C66  1  0.45654641  0.30347530  0.02868997  1
  C  C67  1  0.82121305  0.51508826  0.02426244  1
  C  C68  1  0.69967995  0.14848513  0.03121696  1
  C  C69  1  0.44880618  0.14848513  0.53121696  1
  C  C70  1  0.69387621  0.51508826  0.52426244  1
  C  C71  1  0.84692989  0.30347530  0.52868997  1
  C  C72  1  0.54712925  0.67443933  0.96655063  1
  C  C73  1  0.11494561  0.44799037  0.97412809  1
  C  C74  1  0.32550867  0.87842247  0.98133345  1
  C  C75  1  0.55291281  0.87842247  0.48133345  1
  C  C76  1  0.33304375  0.44799037  0.47412809  1
  C  C77  1  0.12730908  0.67443933  0.46655063  1
  C  C78  1  0.11698238  0.63682037  0.35819359  1
  C  C79  1  0.49644058  0.88195933  0.36289004  1
  C  C80  1  0.34967151  0.48944967  0.36619990  1
  C  C81  1  0.13977717  0.48944967  0.86619990  1
  C  C82  1  0.38551775  0.88195933  0.86289004  1
  C  C83  1  0.51983699  0.63682037  0.85819359  1
  C  C84  1  0.99892923  0.79554550  0.40943728  1
  C  C85  1  0.81250877  0.99449699  0.41467517  1
  C  C86  1  0.21261844  0.20557903  0.41128426  1
  C  C87  1  0.99296060  0.20557903  0.91128426  1
  C  C88  1  0.18198822  0.99449699  0.91467517  1
  C  C89  1  0.79661627  0.79554550  0.90943728  1
  C  C90  1  0.96200376  0.15833944  0.58094994  1
  C  C91  1  0.19270343  0.04482094  0.58707322  1
  C  C92  1  0.85036847  0.81898406  0.58838186  1
  C  C93  1  0.96861559  0.81898406  0.08838186  1
  C  C94  1  0.85211751  0.04482094  0.08707322  1
  C  C95  1  0.19633568  0.15833944  0.08094994  1
  C  C96  1  0.64575264  0.13575698  0.74850588  1
  C  C97  1  0.46513407  0.33669553  0.74307894  1
  C  C98  1  0.86716117  0.54707766  0.74211071  1
  C  C99  1  0.67991749  0.54707766  0.24211071  1
  C  C100  1  0.87156246  0.33669553  0.24307894  1
  C  C101  1  0.49000535  0.13575698  0.24850588  1
  C  C102  1  0.63267682  0.49253712  0.91519537  1
  C  C103  1  0.86905634  0.38299762  0.91319314  1
  C  C104  1  0.53351587  0.17020576  0.92999654  1
  C  C105  1  0.63669089  0.17020576  0.42999654  1
  C  C106  1  0.51394228  0.38299762  0.41319314  1
  C  C107  1  0.85986130  0.49253712  0.41519537  1
  C  C108  1  0.32976788  0.46092244  0.07509306  1
  C  C109  1  0.13893183  0.65448446  0.07899488  1
  C  C110  1  0.54703837  0.86755234  0.07643559  1
  C  C111  1  0.32051297  0.86755234  0.57643559  1
  C  C112  1  0.51555163  0.65448446  0.57899488  1
  C  C113  1  0.13115355  0.46092244  0.57509306  1
  C  C114  1  0.29991658  0.80173530  0.25516690  1
  C  C115  1  0.53363617  0.70803267  0.24962860  1
  C  C116  1  0.17472185  0.47296075  0.25409845  1
  C  C117  1  0.29823790  0.47296075  0.75409845  1
  C  C118  1  0.17439549  0.70803267  0.74962860  1
  C  C119  1  0.50181772  0.80173530  0.75516690  1
