# generated using pymatgen
data_Cu4NiC12
_symmetry_space_group_name_H-M   'P 1'
_cell_length_a   5.53394380
_cell_length_b   7.87385738
_cell_length_c   9.94794158
_cell_angle_alpha   83.04109344
_cell_angle_beta   103.76352514
_cell_angle_gamma   85.77237841
_symmetry_Int_Tables_number   1
_chemical_formula_structural   Cu4NiC12
_chemical_formula_sum   'Cu4 Ni1 C12'
_cell_volume   415.54783767
_cell_formula_units_Z   1
loop_
 _symmetry_equiv_pos_site_id
 _symmetry_equiv_pos_as_xyz
  1  'x, y, z'
loop_
 _atom_site_type_symbol
 _atom_site_label
 _atom_site_symmetry_multiplicity
 _atom_site_fract_x
 _atom_site_fract_y
 _atom_site_fract_z
 _atom_site_occupancy
  C  C0  1  0.68376243  0.81546525  0.70549912  1
  C  C1  1  0.86431261  0.19109408  0.31853748  1
  Ni  Ni2  1  0.37171875  0.54865925  0.44030167  1
  C  C3  1  0.61145024  0.75325507  0.25305425  1
  C  C4  1  0.38952038  0.25704519  0.77735982  1
  Cu  Cu5  1  0.45447662  0.47533746  0.98295607  1
  Cu  Cu6  1  0.48544130  0.99178952  0.00734999  1
  Cu  Cu7  1  0.08139867  0.75549061  0.19486329  1
  Cu  Cu8  1  0.89696325  0.26589634  0.79079016  1
  C  C9  1  0.71345643  0.72272780  0.03367101  1
  C  C10  1  0.71462813  0.23644484  0.97929494  1
  C  C11  1  0.97949558  0.73989120  0.43002955  1
  C  C12  1  0.56752831  0.27006153  0.58359321  1
  C  C13  1  0.13606042  0.50046730  0.78514110  1
  C  C14  1  0.36549773  0.51238939  0.19562192  1
  C  C15  1  0.17094619  0.02019995  0.80082029  1
  C  C16  1  0.32838896  0.99735623  0.20722713  1
