# generated using pymatgen
data_Cu4NiC13
_symmetry_space_group_name_H-M   'P 1'
_cell_length_a   4.01733900
_cell_length_b   7.76135139
_cell_length_c   7.87235846
_cell_angle_alpha   86.62564625
_cell_angle_beta   75.21724240
_cell_angle_gamma   75.00088314
_symmetry_Int_Tables_number   1
_chemical_formula_structural   Cu4NiC13
_chemical_formula_sum   'Cu4 Ni1 C13'
_cell_volume   229.24248102
_cell_formula_units_Z   1
loop_
 _symmetry_equiv_pos_site_id
 _symmetry_equiv_pos_as_xyz
  1  'x, y, z'
loop_
 _atom_site_type_symbol
 _atom_site_label
 _atom_site_symmetry_multiplicity
 _atom_site_fract_x
 _atom_site_fract_y
 _atom_site_fract_z
 _atom_site_occupancy
  Ni  Ni0  1  0.00000000  0.00000000  0.00000000  1
  Cu  Cu1  1  0.32030900  0.10264900  0.25673400  1
  Cu  Cu2  1  0.67969100  0.89735100  0.74326600  1
  Cu  Cu3  1  0.37010900  0.70756900  0.55221300  1
  Cu  Cu4  1  0.62989100  0.29243100  0.44778700  1
  C  C5  1  0.91615200  0.36973200  0.79796500  1
  C  C6  1  0.08384800  0.63026800  0.20203500  1
  C  C7  1  0.81881500  0.13063500  0.23173500  1
  C  C8  1  0.18118500  0.86936500  0.76826500  1
  C  C9  1  0.13062700  0.29020600  0.44854000  1
  C  C10  1  0.86937300  0.70979400  0.55146000  1
  C  C11  1  0.50000000  0.00000000  0.00000000  1
  C  C12  1  0.56937300  0.52715200  0.33410200  1
  C  C13  1  0.43062700  0.47284800  0.66589800  1
  C  C14  1  0.36939400  0.89290100  0.36831000  1
  C  C15  1  0.63060600  0.10709900  0.63169000  1
  C  C16  1  0.28594200  0.34990200  0.07821400  1
  C  C17  1  0.71405800  0.65009800  0.92178600  1
