# generated using pymatgen
data_Cu2Ni2C9
_symmetry_space_group_name_H-M   'P 1'
_cell_length_a   3.39993601
_cell_length_b   3.39973276
_cell_length_c   46.18138122
_cell_angle_alpha   90.04841696
_cell_angle_beta   90.00707039
_cell_angle_gamma   120.00188581
_symmetry_Int_Tables_number   1
_chemical_formula_structural   Cu2Ni2C9
_chemical_formula_sum   'Cu2 Ni2 C9'
_cell_volume   462.27943990
_cell_formula_units_Z   1
loop_
 _symmetry_equiv_pos_site_id
 _symmetry_equiv_pos_as_xyz
  1  'x, y, z'
loop_
 _atom_site_type_symbol
 _atom_site_label
 _atom_site_symmetry_multiplicity
 _atom_site_fract_x
 _atom_site_fract_y
 _atom_site_fract_z
 _atom_site_occupancy
  C  C0  1  0.99882200  0.99883600  0.36136300  1
  C  C1  1  0.33399300  0.66767300  0.69877900  1
  C  C2  1  0.66574200  0.33203300  0.05346900  1
  C  C3  1  0.66702300  0.33383700  0.13465900  1
  C  C4  1  0.33289300  0.66605700  0.61769700  1
  C  C5  1  0.33305400  0.66625300  0.09406700  1
  C  C6  1  0.66718200  0.33404800  0.27598400  1
  C  C7  1  0.66675900  0.33350700  0.65824300  1
  C  C8  1  0.33342200  0.66659500  0.47765500  1
  Ni  Ni9  1  0.66636400  0.33255600  0.44174900  1
  Ni  Ni10  1  0.66712100  0.33392600  0.51349900  1
  Cu  Cu11  1  0.33355100  0.66715400  0.30917300  1
  Cu  Cu12  1  0.33407400  0.66752500  0.24393700  1
