# generated using pymatgen
data_Cu2Ni2C
_symmetry_space_group_name_H-M   'P 1'
_cell_length_a   4.51779600
_cell_length_b   10.40841900
_cell_length_c   25.87914700
_cell_angle_alpha   90.00000000
_cell_angle_beta   90.00000000
_cell_angle_gamma   90.00000000
_symmetry_Int_Tables_number   1
_chemical_formula_structural   Cu2Ni2C
_chemical_formula_sum   'Cu16 Ni16 C8'
_cell_volume   1216.91807247
_cell_formula_units_Z   8
loop_
 _symmetry_equiv_pos_site_id
 _symmetry_equiv_pos_as_xyz
  1  'x, y, z'
loop_
 _atom_site_type_symbol
 _atom_site_label
 _atom_site_symmetry_multiplicity
 _atom_site_fract_x
 _atom_site_fract_y
 _atom_site_fract_z
 _atom_site_occupancy
  C  C0  1  0.75000000  0.72189300  0.53811800  1
  C  C1  1  0.25000000  0.27810700  0.46188200  1
  C  C2  1  0.25000000  0.22189300  0.96188200  1
  C  C3  1  0.75000000  0.77810700  0.03811800  1
  C  C4  1  0.25000000  0.95066700  0.70814500  1
  C  C5  1  0.75000000  0.04933300  0.29185500  1
  C  C6  1  0.75000000  0.45066700  0.79185500  1
  C  C7  1  0.25000000  0.54933300  0.20814500  1
  Ni  Ni8  1  0.25000000  0.60297400  0.96582500  1
  Ni  Ni9  1  0.75000000  0.39702600  0.03417500  1
  Ni  Ni10  1  0.75000000  0.10297400  0.53417500  1
  Ni  Ni11  1  0.25000000  0.89702600  0.46582500  1
  Ni  Ni12  1  0.75000000  0.79715000  0.78491100  1
  Ni  Ni13  1  0.25000000  0.20285000  0.21508900  1
  Ni  Ni14  1  0.25000000  0.29715000  0.71508900  1
  Ni  Ni15  1  0.75000000  0.70285000  0.28491100  1
  Ni  Ni16  1  0.75000000  0.32304700  0.57873000  1
  Ni  Ni17  1  0.25000000  0.67695300  0.42127000  1
  Ni  Ni18  1  0.75000000  0.03274000  0.81832900  1
  Ni  Ni19  1  0.25000000  0.96726000  0.18167100  1
  Ni  Ni20  1  0.25000000  0.53274000  0.68167100  1
  Ni  Ni21  1  0.75000000  0.46726000  0.31832900  1
  Ni  Ni22  1  0.25000000  0.82304700  0.92127000  1
  Ni  Ni23  1  0.75000000  0.17695300  0.07873000  1
  Cu  Cu24  1  0.25000000  0.02567500  0.07826500  1
  Cu  Cu25  1  0.75000000  0.97432500  0.92173500  1
  Cu  Cu26  1  0.75000000  0.52567500  0.42173500  1
  Cu  Cu27  1  0.25000000  0.47432500  0.57826500  1
  Cu  Cu28  1  0.25000000  0.51762500  0.07058500  1
  Cu  Cu29  1  0.75000000  0.48237500  0.92941500  1
  Cu  Cu30  1  0.75000000  0.01762500  0.42941500  1
  Cu  Cu31  1  0.25000000  0.98237500  0.57058500  1
  Cu  Cu32  1  0.25000000  0.18650000  0.81454100  1
  Cu  Cu33  1  0.75000000  0.81350000  0.18545900  1
  Cu  Cu34  1  0.25000000  0.69975000  0.82927900  1
  Cu  Cu35  1  0.75000000  0.30025000  0.17072100  1
  Cu  Cu36  1  0.75000000  0.19975000  0.67072100  1
  Cu  Cu37  1  0.25000000  0.80025000  0.32927900  1
  Cu  Cu38  1  0.75000000  0.68650000  0.68545900  1
  Cu  Cu39  1  0.25000000  0.31350000  0.31454100  1
