# generated using pymatgen
data_Cu12NiC24
_symmetry_space_group_name_H-M   'P 1'
_cell_length_a   4.78790867
_cell_length_b   5.71715029
_cell_length_c   15.03206357
_cell_angle_alpha   90.96204015
_cell_angle_beta   86.72447579
_cell_angle_gamma   90.27400835
_symmetry_Int_Tables_number   1
_chemical_formula_structural   Cu12NiC24
_chemical_formula_sum   'Cu12 Ni1 C24'
_cell_volume   410.74244334
_cell_formula_units_Z   1
loop_
 _symmetry_equiv_pos_site_id
 _symmetry_equiv_pos_as_xyz
  1  'x, y, z'
loop_
 _atom_site_type_symbol
 _atom_site_label
 _atom_site_symmetry_multiplicity
 _atom_site_fract_x
 _atom_site_fract_y
 _atom_site_fract_z
 _atom_site_occupancy
  Ni  Ni0  1  0.49233900  0.07550800  0.74092600  1
  Cu  Cu1  1  0.00774100  0.17733600  0.40987900  1
  Cu  Cu2  1  0.02270900  0.83033300  0.24682900  1
  Cu  Cu3  1  0.02237600  0.17220400  0.08522800  1
  Cu  Cu4  1  0.01439600  0.34792500  0.74276500  1
  Cu  Cu5  1  0.01836300  0.83765100  0.57666700  1
  Cu  Cu6  1  0.02484400  0.83225400  0.91168700  1
  Cu  Cu7  1  0.52752600  0.32271600  0.92862100  1
  Cu  Cu8  1  0.46244500  0.37988000  0.57836400  1
  Cu  Cu9  1  0.48664900  0.36616100  0.25667600  1
  Cu  Cu10  1  0.50574200  0.63843500  0.09515400  1
  Cu  Cu11  1  0.47813600  0.65066500  0.41862500  1
  Cu  Cu12  1  0.51140100  0.60042000  0.75682700  1
  C  C13  1  0.22051300  0.12386100  0.29932100  1
  C  C14  1  0.21292700  0.14121200  0.64772900  1
  C  C15  1  0.22281000  0.11791700  0.97385700  1
  C  C16  1  0.22838200  0.88057900  0.13799500  1
  C  C17  1  0.22112900  0.90702600  0.46320400  1
  C  C18  1  0.30666300  0.83162700  0.81135700  1
  C  C19  1  0.24587200  0.42463900  0.48029900  1
  C  C20  1  0.28316400  0.40117400  0.14940100  1
  C  C21  1  0.26888500  0.60492600  0.31386400  1
  C  C22  1  0.25482000  0.59699300  0.65667300  1
  C  C23  1  0.32489800  0.35072900  0.81534700  1
  C  C24  1  0.73597600  0.38817100  0.03137400  1
  C  C25  1  0.71966300  0.61623200  0.19575300  1
  C  C26  1  0.70341700  0.39217700  0.36006400  1
  C  C27  1  0.68224000  0.62948800  0.52521100  1
  C  C28  1  0.79333200  0.55400200  0.84084500  1
  C  C29  1  0.68761700  0.35473200  0.68219500  1
  C  C30  1  0.29142900  0.61571000  0.98516300  1
  C  C31  1  0.75691000  0.13016500  0.19416000  1
  C  C32  1  0.74046100  0.14289500  0.52235000  1
  C  C33  1  0.75560600  0.87345200  0.35724100  1
  C  C34  1  0.75154300  0.87201000  0.02461800  1
  C  C35  1  0.78773600  0.09015300  0.83837800  1
  C  C36  1  0.74323400  0.83578700  0.69118300  1
