# generated using pymatgen
data_Cu4NiC
_symmetry_space_group_name_H-M   'P 1'
_cell_length_a   6.05308400
_cell_length_b   6.05308400
_cell_length_c   7.93252208
_cell_angle_alpha   112.42885271
_cell_angle_beta   112.42885271
_cell_angle_gamma   90.00000000
_symmetry_Int_Tables_number   1
_chemical_formula_structural   Cu4NiC
_chemical_formula_sum   'Cu8 Ni2 C2'
_cell_volume   244.70629539
_cell_formula_units_Z   2
loop_
 _symmetry_equiv_pos_site_id
 _symmetry_equiv_pos_as_xyz
  1  'x, y, z'
loop_
 _atom_site_type_symbol
 _atom_site_label
 _atom_site_symmetry_multiplicity
 _atom_site_fract_x
 _atom_site_fract_y
 _atom_site_fract_z
 _atom_site_occupancy
  C  C0  1  0.25000000  0.75000000  0.50000000  1
  C  C1  1  0.00000000  0.00000000  0.00000000  1
  Ni  Ni2  1  0.75000000  0.25000000  0.50000000  1
  Ni  Ni3  1  0.50000000  0.50000000  0.00000000  1
  Cu  Cu4  1  0.46025300  0.29457800  0.34821700  1
  Cu  Cu5  1  0.54457800  0.63796400  0.84821700  1
  Cu  Cu6  1  0.30363900  0.21025300  0.84821700  1
  Cu  Cu7  1  0.88796400  0.05363900  0.34821700  1
  Cu  Cu8  1  0.36203600  0.69636100  0.15178300  1
  Cu  Cu9  1  0.94636100  0.53974700  0.65178300  1
  Cu  Cu10  1  0.70542200  0.11203600  0.65178300  1
  Cu  Cu11  1  0.78974700  0.45542200  0.15178300  1
