# generated using pymatgen
data_Cu3Ni3C19
_symmetry_space_group_name_H-M   'P 1'
_cell_length_a   10.62396206
_cell_length_b   10.62396206
_cell_length_c   7.56410368
_cell_angle_alpha   78.35073554
_cell_angle_beta   78.35073554
_cell_angle_gamma   41.36760873
_symmetry_Int_Tables_number   1
_chemical_formula_structural   Cu3Ni3C19
_chemical_formula_sum   'Cu6 Ni6 C38'
_cell_volume   550.93393775
_cell_formula_units_Z   2
loop_
 _symmetry_equiv_pos_site_id
 _symmetry_equiv_pos_as_xyz
  1  'x, y, z'
loop_
 _atom_site_type_symbol
 _atom_site_label
 _atom_site_symmetry_multiplicity
 _atom_site_fract_x
 _atom_site_fract_y
 _atom_site_fract_z
 _atom_site_occupancy
  C  C0  1  0.17953600  0.15841400  0.64817000  1
  C  C1  1  0.84158600  0.82046400  0.85183000  1
  C  C2  1  0.82046400  0.84158600  0.35183000  1
  C  C3  1  0.15841400  0.17953600  0.14817000  1
  C  C4  1  0.64823000  0.19976300  0.65571300  1
  C  C5  1  0.80023700  0.35177000  0.84428700  1
  C  C6  1  0.35177000  0.80023700  0.34428700  1
  C  C7  1  0.19976300  0.64823000  0.15571300  1
  Ni  Ni8  1  0.88682300  0.11317700  0.25000000  1
  Ni  Ni9  1  0.11317700  0.88682300  0.75000000  1
  Ni  Ni10  1  0.46705700  0.19527100  0.08653200  1
  Ni  Ni11  1  0.80472900  0.53294300  0.41346800  1
  Ni  Ni12  1  0.53294300  0.80472900  0.91346800  1
  Ni  Ni13  1  0.19527100  0.46705700  0.58653200  1
  Cu  Cu14  1  0.49176900  0.50823100  0.75000000  1
  Cu  Cu15  1  0.50823100  0.49176900  0.25000000  1
  Cu  Cu16  1  0.41169300  0.99537500  0.37627900  1
  Cu  Cu17  1  0.00462500  0.58830700  0.12372100  1
  Cu  Cu18  1  0.58830700  0.00462500  0.62372100  1
  Cu  Cu19  1  0.99537500  0.41169300  0.87627900  1
  C  C20  1  0.22893700  0.30262400  0.56364500  1
  C  C21  1  0.69737600  0.77106300  0.93635500  1
  C  C22  1  0.77106300  0.69737600  0.43635500  1
  C  C23  1  0.30262400  0.22893700  0.06364500  1
  C  C24  1  0.05311900  0.07225800  0.76022800  1
  C  C25  1  0.92774200  0.94688100  0.73977200  1
  C  C26  1  0.94688100  0.92774200  0.23977200  1
  C  C27  1  0.07225800  0.05311900  0.26022800  1
  C  C28  1  0.37756800  0.62243200  0.25000000  1
  C  C29  1  0.62243200  0.37756800  0.75000000  1
  C  C30  1  0.29114000  0.03555600  0.40079400  1
  C  C31  1  0.96444400  0.70886000  0.09920600  1
  C  C32  1  0.70886000  0.96444400  0.59920600  1
  C  C33  1  0.03555600  0.29114000  0.90079400  1
  C  C34  1  0.74747800  0.21307000  0.41653300  1
  C  C35  1  0.78693000  0.25252200  0.08346700  1
  C  C36  1  0.25252200  0.78693000  0.58346700  1
  C  C37  1  0.21307000  0.74747800  0.91653300  1
  C  C38  1  0.38911000  0.38524900  0.10500900  1
  C  C39  1  0.61475100  0.61089000  0.39499100  1
  C  C40  1  0.61089000  0.61475100  0.89499100  1
  C  C41  1  0.38524900  0.38911000  0.60500900  1
  C  C42  1  0.94601100  0.42644200  0.24670000  1
  C  C43  1  0.57355800  0.05398900  0.25330000  1
  C  C44  1  0.05398900  0.57355800  0.75330000  1
  C  C45  1  0.42644200  0.94601100  0.74670000  1
  C  C46  1  0.10371000  0.61247400  0.41494900  1
  C  C47  1  0.38752600  0.89629000  0.08505100  1
  C  C48  1  0.89629000  0.38752600  0.58505100  1
  C  C49  1  0.61247400  0.10371000  0.91494900  1
