# generated using pymatgen
data_Cu4NiC14
_symmetry_space_group_name_H-M   'P 1'
_cell_length_a   6.22666721
_cell_length_b   6.26354653
_cell_length_c   9.66169004
_cell_angle_alpha   113.13325876
_cell_angle_beta   113.51445500
_cell_angle_gamma   75.34104787
_symmetry_Int_Tables_number   1
_chemical_formula_structural   Cu4NiC14
_chemical_formula_sum   'Cu4 Ni1 C14'
_cell_volume   315.66275520
_cell_formula_units_Z   1
loop_
 _symmetry_equiv_pos_site_id
 _symmetry_equiv_pos_as_xyz
  1  'x, y, z'
loop_
 _atom_site_type_symbol
 _atom_site_label
 _atom_site_symmetry_multiplicity
 _atom_site_fract_x
 _atom_site_fract_y
 _atom_site_fract_z
 _atom_site_occupancy
  C  C0  1  0.62705107  0.12785375  0.20722820  1
  C  C1  1  0.33167914  0.83547626  0.78283172  1
  C  C2  1  0.14885377  0.63700897  0.22948395  1
  C  C3  1  0.96026787  0.46542819  0.79030023  1
  Ni  Ni4  1  0.61221245  0.11373212  0.73361407  1
  Cu  Cu5  1  0.03231287  0.05621558  0.03686318  1
  Cu  Cu6  1  0.56509555  0.53874891  0.04339345  1
  Cu  Cu7  1  0.19006474  0.16259023  0.48137858  1
  Cu  Cu8  1  0.74546892  0.82858668  0.47935689  1
  C  C9  1  0.20113613  0.23996842  0.00206231  1
  C  C10  1  0.25223051  0.74641921  0.00991148  1
  C  C11  1  0.68740518  0.19594984  0.96187951  1
  C  C12  1  0.74328595  0.71231295  0.00694840  1
  C  C13  1  0.10680670  0.14845772  0.27870171  1
  C  C14  1  0.87500747  0.85346998  0.69520353  1
  C  C15  1  0.66831211  0.60811691  0.28556834  1
  C  C16  1  0.35354764  0.36733344  0.67415379  1
  C  C17  1  0.90663756  0.07139417  0.49169534  1
  C  C18  1  0.42776837  0.89807866  0.51775933  1
