# generated using pymatgen
data_Cu4NiC
_symmetry_space_group_name_H-M   'P 1'
_cell_length_a   9.12241108
_cell_length_b   9.12241076
_cell_length_c   24.28107783
_cell_angle_alpha   90.00000000
_cell_angle_beta   90.00000000
_cell_angle_gamma   120.00000116
_symmetry_Int_Tables_number   1
_chemical_formula_structural   Cu4NiC
_chemical_formula_sum   'Cu72 Ni18 C18'
_cell_volume   1749.91861103
_cell_formula_units_Z   18
loop_
 _symmetry_equiv_pos_site_id
 _symmetry_equiv_pos_as_xyz
  1  'x, y, z'
loop_
 _atom_site_type_symbol
 _atom_site_label
 _atom_site_symmetry_multiplicity
 _atom_site_fract_x
 _atom_site_fract_y
 _atom_site_fract_z
 _atom_site_occupancy
  C  C0  1  0.00000000  -0.00000000  0.48955576  1
  C  C1  1  0.00000000  -0.00000000  0.98955576  1
  C  C2  1  0.66666700  0.33333300  0.82288876  1
  C  C3  1  0.66666700  0.33333300  0.32288876  1
  C  C4  1  0.33333300  0.66666700  0.15622276  1
  C  C5  1  0.33333300  0.66666700  0.65622276  1
  C  C6  1  0.00000000  -0.00000000  0.64775613  1
  C  C7  1  0.00000000  -0.00000000  0.14775613  1
  C  C8  1  0.66666700  0.33333300  0.98108913  1
  C  C9  1  0.66666700  0.33333300  0.48108913  1
  C  C10  1  0.33333300  0.66666700  0.31442313  1
  C  C11  1  0.33333300  0.66666700  0.81442313  1
  C  C12  1  0.00000000  -0.00000000  0.34663915  1
  C  C13  1  0.00000000  -0.00000000  0.84663915  1
  C  C14  1  0.66666700  0.33333300  0.67997215  1
  C  C15  1  0.66666700  0.33333300  0.17997215  1
  C  C16  1  0.33333300  0.66666700  0.01330615  1
  C  C17  1  0.33333300  0.66666700  0.51330615  1
  Ni  Ni18  1  0.30848168  0.02095621  0.25167591  1
  Ni  Ni19  1  0.71247453  0.69151832  0.25167591  1
  Ni  Ni20  1  0.97904379  0.28752547  0.25167591  1
  Ni  Ni21  1  0.30848168  0.28752547  0.75167591  1
  Ni  Ni22  1  0.97904379  0.69151832  0.75167591  1
  Ni  Ni23  1  0.71247453  0.02095621  0.75167591  1
  Ni  Ni24  1  0.97514868  0.35428921  0.58500891  1
  Ni  Ni25  1  0.37914153  0.02485132  0.58500891  1
  Ni  Ni26  1  0.64571079  0.62085847  0.58500891  1
  Ni  Ni27  1  0.97514868  0.62085847  0.08500891  1
  Ni  Ni28  1  0.64571079  0.02485132  0.08500891  1
  Ni  Ni29  1  0.37914153  0.35428921  0.08500891  1
  Ni  Ni30  1  0.64181468  0.68762321  0.91834291  1
  Ni  Ni31  1  0.04580753  0.35818532  0.91834291  1
  Ni  Ni32  1  0.31237679  0.95419247  0.91834291  1
  Ni  Ni33  1  0.64181468  0.95419247  0.41834291  1
  Ni  Ni34  1  0.31237679  0.35818532  0.41834291  1
  Ni  Ni35  1  0.04580753  0.68762321  0.41834291  1
  Cu  Cu36  1  0.21899338  0.03143183  0.30114864  1
  Cu  Cu37  1  0.81243845  0.78100662  0.30114864  1
  Cu  Cu38  1  0.96856817  0.18756155  0.30114864  1
  Cu  Cu39  1  0.21899338  0.18756155  0.80114864  1
  Cu  Cu40  1  0.96856817  0.78100662  0.80114864  1
  Cu  Cu41  1  0.81243845  0.03143183  0.80114864  1
  Cu  Cu42  1  0.78916284  0.99781643  0.70113766  1
  Cu  Cu43  1  0.20865359  0.21083716  0.70113766  1
  Cu  Cu44  1  0.00218357  0.79134641  0.70113766  1
  Cu  Cu45  1  0.78916284  0.79134641  0.20113766  1
  Cu  Cu46  1  0.00218357  0.21083716  0.20113766  1
  Cu  Cu47  1  0.20865359  0.99781643  0.20113766  1
  Cu  Cu48  1  0.88566038  0.36476483  0.63448164  1
  Cu  Cu49  1  0.47910545  0.11433962  0.63448164  1
  Cu  Cu50  1  0.63523517  0.52089455  0.63448164  1
  Cu  Cu51  1  0.88566038  0.52089455  0.13448164  1
  Cu  Cu52  1  0.63523517  0.11433962  0.13448164  1
  Cu  Cu53  1  0.47910545  0.36476483  0.13448164  1
  Cu  Cu54  1  0.45582984  0.33114943  0.03447066  1
  Cu  Cu55  1  0.87532059  0.54417016  0.03447066  1
  Cu  Cu56  1  0.66885057  0.12467941  0.03447066  1
  Cu  Cu57  1  0.45582984  0.12467941  0.53447066  1
  Cu  Cu58  1  0.66885057  0.54417016  0.53447066  1
  Cu  Cu59  1  0.87532059  0.33114943  0.53447066  1
  Cu  Cu60  1  0.55232638  0.69809883  0.96781564  1
  Cu  Cu61  1  0.14577145  0.44767362  0.96781564  1
  Cu  Cu62  1  0.30190117  0.85422855  0.96781564  1
  Cu  Cu63  1  0.55232638  0.85422855  0.46781564  1
  Cu  Cu64  1  0.30190117  0.44767362  0.46781564  1
  Cu  Cu65  1  0.14577145  0.69809883  0.46781564  1
  Cu  Cu66  1  0.12249584  0.66448343  0.36780466  1
  Cu  Cu67  1  0.54198659  0.87750416  0.36780466  1
  Cu  Cu68  1  0.33551657  0.45801341  0.36780466  1
  Cu  Cu69  1  0.12249584  0.45801341  0.86780466  1
  Cu  Cu70  1  0.33551657  0.87750416  0.86780466  1
  Cu  Cu71  1  0.54198659  0.66448343  0.86780466  1
  Cu  Cu72  1  0.03177013  0.84271140  0.41325186  1
  Cu  Cu73  1  0.81094128  0.96822987  0.41325186  1
  Cu  Cu74  1  0.15728860  0.18905872  0.41325186  1
  Cu  Cu75  1  0.03177013  0.18905872  0.91325186  1
  Cu  Cu76  1  0.15728860  0.96822987  0.91325186  1
  Cu  Cu77  1  0.81094128  0.84271140  0.91325186  1
  Cu  Cu78  1  0.99728839  0.20288648  0.58813558  1
  Cu  Cu79  1  0.20559809  0.00271161  0.58813558  1
  Cu  Cu80  1  0.79711352  0.79440191  0.58813558  1
  Cu  Cu81  1  0.99728839  0.79440191  0.08813558  1
  Cu  Cu82  1  0.79711352  0.00271161  0.08813558  1
  Cu  Cu83  1  0.20559809  0.20288648  0.08813558  1
  Cu  Cu84  1  0.69843713  0.17604440  0.74658486  1
  Cu  Cu85  1  0.47760828  0.30156287  0.74658486  1
  Cu  Cu86  1  0.82395560  0.52239172  0.74658486  1
  Cu  Cu87  1  0.69843713  0.52239172  0.24658486  1
  Cu  Cu88  1  0.82395560  0.30156287  0.24658486  1
  Cu  Cu89  1  0.47760828  0.17604440  0.24658486  1
  Cu  Cu90  1  0.66395539  0.53621948  0.92146858  1
  Cu  Cu91  1  0.87226509  0.33604461  0.92146858  1
  Cu  Cu92  1  0.46378052  0.12773491  0.92146858  1
  Cu  Cu93  1  0.66395539  0.12773491  0.42146858  1
  Cu  Cu94  1  0.46378052  0.33604461  0.42146858  1
  Cu  Cu95  1  0.87226509  0.53621948  0.42146858  1
  Cu  Cu96  1  0.36510313  0.50937840  0.07991886  1
  Cu  Cu97  1  0.14427428  0.63489687  0.07991886  1
  Cu  Cu98  1  0.49062160  0.85572572  0.07991886  1
  Cu  Cu99  1  0.36510313  0.85572572  0.57991886  1
  Cu  Cu100  1  0.49062160  0.63489687  0.57991886  1
  Cu  Cu101  1  0.14427428  0.50937840  0.57991886  1
  Cu  Cu102  1  0.33062139  0.86955348  0.25480258  1
  Cu  Cu103  1  0.53893109  0.66937861  0.25480258  1
  Cu  Cu104  1  0.13044652  0.46106891  0.25480258  1
  Cu  Cu105  1  0.33062139  0.46106891  0.75480258  1
  Cu  Cu106  1  0.13044652  0.66937861  0.75480258  1
  Cu  Cu107  1  0.53893109  0.86955348  0.75480258  1
