# generated using pymatgen
data_Cu24Ni6C7
_symmetry_space_group_name_H-M   'P 1'
_cell_length_a   17.57344458
_cell_length_b   8.77937734
_cell_length_c   22.73988459
_cell_angle_alpha   89.96541666
_cell_angle_beta   90.06075008
_cell_angle_gamma   119.97296982
_symmetry_Int_Tables_number   1
_chemical_formula_structural   Cu24Ni6C7
_chemical_formula_sum   'Cu144 Ni36 C42'
_cell_volume   3039.18740082
_cell_formula_units_Z   6
loop_
 _symmetry_equiv_pos_site_id
 _symmetry_equiv_pos_as_xyz
  1  'x, y, z'
loop_
 _atom_site_type_symbol
 _atom_site_label
 _atom_site_symmetry_multiplicity
 _atom_site_fract_x
 _atom_site_fract_y
 _atom_site_fract_z
 _atom_site_occupancy
  C  C0  1  0.31974473  0.63892214  0.74964659  1
  C  C1  1  0.64884221  0.33077611  0.58413460  1
  C  C2  1  0.98556225  0.66666525  0.91678584  1
  C  C3  1  0.66598116  0.30152459  0.91521120  1
  C  C4  1  0.16723240  0.03097990  0.41674663  1
  C  C5  1  0.66630477  0.03034943  0.41683001  1
  C  C6  1  0.99545527  0.00164725  0.49457634  1
  C  C7  1  0.48771243  0.98499576  0.50081552  1
  C  C8  1  0.00243011  0.01434981  0.99603153  1
  C  C9  1  0.49238313  0.98715390  0.99438585  1
  C  C10  1  0.33656486  0.32626395  0.83578558  1
  C  C11  1  0.83154162  0.32002987  0.82973538  1
  C  C12  1  0.33887564  0.34337571  0.33289625  1
  C  C13  1  0.83934004  0.34405850  0.33250694  1
  C  C14  1  0.16746845  0.66685239  0.16673557  1
  C  C15  1  0.66609777  0.66626104  0.16689199  1
  C  C16  1  0.16564636  0.67150455  0.66405177  1
  C  C17  1  0.66319786  0.67330561  0.66923850  1
  C  C18  1  0.00044155  0.00157574  0.64792387  1
  C  C19  1  0.00053038  0.00069379  0.14818469  1
  C  C20  1  0.49922478  0.99946833  0.14781763  1
  C  C21  1  0.99609762  0.99926257  0.34959110  1
  C  C22  1  0.49483571  0.99841787  0.34992574  1
  C  C23  1  0.00102502  0.00872093  0.84953386  1
  C  C24  1  0.49636852  0.99505359  0.84807955  1
  C  C25  1  0.49655027  0.99255871  0.65154581  1
  C  C26  1  0.33813714  0.33226813  0.68031025  1
  C  C27  1  0.83068148  0.32788191  0.68420843  1
  C  C28  1  0.33352738  0.33345502  0.18260049  1
  C  C29  1  0.83338682  0.33317149  0.18341741  1
  C  C30  1  0.33357554  0.33660555  0.98281173  1
  C  C31  1  0.83322792  0.32211901  0.98568499  1
  C  C32  1  0.33814356  0.34416341  0.48510396  1
  C  C33  1  0.83903333  0.33848631  0.48355812  1
  C  C34  1  0.17010757  0.66785942  0.01520733  1
  C  C35  1  0.66439788  0.66825332  0.01537751  1
  C  C36  1  0.16939333  0.66301391  0.51575779  1
  C  C37  1  0.66453804  0.67097572  0.51426144  1
  C  C38  1  0.16690705  0.66370615  0.31776139  1
  C  C39  1  0.66639911  0.66328074  0.31691890  1
  C  C40  1  0.16777989  0.67352895  0.81962533  1
  C  C41  1  0.66382057  0.66430888  0.81627178  1
  Ni  Ni42  1  0.14872124  0.00071260  0.25212591  1
  Ni  Ni43  1  0.64842243  0.00098698  0.25201652  1
  Ni  Ni44  1  0.35195948  0.70286266  0.25133553  1
  Ni  Ni45  1  0.85219789  0.70360245  0.25130445  1
  Ni  Ni46  1  0.99964324  0.29612587  0.25139068  1
  Ni  Ni47  1  0.49971475  0.29591204  0.25134150  1
  Ni  Ni48  1  0.14799613  0.29509778  0.75133997  1
  Ni  Ni49  1  0.64818397  0.29636045  0.74996228  1
  Ni  Ni50  1  0.99955441  0.70303491  0.75208292  1
  Ni  Ni51  1  0.50114613  0.70608908  0.74970551  1
  Ni  Ni52  1  0.35228302  0.00229284  0.75018927  1
  Ni  Ni53  1  0.85252413  0.00035049  0.75154361  1
  Ni  Ni54  1  0.48098396  0.33352263  0.58280559  1
  Ni  Ni55  1  0.98002104  0.33866289  0.58400928  1
  Ni  Ni56  1  0.18806345  0.03814961  0.58280754  1
  Ni  Ni57  1  0.68681612  0.03755054  0.58260952  1
  Ni  Ni58  1  0.33282053  0.62846120  0.58453295  1
  Ni  Ni59  1  0.83246716  0.62353799  0.58319433  1
  Ni  Ni60  1  0.48018815  0.62208788  0.08362019  1
  Ni  Ni61  1  0.98074566  0.62322620  0.08272728  1
  Ni  Ni62  1  0.33068369  0.04034448  0.08331218  1
  Ni  Ni63  1  0.83078139  0.03786114  0.08403993  1
  Ni  Ni64  1  0.18910706  0.33828788  0.08344979  1
  Ni  Ni65  1  0.68833692  0.33829318  0.08289162  1
  Ni  Ni66  1  0.31449737  0.66571247  0.91581680  1
  Ni  Ni67  1  0.81358240  0.66950742  0.91711022  1
  Ni  Ni68  1  0.02032954  0.37223785  0.91696569  1
  Ni  Ni69  1  0.51893900  0.37325998  0.91680009  1
  Ni  Ni70  1  0.16749038  0.96305484  0.91700866  1
  Ni  Ni71  1  0.66684501  0.95984536  0.91647362  1
  Ni  Ni72  1  0.31396365  0.96040517  0.41681527  1
  Ni  Ni73  1  0.81381017  0.95879070  0.41676289  1
  Ni  Ni74  1  0.16666032  0.37252800  0.41645895  1
  Ni  Ni75  1  0.66691698  0.37241737  0.41737534  1
  Ni  Ni76  1  0.01969941  0.66447194  0.41663758  1
  Ni  Ni77  1  0.51874286  0.66500296  0.41546678  1
  Cu  Cu78  1  0.10832116  0.02527199  0.30558583  1
  Cu  Cu79  1  0.60829486  0.02551385  0.30564403  1
  Cu  Cu80  1  0.40634922  0.78497488  0.30354974  1
  Cu  Cu81  1  0.90649502  0.78554842  0.30359345  1
  Cu  Cu82  1  0.48730824  0.18809692  0.30362395  1
  Cu  Cu83  1  0.98679365  0.18781027  0.30359036  1
  Cu  Cu84  1  0.10692526  0.18730169  0.80354384  1
  Cu  Cu85  1  0.60776302  0.19031357  0.80413091  1
  Cu  Cu86  1  0.48427571  0.78457688  0.80251741  1
  Cu  Cu87  1  0.98736875  0.78351503  0.80577384  1
  Cu  Cu88  1  0.40515739  0.02820098  0.80370805  1
  Cu  Cu89  1  0.90661278  0.02571943  0.80382996  1
  Cu  Cu90  1  0.39142075  0.96790226  0.69737821  1
  Cu  Cu91  1  0.89869927  0.97945220  0.69779022  1
  Cu  Cu92  1  0.09194099  0.20544361  0.69758047  1
  Cu  Cu93  1  0.59567698  0.21501265  0.69564558  1
  Cu  Cu94  1  0.01021897  0.81968918  0.69924045  1
  Cu  Cu95  1  0.51378082  0.81188403  0.69618386  1
  Cu  Cu96  1  0.39787024  0.81716160  0.19756239  1
  Cu  Cu97  1  0.89793164  0.81735747  0.19753883  1
  Cu  Cu98  1  0.01030768  0.20401627  0.19754608  1
  Cu  Cu99  1  0.51055134  0.20400994  0.19753208  1
  Cu  Cu100  1  0.09049391  0.97946654  0.19915060  1
  Cu  Cu101  1  0.59053339  0.98010382  0.19905794  1
  Cu  Cu102  1  0.44293461  0.36122096  0.63666526  1
  Cu  Cu103  1  0.93926874  0.36067233  0.63720388  1
  Cu  Cu104  1  0.24037524  0.12289232  0.63559626  1
  Cu  Cu105  1  0.74130075  0.12189620  0.63507193  1
  Cu  Cu106  1  0.31995794  0.52478732  0.63968667  1
  Cu  Cu107  1  0.81899850  0.51699685  0.63626866  1
  Cu  Cu108  1  0.44037602  0.51999069  0.13724499  1
  Cu  Cu109  1  0.93830898  0.51720470  0.13517899  1
  Cu  Cu110  1  0.31970691  0.11962358  0.13714346  1
  Cu  Cu111  1  0.81978318  0.11974924  0.13702861  1
  Cu  Cu112  1  0.23994550  0.36037242  0.13720835  1
  Cu  Cu113  1  0.74145463  0.35934037  0.13528063  1
  Cu  Cu114  1  0.22456361  0.30186683  0.03028081  1
  Cu  Cu115  1  0.72286305  0.30381687  0.02795218  1
  Cu  Cu116  1  0.42674964  0.55122839  0.03025819  1
  Cu  Cu117  1  0.92846937  0.55442554  0.02786441  1
  Cu  Cu118  1  0.34848960  0.14804863  0.03020427  1
  Cu  Cu119  1  0.84986110  0.14503368  0.03032283  1
  Cu  Cu120  1  0.22201801  0.14100136  0.52807103  1
  Cu  Cu121  1  0.72535100  0.14752527  0.52824491  1
  Cu  Cu122  1  0.34525495  0.54416347  0.53196583  1
  Cu  Cu123  1  0.84977325  0.55191067  0.52986135  1
  Cu  Cu124  1  0.42774367  0.30653938  0.52963426  1
  Cu  Cu125  1  0.92677600  0.30083680  0.53036198  1
  Cu  Cu126  1  0.27261444  0.69256058  0.96814990  1
  Cu  Cu127  1  0.77407570  0.69395266  0.97086358  1
  Cu  Cu128  1  0.07257841  0.45272301  0.97057024  1
  Cu  Cu129  1  0.57562704  0.45145968  0.96974478  1
  Cu  Cu130  1  0.14972308  0.84815312  0.96938737  1
  Cu  Cu131  1  0.65460807  0.85738752  0.97059251  1
  Cu  Cu132  1  0.27370016  0.85432692  0.47033758  1
  Cu  Cu133  1  0.77389376  0.85302695  0.47049225  1
  Cu  Cu134  1  0.15276300  0.45021789  0.46996468  1
  Cu  Cu135  1  0.65484258  0.44915125  0.47256339  1
  Cu  Cu136  1  0.07563462  0.69710826  0.46955766  1
  Cu  Cu137  1  0.57453765  0.69977842  0.46878260  1
  Cu  Cu138  1  0.05961347  0.63971099  0.36274118  1
  Cu  Cu139  1  0.55970109  0.64001716  0.36237487  1
  Cu  Cu140  1  0.25799283  0.88180682  0.36368128  1
  Cu  Cu141  1  0.75778263  0.88000418  0.36383239  1
  Cu  Cu142  1  0.17957217  0.47698973  0.36276711  1
  Cu  Cu143  1  0.67952725  0.48081536  0.36482202  1
  Cu  Cu144  1  0.05938064  0.48354437  0.86369337  1
  Cu  Cu145  1  0.55955104  0.47937594  0.86340620  1
  Cu  Cu146  1  0.17941662  0.88319549  0.86296200  1
  Cu  Cu147  1  0.68067003  0.88121117  0.86327446  1
  Cu  Cu148  1  0.26287949  0.63937939  0.86041687  1
  Cu  Cu149  1  0.75886422  0.63802912  0.86408463  1
  Cu  Cu150  1  0.01309135  0.82899691  0.41126097  1
  Cu  Cu151  1  0.51250209  0.82949151  0.41004559  1
  Cu  Cu152  1  0.40263979  0.98054871  0.41077287  1
  Cu  Cu153  1  0.90263124  0.97997488  0.41086463  1
  Cu  Cu154  1  0.08787430  0.19000803  0.41135755  1
  Cu  Cu155  1  0.58819362  0.19145811  0.41197226  1
  Cu  Cu156  1  0.00916232  0.19414945  0.91085579  1
  Cu  Cu157  1  0.51294634  0.19633362  0.91124607  1
  Cu  Cu158  1  0.08475258  0.97488860  0.91147579  1
  Cu  Cu159  1  0.58855332  0.98499099  0.91127050  1
  Cu  Cu160  1  0.40315438  0.82607107  0.91084829  1
  Cu  Cu161  1  0.90464290  0.82328522  0.91135687  1
  Cu  Cu162  1  0.49301903  0.17610989  0.58822212  1
  Cu  Cu163  1  0.98953705  0.17436617  0.59186953  1
  Cu  Cu164  1  0.09675000  0.02009240  0.59125451  1
  Cu  Cu165  1  0.59888210  0.02595273  0.58839233  1
  Cu  Cu166  1  0.41281621  0.80591095  0.58913140  1
  Cu  Cu167  1  0.91245300  0.80581392  0.59119505  1
  Cu  Cu168  1  0.49000652  0.80548099  0.09138616  1
  Cu  Cu169  1  0.98967921  0.80508631  0.09076380  1
  Cu  Cu170  1  0.41266978  0.02066514  0.09103533  1
  Cu  Cu171  1  0.91267380  0.01935929  0.09155871  1
  Cu  Cu172  1  0.09736716  0.17397257  0.09124771  1
  Cu  Cu173  1  0.59770917  0.17427629  0.09089396  1
  Cu  Cu174  1  0.34118226  0.15779600  0.74346832  1
  Cu  Cu175  1  0.84544619  0.15991977  0.74385090  1
  Cu  Cu176  1  0.23635594  0.31628180  0.74368217  1
  Cu  Cu177  1  0.73719327  0.31324145  0.74510957  1
  Cu  Cu178  1  0.41872539  0.52891850  0.74433289  1
  Cu  Cu179  1  0.92033936  0.52989207  0.74365445  1
  Cu  Cu180  1  0.34414281  0.52892240  0.24322502  1
  Cu  Cu181  1  0.84437191  0.52942146  0.24321514  1
  Cu  Cu182  1  0.42055377  0.31160698  0.24343604  1
  Cu  Cu183  1  0.92045142  0.31190828  0.24337925  1
  Cu  Cu184  1  0.23526725  0.15942316  0.24369119  1
  Cu  Cu185  1  0.73524522  0.15989268  0.24374375  1
  Cu  Cu186  1  0.32297785  0.50601779  0.92178599  1
  Cu  Cu187  1  0.82295656  0.50707448  0.92226955  1
  Cu  Cu188  1  0.43053319  0.35255848  0.92338253  1
  Cu  Cu189  1  0.93153264  0.35992166  0.92213046  1
  Cu  Cu190  1  0.24544152  0.13935495  0.92340230  1
  Cu  Cu191  1  0.74586545  0.14324568  0.92160446  1
  Cu  Cu192  1  0.32047092  0.13734778  0.42251001  1
  Cu  Cu193  1  0.82020605  0.13588467  0.42222934  1
  Cu  Cu194  1  0.24519221  0.34787543  0.42188750  1
  Cu  Cu195  1  0.74569302  0.34831437  0.42192677  1
  Cu  Cu196  1  0.43030388  0.50830421  0.42193195  1
  Cu  Cu197  1  0.93065111  0.50810924  0.42263389  1
  Cu  Cu198  1  0.17532794  0.49055658  0.07780656  1
  Cu  Cu199  1  0.67549952  0.49134660  0.07769750  1
  Cu  Cu200  1  0.07002541  0.64902653  0.07743190  1
  Cu  Cu201  1  0.56996593  0.64893359  0.07814557  1
  Cu  Cu202  1  0.25446269  0.86081782  0.07772632  1
  Cu  Cu203  1  0.75442026  0.85974874  0.07799447  1
  Cu  Cu204  1  0.17420830  0.85864674  0.57808856  1
  Cu  Cu205  1  0.67688964  0.86048544  0.57687170  1
  Cu  Cu206  1  0.25279068  0.64571686  0.57895074  1
  Cu  Cu207  1  0.75370894  0.64328706  0.57749461  1
  Cu  Cu208  1  0.06931719  0.49102650  0.57820816  1
  Cu  Cu209  1  0.57206013  0.49112527  0.57738148  1
  Cu  Cu210  1  0.15401787  0.83821519  0.25379558  1
  Cu  Cu211  1  0.65423844  0.83889204  0.25371570  1
  Cu  Cu212  1  0.26544788  0.69226878  0.25371630  1
  Cu  Cu213  1  0.76551830  0.69234538  0.25376045  1
  Cu  Cu214  1  0.08064329  0.46931374  0.25356274  1
  Cu  Cu215  1  0.58094928  0.46919578  0.25348833  1
  Cu  Cu216  1  0.15594538  0.47149274  0.75371408  1
  Cu  Cu217  1  0.65751461  0.47406118  0.75504120  1
  Cu  Cu218  1  0.08065283  0.69191720  0.75387347  1
  Cu  Cu219  1  0.57950032  0.68576573  0.75582731  1
  Cu  Cu220  1  0.26383880  0.83624500  0.75571906  1
  Cu  Cu221  1  0.76598510  0.83914712  0.75375183  1
