# generated using pymatgen
data_Cu2Ni5C32
_symmetry_space_group_name_H-M   'P 1'
_cell_length_a   8.95563514
_cell_length_b   8.96597709
_cell_length_c   22.42029787
_cell_angle_alpha   89.93976410
_cell_angle_beta   90.02833455
_cell_angle_gamma   119.93071799
_symmetry_Int_Tables_number   1
_chemical_formula_structural   Cu2Ni5C32
_chemical_formula_sum   'Cu6 Ni15 C96'
_cell_volume   1560.15791274
_cell_formula_units_Z   3
loop_
 _symmetry_equiv_pos_site_id
 _symmetry_equiv_pos_as_xyz
  1  'x, y, z'
loop_
 _atom_site_type_symbol
 _atom_site_label
 _atom_site_symmetry_multiplicity
 _atom_site_fract_x
 _atom_site_fract_y
 _atom_site_fract_z
 _atom_site_occupancy
  Ni  Ni0  1  0.64090792  0.01443039  0.25224372  1
  Ni  Ni1  1  0.99920714  0.63125115  0.24313534  1
  Ni  Ni2  1  0.63311377  0.63076102  0.74383660  1
  Ni  Ni3  1  0.99563537  0.35530397  0.74591863  1
  Ni  Ni4  1  0.30643036  0.34590822  0.58525220  1
  Ni  Ni5  1  0.66630407  0.96428189  0.57779847  1
  Ni  Ni6  1  0.29933288  0.95869349  0.07958409  1
  Ni  Ni7  1  0.69435406  0.02693520  0.91115170  1
  Ni  Ni8  1  0.96453998  0.29067592  0.41309895  1
  Ni  Ni9  1  0.98502451  0.97112160  0.49471230  1
  Ni  Ni10  1  0.00674084  0.98902230  0.99531709  1
  Ni  Ni11  1  0.63405398  0.31205193  0.82916278  1
  Ni  Ni12  1  0.63859924  0.31880744  0.33047395  1
  Ni  Ni13  1  0.31821254  0.63714736  0.16153501  1
  Ni  Ni14  1  0.32571385  0.66997087  0.66251972  1
  Cu  Cu15  1  0.99690712  0.00153835  0.64946648  1
  Cu  Cu16  1  0.00504950  0.00484661  0.14934529  1
  Cu  Cu17  1  0.67167727  0.34488276  0.98247173  1
  Cu  Cu18  1  0.67087346  0.33655017  0.48280008  1
  Cu  Cu19  1  0.33724320  0.67248251  0.31587922  1
  Cu  Cu20  1  0.33804325  0.67769380  0.81611682  1
  C  C21  1  0.00299786  0.00600993  0.34613852  1
  C  C22  1  0.02408413  0.01009200  0.84821375  1
  C  C23  1  0.66239992  0.32835074  0.68085267  1
  C  C24  1  0.67091392  0.33478574  0.18119141  1
  C  C25  1  0.31159339  0.66291581  0.01459731  1
  C  C26  1  0.34013815  0.66872772  0.51437513  1
  C  C27  1  0.29754538  0.00527510  0.25042034  1
  C  C28  1  0.99966011  0.29705993  0.25204706  1
  C  C29  1  0.30076325  0.29818259  0.74949114  1
  C  C30  1  0.70610901  0.00306204  0.75282803  1
  C  C31  1  0.96683188  0.33972668  0.58463870  1
  C  C32  1  0.66713189  0.62838984  0.58530375  1
  C  C33  1  0.96367848  0.62950607  0.08649218  1
  C  C34  1  0.33098834  0.96546043  0.92030224  1
  C  C35  1  0.63428643  0.96373609  0.41814444  1
  C  C36  1  0.70579532  0.70500673  0.25077150  1
  C  C37  1  0.00010788  0.70655752  0.75136111  1
  C  C38  1  0.37060120  0.03664306  0.58344620  1
  C  C39  1  0.66719162  0.03516021  0.08310048  1
  C  C40  1  0.37481956  0.33897810  0.08384057  1
  C  C41  1  0.62655300  0.66757567  0.91747960  1
  C  C42  1  0.03725461  0.36908833  0.91674870  1
  C  C43  1  0.33377352  0.36998007  0.41795073  1
  C  C44  1  0.03983142  0.67019818  0.41703240  1
  C  C45  1  0.20786289  0.02302549  0.30541459  1
  C  C46  1  0.81142152  0.78343213  0.30448278  1
  C  C47  1  0.96715220  0.19099795  0.30974689  1
  C  C48  1  0.21575506  0.19005012  0.80449721  1
  C  C49  1  0.97347786  0.78554075  0.80464124  1
  C  C50  1  0.81453275  0.02476530  0.80899208  1
  C  C51  1  0.79236055  0.97276144  0.69677477  1
  C  C52  1  0.19021510  0.21530214  0.69212034  1
  C  C53  1  0.02456044  0.81068622  0.69721557  1
  C  C54  1  0.78801829  0.81548906  0.19759892  1
  C  C55  1  0.01868618  0.20087283  0.19802705  1
  C  C56  1  0.18535723  0.97137604  0.19316986  1
  C  C57  1  0.88361694  0.35742286  0.64206979  1
  C  C58  1  0.47664742  0.11326628  0.63729905  1
  C  C59  1  0.63804380  0.52266915  0.64269861  1
  C  C60  1  0.88355145  0.53188988  0.14486819  1
  C  C61  1  0.63992931  0.11469768  0.13724628  1
  C  C62  1  0.47449077  0.35753173  0.13831808  1
  C  C63  1  0.45814197  0.30872755  0.03094858  1
  C  C64  1  0.84881254  0.53314378  0.03219020  1
  C  C65  1  0.68637856  0.14132907  0.02919290  1
  C  C66  1  0.45355653  0.14748842  0.53050159  1
  C  C67  1  0.68287293  0.53190880  0.53086967  1
  C  C68  1  0.84957482  0.30767416  0.52915043  1
  C  C69  1  0.53729093  0.68801357  0.96903977  1
  C  C70  1  0.14254666  0.45169931  0.96948453  1
  C  C71  1  0.31330740  0.86770287  0.97879007  1
  C  C72  1  0.54877603  0.86235129  0.47551141  1
  C  C73  1  0.30825343  0.44601901  0.47335654  1
  C  C74  1  0.14351971  0.68687184  0.47002728  1
  C  C75  1  0.11920436  0.64230938  0.36219930  1
  C  C76  1  0.52439228  0.87384123  0.36165097  1
  C  C77  1  0.35129452  0.47893954  0.36575243  1
  C  C78  1  0.11686082  0.46879030  0.86131792  1
  C  C79  1  0.36088590  0.86997992  0.86714244  1
  C  C80  1  0.52578909  0.64432860  0.86129671  1
  C  C81  1  0.01639663  0.81986309  0.41109190  1
  C  C82  1  0.81832723  0.98875218  0.41328317  1
  C  C83  1  0.17751383  0.19752788  0.41259388  1
  C  C84  1  0.00734901  0.19089012  0.91326023  1
  C  C85  1  0.17126518  0.98445671  0.91251640  1
  C  C86  1  0.79820544  0.82507955  0.91258467  1
  C  C87  1  0.98175068  0.17095005  0.58766941  1
  C  C88  1  0.19943755  0.02546946  0.58842832  1
  C  C89  1  0.82927713  0.81163861  0.58805366  1
  C  C90  1  0.98601705  0.81478770  0.08771123  1
  C  C91  1  0.82520932  0.02183813  0.08754731  1
  C  C92  1  0.20149244  0.17591518  0.08720036  1
  C  C93  1  0.69123055  0.16587202  0.74540798  1
  C  C94  1  0.48656657  0.33179601  0.74409211  1
  C  C95  1  0.84655125  0.53155135  0.74618996  1
  C  C96  1  0.68473585  0.53193962  0.24430233  1
  C  C97  1  0.83826992  0.31912856  0.24560280  1
  C  C98  1  0.48205149  0.15895417  0.24357786  1
  C  C99  1  0.64637234  0.51245930  0.92163074  1
  C  C100  1  0.86179302  0.35294599  0.92121298  1
  C  C101  1  0.50275769  0.14418752  0.92275782  1
  C  C102  1  0.65425129  0.14844925  0.42070732  1
  C  C103  1  0.49090142  0.35477274  0.42107295  1
  C  C104  1  0.86730310  0.50704070  0.42079494  1
  C  C105  1  0.35271962  0.48888427  0.07617150  1
  C  C106  1  0.14774608  0.65351653  0.08110213  1
  C  C107  1  0.51253960  0.86220060  0.07800143  1
  C  C108  1  0.35090629  0.86385758  0.57674237  1
  C  C109  1  0.50628063  0.65246013  0.57974754  1
  C  C110  1  0.15044812  0.49397896  0.57708893  1
  C  C111  1  0.31454974  0.83759367  0.25539068  1
  C  C112  1  0.53366891  0.69351189  0.25537211  1
  C  C113  1  0.16158609  0.48005328  0.25584769  1
  C  C114  1  0.30938282  0.47870059  0.75426433  1
  C  C115  1  0.15434513  0.68342873  0.75595875  1
  C  C116  1  0.52611514  0.83525968  0.75616305  1
