# generated using pymatgen
data_CuNiC11
_symmetry_space_group_name_H-M   'P 1'
_cell_length_a   5.56454355
_cell_length_b   5.56454357
_cell_length_c   6.99111155
_cell_angle_alpha   90.00000000
_cell_angle_beta   90.00000000
_cell_angle_gamma   119.99999991
_symmetry_Int_Tables_number   1
_chemical_formula_structural   CuNiC11
_chemical_formula_sum   'Cu1 Ni1 C11'
_cell_volume   187.47180340
_cell_formula_units_Z   1
loop_
 _symmetry_equiv_pos_site_id
 _symmetry_equiv_pos_as_xyz
  1  'x, y, z'
loop_
 _atom_site_type_symbol
 _atom_site_label
 _atom_site_symmetry_multiplicity
 _atom_site_fract_x
 _atom_site_fract_y
 _atom_site_fract_z
 _atom_site_occupancy
  Ni  Ni0  1  0.33333300  0.66666700  0.16958248  1
  C  C1  1  0.00000000  0.00000000  0.01462544  1
  Cu  Cu2  1  0.00000000  0.00000000  0.48163769  1
  C  C3  1  0.66666700  0.33333300  0.30365961  1
  C  C4  1  0.33333300  0.66666700  0.72571452  1
  C  C5  1  0.84195392  0.15804608  0.15770475  1
  C  C6  1  0.84195392  0.68390785  0.15770475  1
  C  C7  1  0.31609215  0.15804608  0.15770475  1
  C  C8  1  0.66684964  0.83342482  0.83970284  1
  C  C9  1  0.33333300  0.66666700  0.45907818  1
  C  C10  1  0.66666700  0.33333300  0.56181229  1
  C  C11  1  0.16657518  0.83342482  0.83970284  1
  C  C12  1  0.16657518  0.33315036  0.83970284  1
