# generated using pymatgen
data_CuNiC8
_symmetry_space_group_name_H-M   'P 1'
_cell_length_a   4.50879139
_cell_length_b   4.50879139
_cell_length_c   8.29055463
_cell_angle_alpha   86.50386217
_cell_angle_beta   86.50386217
_cell_angle_gamma   82.73665573
_symmetry_Int_Tables_number   1
_chemical_formula_structural   CuNiC8
_chemical_formula_sum   'Cu1 Ni1 C8'
_cell_volume   166.63503886
_cell_formula_units_Z   1
loop_
 _symmetry_equiv_pos_site_id
 _symmetry_equiv_pos_as_xyz
  1  'x, y, z'
loop_
 _atom_site_type_symbol
 _atom_site_label
 _atom_site_symmetry_multiplicity
 _atom_site_fract_x
 _atom_site_fract_y
 _atom_site_fract_z
 _atom_site_occupancy
  C  C0  1  0.88138185  0.88138185  0.07891393  1
  C  C1  1  0.13817477  0.13817477  0.50582279  1
  C  C2  1  0.58442229  0.58442229  0.41899793  1
  Ni  Ni3  1  0.46055580  0.46055580  0.75730563  1
  Cu  Cu4  1  0.33479226  0.33479226  0.16061450  1
  C  C5  1  0.20535098  0.64646563  0.58928319  1
  C  C6  1  0.64646563  0.20535098  0.58928319  1
  C  C7  1  0.94781243  0.42113319  0.29390169  1
  C  C8  1  0.42113319  0.94781243  0.29390169  1
  C  C9  1  0.51323880  0.51323880  0.97489346  1
