# generated using pymatgen
data_Cu24Ni6C7
_symmetry_space_group_name_H-M   'P 1'
_cell_length_a   18.42085362
_cell_length_b   9.20255107
_cell_length_c   24.16052177
_cell_angle_alpha   90.06685110
_cell_angle_beta   89.94526887
_cell_angle_gamma   119.95370692
_symmetry_Int_Tables_number   1
_chemical_formula_structural   Cu24Ni6C7
_chemical_formula_sum   'Cu144 Ni36 C42'
_cell_volume   3548.59955207
_cell_formula_units_Z   6
loop_
 _symmetry_equiv_pos_site_id
 _symmetry_equiv_pos_as_xyz
  1  'x, y, z'
loop_
 _atom_site_type_symbol
 _atom_site_label
 _atom_site_symmetry_multiplicity
 _atom_site_fract_x
 _atom_site_fract_y
 _atom_site_fract_z
 _atom_site_occupancy
  C  C0  1  0.32143048  0.64095529  0.74897653  1
  C  C1  1  0.65030782  0.33095439  0.58437877  1
  C  C2  1  0.98748032  0.66757124  0.91795483  1
  C  C3  1  0.66518026  0.30308884  0.91518911  1
  C  C4  1  0.16702766  0.02860468  0.41720767  1
  C  C5  1  0.66641236  0.02858841  0.41747747  1
  C  C6  1  0.99395702  0.00360635  0.49442113  1
  C  C7  1  0.48268664  0.97983632  0.50181830  1
  C  C8  1  0.00359758  0.01964045  0.99721115  1
  C  C9  1  0.48910536  0.98126846  0.99380156  1
  C  C10  1  0.33860208  0.32376911  0.83795079  1
  C  C11  1  0.82888892  0.31389546  0.82957097  1
  C  C12  1  0.34128743  0.34859907  0.33499732  1
  C  C13  1  0.84150473  0.34863844  0.33415438  1
  C  C14  1  0.16771563  0.66704234  0.16632951  1
  C  C15  1  0.66570349  0.66616738  0.16654438  1
  C  C16  1  0.16511928  0.67215474  0.66288475  1
  C  C17  1  0.66153211  0.67499502  0.67049506  1
  C  C18  1  0.99573921  0.99965249  0.34986533  1
  C  C19  1  0.49528698  0.00058512  0.35053573  1
  C  C20  1  0.00166211  0.01058562  0.85023558  1
  C  C21  1  0.49682774  0.99579608  0.84870057  1
  C  C22  1  0.49819965  0.99474100  0.65122307  1
  C  C23  1  0.33719783  0.32852875  0.68071327  1
  C  C24  1  0.83194019  0.33057760  0.68455872  1
  C  C25  1  0.33299551  0.33264226  0.18318271  1
  C  C26  1  0.83272944  0.33267566  0.18308654  1
  C  C27  1  0.33356234  0.33529503  0.98543253  1
  C  C28  1  0.83292610  0.32266908  0.98953376  1
  C  C29  1  0.33705547  0.34166013  0.48584691  1
  C  C30  1  0.84242004  0.34376408  0.48542518  1
  C  C31  1  0.17046675  0.66803964  0.01752136  1
  C  C32  1  0.66600466  0.67145303  0.01747080  1
  C  C33  1  0.16725388  0.65960025  0.51742562  1
  C  C34  1  0.66632572  0.67079105  0.51545258  1
  C  C35  1  0.16720569  0.66109503  0.31372741  1
  C  C36  1  0.66661116  0.66058991  0.31361085  1
  C  C37  1  0.16471253  0.66856917  0.81672803  1
  C  C38  1  0.66712325  0.67001539  0.81554562  1
  C  C39  1  0.00057315  0.00113366  0.65026216  1
  C  C40  1  0.00081495  -0.00003869  0.15044834  1
  C  C41  1  0.49981107  0.99981740  0.14992192  1
  Ni  Ni42  1  0.14585770  0.99884714  0.24975859  1
  Ni  Ni43  1  0.64556658  -0.00055425  0.24964776  1
  Ni  Ni44  1  0.35376198  0.70818789  0.24782933  1
  Ni  Ni45  1  0.85373048  0.70800460  0.24777003  1
  Ni  Ni46  1  0.00029452  0.29317858  0.24772652  1
  Ni  Ni47  1  0.50045266  0.29312482  0.24771882  1
  Ni  Ni48  1  0.14783033  0.29610893  0.74735149  1
  Ni  Ni49  1  0.65163370  0.30285119  0.75031139  1
  Ni  Ni50  1  0.00021907  0.70900984  0.74955218  1
  Ni  Ni51  1  0.49843780  0.69747004  0.74958583  1
  Ni  Ni52  1  0.34832453  0.99617582  0.75020505  1
  Ni  Ni53  1  0.85421104  0.99934993  0.74822679  1
  Ni  Ni54  1  0.48691442  0.33317209  0.58280712  1
  Ni  Ni55  1  0.98374741  0.32762443  0.58681077  1
  Ni  Ni56  1  0.17869386  0.02975755  0.58432801  1
  Ni  Ni57  1  0.68414276  0.03801512  0.58155062  1
  Ni  Ni58  1  0.33255045  0.63510799  0.58608010  1
  Ni  Ni59  1  0.83586387  0.63747629  0.58583473  1
  Ni  Ni60  1  0.48347573  0.63950241  0.08629071  1
  Ni  Ni61  1  0.98432615  0.64077961  0.08436702  1
  Ni  Ni62  1  0.33640377  0.03339302  0.08613580  1
  Ni  Ni63  1  0.83643896  0.03010865  0.08683873  1
  Ni  Ni64  1  0.18010620  0.32704095  0.08622041  1
  Ni  Ni65  1  0.67931507  0.32756634  0.08464986  1
  Ni  Ni66  1  0.31672629  0.66347817  0.91462997  1
  Ni  Ni67  1  0.81650827  0.66385895  0.91776740  1
  Ni  Ni68  1  0.01634937  0.37123509  0.91787529  1
  Ni  Ni69  1  0.51864150  0.36854331  0.91700777  1
  Ni  Ni70  1  0.16518065  0.96450777  0.91740099  1
  Ni  Ni71  1  0.66762801  0.97179796  0.91668497  1
  Ni  Ni72  1  0.31334396  0.96526524  0.41699580  1
  Ni  Ni73  1  0.81433174  0.96594990  0.41649450  1
  Ni  Ni74  1  0.16683764  0.36251385  0.41621537  1
  Ni  Ni75  1  0.66782780  0.36342386  0.41841955  1
  Ni  Ni76  1  0.01974396  0.66966880  0.41598463  1
  Ni  Ni77  1  0.51834886  0.66903079  0.41500158  1
  Cu  Cu78  1  0.10768668  0.01294511  0.30158914  1
  Cu  Cu79  1  0.60765069  0.01351459  0.30163808  1
  Cu  Cu80  1  0.40030960  0.78693755  0.29853737  1
  Cu  Cu81  1  0.90022394  0.78640748  0.29855994  1
  Cu  Cu82  1  0.49365807  0.20042595  0.29840762  1
  Cu  Cu83  1  0.99304991  0.19987502  0.29839612  1
  Cu  Cu84  1  0.10871203  0.20203716  0.79784452  1
  Cu  Cu85  1  0.60903570  0.20578237  0.80096684  1
  Cu  Cu86  1  0.48932139  0.78125306  0.79924674  1
  Cu  Cu87  1  0.99333235  0.78499690  0.80161526  1
  Cu  Cu88  1  0.39709414  0.01383506  0.80062408  1
  Cu  Cu89  1  0.90062771  0.01199305  0.79886128  1
  Cu  Cu90  1  0.39041557  0.97846462  0.70049330  1
  Cu  Cu91  1  0.90436574  0.99247464  0.69867887  1
  Cu  Cu92  1  0.09380753  0.19849676  0.69801086  1
  Cu  Cu93  1  0.60412507  0.21887363  0.69915826  1
  Cu  Cu94  1  0.00470570  0.82105047  0.70103757  1
  Cu  Cu95  1  0.50667031  0.79493262  0.69917162  1
  Cu  Cu96  1  0.40324643  0.81640798  0.19831686  1
  Cu  Cu97  1  0.90335398  0.81624227  0.19836029  1
  Cu  Cu98  1  0.00437081  0.19322813  0.19820393  1
  Cu  Cu99  1  0.50445145  0.19350963  0.19816923  1
  Cu  Cu100  1  0.09020829  0.99025676  0.20106178  1
  Cu  Cu101  1  0.59011883  0.99086550  0.20097688  1
  Cu  Cu102  1  0.44664865  0.34846853  0.63327846  1
  Cu  Cu103  1  0.94161401  0.34773191  0.63504530  1
  Cu  Cu104  1  0.23216903  0.11863548  0.63160496  1
  Cu  Cu105  1  0.73564941  0.12519671  0.63037531  1
  Cu  Cu106  1  0.32681730  0.54381425  0.63828786  1
  Cu  Cu107  1  0.82423726  0.53113837  0.63401920  1
  Cu  Cu108  1  0.44214379  0.53665887  0.13501000  1
  Cu  Cu109  1  0.93957119  0.53258158  0.13129354  1
  Cu  Cu110  1  0.32610212  0.11536028  0.13507781  1
  Cu  Cu111  1  0.82613276  0.11474252  0.13486621  1
  Cu  Cu112  1  0.23117206  0.34689378  0.13508966  1
  Cu  Cu113  1  0.73346887  0.34682225  0.13159297  1
  Cu  Cu114  1  0.21395332  0.29586816  0.03534400  1
  Cu  Cu115  1  0.71146208  0.29775697  0.03195431  1
  Cu  Cu116  1  0.43423954  0.57196687  0.03535726  1
  Cu  Cu117  1  0.93728659  0.57699451  0.03164484  1
  Cu  Cu118  1  0.35153303  0.13219784  0.03535301  1
  Cu  Cu119  1  0.85247812  0.12827294  0.03544881  1
  Cu  Cu120  1  0.20992048  0.12237102  0.53175007  1
  Cu  Cu121  1  0.72426933  0.13540259  0.52998823  1
  Cu  Cu122  1  0.33794529  0.54388296  0.53728179  1
  Cu  Cu123  1  0.85309858  0.57230469  0.53492068  1
  Cu  Cu124  1  0.43800092  0.31919918  0.53293964  1
  Cu  Cu125  1  0.93521870  0.29476453  0.53538067  1
  Cu  Cu126  1  0.27155265  0.67705594  0.96312302  1
  Cu  Cu127  1  0.77670112  0.68331541  0.96783064  1
  Cu  Cu128  1  0.06573425  0.45354769  0.96776145  1
  Cu  Cu129  1  0.56980533  0.45240259  0.96679358  1
  Cu  Cu130  1  0.15468689  0.85980619  0.96660049  1
  Cu  Cu131  1  0.66115632  0.87633142  0.96706632  1
  Cu  Cu132  1  0.27253786  0.86743981  0.46731651  1
  Cu  Cu133  1  0.77424554  0.86876101  0.46703637  1
  Cu  Cu134  1  0.15897592  0.44386027  0.46638220  1
  Cu  Cu135  1  0.66075399  0.44044871  0.47067875  1
  Cu  Cu136  1  0.06930781  0.68576529  0.46615630  1
  Cu  Cu137  1  0.56860901  0.68774681  0.46516829  1
  Cu  Cu138  1  0.06062645  0.65371776  0.36553707  1
  Cu  Cu139  1  0.55992214  0.65260802  0.36495818  1
  Cu  Cu140  1  0.26313036  0.88178015  0.36683209  1
  Cu  Cu141  1  0.76367994  0.88134483  0.36672459  1
  Cu  Cu142  1  0.17378346  0.45863577  0.36582841  1
  Cu  Cu143  1  0.67459705  0.46545086  0.36970944  1
  Cu  Cu144  1  0.05705220  0.47000278  0.86726237  1
  Cu  Cu145  1  0.55950012  0.46665908  0.86668701  1
  Cu  Cu146  1  0.17276486  0.88384104  0.86641343  1
  Cu  Cu147  1  0.67579889  0.89056956  0.86643813  1
  Cu  Cu148  1  0.27115700  0.65029078  0.86200170  1
  Cu  Cu149  1  0.76661551  0.64523445  0.86776282  1
  Cu  Cu150  1  0.01557268  0.82900599  0.41319541  1
  Cu  Cu151  1  0.51438907  0.82816471  0.41193523  1
  Cu  Cu152  1  0.39913579  0.98971820  0.41362091  1
  Cu  Cu153  1  0.90016125  0.99022749  0.41321057  1
  Cu  Cu154  1  0.09172458  0.18806434  0.41364232  1
  Cu  Cu155  1  0.59281685  0.19052596  0.41432217  1
  Cu  Cu156  1  0.00386378  0.19915197  0.91423881  1
  Cu  Cu157  1  0.51516927  0.20156225  0.91377734  1
  Cu  Cu158  1  0.08529441  0.97268376  0.91416878  1
  Cu  Cu159  1  0.59251039  0.99482316  0.91384382  1
  Cu  Cu160  1  0.40152054  0.81686270  0.91374085  1
  Cu  Cu161  1  0.90422394  0.80862265  0.91334825  1
  Cu  Cu162  1  0.49811943  0.18251116  0.58519052  1
  Cu  Cu163  1  0.99253274  0.17094486  0.59574468  1
  Cu  Cu164  1  0.09207762  0.01344525  0.59464967  1
  Cu  Cu165  1  0.60140762  0.03189530  0.58571736  1
  Cu  Cu166  1  0.40899975  0.80458997  0.58619121  1
  Cu  Cu167  1  0.91100584  0.81212075  0.59547586  1
  Cu  Cu168  1  0.49239633  0.81366904  0.09503779  1
  Cu  Cu169  1  0.99250267  0.81334767  0.09407671  1
  Cu  Cu170  1  0.41456729  0.01559547  0.09470028  1
  Cu  Cu171  1  0.91446477  0.01331198  0.09534170  1
  Cu  Cu172  1  0.09300036  0.17016601  0.09480161  1
  Cu  Cu173  1  0.59359747  0.17129308  0.09437199  1
  Cu  Cu174  1  0.33527052  0.14196901  0.74630573  1
  Cu  Cu175  1  0.84640445  0.15069103  0.74331923  1
  Cu  Cu176  1  0.23284512  0.31923951  0.74113488  1
  Cu  Cu177  1  0.73634957  0.31808854  0.74871554  1
  Cu  Cu178  1  0.41868024  0.53061424  0.74663014  1
  Cu  Cu179  1  0.92524533  0.54301655  0.74282677  1
  Cu  Cu180  1  0.34520006  0.54098153  0.24215756  1
  Cu  Cu181  1  0.84533071  0.54096529  0.24200730  1
  Cu  Cu182  1  0.42563938  0.31093920  0.24238757  1
  Cu  Cu183  1  0.92554068  0.31112400  0.24217069  1
  Cu  Cu184  1  0.22885467  0.14917105  0.24314375  1
  Cu  Cu185  1  0.72873260  0.14987771  0.24305482  1
  Cu  Cu186  1  0.32529746  0.51112516  0.91896124  1
  Cu  Cu187  1  0.82298029  0.50651439  0.92198581  1
  Cu  Cu188  1  0.43286426  0.34370825  0.92146614  1
  Cu  Cu189  1  0.93294958  0.36439826  0.92139888  1
  Cu  Cu190  1  0.23883752  0.13468429  0.92201447  1
  Cu  Cu191  1  0.74278499  0.14672028  0.91977553  1
  Cu  Cu192  1  0.31727111  0.13257364  0.42042381  1
  Cu  Cu193  1  0.81836867  0.13324149  0.41979892  1
  Cu  Cu194  1  0.24189556  0.33877305  0.41912105  1
  Cu  Cu195  1  0.74326078  0.34073289  0.42025759  1
  Cu  Cu196  1  0.43269083  0.52157103  0.41890215  1
  Cu  Cu197  1  0.93374368  0.52239273  0.41936126  1
  Cu  Cu198  1  0.16669345  0.47202161  0.08153819  1
  Cu  Cu199  1  0.66688107  0.47367204  0.08082943  1
  Cu  Cu200  1  0.06968708  0.66563390  0.08055904  1
  Cu  Cu201  1  0.56932120  0.66605044  0.08155759  1
  Cu  Cu202  1  0.26391363  0.86155202  0.08140508  1
  Cu  Cu203  1  0.76359040  0.85954167  0.08178451  1
  Cu  Cu204  1  0.16529449  0.85792700  0.58110717  1
  Cu  Cu205  1  0.67219602  0.86680759  0.57903676  1
  Cu  Cu206  1  0.25645140  0.65256514  0.58298682  1
  Cu  Cu207  1  0.75929102  0.65149099  0.58016658  1
  Cu  Cu208  1  0.06903337  0.47282854  0.58201458  1
  Cu  Cu209  1  0.57391311  0.48287424  0.58017886  1
  Cu  Cu210  1  0.15019889  0.84293388  0.24756418  1
  Cu  Cu211  1  0.65038426  0.84378781  0.24760522  1
  Cu  Cu212  1  0.27128828  0.69912044  0.24652097  1
  Cu  Cu213  1  0.77129533  0.69888237  0.24655814  1
  Cu  Cu214  1  0.07833096  0.45764095  0.24631378  1
  Cu  Cu215  1  0.57859657  0.45769502  0.24623114  1
  Cu  Cu216  1  0.15452116  0.46412973  0.74708564  1
  Cu  Cu217  1  0.66044344  0.47255630  0.75246848  1
  Cu  Cu218  1  0.07791315  0.69976404  0.74734496  1
  Cu  Cu219  1  0.57244308  0.67465618  0.75321020  1
  Cu  Cu220  1  0.26546461  0.83487594  0.75304001  1
  Cu  Cu221  1  0.77169188  0.84493954  0.74643503  1
