# generated using pymatgen
data_Cu4NiC48
_symmetry_space_group_name_H-M   'P 1'
_cell_length_a   8.72154487
_cell_length_b   8.69328044
_cell_length_c   8.86698076
_cell_angle_alpha   90.97460934
_cell_angle_beta   91.86873392
_cell_angle_gamma   90.61734035
_symmetry_Int_Tables_number   1
_chemical_formula_structural   Cu4NiC48
_chemical_formula_sum   'Cu4 Ni1 C48'
_cell_volume   671.78622610
_cell_formula_units_Z   1
loop_
 _symmetry_equiv_pos_site_id
 _symmetry_equiv_pos_as_xyz
  1  'x, y, z'
loop_
 _atom_site_type_symbol
 _atom_site_label
 _atom_site_symmetry_multiplicity
 _atom_site_fract_x
 _atom_site_fract_y
 _atom_site_fract_z
 _atom_site_occupancy
  Ni  Ni0  1  0.48095700  0.59077000  0.94843000  1
  Cu  Cu1  1  0.86537400  0.64850000  0.35907800  1
  Cu  Cu2  1  0.64944400  0.34024200  0.81908100  1
  Cu  Cu3  1  0.36897200  0.86067100  0.63590200  1
  Cu  Cu4  1  0.12701900  0.14184000  0.15229900  1
  C  C5  1  0.69373300  0.98588200  0.81988200  1
  C  C6  1  0.70507000  0.31089200  0.43261400  1
  C  C7  1  0.81457400  0.69748400  0.95612400  1
  C  C8  1  0.82166200  0.01386700  0.30542000  1
  C  C9  1  0.03087000  0.68191200  0.69050500  1
  C  C10  1  0.16889400  0.50813300  0.21559800  1
  C  C11  1  0.20029100  0.18273400  0.55235700  1
  C  C12  1  0.29138000  0.79415500  0.06628900  1
  C  C13  1  0.30495200  0.49313900  0.66655200  1
  C  C14  1  0.44550900  0.33228000  0.19619200  1
  C  C15  1  0.54390300  0.82785100  0.31077200  1
  C  C16  1  0.97403900  0.17743300  0.80895800  1
  C  C17  1  0.64195200  0.69437800  0.35883300  1
  C  C18  1  0.96300400  0.70518600  0.85756000  1
  C  C19  1  0.89763900  0.88008200  0.38155300  1
  C  C20  1  0.90034500  0.63274400  0.58343800  1
  C  C21  1  0.04768700  0.20389500  0.64798600  1
  C  C22  1  0.08805400  0.37103700  0.14352500  1
  C  C23  1  0.09336100  0.12662500  0.92479700  1
  C  C24  1  0.09118400  0.59797100  0.33656700  1
  C  C25  1  0.12689900  0.81775700  0.65421200  1
  C  C26  1  0.13797000  0.53474700  0.72809900  1
  C  C27  1  0.15104900  0.14770700  0.39082600  1
  C  C28  1  0.19531600  0.91527400  0.13286400  1
  C  C29  1  0.21536300  0.62340200  0.08162200  1
  C  C30  1  0.26591100  0.35799000  0.54986100  1
  C  C31  1  0.31504600  0.08999600  0.63762600  1
  C  C32  1  0.34577900  0.78481300  0.90604900  1
  C  C33  1  0.33691500  0.45884100  0.27641500  1
  C  C34  1  0.34989700  0.19628000  0.14148100  1
  C  C35  1  0.39917700  0.43314100  0.80114400  1
  C  C36  1  0.42749100  0.89502000  0.40897900  1
  C  C37  1  0.37588500  0.62501600  0.58818500  1
  C  C38  1  0.45658700  0.76642300  0.15442600  1
  C  C39  1  0.54939400  0.27638400  0.33299500  1
  C  C40  1  0.88304500  0.31665600  0.84837900  1
  C  C41  1  0.53769000  0.41669200  0.08259700  1
  C  C42  1  0.60589800  0.89887600  0.69803500  1
  C  C43  1  0.90500300  0.08783600  0.17849000  1
  C  C44  1  0.65270100  0.96123300  0.24317400  1
  C  C45  1  0.65812800  0.34311900  0.58951900  1
  C  C46  1  0.69351100  0.59091300  0.88078000  1
  C  C47  1  0.74542700  0.86752300  0.95268400  1
  C  C48  1  0.78196900  0.14253100  0.43014500  1
  C  C49  1  0.80555600  0.42291400  0.35275200  1
  C  C50  1  0.86042800  0.66720200  0.11702300  1
  C  C51  1  0.86042400  0.03430600  0.76007400  1
  C  C52  1  0.62042000  0.12144900  0.89561700  1
