# generated using pymatgen
data_Cu4Ni8C99
_symmetry_space_group_name_H-M   'P 1'
_cell_length_a   17.59842301
_cell_length_b   8.84449884
_cell_length_c   22.55332498
_cell_angle_alpha   90.01567028
_cell_angle_beta   90.30383184
_cell_angle_gamma   120.07015975
_symmetry_Int_Tables_number   1
_chemical_formula_structural   Cu4Ni8C99
_chemical_formula_sum   'Cu8 Ni16 C198'
_cell_volume   3037.89056329
_cell_formula_units_Z   2
loop_
 _symmetry_equiv_pos_site_id
 _symmetry_equiv_pos_as_xyz
  1  'x, y, z'
loop_
 _atom_site_type_symbol
 _atom_site_label
 _atom_site_symmetry_multiplicity
 _atom_site_fract_x
 _atom_site_fract_y
 _atom_site_fract_z
 _atom_site_occupancy
  C  C0  1  0.35360789  0.03755267  0.90687931  1
  C  C1  1  0.84561234  0.03534267  0.90795173  1
  C  C2  1  0.66484608  0.28432626  0.90589904  1
  C  C3  1  0.16476549  0.04584983  0.41092948  1
  C  C4  1  0.34305683  0.65160822  0.42198706  1
  C  C5  1  0.85323535  0.67089524  0.41078480  1
  C  C6  1  0.00741831  0.03390645  0.49754745  1
  C  C7  1  0.50859994  0.01096554  0.50133162  1
  C  C8  1  0.00661518  0.00439596  0.99524386  1
  C  C9  1  0.50539222  0.98136402  0.99134858  1
  C  C10  1  0.32561586  0.32813093  0.82016309  1
  C  C11  1  0.82399450  0.31308948  0.82239805  1
  C  C12  1  0.32267706  0.31880360  0.32945277  1
  C  C13  1  0.82545656  0.32406786  0.32145488  1
  C  C14  1  0.16444211  0.67175873  0.16122912  1
  C  C15  1  0.67300067  0.67783459  0.16069579  1
  C  C16  1  0.17032556  0.66824327  0.66174838  1
  C  C17  1  0.66970787  0.66306291  0.66477157  1
  Ni  Ni18  1  0.00588951  0.00982358  0.34986095  1
  Ni  Ni19  1  0.50608852  0.00835889  0.35234302  1
  Ni  Ni20  1  0.00357082  0.00852557  0.84927569  1
  Ni  Ni21  1  0.50530504  0.00094810  0.84980329  1
  Ni  Ni22  1  0.32979382  0.32487488  0.68688638  1
  Ni  Ni23  1  0.82795813  0.32532543  0.68781519  1
  Ni  Ni24  1  0.32771322  0.32414212  0.18436959  1
  Ni  Ni25  1  0.83070479  0.33320594  0.18740324  1
  Ni  Ni26  1  0.33111792  0.33767619  0.98125280  1
  Ni  Ni27  1  0.83253123  0.32603938  0.97879627  1
  Ni  Ni28  1  0.33041378  0.33405363  0.48292980  1
  Ni  Ni29  1  0.83030133  0.32312669  0.48520228  1
  Ni  Ni30  1  0.16576368  0.66602756  0.01892434  1
  Ni  Ni31  1  0.66606527  0.67442513  0.01701278  1
  Ni  Ni32  1  0.16551127  0.65593107  0.52089066  1
  Ni  Ni33  1  0.66533017  0.66625628  0.52036379  1
  Cu  Cu34  1  0.99940343  0.00799051  0.65049985  1
  Cu  Cu35  1  0.49914350  0.00922521  0.65219552  1
  Cu  Cu36  1  0.99961299  0.98745355  0.15036217  1
  Cu  Cu37  1  0.50434679  0.99846079  0.14637794  1
  Cu  Cu38  1  0.16425975  0.66093003  0.31292010  1
  Cu  Cu39  1  0.66883261  0.67367340  0.30898927  1
  Cu  Cu40  1  0.16735060  0.66232696  0.80863677  1
  Cu  Cu41  1  0.67114190  0.67962924  0.80981599  1
  C  C42  1  0.15297283  0.00799609  0.25496701  1
  C  C43  1  0.64919207  0.00844733  0.25440722  1
  C  C44  1  0.85846174  0.70320418  0.25664187  1
  C  C45  1  0.15014137  0.28830560  0.75437114  1
  C  C46  1  0.65063412  0.29905362  0.75591268  1
  C  C47  1  0.35740277  0.01199471  0.75687523  1
  C  C48  1  0.85705624  0.01285348  0.75570715  1
  C  C49  1  0.66284979  0.95996456  0.92103066  1
  C  C50  1  0.16349991  0.36466214  0.42039134  1
  C  C51  1  0.35555158  0.71085362  0.25134242  1
  C  C52  1  0.00025500  0.28885477  0.24965764  1
  C  C53  1  0.49783489  0.28652621  0.25113778  1
  C  C54  1  0.99911769  0.71202742  0.75109972  1
  C  C55  1  0.49914001  0.70993666  0.74973431  1
  C  C56  1  0.47883976  0.33410926  0.58273083  1
  C  C57  1  0.97861377  0.33490741  0.58451570  1
  C  C58  1  0.18493705  0.03351222  0.58160790  1
  C  C59  1  0.68484103  0.03600784  0.58279873  1
  C  C60  1  0.33558399  0.63040365  0.58290959  1
  C  C61  1  0.83437920  0.62699537  0.58104637  1
  C  C62  1  0.47757730  0.61871303  0.08588038  1
  C  C63  1  0.97882696  0.62132776  0.08313752  1
  C  C64  1  0.33256478  0.03884001  0.08254790  1
  C  C65  1  0.83504949  0.04132749  0.08368570  1
  C  C66  1  0.18641574  0.33599026  0.08358618  1
  C  C67  1  0.68724035  0.33928129  0.08312393  1
  C  C68  1  0.30933798  0.66082795  0.91840124  1
  C  C69  1  0.81407922  0.66801599  0.91848945  1
  C  C70  1  0.02324784  0.37792900  0.91916289  1
  C  C71  1  0.51938402  0.37985005  0.91941774  1
  C  C72  1  0.16460046  0.95429609  0.91899649  1
  C  C73  1  0.31416264  0.95745475  0.41682678  1
  C  C74  1  0.80970178  0.95911617  0.41844453  1
  C  C75  1  0.66487787  0.37633786  0.41867418  1
  C  C76  1  0.01995404  0.65887721  0.41914189  1
  C  C77  1  0.52172592  0.66642363  0.41783113  1
  C  C78  1  0.10972946  0.02371254  0.31438878  1
  C  C79  1  0.60096231  0.03005244  0.30902800  1
  C  C80  1  0.40364857  0.79229223  0.30590732  1
  C  C81  1  0.90615188  0.79551425  0.31676586  1
  C  C82  1  0.48306496  0.18108919  0.30380255  1
  C  C83  1  0.98902804  0.18928950  0.30286273  1
  C  C84  1  0.10700304  0.17379790  0.81065296  1
  C  C85  1  0.60870654  0.18833010  0.81389140  1
  C  C86  1  0.48674060  0.78713175  0.80257719  1
  C  C87  1  0.98703016  0.78931450  0.80400415  1
  C  C88  1  0.40561450  0.01559128  0.81672366  1
  C  C89  1  0.90309946  0.01548687  0.81669881  1
  C  C90  1  0.40276915  0.96826042  0.69719691  1
  C  C91  1  0.90494343  0.97100837  0.69639960  1
  C  C92  1  0.08477868  0.19243411  0.69370081  1
  C  C93  1  0.58317630  0.19202680  0.69599729  1
  C  C94  1  0.01774383  0.82796657  0.69706630  1
  C  C95  1  0.51555538  0.82590579  0.69567924  1
  C  C96  1  0.39873110  0.82910974  0.19833769  1
  C  C97  1  0.90454423  0.83830751  0.19719471  1
  C  C98  1  0.01781983  0.20974564  0.19605620  1
  C  C99  1  0.51256066  0.20069911  0.19733714  1
  C  C100  1  0.08540963  0.97738787  0.19564341  1
  C  C101  1  0.58323839  0.97549095  0.19336674  1
  C  C102  1  0.43776478  0.35336089  0.63568414  1
  C  C103  1  0.93426423  0.34851529  0.63650639  1
  C  C104  1  0.23936091  0.12275290  0.63330482  1
  C  C105  1  0.73784000  0.12124855  0.63522438  1
  C  C106  1  0.32796881  0.52185451  0.63353977  1
  C  C107  1  0.82612999  0.51982915  0.63231242  1
  C  C108  1  0.43372211  0.52047292  0.13885488  1
  C  C109  1  0.93853783  0.52230861  0.13653204  1
  C  C110  1  0.32358254  0.12676988  0.13454204  1
  C  C111  1  0.82661637  0.13139853  0.13527342  1
  C  C112  1  0.23904064  0.35932898  0.13694076  1
  C  C113  1  0.73874705  0.35610198  0.13554776  1
  C  C114  1  0.22403700  0.30387906  0.03007408  1
  C  C115  1  0.71986525  0.30369663  0.02829884  1
  C  C116  1  0.42597600  0.54716861  0.03162445  1
  C  C117  1  0.92583919  0.54564540  0.02934745  1
  C  C118  1  0.34917044  0.14056786  0.02757309  1
  C  C119  1  0.84810071  0.13920961  0.02808298  1
  C  C120  1  0.22032732  0.13349482  0.52586678  1
  C  C121  1  0.72103626  0.14014311  0.52815792  1
  C  C122  1  0.34781852  0.55878643  0.52623287  1
  C  C123  1  0.84682643  0.55328845  0.52480351  1
  C  C124  1  0.42626928  0.30461288  0.52841031  1
  C  C125  1  0.92803610  0.30581856  0.52918590  1
  C  C126  1  0.26680861  0.68800378  0.96985544  1
  C  C127  1  0.77098719  0.69176973  0.97024604  1
  C  C128  1  0.07691344  0.46406252  0.97152557  1
  C  C129  1  0.57459021  0.46040819  0.97212636  1
  C  C130  1  0.15692017  0.85162820  0.97192037  1
  C  C131  1  0.65520099  0.84843505  0.97800532  1
  C  C132  1  0.27276363  0.84985244  0.46877739  1
  C  C133  1  0.76610415  0.84533332  0.46900364  1
  C  C134  1  0.15971788  0.47491652  0.47401386  1
  C  C135  1  0.65708411  0.46479206  0.47095960  1
  C  C136  1  0.07695263  0.68879599  0.47008044  1
  C  C137  1  0.57677223  0.69401952  0.46992397  1
  C  C138  1  0.06638230  0.64434109  0.36296323  1
  C  C139  1  0.56675803  0.64925738  0.36309203  1
  C  C140  1  0.25528455  0.86931440  0.36179453  1
  C  C141  1  0.75326305  0.86531584  0.36247762  1
  C  C142  1  0.17692924  0.49813987  0.35893369  1
  C  C143  1  0.67542410  0.48795224  0.36419752  1
  C  C144  1  0.06803593  0.48468832  0.86451803  1
  C  C145  1  0.56304327  0.48346714  0.86500569  1
  C  C146  1  0.17635198  0.86427669  0.86514756  1
  C  C147  1  0.67543823  0.85279507  0.86112205  1
  C  C148  1  0.25339449  0.64222971  0.86336394  1
  C  C149  1  0.75684705  0.64087611  0.86339112  1
  C  C150  1  0.00907515  0.81285306  0.41285837  1
  C  C151  1  0.50672652  0.81734267  0.41182168  1
  C  C152  1  0.39945939  0.96660252  0.40723468  1
  C  C153  1  0.89611267  0.97443610  0.41160490  1
  C  C154  1  0.07879126  0.17295572  0.41431851  1
  C  C155  1  0.58606885  0.20316157  0.41286594  1
  C  C156  1  0.01143502  0.20030627  0.91496599  1
  C  C157  1  0.50724112  0.20114819  0.91508587  1
  C  C158  1  0.08618206  0.97055453  0.91300312  1
  C  C159  1  0.57897782  0.98494828  0.91328716  1
  C  C160  1  0.39593144  0.81790750  0.91204916  1
  C  C161  1  0.90114095  0.82532950  0.91218051  1
  C  C162  1  0.48727212  0.16714689  0.58887201  1
  C  C163  1  0.98777266  0.16823942  0.58994511  1
  C  C164  1  0.09371816  0.01299275  0.58871221  1
  C  C165  1  0.59333486  0.01495292  0.58931015  1
  C  C166  1  0.41830319  0.81031072  0.58908318  1
  C  C167  1  0.91658124  0.80732400  0.58776079  1
  C  C168  1  0.48539194  0.80509744  0.09256355  1
  C  C169  1  0.98755303  0.80675122  0.08959723  1
  C  C170  1  0.41382879  0.01845259  0.09226397  1
  C  C171  1  0.91883008  0.02779457  0.09116587  1
  C  C172  1  0.09526915  0.17371343  0.09063414  1
  C  C173  1  0.59258384  0.17186652  0.09184330  1
  C  C174  1  0.34652412  0.17447089  0.74320725  1
  C  C175  1  0.84814533  0.17745109  0.74236090  1
  C  C176  1  0.24795056  0.34208336  0.74070380  1
  C  C177  1  0.74702118  0.34160276  0.74175433  1
  C  C178  1  0.42602447  0.53758308  0.73812283  1
  C  C179  1  0.92707277  0.53923259  0.73918500  1
  C  C180  1  0.34685724  0.54085180  0.24158388  1
  C  C181  1  0.84664358  0.51792355  0.24336114  1
  C  C182  1  0.42669529  0.32046582  0.23999092  1
  C  C183  1  0.92756716  0.31808134  0.23936800  1
  C  C184  1  0.24839015  0.16938856  0.24371685  1
  C  C185  1  0.74636251  0.15446167  0.24194567  1
  C  C186  1  0.31437216  0.50037975  0.92107624  1
  C  C187  1  0.81953245  0.50748600  0.92197312  1
  C  C188  1  0.43070163  0.36225341  0.92363429  1
  C  C189  1  0.93617573  0.36498541  0.92111108  1
  C  C190  1  0.24729808  0.12770761  0.92164722  1
  C  C191  1  0.75415199  0.15172022  0.91830461  1
  C  C192  1  0.32165014  0.13008500  0.41932340  1
  C  C193  1  0.81446070  0.12905309  0.42082314  1
  C  C194  1  0.25448251  0.35421486  0.41852533  1
  C  C195  1  0.74717290  0.36730284  0.42046749  1
  C  C196  1  0.43537203  0.50451653  0.42043189  1
  C  C197  1  0.93344856  0.49842744  0.42088465  1
  C  C198  1  0.17404218  0.48870148  0.07760295  1
  C  C199  1  0.67112767  0.48641357  0.07837569  1
  C  C200  1  0.06940266  0.65427852  0.07768278  1
  C  C201  1  0.56714143  0.64912224  0.08301628  1
  C  C202  1  0.25681339  0.86027225  0.07787344  1
  C  C203  1  0.76056153  0.86005561  0.08065800  1
  C  C204  1  0.17279446  0.85589337  0.57672034  1
  C  C205  1  0.67307428  0.85871429  0.57702182  1
  C  C206  1  0.26010433  0.66013360  0.58021314  1
  C  C207  1  0.75799242  0.65420260  0.57670480  1
  C  C208  1  0.06823366  0.48597822  0.58124473  1
  C  C209  1  0.56933925  0.48303776  0.57710552  1
  C  C210  1  0.15508925  0.81902404  0.25664370  1
  C  C211  1  0.64636139  0.81338516  0.25777397  1
  C  C212  1  0.26565941  0.69562146  0.25365173  1
  C  C213  1  0.75726215  0.68824373  0.25951998  1
  C  C214  1  0.08405803  0.46989461  0.25453384  1
  C  C215  1  0.58289546  0.45934069  0.25668177  1
  C  C216  1  0.14670512  0.47836318  0.75872321  1
  C  C217  1  0.64572040  0.48261007  0.75869678  1
  C  C218  1  0.08331363  0.70253782  0.75692720  1
  C  C219  1  0.58259778  0.70039443  0.75369164  1
  C  C220  1  0.25699805  0.82523671  0.76007547  1
  C  C221  1  0.75819312  0.82550632  0.75570990  1
