# generated using pymatgen
data_Cu5(NiC15)2
_symmetry_space_group_name_H-M   'P 1'
_cell_length_a   8.82052355
_cell_length_b   8.81028086
_cell_length_c   22.49903183
_cell_angle_alpha   90.13470580
_cell_angle_beta   90.00084363
_cell_angle_gamma   119.77642612
_symmetry_Int_Tables_number   1
_chemical_formula_structural   Cu5(NiC15)2
_chemical_formula_sum   'Cu15 Ni6 C90'
_cell_volume   1517.57787547
_cell_formula_units_Z   3
loop_
 _symmetry_equiv_pos_site_id
 _symmetry_equiv_pos_as_xyz
  1  'x, y, z'
loop_
 _atom_site_type_symbol
 _atom_site_label
 _atom_site_symmetry_multiplicity
 _atom_site_fract_x
 _atom_site_fract_y
 _atom_site_fract_z
 _atom_site_occupancy
  C  C0  1  0.00310497  0.36382702  0.75096469  1
  C  C1  1  0.66853251  0.95999179  0.58392245  1
  C  C2  1  0.04231488  0.33239551  0.08387968  1
  C  C3  1  0.01224217  0.99571553  0.49894727  1
  C  C4  1  0.00484931  0.99103580  0.99825649  1
  C  C5  1  0.65640184  0.32696608  0.83472379  1
  C  C6  1  0.67405519  0.33427686  0.33324277  1
  C  C7  1  0.34618721  0.67353712  0.16877099  1
  C  C8  1  0.33374689  0.66908395  0.66802571  1
  C  C9  1  0.97872318  0.98864130  0.35039592  1
  C  C10  1  0.00996973  0.00729083  0.84922579  1
  C  C11  1  0.66203494  0.33647377  0.68747514  1
  C  C12  1  0.67274891  0.33976350  0.18691836  1
  C  C13  1  0.66434617  0.32569122  0.98155565  1
  C  C14  1  0.67502762  0.33655607  0.48134061  1
  Ni  Ni15  1  0.00747039  0.99856249  0.64615256  1
  Ni  Ni16  1  0.99642784  0.99378065  0.14648903  1
  Ni  Ni17  1  0.33355099  0.67176662  0.01796368  1
  Ni  Ni18  1  0.32612390  0.66614143  0.51783369  1
  Ni  Ni19  1  0.32838395  0.66477883  0.31797970  1
  Ni  Ni20  1  0.33575570  0.67663423  0.81904685  1
  Cu  Cu21  1  0.70351507  0.70253893  0.24871768  1
  Cu  Cu22  1  0.99672284  0.29052858  0.24802529  1
  Cu  Cu23  1  0.29587846  0.29315064  0.74976021  1
  Cu  Cu24  1  0.99530507  0.70605598  0.74984861  1
  Cu  Cu25  1  0.70753750  -0.00010309  0.74776267  1
  Cu  Cu26  1  0.95513586  0.33850028  0.58530253  1
  Cu  Cu27  1  0.38463961  0.05410345  0.58253872  1
  Cu  Cu28  1  0.66416708  0.61604933  0.58295879  1
  Cu  Cu29  1  0.94847177  0.61798802  0.08254669  1
  Cu  Cu30  1  0.66161598  0.04607369  0.08454291  1
  Cu  Cu31  1  0.38549576  0.33483582  0.08399553  1
  Cu  Cu32  1  0.03045866  0.36271296  0.91702734  1
  Cu  Cu33  1  0.33197469  0.97001702  0.91739386  1
  Cu  Cu34  1  0.63093448  0.96680092  0.41810818  1
  Cu  Cu35  1  0.03150284  0.66920676  0.41645282  1
  C  C36  1  0.29491935  0.00553645  0.25036814  1
  C  C37  1  0.63809577  0.66824147  0.91674555  1
  C  C38  1  0.33122834  0.36039062  0.41675068  1
  C  C39  1  0.20362988  0.02336173  0.30302258  1
  C  C40  1  0.82370017  0.79941032  0.30417996  1
  C  C41  1  0.97555719  0.16553992  0.30107915  1
  C  C42  1  0.20131283  0.17226634  0.80442152  1
  C  C43  1  0.97657948  0.80388788  0.80457605  1
  C  C44  1  0.83635806  0.02915034  0.80028229  1
  C  C45  1  0.78014750  0.97501679  0.68853313  1
  C  C46  1  0.17994487  0.22105806  0.69469805  1
  C  C47  1  0.02924404  0.80965317  0.69290668  1
  C  C48  1  0.78167401  0.80975172  0.19326910  1
  C  C49  1  0.02725131  0.22061606  0.18932165  1
  C  C50  1  0.19639451  0.97827889  0.19505116  1
  C  C51  1  0.86312492  0.35152167  0.64274879  1
  C  C52  1  0.49616338  0.14799860  0.63909946  1
  C  C53  1  0.65170700  0.50867318  0.63973736  1
  C  C54  1  0.85634057  0.50669336  0.13956494  1
  C  C55  1  0.65055541  0.14388269  0.14050855  1
  C  C56  1  0.49445813  0.35031746  0.14060746  1
  C  C57  1  0.47977758  0.32066292  0.02812753  1
  C  C58  1  0.83994820  0.52092647  0.02724220  1
  C  C59  1  0.67966705  0.15777872  0.02830725  1
  C  C60  1  0.48180205  0.16071967  0.52683863  1
  C  C61  1  0.67802207  0.52052081  0.52735143  1
  C  C62  1  0.84098688  0.32100398  0.52966467  1
  C  C63  1  0.56189473  0.70244913  0.97038109  1
  C  C64  1  0.14392456  0.43723480  0.97343027  1
  C  C65  1  0.29112903  0.85357695  0.97223523  1
  C  C66  1  0.56435541  0.85751161  0.47536294  1
  C  C67  1  0.29685542  0.43653081  0.47028076  1
  C  C68  1  0.14680514  0.71174530  0.47175761  1
  C  C69  1  0.10279177  0.62240940  0.36192689  1
  C  C70  1  0.51374955  0.88606021  0.36441113  1
  C  C71  1  0.36802585  0.47206605  0.36393711  1
  C  C72  1  0.10786551  0.47589355  0.86148119  1
  C  C73  1  0.37956957  0.90122843  0.86256034  1
  C  C74  1  0.52729869  0.63217394  0.86386693  1
  C  C75  1  0.01007068  0.83250422  0.40498744  1
  C  C76  1  0.81786030  0.99032519  0.40627645  1
  C  C77  1  0.17607135  0.18492069  0.40778431  1
  C  C78  1  0.00676762  0.17690963  0.90619378  1
  C  C79  1  0.16795000  0.98988788  0.90642579  1
  C  C80  1  0.81333151  0.82439110  0.90856424  1
  C  C81  1  0.96079103  0.16600025  0.58464477  1
  C  C82  1  0.20452919  0.03843028  0.58312837  1
  C  C83  1  0.82739657  0.79968812  0.58374839  1
  C  C84  1  0.96618863  0.79882608  0.08398016  1
  C  C85  1  0.83357993  0.04014840  0.08427793  1
  C  C86  1  0.20185044  0.17096133  0.08524291  1
  C  C87  1  0.69972969  0.17430534  0.74467316  1
  C  C88  1  0.47532473  0.30336554  0.74378556  1
  C  C89  1  0.82580514  0.52194569  0.74531419  1
  C  C90  1  0.69485400  0.52158416  0.24444212  1
  C  C91  1  0.82483064  0.30083611  0.24411565  1
  C  C92  1  0.46938436  0.16760943  0.24671695  1
  C  C93  1  0.65902630  0.51215149  0.92450011  1
  C  C94  1  0.84526015  0.34059791  0.92611568  1
  C  C95  1  0.49129563  0.15662587  0.92751354  1
  C  C96  1  0.65904150  0.15426483  0.42633584  1
  C  C97  1  0.48769464  0.33999186  0.42465930  1
  C  C98  1  0.84534255  0.50863514  0.42700807  1
  C  C99  1  0.36469022  0.49911218  0.08142278  1
  C  C100  1  0.12636173  0.62346517  0.08174086  1
  C  C101  1  0.49853370  0.86607896  0.08192372  1
  C  C102  1  0.37741479  0.87512064  0.58191758  1
  C  C103  1  0.49930900  0.63459459  0.58126726  1
  C  C104  1  0.13467532  0.50149244  0.58206653  1
  C  C105  1  0.32098209  0.85196075  0.25525923  1
  C  C106  1  0.52090028  0.67813527  0.25743416  1
  C  C107  1  0.15396378  0.47378327  0.25656501  1
  C  C108  1  0.31567215  0.47414023  0.75951098  1
  C  C109  1  0.14756899  0.66823902  0.75650800  1
  C  C110  1  0.52637565  0.84252762  0.75588705  1
