# generated using pymatgen
data_Cu4Ni6C7
_symmetry_space_group_name_H-M   'P 1'
_cell_length_a   5.82992381
_cell_length_b   7.54238422
_cell_length_c   8.39176530
_cell_angle_alpha   93.86912929
_cell_angle_beta   98.64564997
_cell_angle_gamma   111.54358909
_symmetry_Int_Tables_number   1
_chemical_formula_structural   Cu4Ni6C7
_chemical_formula_sum   'Cu4 Ni6 C7'
_cell_volume   336.28677055
_cell_formula_units_Z   1
loop_
 _symmetry_equiv_pos_site_id
 _symmetry_equiv_pos_as_xyz
  1  'x, y, z'
loop_
 _atom_site_type_symbol
 _atom_site_label
 _atom_site_symmetry_multiplicity
 _atom_site_fract_x
 _atom_site_fract_y
 _atom_site_fract_z
 _atom_site_occupancy
  C  C0  1  0.64157600  0.49059100  0.47878700  1
  C  C1  1  0.24911200  0.01468700  0.11874100  1
  C  C2  1  0.73440400  0.99554600  0.87968000  1
  C  C3  1  0.25029000  0.29054700  0.81780200  1
  C  C4  1  0.19374700  0.76979900  0.40836200  1
  C  C5  1  0.73101400  0.71853900  0.17893800  1
  C  C6  1  0.80410300  0.21815800  0.58035400  1
  Ni  Ni7  1  0.88448600  0.66866500  0.33836300  1
  Ni  Ni8  1  0.65712100  0.09210700  0.70470100  1
  Ni  Ni9  1  0.32546000  0.91062500  0.29157800  1
  Ni  Ni10  1  0.90020100  0.87930600  0.09076900  1
  Ni  Ni11  1  0.10361500  0.33433800  0.65948000  1
  Ni  Ni12  1  0.08713600  0.13326900  0.91194000  1
  Cu  Cu13  1  0.72129300  0.69495200  0.71822400  1
  Cu  Cu14  1  0.67168300  0.21914400  0.07398700  1
  Cu  Cu15  1  0.26992500  0.30307200  0.29684900  1
  Cu  Cu16  1  0.31650200  0.79165500  0.92644400  1
