# generated using pymatgen
data_CuNiC9
_symmetry_space_group_name_H-M   'P 1'
_cell_length_a   6.88623043
_cell_length_b   6.88622947
_cell_length_c   6.33110100
_cell_angle_alpha   62.63271479
_cell_angle_beta   62.63271889
_cell_angle_gamma   51.59270096
_symmetry_Int_Tables_number   1
_chemical_formula_structural   CuNiC9
_chemical_formula_sum   'Cu1 Ni1 C9'
_cell_volume   202.28301666
_cell_formula_units_Z   1
loop_
 _symmetry_equiv_pos_site_id
 _symmetry_equiv_pos_as_xyz
  1  'x, y, z'
loop_
 _atom_site_type_symbol
 _atom_site_label
 _atom_site_symmetry_multiplicity
 _atom_site_fract_x
 _atom_site_fract_y
 _atom_site_fract_z
 _atom_site_occupancy
  C  C0  1  0.81736000  0.81736000  0.68264000  1
  C  C1  1  0.18264000  0.18264000  0.31736000  1
  Ni  Ni2  1  0.50000000  0.50000000  0.00000000  1
  C  C3  1  0.00000000  0.00000000  0.00000000  1
  Cu  Cu4  1  0.50000000  0.50000000  0.50000000  1
  C  C5  1  0.24723200  0.75276800  0.78121300  1
  C  C6  1  0.24723200  0.75276800  0.21878700  1
  C  C7  1  0.75276800  0.24723200  0.78121300  1
  C  C8  1  0.18940200  0.18940200  0.81059800  1
  C  C9  1  0.75276800  0.24723200  0.21878700  1
  C  C10  1  0.81059800  0.81059800  0.18940200  1
