# generated using pymatgen
data_Cu2Ni4C9
_symmetry_space_group_name_H-M   'P 1'
_cell_length_a   6.14888128
_cell_length_b   6.13522337
_cell_length_c   5.81385001
_cell_angle_alpha   61.71815773
_cell_angle_beta   61.78660053
_cell_angle_gamma   64.91620417
_symmetry_Int_Tables_number   1
_chemical_formula_structural   Cu2Ni4C9
_chemical_formula_sum   'Cu2 Ni4 C9'
_cell_volume   164.45093184
_cell_formula_units_Z   1
loop_
 _symmetry_equiv_pos_site_id
 _symmetry_equiv_pos_as_xyz
  1  'x, y, z'
loop_
 _atom_site_type_symbol
 _atom_site_label
 _atom_site_symmetry_multiplicity
 _atom_site_fract_x
 _atom_site_fract_y
 _atom_site_fract_z
 _atom_site_occupancy
  C  C0  1  0.62500000  0.12500000  0.12500000  1
  Ni  Ni1  1  0.13099558  0.08331962  0.89284240  1
  Ni  Ni2  1  0.11900442  0.16668038  0.35715760  1
  Ni  Ni3  1  0.12500000  0.62500000  0.62500000  1
  Ni  Ni4  1  0.62500000  0.12500000  0.62500000  1
  Cu  Cu5  1  0.62500000  0.62500000  0.12500000  1
  Cu  Cu6  1  0.62500000  0.62500000  0.62500000  1
  C  C7  1  0.30790465  0.29062771  0.45784933  1
  C  C8  1  0.42549342  0.83802591  0.36823983  1
  C  C9  1  0.30790465  0.29062771  0.94361932  1
  C  C10  1  0.79299738  0.42244474  0.39227844  1
  C  C11  1  0.45700262  0.82755526  0.85772156  1
  C  C12  1  0.82450658  0.41197409  0.88176017  1
  C  C13  1  0.94209535  0.95937229  0.30638068  1
  C  C14  1  0.94209535  0.95937229  0.79215067  1
