# generated using pymatgen
data_Cu2Ni6C5
_symmetry_space_group_name_H-M   'P 1'
_cell_length_a   3.28904000
_cell_length_b   3.28898038
_cell_length_c   46.26882010
_cell_angle_alpha   89.99348522
_cell_angle_beta   89.99909349
_cell_angle_gamma   119.99998434
_symmetry_Int_Tables_number   1
_chemical_formula_structural   Cu2Ni6C5
_chemical_formula_sum   'Cu2 Ni6 C5'
_cell_volume   433.46053045
_cell_formula_units_Z   1
loop_
 _symmetry_equiv_pos_site_id
 _symmetry_equiv_pos_as_xyz
  1  'x, y, z'
loop_
 _atom_site_type_symbol
 _atom_site_label
 _atom_site_symmetry_multiplicity
 _atom_site_fract_x
 _atom_site_fract_y
 _atom_site_fract_z
 _atom_site_occupancy
  C  C0  1  0.99999600  0.99995900  0.55937500  1
  C  C1  1  0.66671200  0.33339900  0.28201900  1
  C  C2  1  0.33317300  0.66657800  0.09379400  1
  C  C3  1  0.33331100  0.66658200  0.46169200  1
  C  C4  1  0.66679600  0.33341900  0.66533400  1
  Ni  Ni5  1  0.33334500  0.66667700  0.31845600  1
  Ni  Ni6  1  0.33341400  0.66668400  0.70198300  1
  Ni  Ni7  1  0.66653300  0.33342700  0.05717200  1
  Ni  Ni8  1  0.66646200  0.33311000  0.13041300  1
  Ni  Ni9  1  0.33345900  0.66684900  0.24553700  1
  Ni  Ni10  1  0.33353500  0.66684100  0.62845100  1
  Cu  Cu11  1  0.66668400  0.33328700  0.42860700  1
  Cu  Cu12  1  0.66658100  0.33318900  0.49494300  1
