# generated using pymatgen
data_Cu4Ni9C
_symmetry_space_group_name_H-M   'P 1'
_cell_length_a   18.24022500
_cell_length_b   18.24022500
_cell_length_c   11.34687600
_cell_angle_alpha   90.00000000
_cell_angle_beta   90.00000000
_cell_angle_gamma   90.00000000
_symmetry_Int_Tables_number   1
_chemical_formula_structural   Cu4Ni9C
_chemical_formula_sum   'Cu32 Ni72 C8'
_cell_volume   3775.17154843
_cell_formula_units_Z   8
loop_
 _symmetry_equiv_pos_site_id
 _symmetry_equiv_pos_as_xyz
  1  'x, y, z'
loop_
 _atom_site_type_symbol
 _atom_site_label
 _atom_site_symmetry_multiplicity
 _atom_site_fract_x
 _atom_site_fract_y
 _atom_site_fract_z
 _atom_site_occupancy
  C  C0  1  0.14190400  0.78371400  0.08772000  1
  C  C1  1  0.21628600  0.14190400  0.91228000  1
  C  C2  1  0.78371400  0.85809600  0.91228000  1
  C  C3  1  0.85809600  0.21628600  0.08772000  1
  C  C4  1  0.64190400  0.71628600  0.41228000  1
  C  C5  1  0.35809600  0.28371400  0.41228000  1
  C  C6  1  0.28371400  0.64190400  0.58772000  1
  C  C7  1  0.71628600  0.35809600  0.58772000  1
  Ni  Ni8  1  0.20807100  0.79871400  0.23758100  1
  Ni  Ni9  1  0.20128600  0.20807100  0.76241900  1
  Ni  Ni10  1  0.79871400  0.79192900  0.76241900  1
  Ni  Ni11  1  0.79192900  0.20128600  0.23758100  1
  Ni  Ni12  1  0.70807100  0.70128600  0.26241900  1
  Ni  Ni13  1  0.29192900  0.29871400  0.26241900  1
  Ni  Ni14  1  0.29871400  0.70807100  0.73758100  1
  Ni  Ni15  1  0.70128600  0.29192900  0.73758100  1
  Ni  Ni16  1  0.01844400  0.76221900  0.83771100  1
  Ni  Ni17  1  0.23778100  0.01844400  0.16228900  1
  Ni  Ni18  1  0.76221900  0.98155600  0.16228900  1
  Ni  Ni19  1  0.98155600  0.23778100  0.83771100  1
  Ni  Ni20  1  0.51844400  0.73778100  0.66228900  1
  Ni  Ni21  1  0.48155600  0.26221900  0.66228900  1
  Ni  Ni22  1  0.26221900  0.51844400  0.33771100  1
  Ni  Ni23  1  0.73778100  0.48155600  0.33771100  1
  Ni  Ni24  1  0.03791500  0.65594800  0.78213700  1
  Ni  Ni25  1  0.34405200  0.03791500  0.21786300  1
  Ni  Ni26  1  0.65594800  0.96208500  0.21786300  1
  Ni  Ni27  1  0.96208500  0.34405200  0.78213700  1
  Ni  Ni28  1  0.53791500  0.84405200  0.71786300  1
  Ni  Ni29  1  0.46208500  0.15594800  0.71786300  1
  Ni  Ni30  1  0.15594800  0.53791500  0.28213700  1
  Ni  Ni31  1  0.84405200  0.46208500  0.28213700  1
  Ni  Ni32  1  0.94579400  0.61817700  0.69679100  1
  Ni  Ni33  1  0.38182300  0.94579400  0.30320900  1
  Ni  Ni34  1  0.61817700  0.05420600  0.30320900  1
  Ni  Ni35  1  0.05420600  0.38182300  0.69679100  1
  Ni  Ni36  1  0.44579400  0.88182300  0.80320900  1
  Ni  Ni37  1  0.55420600  0.11817700  0.80320900  1
  Ni  Ni38  1  0.11817700  0.44579400  0.19679100  1
  Ni  Ni39  1  0.88182300  0.55420600  0.19679100  1
  Ni  Ni40  1  0.95889600  0.63086700  0.51708800  1
  Ni  Ni41  1  0.36913300  0.95889600  0.48291200  1
  Ni  Ni42  1  0.63086700  0.04110400  0.48291200  1
  Ni  Ni43  1  0.04110400  0.36913300  0.51708800  1
  Ni  Ni44  1  0.45889600  0.86913300  0.98291200  1
  Ni  Ni45  1  0.54110400  0.13086700  0.98291200  1
  Ni  Ni46  1  0.13086700  0.45889600  0.01708800  1
  Ni  Ni47  1  0.86913300  0.54110400  0.01708800  1
  Ni  Ni48  1  0.90794400  0.72624300  0.46429500  1
  Ni  Ni49  1  0.27375700  0.90794400  0.53570500  1
  Ni  Ni50  1  0.72624300  0.09205600  0.53570500  1
  Ni  Ni51  1  0.09205600  0.27375700  0.46429500  1
  Ni  Ni52  1  0.40794400  0.77375700  0.03570500  1
  Ni  Ni53  1  0.59205600  0.22624300  0.03570500  1
  Ni  Ni54  1  0.22624300  0.40794400  0.96429500  1
  Ni  Ni55  1  0.77375700  0.59205600  0.96429500  1
  Ni  Ni56  1  0.98445100  0.80920400  0.45305300  1
  Ni  Ni57  1  0.19079600  0.98445100  0.54694700  1
  Ni  Ni58  1  0.80920400  0.01554900  0.54694700  1
  Ni  Ni59  1  0.01554900  0.19079600  0.45305300  1
  Ni  Ni60  1  0.48445100  0.69079600  0.04694700  1
  Ni  Ni61  1  0.51554900  0.30920400  0.04694700  1
  Ni  Ni62  1  0.30920400  0.48445100  0.95305300  1
  Ni  Ni63  1  0.69079600  0.51554900  0.95305300  1
  Ni  Ni64  1  0.98168100  0.87037500  0.60632700  1
  Ni  Ni65  1  0.12962500  0.98168100  0.39367300  1
  Ni  Ni66  1  0.87037500  0.01831900  0.39367300  1
  Ni  Ni67  1  0.01831900  0.12962500  0.60632700  1
  Ni  Ni68  1  0.48168100  0.62962500  0.89367300  1
  Ni  Ni69  1  0.51831900  0.37037500  0.89367300  1
  Ni  Ni70  1  0.37037500  0.48168100  0.10632700  1
  Ni  Ni71  1  0.62962500  0.51831900  0.10632700  1
  Ni  Ni72  1  0.06327400  0.83527300  0.71814400  1
  Ni  Ni73  1  0.16472700  0.06327400  0.28185600  1
  Ni  Ni74  1  0.83527300  0.93672600  0.28185600  1
  Ni  Ni75  1  0.93672600  0.16472700  0.71814400  1
  Ni  Ni76  1  0.56327400  0.66472700  0.78185600  1
  Ni  Ni77  1  0.43672600  0.33527300  0.78185600  1
  Ni  Ni78  1  0.33527300  0.56327400  0.21814400  1
  Ni  Ni79  1  0.66472700  0.43672600  0.21814400  1
  Cu  Cu80  1  0.06168000  0.88111700  0.09748800  1
  Cu  Cu81  1  0.11888300  0.06168000  0.90251200  1
  Cu  Cu82  1  0.88111700  0.93832000  0.90251200  1
  Cu  Cu83  1  0.93832000  0.11888300  0.09748800  1
  Cu  Cu84  1  0.56168000  0.61888300  0.40251200  1
  Cu  Cu85  1  0.43832000  0.38111700  0.40251200  1
  Cu  Cu86  1  0.38111700  0.56168000  0.59748800  1
  Cu  Cu87  1  0.61888300  0.43832000  0.59748800  1
  Cu  Cu88  1  0.04714700  0.71128400  0.15614400  1
  Cu  Cu89  1  0.28871600  0.04714700  0.84385600  1
  Cu  Cu90  1  0.71128400  0.95285300  0.84385600  1
  Cu  Cu91  1  0.95285300  0.28871600  0.15614400  1
  Cu  Cu92  1  0.54714700  0.78871600  0.34385600  1
  Cu  Cu93  1  0.45285300  0.21128400  0.34385600  1
  Cu  Cu94  1  0.21128400  0.54714700  0.65614400  1
  Cu  Cu95  1  0.78871600  0.45285300  0.65614400  1
  Cu  Cu96  1  0.18898000  0.67895400  0.00276800  1
  Cu  Cu97  1  0.32104600  0.18898000  0.99723200  1
  Cu  Cu98  1  0.67895400  0.81102000  0.99723200  1
  Cu  Cu99  1  0.81102000  0.32104600  0.00276800  1
  Cu  Cu100  1  0.68898000  0.82104600  0.49723200  1
  Cu  Cu101  1  0.31102000  0.17895400  0.49723200  1
  Cu  Cu102  1  0.17895400  0.68898000  0.50276800  1
  Cu  Cu103  1  0.82104600  0.31102000  0.50276800  1
  Cu  Cu104  1  0.20394800  0.84873700  0.94422700  1
  Cu  Cu105  1  0.15126300  0.20394800  0.05577300  1
  Cu  Cu106  1  0.84873700  0.79605200  0.05577300  1
  Cu  Cu107  1  0.79605200  0.15126300  0.94422700  1
  Cu  Cu108  1  0.70394800  0.65126300  0.55577300  1
  Cu  Cu109  1  0.29605200  0.34873700  0.55577300  1
  Cu  Cu110  1  0.34873700  0.70394800  0.44422700  1
  Cu  Cu111  1  0.65126300  0.29605200  0.44422700  1
