# generated using pymatgen
data_CuNiC16
_symmetry_space_group_name_H-M   'P 1'
_cell_length_a   8.86527865
_cell_length_b   8.84672580
_cell_length_c   23.46276217
_cell_angle_alpha   89.72831834
_cell_angle_beta   90.09437255
_cell_angle_gamma   119.83445262
_symmetry_Int_Tables_number   1
_chemical_formula_structural   CuNiC16
_chemical_formula_sum   'Cu6 Ni6 C96'
_cell_volume   1596.25312102
_cell_formula_units_Z   6
loop_
 _symmetry_equiv_pos_site_id
 _symmetry_equiv_pos_as_xyz
  1  'x, y, z'
loop_
 _atom_site_type_symbol
 _atom_site_label
 _atom_site_symmetry_multiplicity
 _atom_site_fract_x
 _atom_site_fract_y
 _atom_site_fract_z
 _atom_site_occupancy
  Ni  Ni0  1  0.98688306  0.98231626  0.50789111  1
  Ni  Ni1  1  0.00050058  0.99919663  0.99780343  1
  Ni  Ni2  1  0.66801350  0.32270614  0.82231054  1
  Ni  Ni3  1  0.64962083  0.32154357  0.33525634  1
  Ni  Ni4  1  0.33070332  0.67861483  0.17370632  1
  Ni  Ni5  1  0.37035212  0.67969672  0.66505049  1
  Cu  Cu6  1  0.98557772  0.00308930  0.84641088  1
  Cu  Cu7  1  0.01009362  0.99603574  0.15168398  1
  Cu  Cu8  1  0.65680471  0.32356196  0.18823151  1
  Cu  Cu9  1  0.66779379  0.33184048  0.98171090  1
  Cu  Cu10  1  0.33336692  0.66826550  0.01856829  1
  Cu  Cu11  1  0.33303087  0.67729268  0.31387587  1
  C  C12  1  0.00995727  0.00133494  0.35002531  1
  C  C13  1  0.97735425  0.98431056  0.64791819  1
  C  C14  1  0.66564280  0.33233693  0.68415664  1
  C  C15  1  0.66598954  0.33947681  0.48589099  1
  C  C16  1  0.34754155  0.66576749  0.52057908  1
  C  C17  1  0.34320374  0.67361772  0.81271529  1
  C  C18  1  0.29589571  0.99801497  0.25027557  1
  C  C19  1  0.70027933  0.00701107  0.74982895  1
  C  C20  1  0.66913965  0.62826124  0.58325548  1
  C  C21  1  0.70545336  0.70530496  0.24919626  1
  C  C22  1  0.00053169  0.29402141  0.24902700  1
  C  C23  1  0.28847901  0.28925846  0.75102977  1
  C  C24  1  0.00090166  0.70691876  0.75265096  1
  C  C25  1  0.96652470  0.33377848  0.58136693  1
  C  C26  1  0.36442851  0.03371933  0.58274864  1
  C  C27  1  0.95787953  0.62441599  0.08230690  1
  C  C28  1  0.66751213  0.04013945  0.08245060  1
  C  C29  1  0.37455981  0.33493525  0.08216467  1
  C  C30  1  0.62784636  0.66501742  0.91974985  1
  C  C31  1  0.04297513  0.37576953  0.91850772  1
  C  C32  1  0.33170796  0.96230676  0.91957423  1
  C  C33  1  0.63304668  0.96736219  0.41478755  1
  C  C34  1  0.33084465  0.37082074  0.41457332  1
  C  C35  1  0.03973983  0.66292200  0.41680953  1
  C  C36  1  0.22135975  0.03808326  0.30714694  1
  C  C37  1  0.80509766  0.78023973  0.30195158  1
  C  C38  1  0.96220319  0.18843667  0.30155574  1
  C  C39  1  0.20029652  0.18349231  0.80339024  1
  C  C40  1  0.99178514  0.80190018  0.80423813  1
  C  C41  1  0.81202530  0.02509127  0.80917874  1
  C  C42  1  0.78779078  0.98242699  0.69396677  1
  C  C43  1  0.19487443  0.20540452  0.69870785  1
  C  C44  1  0.03180433  0.80889737  0.70022983  1
  C  C45  1  0.78860208  0.81792960  0.19844417  1
  C  C46  1  0.01991805  0.20433187  0.19848117  1
  C  C47  1  0.17545684  0.97110274  0.19352996  1
  C  C48  1  0.88175942  0.34791681  0.63317343  1
  C  C49  1  0.47505766  0.11022482  0.63324749  1
  C  C50  1  0.64371715  0.51461712  0.64066890  1
  C  C51  1  0.87791873  0.52083910  0.13380901  1
  C  C52  1  0.64349771  0.12240279  0.13351921  1
  C  C53  1  0.47929602  0.35855928  0.13365545  1
  C  C54  1  0.46037476  0.31318805  0.03105436  1
  C  C55  1  0.85272025  0.53678178  0.03081498  1
  C  C56  1  0.68666026  0.14685005  0.03085805  1
  C  C57  1  0.44445833  0.13009383  0.52850959  1
  C  C58  1  0.69244942  0.55337350  0.52197404  1
  C  C59  1  0.85833559  0.29963041  0.52879021  1
  C  C60  1  0.53829498  0.68652700  0.97020341  1
  C  C61  1  0.15124170  0.46682731  0.96945109  1
  C  C62  1  0.31416554  0.85233128  0.97060067  1
  C  C63  1  0.55435794  0.86679633  0.46704469  1
  C  C64  1  0.31690696  0.45396242  0.46686532  1
  C  C65  1  0.14172103  0.68101042  0.46841918  1
  C  C66  1  0.13275590  0.65625776  0.36453951  1
  C  C67  1  0.52688961  0.87915134  0.36337415  1
  C  C68  1  0.34501602  0.47566094  0.36306483  1
  C  C69  1  0.11900828  0.47949273  0.86630498  1
  C  C70  1  0.35927935  0.88696198  0.86780483  1
  C  C71  1  0.52352747  0.63332684  0.86765103  1
  C  C72  1  0.01342525  0.81727179  0.41398571  1
  C  C73  1  0.80894917  0.98518463  0.40909152  1
  C  C74  1  0.16903463  0.19665139  0.41290380  1
  C  C75  1  0.02889078  0.20178793  0.91562254  1
  C  C76  1  0.17508918  0.98088598  0.91648344  1
  C  C77  1  0.80249682  0.82164065  0.91548840  1
  C  C78  1  0.00302584  0.18792067  0.58494669  1
  C  C79  1  0.19735178  0.03096324  0.58856191  1
  C  C80  1  0.84576795  0.81940381  0.58296479  1
  C  C81  1  0.97314600  0.79994163  0.08542317  1
  C  C82  1  0.82338709  0.02084222  0.08686899  1
  C  C83  1  0.19820954  0.17929351  0.08682071  1
  C  C84  1  0.68576772  0.18350804  0.74739181  1
  C  C85  1  0.46568692  0.31370247  0.75143843  1
  C  C86  1  0.83745014  0.53875717  0.75127179  1
  C  C87  1  0.69251309  0.53273342  0.24112814  1
  C  C88  1  0.85214354  0.32509300  0.24007687  1
  C  C89  1  0.49061140  0.16791051  0.24072118  1
  C  C90  1  0.64765582  0.50850820  0.92821982  1
  C  C91  1  0.86602456  0.35482636  0.92595064  1
  C  C92  1  0.48964936  0.13768700  0.92742405  1
  C  C93  1  0.64895267  0.14336588  0.41829305  1
  C  C94  1  0.48689098  0.34829843  0.41575606  1
  C  C95  1  0.86794763  0.49947303  0.41715975  1
  C  C96  1  0.35706747  0.49354060  0.07539067  1
  C  C97  1  0.13528087  0.64506939  0.07570202  1
  C  C98  1  0.50870576  0.86490328  0.07591433  1
  C  C99  1  0.33341444  0.85275728  0.57799345  1
  C  C100  1  0.49372113  0.64884389  0.58361362  1
  C  C101  1  0.13238006  0.50103797  0.57606698  1
  C  C102  1  0.31501014  0.82377808  0.25512006  1
  C  C103  1  0.52783236  0.68103285  0.25429648  1
  C  C104  1  0.16232555  0.46469795  0.25476010  1
  C  C105  1  0.29564108  0.46147502  0.75529037  1
  C  C106  1  0.14987032  0.67477449  0.75825183  1
  C  C107  1  0.50788291  0.83133557  0.75329818  1
