# generated using pymatgen
data_Cu16Ni2C19
_symmetry_space_group_name_H-M   'P 1'
_cell_length_a   8.42353593
_cell_length_b   8.42353593
_cell_length_c   4.69417527
_cell_angle_alpha   80.78765028
_cell_angle_beta   80.78765028
_cell_angle_gamma   105.76791664
_symmetry_Int_Tables_number   1
_chemical_formula_structural   Cu16Ni2C19
_chemical_formula_sum   'Cu16 Ni2 C19'
_cell_volume   309.05900967
_cell_formula_units_Z   1
loop_
 _symmetry_equiv_pos_site_id
 _symmetry_equiv_pos_as_xyz
  1  'x, y, z'
loop_
 _atom_site_type_symbol
 _atom_site_label
 _atom_site_symmetry_multiplicity
 _atom_site_fract_x
 _atom_site_fract_y
 _atom_site_fract_z
 _atom_site_occupancy
  C  C0  1  0.00000000  0.00000000  0.00000000  1
  C  C1  1  0.61049600  0.38950400  0.00000000  1
  C  C2  1  0.38950400  0.61049600  0.00000000  1
  Ni  Ni3  1  0.31350000  0.31350000  0.61391900  1
  Ni  Ni4  1  0.68650000  0.68650000  0.38608100  1
  Cu  Cu5  1  0.25897200  0.82071200  0.71221700  1
  Cu  Cu6  1  0.17928800  0.74102800  0.28778300  1
  Cu  Cu7  1  0.74102800  0.17928800  0.28778300  1
  Cu  Cu8  1  0.82071200  0.25897200  0.71221700  1
  Cu  Cu9  1  0.43276400  0.82065500  0.51101400  1
  Cu  Cu10  1  0.82065500  0.43276400  0.51101400  1
  Cu  Cu11  1  0.68652200  0.93441400  0.96083600  1
  Cu  Cu12  1  0.06558600  0.31347800  0.03916400  1
  Cu  Cu13  1  0.31347800  0.06558600  0.03916400  1
  Cu  Cu14  1  0.93441400  0.68652200  0.96083600  1
  Cu  Cu15  1  0.79405700  0.95589000  0.64037100  1
  Cu  Cu16  1  0.04411000  0.20594300  0.35962900  1
  Cu  Cu17  1  0.20594300  0.04411000  0.35962900  1
  Cu  Cu18  1  0.95589000  0.79405700  0.64037100  1
  Cu  Cu19  1  0.17934500  0.56723600  0.48898600  1
  Cu  Cu20  1  0.56723600  0.17934500  0.48898600  1
  C  C21  1  0.78746700  0.01339200  0.81123600  1
  C  C22  1  0.81938800  0.37530100  0.71439300  1
  C  C23  1  0.62469900  0.18061200  0.28560700  1
  C  C24  1  0.18061200  0.62469900  0.28560700  1
  C  C25  1  0.37530100  0.81938800  0.71439300  1
  C  C26  1  0.01339200  0.78746700  0.81123600  1
  C  C27  1  0.43854000  0.24541500  0.77174900  1
  C  C28  1  0.75458500  0.56146000  0.22825100  1
  C  C29  1  0.56146000  0.75458500  0.22825100  1
  C  C30  1  0.24541500  0.43854000  0.77174900  1
  C  C31  1  0.60241300  0.60241300  0.71408000  1
  C  C32  1  0.39758700  0.39758700  0.28592000  1
  C  C33  1  0.84208500  0.84208500  0.38102800  1
  C  C34  1  0.15791500  0.15791500  0.61897200  1
  C  C35  1  0.98660800  0.21253300  0.18876400  1
  C  C36  1  0.21253300  0.98660800  0.18876400  1
