# generated using pymatgen
data_CuNi4C3
_symmetry_space_group_name_H-M   'P 1'
_cell_length_a   5.20330500
_cell_length_b   5.35509863
_cell_length_c   7.28399711
_cell_angle_alpha   106.97999773
_cell_angle_beta   108.37660223
_cell_angle_gamma   98.10905652
_symmetry_Int_Tables_number   1
_chemical_formula_structural   CuNi4C3
_chemical_formula_sum   'Cu2 Ni8 C6'
_cell_volume   178.03588415
_cell_formula_units_Z   2
loop_
 _symmetry_equiv_pos_site_id
 _symmetry_equiv_pos_as_xyz
  1  'x, y, z'
loop_
 _atom_site_type_symbol
 _atom_site_label
 _atom_site_symmetry_multiplicity
 _atom_site_fract_x
 _atom_site_fract_y
 _atom_site_fract_z
 _atom_site_occupancy
  C  C0  1  0.27182100  0.61549200  0.18953700  1
  C  C1  1  0.72817900  0.38450800  0.81046300  1
  C  C2  1  0.00000000  0.00000000  0.00000000  1
  C  C3  1  0.00000000  0.00000000  0.50000000  1
  C  C4  1  0.32224600  0.64259800  0.76128400  1
  C  C5  1  0.67775400  0.35740200  0.23871600  1
  Ni  Ni6  1  0.30727500  0.34021100  0.65735300  1
  Ni  Ni7  1  0.69272500  0.65978900  0.34264700  1
  Ni  Ni8  1  0.36915600  0.24548300  0.08267600  1
  Ni  Ni9  1  0.74574200  0.21280000  0.39416000  1
  Ni  Ni10  1  0.63084400  0.75451700  0.91732400  1
  Ni  Ni11  1  0.25425800  0.78720000  0.60584000  1
  Ni  Ni12  1  0.12275200  0.66608100  0.88596100  1
  Ni  Ni13  1  0.87724800  0.33391900  0.11403900  1
  Cu  Cu14  1  0.12595800  0.93227500  0.26316900  1
  Cu  Cu15  1  0.87404200  0.06772500  0.73683100  1
