# generated using pymatgen
data_CuNiC33
_symmetry_space_group_name_H-M   'P 1'
_cell_length_a   17.13501008
_cell_length_b   8.58844823
_cell_length_c   22.48068085
_cell_angle_alpha   90.04604936
_cell_angle_beta   89.27816091
_cell_angle_gamma   120.08105025
_symmetry_Int_Tables_number   1
_chemical_formula_structural   CuNiC33
_chemical_formula_sum   'Cu6 Ni6 C198'
_cell_volume   2862.46778585
_cell_formula_units_Z   6
loop_
 _symmetry_equiv_pos_site_id
 _symmetry_equiv_pos_as_xyz
  1  'x, y, z'
loop_
 _atom_site_type_symbol
 _atom_site_label
 _atom_site_symmetry_multiplicity
 _atom_site_fract_x
 _atom_site_fract_y
 _atom_site_fract_z
 _atom_site_occupancy
  Ni  Ni0  1  0.00104512  0.98918348  0.49695565  1
  Ni  Ni1  1  0.49965665  0.01338255  0.99947846  1
  Ni  Ni2  1  0.33161304  0.32627379  0.83629304  1
  Ni  Ni3  1  0.83456825  0.33475625  0.83285098  1
  Ni  Ni4  1  0.32227258  0.31714265  0.32895838  1
  Ni  Ni5  1  0.83364987  0.34026347  0.33457717  1
  Cu  Cu6  1  0.00471680  0.99277601  0.35221451  1
  Cu  Cu7  1  0.50000166  0.01094779  0.85449583  1
  Cu  Cu8  1  0.99862651  0.01048765  0.65228962  1
  Cu  Cu9  1  0.49859424  0.98813231  0.15222108  1
  Cu  Cu10  1  0.84048853  0.33736638  0.97983884  1
  Cu  Cu11  1  0.33977039  0.34111795  0.47770802  1
  C  C12  1  0.15435161  0.00559008  0.24932577  1
  C  C13  1  0.64993535  0.99117334  0.25075649  1
  C  C14  1  0.15046846  0.30888415  0.75095798  1
  C  C15  1  0.69009580  0.03893056  0.58060298  1
  C  C16  1  0.18902665  0.34143572  0.07931519  1
  C  C17  1  0.52114944  0.38840436  0.92316495  1
  C  C18  1  0.16479180  0.93617320  0.91719998  1
  C  C19  1  0.66284856  0.39072116  0.41683214  1
  C  C20  1  0.01890367  0.65377608  0.42259196  1
  C  C21  1  0.51635392  0.02941584  0.35356865  1
  C  C22  1  0.01824374  0.00665333  0.85625998  1
  C  C23  1  0.50758977  0.00263306  0.64520315  1
  C  C24  1  0.01812010  0.01208379  0.14789651  1
  C  C25  1  0.32283930  0.32535516  0.68367616  1
  C  C26  1  0.83098270  0.31938475  0.67651987  1
  C  C27  1  0.32328572  0.34633686  0.18153093  1
  C  C28  1  0.82535408  0.31956871  0.18551630  1
  C  C29  1  0.32257430  0.30941370  0.97528698  1
  C  C30  1  0.82095693  0.33269226  0.47385763  1
  C  C31  1  0.16429965  0.67129018  0.02516002  1
  C  C32  1  0.66576169  0.66121673  0.02449539  1
  C  C33  1  0.16938868  0.67776878  0.51740598  1
  C  C34  1  0.66159216  0.66542087  0.51978726  1
  C  C35  1  0.15210657  0.66595520  0.31149734  1
  C  C36  1  0.67232588  0.66737836  0.31207274  1
  C  C37  1  0.17017490  0.66969093  0.81502496  1
  C  C38  1  0.65738634  0.65795482  0.81660259  1
  C  C39  1  0.34636181  0.69844908  0.25642580  1
  C  C40  1  0.85159262  0.69979824  0.24413832  1
  C  C41  1  0.99850188  0.29691751  0.24575573  1
  C  C42  1  0.50055780  0.30294928  0.25421733  1
  C  C43  1  0.65443900  0.30681004  0.74624978  1
  C  C44  1  0.99807642  0.69420000  0.75325224  1
  C  C45  1  0.50023177  0.69813139  0.74620915  1
  C  C46  1  0.35268976  0.00442057  0.74385192  1
  C  C47  1  0.84331859  0.99435484  0.75571949  1
  C  C48  1  0.48092730  0.33037448  0.58843810  1
  C  C49  1  0.97880766  0.34600092  0.57875324  1
  C  C50  1  0.18846798  0.02657066  0.58225802  1
  C  C51  1  0.33325169  0.63675462  0.58689013  1
  C  C52  1  0.82786571  0.61288156  0.57914171  1
  C  C53  1  0.47607566  0.60835207  0.08008291  1
  C  C54  1  0.98054456  0.63234119  0.08772596  1
  C  C55  1  0.32904713  0.04437172  0.07862490  1
  C  C56  1  0.83436883  0.02767272  0.08686043  1
  C  C57  1  0.68865442  0.34811918  0.08254636  1
  C  C58  1  0.30541145  0.65772499  0.92105235  1
  C  C59  1  0.81313426  0.68334390  0.91126480  1
  C  C60  1  0.02661661  0.37081016  0.91261458  1
  C  C61  1  0.66751062  0.94326940  0.91837135  1
  C  C62  1  0.31332197  0.94180017  0.41126169  1
  C  C63  1  0.80655873  0.95412933  0.42084990  1
  C  C64  1  0.16642186  0.39513710  0.41684340  1
  C  C65  1  0.52785514  0.68314884  0.41220924  1
  C  C66  1  0.13069587  0.07198708  0.30872279  1
  C  C67  1  0.60563707  0.04553101  0.30865240  1
  C  C68  1  0.40813481  0.78469135  0.30712323  1
  C  C69  1  0.90064961  0.75903702  0.29934031  1
  C  C70  1  0.47826777  0.17561660  0.30742065  1
  C  C71  1  0.97390572  0.18942700  0.29969109  1
  C  C72  1  0.10523351  0.16550121  0.80902126  1
  C  C73  1  0.62333685  0.19776709  0.80014245  1
  C  C74  1  0.47955586  0.76413396  0.80008234  1
  C  C75  1  0.97591103  0.77520938  0.80642443  1
  C  C76  1  0.40422543  0.04594379  0.79822917  1
  C  C77  1  0.90255485  0.02908296  0.80688120  1
  C  C78  1  0.39931682  0.97055298  0.69241884  1
  C  C79  1  0.87297684  0.95293166  0.70047681  1
  C  C80  1  0.09643687  0.24836109  0.69177780  1
  C  C81  1  0.59350616  0.22116348  0.69453624  1
  C  C82  1  0.01473512  0.79730997  0.69911593  1
  C  C83  1  0.51718707  0.81972234  0.69317782  1
  C  C84  1  0.37514489  0.80075722  0.20133053  1
  C  C85  1  0.89526787  0.82185133  0.19277240  1
  C  C86  1  0.01221742  0.20918496  0.19220551  1
  C  C87  1  0.51835343  0.23177750  0.20039724  1
  C  C88  1  0.08459044  0.96026978  0.19308989  1
  C  C89  1  0.59650543  0.94301293  0.19118522  1
  C  C90  1  0.43449047  0.36485568  0.64029754  1
  C  C91  1  0.94195891  0.37688284  0.63905850  1
  C  C92  1  0.24391084  0.11520182  0.63802314  1
  C  C93  1  0.75281391  0.11959528  0.64086630  1
  C  C94  1  0.31503297  0.51586267  0.64077404  1
  C  C95  1  0.81580401  0.50289353  0.63561805  1
  C  C96  1  0.43814881  0.50300461  0.13809437  1
  C  C97  1  0.93515260  0.50550150  0.13932760  1
  C  C98  1  0.31860019  0.13109463  0.13248978  1
  C  C99  1  0.81302404  0.11257439  0.13935569  1
  C  C100  1  0.25362856  0.39399455  0.13797986  1
  C  C101  1  0.74453254  0.36951019  0.13690757  1
  C  C102  1  0.23532242  0.29896058  0.02252306  1
  C  C103  1  0.72808961  0.32292834  0.02855606  1
  C  C104  1  0.42151725  0.51249911  0.02838694  1
  C  C105  1  0.93143295  0.56651328  0.03293920  1
  C  C106  1  0.34514548  0.15273741  0.02291989  1
  C  C107  1  0.85440000  0.13528265  0.03305133  1
  C  C108  1  0.22940181  0.13718214  0.52990575  1
  C  C109  1  0.73629526  0.17440244  0.52459587  1
  C  C110  1  0.35571722  0.56994658  0.53423157  1
  C  C111  1  0.84531602  0.53250383  0.52575740  1
  C  C112  1  0.42962568  0.28906185  0.53447585  1
  C  C113  1  0.92013809  0.32837127  0.52976568  1
  C  C114  1  0.26085520  0.68342480  0.97393830  1
  C  C115  1  0.77642130  0.71181775  0.96793872  1
  C  C116  1  0.07428729  0.44338317  0.96887028  1
  C  C117  1  0.59232795  0.48795268  0.97809496  1
  C  C118  1  0.14522338  0.80954210  0.97610992  1
  C  C119  1  0.66496012  0.84683904  0.97458208  1
  C  C120  1  0.27808632  0.84283898  0.47032427  1
  C  C121  1  0.76310040  0.84062219  0.47505147  1
  C  C122  1  0.16413315  0.48283842  0.47624653  1
  C  C123  1  0.64475203  0.47796115  0.47712203  1
  C  C124  1  0.08931257  0.70287167  0.47903744  1
  C  C125  1  0.57546967  0.70723632  0.46993959  1
  C  C126  1  0.05994629  0.61758162  0.35995550  1
  C  C127  1  0.57549010  0.65783634  0.36125110  1
  C  C128  1  0.25220585  0.85080355  0.36113522  1
  C  C129  1  0.75661851  0.87487260  0.36540164  1
  C  C130  1  0.17535829  0.50108736  0.36265895  1
  C  C131  1  0.68733494  0.51739828  0.35721540  1
  C  C132  1  0.07261238  0.48776853  0.86037905  1
  C  C133  1  0.56191229  0.50031881  0.85785446  1
  C  C134  1  0.18735122  0.85860845  0.85605169  1
  C  C135  1  0.67825505  0.86073920  0.86181807  1
  C  C136  1  0.25695229  0.63767280  0.86466976  1
  C  C137  1  0.75175278  0.64702001  0.85880150  1
  C  C138  1  0.00488016  0.82190675  0.42314408  1
  C  C139  1  0.51990573  0.84722388  0.40637749  1
  C  C140  1  0.40132685  0.94831150  0.40372903  1
  C  C141  1  0.89716476  0.98187693  0.41916445  1
  C  C142  1  0.08235211  0.22408868  0.41895223  1
  C  C143  1  0.57120613  0.19662418  0.40838340  1
  C  C144  1  0.01822808  0.18942162  0.90625441  1
  C  C145  1  0.51038756  0.19431627  0.92242073  1
  C  C146  1  0.07184142  0.94389330  0.90933433  1
  C  C147  1  0.58358626  0.94619301  0.91750439  1
  C  C148  1  0.39625601  0.81290975  0.91900386  1
  C  C149  1  0.90061940  0.85299999  0.90179390  1
  C  C150  1  0.49152090  0.17060137  0.60089866  1
  C  C151  1  0.98445772  0.18192159  0.58123127  1
  C  C152  1  0.09677552  0.98948045  0.58920118  1
  C  C153  1  0.59131349  0.02135094  0.59528680  1
  C  C154  1  0.41152007  0.81930975  0.59935425  1
  C  C155  1  0.90628191  0.79199578  0.58442448  1
  C  C156  1  0.48452258  0.78575240  0.08070021  1
  C  C157  1  0.98722665  0.80985418  0.09745051  1
  C  C158  1  0.40565482  0.01493991  0.08159939  1
  C  C159  1  0.90939852  0.99847992  0.10033030  1
  C  C160  1  0.08970022  0.16425621  0.09232220  1
  C  C161  1  0.59647845  0.20236836  0.08846143  1
  C  C162  1  0.34466178  0.16888500  0.73286505  1
  C  C163  1  0.83527568  0.16300963  0.74823219  1
  C  C164  1  0.25214118  0.32220016  0.74340361  1
  C  C165  1  0.74732440  0.33378612  0.73415345  1
  C  C166  1  0.42357442  0.51449627  0.73431504  1
  C  C167  1  0.91557028  0.50872048  0.74677100  1
  C  C168  1  0.34438859  0.51896599  0.24756797  1
  C  C169  1  0.84220615  0.51651203  0.23377265  1
  C  C170  1  0.42259846  0.32917088  0.24897252  1
  C  C171  1  0.92280685  0.33450225  0.23420163  1
  C  C172  1  0.25610126  0.17644836  0.23224342  1
  C  C173  1  0.75134001  0.18072972  0.24340202  1
  C  C174  1  0.30840987  0.48747134  0.92432360  1
  C  C175  1  0.82405559  0.52476697  0.91333692  1
  C  C176  1  0.42318367  0.38276939  0.92770470  1
  C  C177  1  0.93650155  0.35037803  0.91159837  1
  C  C178  1  0.25289061  0.13767798  0.92194154  1
  C  C179  1  0.74778683  0.12242992  0.91674880  1
  C  C180  1  0.32421905  0.12170307  0.41461756  1
  C  C181  1  0.80719237  0.12809971  0.42505940  1
  C  C182  1  0.24729377  0.37828387  0.41695425  1
  C  C183  1  0.75117080  0.36608641  0.42236995  1
  C  C184  1  0.43862416  0.52258467  0.41267290  1
  C  C185  1  0.92160731  0.46078841  0.42837434  1
  C  C186  1  0.17440574  0.51367353  0.06878660  1
  C  C187  1  0.69157235  0.52784819  0.08034255  1
  C  C188  1  0.07154367  0.65029444  0.08332506  1
  C  C189  1  0.56930006  0.62978698  0.07782872  1
  C  C190  1  0.24308280  0.86807569  0.07441476  1
  C  C191  1  0.74809522  0.84835322  0.07895484  1
  C  C192  1  0.19205696  0.85442372  0.57890318  1
  C  C193  1  0.67344552  0.83599359  0.56967724  1
  C  C194  1  0.25044048  0.64970912  0.57948222  1
  C  C195  1  0.74323045  0.61804970  0.57527019  1
  C  C196  1  0.07040201  0.50867798  0.57608220  1
  C  C197  1  0.57081293  0.49453199  0.58347250  1
  C  C198  1  0.16112202  0.82171291  0.25709466  1
  C  C199  1  0.67054739  0.83149269  0.26866107  1
  C  C200  1  0.25287808  0.65597188  0.26948466  1
  C  C201  1  0.75901270  0.67360724  0.25006831  1
  C  C202  1  0.08337526  0.47336206  0.25190800  1
  C  C203  1  0.58258276  0.48033186  0.26537901  1
  C  C204  1  0.17077061  0.51044618  0.76811214  1
  C  C205  1  0.66284926  0.48756663  0.75431411  1
  C  C206  1  0.07729484  0.67358264  0.76515954  1
  C  C207  1  0.58469193  0.68726766  0.75202663  1
  C  C208  1  0.26193026  0.84552054  0.74918929  1
  C  C209  1  0.74927039  0.83532125  0.76630386  1
