# generated using pymatgen
data_Cu5(Ni6C23)2
_symmetry_space_group_name_H-M   'P 1'
_cell_length_a   9.53756690
_cell_length_b   9.50376624
_cell_length_c   22.95001496
_cell_angle_alpha   89.69488266
_cell_angle_beta   89.95122786
_cell_angle_gamma   120.02898437
_symmetry_Int_Tables_number   1
_chemical_formula_structural   Cu5(Ni6C23)2
_chemical_formula_sum   'Cu10 Ni24 C92'
_cell_volume   1800.98580936
_cell_formula_units_Z   2
loop_
 _symmetry_equiv_pos_site_id
 _symmetry_equiv_pos_as_xyz
  1  'x, y, z'
loop_
 _atom_site_type_symbol
 _atom_site_label
 _atom_site_symmetry_multiplicity
 _atom_site_fract_x
 _atom_site_fract_y
 _atom_site_fract_z
 _atom_site_occupancy
  Ni  Ni0  1  0.64549601  0.00246949  0.24655849  1
  Ni  Ni1  1  0.37560194  0.34264963  0.25856193  1
  Ni  Ni2  1  0.99579855  0.65889937  0.25195501  1
  Ni  Ni3  1  0.64801221  0.63962073  0.75528538  1
  Ni  Ni4  1  0.97830024  0.33688253  0.75584412  1
  Ni  Ni5  1  0.36291411  0.02639655  0.75765746  1
  Ni  Ni6  1  0.28925501  0.32920548  0.59185947  1
  Ni  Ni7  1  0.03232055  0.70786556  0.60032786  1
  Ni  Ni8  1  0.67136624  0.96082553  0.59284220  1
  Ni  Ni9  1  0.29381805  0.95919013  0.07534522  1
  Ni  Ni10  1  0.67028639  0.70648671  0.08761271  1
  Ni  Ni11  1  0.03571246  0.33200834  0.06823717  1
  Ni  Ni12  1  0.98405631  0.67719238  0.89968588  1
  Ni  Ni13  1  0.71765865  0.05565129  0.89641259  1
  Ni  Ni14  1  0.30825073  0.27075017  0.89999340  1
  Ni  Ni15  1  0.97092811  0.28201855  0.41957999  1
  Ni  Ni16  1  0.33931521  0.05880359  0.40494531  1
  Ni  Ni17  1  0.69356179  0.67734783  0.41043129  1
  Ni  Ni18  1  0.00035947  0.01764316  0.49264133  1
  Ni  Ni19  1  0.01302302  0.01159417  0.98181108  1
  Ni  Ni20  1  0.66801094  0.32298487  0.82434733  1
  Ni  Ni21  1  0.63925491  0.32141706  0.33261851  1
  Ni  Ni22  1  0.33781955  0.68021573  0.17024075  1
  Ni  Ni23  1  0.34042720  0.66508301  0.68013606  1
  Cu  Cu24  1  0.00261071  0.99900617  0.34662097  1
  Cu  Cu25  1  0.00247851  0.00110480  0.84374238  1
  Cu  Cu26  1  0.99978663  0.00652312  0.66819873  1
  Cu  Cu27  1  0.00121533  0.98739413  0.15945227  1
  Cu  Cu28  1  0.66436537  0.33143685  0.68553030  1
  Cu  Cu29  1  0.66054690  0.32939352  0.18420455  1
  Cu  Cu30  1  0.66723412  0.32482631  0.97378933  1
  Cu  Cu31  1  0.65727328  0.32967708  0.47719467  1
  Cu  Cu32  1  0.32818831  0.66726035  0.00915814  1
  Cu  Cu33  1  0.34144900  0.66736988  0.51423242  1
  C  C34  1  0.35631507  0.67780987  0.31910301  1
  C  C35  1  0.31780535  0.66719201  0.81650903  1
  C  C36  1  0.30818056  0.98947579  0.25129737  1
  C  C37  1  0.68922271  0.69016293  0.25123278  1
  C  C38  1  0.30956466  0.32045968  0.75036037  1
  C  C39  1  -0.00032905  0.69074200  0.75017019  1
  C  C40  1  0.68056140  0.98869027  0.75097402  1
  C  C41  1  0.03524328  0.36719683  0.91975213  1
  C  C42  1  0.33276236  0.96565058  0.92015699  1
  C  C43  1  0.64082292  0.97459640  0.41990621  1
  C  C44  1  0.32877453  0.36755856  0.41890405  1
  C  C45  1  0.01013296  0.31490134  0.24962816  1
  C  C46  1  0.96757689  0.33201729  0.58013974  1
  C  C47  1  0.35668462  0.02880097  0.58114640  1
  C  C48  1  0.67254739  0.64011958  0.58079246  1
  C  C49  1  0.96773812  0.63433762  0.08496777  1
  C  C50  1  0.67268378  0.02959199  0.08494535  1
  C  C51  1  0.36255690  0.33574779  0.08516017  1
  C  C52  1  0.62895074  0.66740634  0.91835721  1
  C  C53  1  0.04196616  0.66507001  0.41578400  1
  C  C54  1  0.22911831  0.02963361  0.30658656  1
  C  C55  1  0.79961159  0.77721852  0.30726569  1
  C  C56  1  0.98526684  0.21429869  0.30201411  1
  C  C57  1  0.22412944  0.19455979  0.80391366  1
  C  C58  1  0.96650540  0.77232351  0.80573115  1
  C  C59  1  0.80268917  0.02416126  0.80471031  1
  C  C60  1  0.74424975  0.94458509  0.69086443  1
  C  C61  1  0.19935688  0.25988036  0.69073312  1
  C  C62  1  0.04599998  0.80349386  0.69156733  1
  C  C63  1  0.75203109  0.80148575  0.19218692  1
  C  C64  1  0.03385864  0.23802699  0.19736634  1
  C  C65  1  0.19796772  0.94714978  0.19235713  1
  C  C66  1  0.87806153  0.33676210  0.63186343  1
  C  C67  1  0.45458891  0.11247542  0.63282301  1
  C  C68  1  0.66497579  0.54354682  0.63239815  1
  C  C69  1  0.88678421  0.54396195  0.13935192  1
  C  C70  1  0.65935955  0.10804555  0.13896542  1
  C  C71  1  0.45303971  0.34270940  0.13885916  1
  C  C72  1  0.44671936  0.32263339  0.03317531  1
  C  C73  1  0.87096717  0.54683760  0.03365199  1
  C  C74  1  0.68056949  0.12702509  0.03355325  1
  C  C75  1  0.44138986  0.12060391  0.52730111  1
  C  C76  1  0.67920583  0.55734298  0.52671347  1
  C  C77  1  0.87790080  0.32524040  0.52591507  1
  C  C78  1  0.55922815  0.68220800  0.97448100  1
  C  C79  1  0.12781396  0.43896453  0.98110755  1
  C  C80  1  0.32691685  0.88405368  0.98326285  1
  C  C81  1  0.55287677  0.87311158  0.47740742  1
  C  C82  1  0.30568220  0.44198225  0.47836596  1
  C  C83  1  0.13166605  0.68022930  0.46953363  1
  C  C84  1  0.13474637  0.65660369  0.36347692  1
  C  C85  1  0.51423693  0.84929296  0.36234283  1
  C  C86  1  0.32760357  0.49285261  0.36349520  1
  C  C87  1  0.16265462  0.49374364  0.86715945  1
  C  C88  1  0.33281929  0.83866276  0.86784609  1
  C  C89  1  0.52522184  0.65806118  0.86850873  1
  C  C90  1  0.02114329  0.80933619  0.41096043  1
  C  C91  1  0.81742878  0.99025434  0.41315154  1
  C  C92  1  0.17512044  0.18525409  0.41143236  1
  C  C93  1  0.00478699  0.18392600  0.91299477  1
  C  C94  1  0.16851648  0.97687744  0.91397647  1
  C  C95  1  0.79434717  0.81208609  0.91351239  1
  C  C96  1  0.98502739  0.18363382  0.58125459  1
  C  C97  1  0.19436106  0.01767136  0.58291939  1
  C  C98  1  0.82073109  0.80542331  0.58171522  1
  C  C99  1  0.98295940  0.79977107  0.08551475  1
  C  C100  1  0.82446142  0.01876497  0.08580450  1
  C  C101  1  0.19474275  0.19045065  0.08749461  1
  C  C102  1  0.64251724  0.13742197  0.74601699  1
  C  C103  1  0.49517950  0.35724598  0.74451854  1
  C  C104  1  0.85988692  0.50191803  0.74472389  1
  C  C105  1  0.65637796  0.50503404  0.24717450  1
  C  C106  1  0.86828518  0.33852356  0.24362869  1
  C  C107  1  0.49748649  0.13460538  0.24633987  1
  C  C108  1  0.63943759  0.51641592  0.91816329  1
  C  C109  1  0.86855596  0.37576521  0.91181462  1
  C  C110  1  0.49926313  0.14124852  0.90959504  1
  C  C111  1  0.64293333  0.14552731  0.40958059  1
  C  C112  1  0.50365654  0.37533916  0.40967383  1
  C  C113  1  0.88140941  0.51361509  0.41519098  1
  C  C114  1  0.35214098  0.48838374  0.08432278  1
  C  C115  1  0.13341671  0.65271814  0.08418571  1
  C  C116  1  0.52781192  0.86097687  0.08388282  1
  C  C117  1  0.33340554  0.86032570  0.58074588  1
  C  C118  1  0.52343584  0.65592733  0.58214532  1
  C  C119  1  0.13108122  0.48276350  0.58108100  1
  C  C120  1  0.31129556  0.81250424  0.26326903  1
  C  C121  1  0.49822803  0.66848767  0.26162847  1
  C  C122  1  0.15954254  0.48112445  0.25528942  1
  C  C123  1  0.32573063  0.50168903  0.76506262  1
  C  C124  1  0.17199694  0.67908090  0.76219069  1
  C  C125  1  0.50102783  0.82141910  0.76584709  1
