# generated using pymatgen
data_CuNiC11
_symmetry_space_group_name_H-M   'P 1'
_cell_length_a   18.14733940
_cell_length_b   9.07189328
_cell_length_c   22.90992525
_cell_angle_alpha   90.18881692
_cell_angle_beta   89.69368431
_cell_angle_gamma   119.91231280
_symmetry_Int_Tables_number   1
_chemical_formula_structural   CuNiC11
_chemical_formula_sum   'Cu18 Ni18 C198'
_cell_volume   3269.20338467
_cell_formula_units_Z   18
loop_
 _symmetry_equiv_pos_site_id
 _symmetry_equiv_pos_as_xyz
  1  'x, y, z'
loop_
 _atom_site_type_symbol
 _atom_site_label
 _atom_site_symmetry_multiplicity
 _atom_site_fract_x
 _atom_site_fract_y
 _atom_site_fract_z
 _atom_site_occupancy
  C  C0  1  0.31899978  0.00555051  0.24993215  1
  C  C1  1  0.82128051  0.00152213  0.25172015  1
  C  C2  1  0.18467435  0.36302293  0.25052311  1
  C  C3  1  0.68623432  0.37697582  0.24303734  1
  C  C4  1  0.99599583  0.62800397  0.24754749  1
  C  C5  1  0.49579938  0.62081337  0.25175224  1
  C  C6  1  0.31363446  0.62449175  0.74891600  1
  C  C7  1  0.80933506  0.62325506  0.74960741  1
  C  C8  1  0.99728499  0.35434271  0.74869873  1
  C  C9  1  0.68610256  0.00993781  0.75393915  1
  C  C10  1  0.16108678  0.34386354  0.58218890  1
  C  C11  1  0.01263835  0.69286071  0.58233289  1
  C  C12  1  0.33146438  0.96453697  0.58496233  1
  C  C13  1  0.83059313  0.96481292  0.58010507  1
  C  C14  1  0.83109034  0.68307073  0.07684787  1
  C  C15  1  0.16958362  0.30641404  0.91162832  1
  C  C16  1  0.67171496  0.31098391  0.91679604  1
  C  C17  1  0.35660066  0.66588961  0.41740596  1
  C  C18  1  0.99929040  0.99591030  0.49455754  1
  C  C19  1  0.50761684  0.98992706  0.49881636  1
  C  C20  1  0.99210615  0.97925697  0.99673180  1
  C  C21  1  0.49377318  0.97716307  0.99844431  1
  C  C22  1  0.33283679  0.32889362  0.83411258  1
  C  C23  1  0.83088471  0.33218431  0.83650524  1
  C  C24  1  0.33991571  0.33400760  0.33309432  1
  C  C25  1  0.83897989  0.34167015  0.33318211  1
  C  C26  1  0.16035036  0.66342697  0.16349304  1
  C  C27  1  0.65629731  0.64615566  0.16053488  1
  C  C28  1  0.16769403  0.67004824  0.66440119  1
  C  C29  1  0.66262947  0.63824027  0.66773914  1
  C  C30  1  0.99842779  0.99867429  0.34771558  1
  C  C31  1  0.49853155  0.99387714  0.35210231  1
  C  C32  1  0.99364736  0.99858226  0.85178709  1
  C  C33  1  0.49898310  0.99530566  0.85316342  1
  C  C34  1  0.50420744  0.00680331  0.64813708  1
  C  C35  1  0.32383443  0.32694542  0.68254671  1
  C  C36  1  0.83012008  0.33804872  0.68399096  1
  C  C37  1  0.34002561  0.34407475  0.18653340  1
  C  C38  1  0.84081645  0.35377547  0.18060685  1
  C  C39  1  0.34177064  0.36214102  0.98264886  1
  C  C40  1  0.83333304  0.35421299  0.98488357  1
  C  C41  1  0.33628613  0.34616185  0.48362537  1
  C  C42  1  0.83907066  0.34523533  0.48466249  1
  C  C43  1  0.16949116  0.67245065  0.01800705  1
  C  C44  1  0.66627062  0.66152675  0.02108838  1
  C  C45  1  0.16704910  0.66529909  0.52214814  1
  C  C46  1  0.66147694  0.66237023  0.51504633  1
  C  C47  1  0.16435891  0.66413526  0.30849328  1
  C  C48  1  0.66007120  0.65306719  0.31619835  1
  C  C49  1  0.17104647  0.66169268  0.81728301  1
  C  C50  1  0.67178840  0.65756017  0.81447813  1
  C  C51  1  0.99916588  0.00982470  0.64536998  1
  C  C52  1  0.00090010  0.99193206  0.15130080  1
  C  C53  1  0.49611908  0.00244633  0.14303673  1
  Ni  Ni54  1  0.14761663  0.00346442  0.25223935  1
  Ni  Ni55  1  0.35509838  0.71073008  0.25131962  1
  Ni  Ni56  1  0.85121968  0.70394790  0.25218612  1
  Ni  Ni57  1  0.99627060  0.28677131  0.25014936  1
  Ni  Ni58  1  0.50066468  0.28788935  0.25145070  1
  Ni  Ni59  1  0.14749576  0.29219102  0.75364062  1
  Ni  Ni60  1  0.64461761  0.29066234  0.75165693  1
  Ni  Ni61  1  0.85159329  0.00268196  0.74984615  1
  Ni  Ni62  1  0.97722715  0.33485584  0.58456546  1
  Ni  Ni63  1  0.18828891  0.04200442  0.58203570  1
  Ni  Ni64  1  0.33830182  0.63758984  0.58329343  1
  Ni  Ni65  1  0.82946752  0.62676714  0.58516448  1
  Ni  Ni66  1  0.48346703  0.62986938  0.08573242  1
  Ni  Ni67  1  0.98681822  0.63545052  0.08383637  1
  Ni  Ni68  1  0.68541163  0.33138891  0.08420841  1
  Ni  Ni69  1  0.31586600  0.66959599  0.91674136  1
  Ni  Ni70  1  0.81685941  0.67003797  0.91805553  1
  Ni  Ni71  1  0.51743610  0.66735678  0.41586084  1
  Cu  Cu72  1  0.64450004  0.00016667  0.24899354  1
  Cu  Cu73  1  0.00192305  0.71215786  0.74943256  1
  Cu  Cu74  1  0.49956743  0.70724814  0.74972014  1
  Cu  Cu75  1  0.35457079  0.00305886  0.75022241  1
  Cu  Cu76  1  0.47969763  0.33492645  0.58435166  1
  Cu  Cu77  1  0.68638580  0.04062608  0.58235620  1
  Cu  Cu78  1  0.33219833  0.04156451  0.08335703  1
  Cu  Cu79  1  0.83563931  0.04315233  0.08395342  1
  Cu  Cu80  1  0.18482876  0.33038582  0.08331674  1
  Cu  Cu81  1  0.02006552  0.37543548  0.91683576  1
  Cu  Cu82  1  0.51953331  0.37379558  0.91614597  1
  Cu  Cu83  1  0.16729086  0.95961557  0.91708961  1
  Cu  Cu84  1  0.66696120  0.95863005  0.91563411  1
  Cu  Cu85  1  0.31184847  0.96007705  0.41651475  1
  Cu  Cu86  1  0.81390568  0.96324080  0.41693840  1
  Cu  Cu87  1  0.16491531  0.37078937  0.41668741  1
  Cu  Cu88  1  0.66837159  0.37076307  0.41658021  1
  Cu  Cu89  1  0.01967449  0.66704655  0.41714788  1
  C  C90  1  0.10442963  0.04370888  0.30679754  1
  C  C91  1  0.60689785  0.03035804  0.30164580  1
  C  C92  1  0.41334237  0.78812690  0.30923930  1
  C  C93  1  0.91718456  0.79290878  0.30507368  1
  C  C94  1  0.48691120  0.16737656  0.30680614  1
  C  C95  1  0.97953387  0.16530028  0.30583987  1
  C  C96  1  0.10355152  0.18335904  0.81167835  1
  C  C97  1  0.60148423  0.17159415  0.80957890  1
  C  C98  1  0.48296234  0.78573833  0.80158943  1
  C  C99  1  0.98925508  0.79461150  0.80048292  1
  C  C100  1  0.40667147  0.01794125  0.80143361  1
  C  C101  1  0.91575620  0.03384802  0.80305406  1
  C  C102  1  0.39090291  0.97106296  0.69596991  1
  C  C103  1  0.90106546  0.97263927  0.69170144  1
  C  C104  1  0.08489042  0.18868466  0.69549909  1
  C  C105  1  0.58654530  0.19032103  0.69507457  1
  C  C106  1  0.01243118  0.81096297  0.69487738  1
  C  C107  1  0.51155640  0.81315670  0.69731028  1
  C  C108  1  0.40541676  0.84120166  0.19616446  1
  C  C109  1  0.90122707  0.82889134  0.19308082  1
  C  C110  1  0.01399083  0.19190100  0.19312466  1
  C  C111  1  0.51466332  0.19127162  0.19410564  1
  C  C112  1  0.08226240  0.96780549  0.19466613  1
  C  C113  1  0.59008268  0.97082749  0.19701840  1
  C  C114  1  0.44023495  0.35915504  0.63719444  1
  C  C115  1  0.93897468  0.36867416  0.64381086  1
  C  C116  1  0.24972282  0.12015864  0.63876711  1
  C  C117  1  0.73787968  0.11592274  0.63634622  1
  C  C118  1  0.31833181  0.51498673  0.64097565  1
  C  C119  1  0.81843109  0.52146137  0.64493552  1
  C  C120  1  0.44037211  0.51957660  0.14464710  1
  C  C121  1  0.94596265  0.53356680  0.14514228  1
  C  C122  1  0.32255147  0.11685594  0.13809651  1
  C  C123  1  0.82544633  0.12000723  0.13861761  1
  C  C124  1  0.23503947  0.34956363  0.13636304  1
  C  C125  1  0.74249922  0.35834479  0.14254959  1
  C  C126  1  0.22441512  0.30434200  0.03016582  1
  C  C127  1  0.72415350  0.29668772  0.02463609  1
  C  C128  1  0.42194724  0.54543215  0.02894401  1
  C  C129  1  0.91946286  0.54772788  0.03037718  1
  C  C130  1  0.34345173  0.14625894  0.03200309  1
  C  C131  1  0.84690118  0.14800555  0.03265244  1
  C  C132  1  0.22835125  0.16876702  0.52690640  1
  C  C133  1  0.72812329  0.14786648  0.53102550  1
  C  C134  1  0.34951721  0.54914671  0.52433746  1
  C  C135  1  0.85224402  0.54014512  0.53018118  1
  C  C136  1  0.42577666  0.30507200  0.53208848  1
  C  C137  1  0.91344192  0.28545577  0.52951050  1
  C  C138  1  0.26393264  0.68712217  0.97177269  1
  C  C139  1  0.76884237  0.68841325  0.97595463  1
  C  C140  1  0.07499913  0.46483890  0.96705832  1
  C  C141  1  0.57229483  0.45416116  0.96824654  1
  C  C142  1  0.15522566  0.85484514  0.96920483  1
  C  C143  1  0.65528592  0.85261444  0.96661512  1
  C  C144  1  0.26995984  0.85245106  0.46909906  1
  C  C145  1  0.77180235  0.86073980  0.47027532  1
  C  C146  1  0.15733742  0.45703326  0.47001950  1
  C  C147  1  0.65883085  0.45913700  0.46796872  1
  C  C148  1  0.06945732  0.68094405  0.47029851  1
  C  C149  1  0.57820200  0.68516642  0.47132448  1
  C  C150  1  0.06177349  0.64958674  0.36386626  1
  C  C151  1  0.56329283  0.64821127  0.35583051  1
  C  C152  1  0.26134163  0.87561800  0.36334200  1
  C  C153  1  0.76399824  0.87753370  0.36361893  1
  C  C154  1  0.17532166  0.47673177  0.36410798  1
  C  C155  1  0.68104971  0.47271475  0.36226921  1
  C  C156  1  0.05851801  0.47545612  0.86183067  1
  C  C157  1  0.55805785  0.47849439  0.86340976  1
  C  C158  1  0.17583154  0.87427640  0.86393290  1
  C  C159  1  0.67301744  0.87704580  0.86051227  1
  C  C160  1  0.25686385  0.63555984  0.85667056  1
  C  C161  1  0.75671744  0.63772705  0.85925730  1
  C  C162  1  0.01083061  0.82092377  0.41463939  1
  C  C163  1  0.50522745  0.83646538  0.41497133  1
  C  C164  1  0.39664884  0.97070536  0.41302122  1
  C  C165  1  0.89994483  0.98030301  0.41427943  1
  C  C166  1  0.08835832  0.20080667  0.41368713  1
  C  C167  1  0.59090480  0.20186179  0.41205695  1
  C  C168  1  0.01861262  0.20888203  0.91301377  1
  C  C169  1  0.51515259  0.20458991  0.91014548  1
  C  C170  1  0.09219796  0.98504970  0.91277782  1
  C  C171  1  0.59125179  0.98577298  0.91249643  1
  C  C172  1  0.41031613  0.83641366  0.91042152  1
  C  C173  1  0.91213238  0.83655221  0.91219461  1
  C  C174  1  0.48589627  0.17630468  0.58953303  1
  C  C175  1  0.98918665  0.16256616  0.59056972  1
  C  C176  1  0.09196254  0.01863965  0.59402915  1
  C  C177  1  0.60016623  0.01857263  0.58831354  1
  C  C178  1  0.41688270  0.83294973  0.58997293  1
  C  C179  1  0.92092973  0.81690390  0.59280101  1
  C  C180  1  0.48844131  0.81895846  0.09515893  1
  C  C181  1  0.98884310  0.82534035  0.09040602  1
  C  C182  1  0.41181973  0.02525134  0.08738661  1
  C  C183  1  0.91285005  0.02023708  0.08853540  1
  C  C184  1  0.09808390  0.17495651  0.08863671  1
  C  C185  1  0.58914284  0.16171780  0.09350757  1
  C  C186  1  0.34754761  0.15733497  0.74559877  1
  C  C187  1  0.84484439  0.17382944  0.74247442  1
  C  C188  1  0.24487247  0.32748923  0.74653804  1
  C  C189  1  0.74085922  0.31153858  0.74674030  1
  C  C190  1  0.42390303  0.53542889  0.74354176  1
  C  C191  1  0.92398774  0.53991435  0.74527862  1
  C  C192  1  0.34093446  0.51953958  0.24344184  1
  C  C193  1  0.83873471  0.51320682  0.24564442  1
  C  C194  1  0.41544300  0.30423096  0.24439633  1
  C  C195  1  0.91092201  0.30253428  0.24333336  1
  C  C196  1  0.24025780  0.16625925  0.24036260  1
  C  C197  1  0.73085145  0.15062377  0.24209215  1
  C  C198  1  0.31646174  0.48677432  0.92108925  1
  C  C199  1  0.81858984  0.48772454  0.91988641  1
  C  C200  1  0.43198554  0.34584251  0.92275292  1
  C  C201  1  0.93359506  0.34869159  0.92268849  1
  C  C202  1  0.24469024  0.13141660  0.92240803  1
  C  C203  1  0.74450642  0.13051811  0.91954713  1
  C  C204  1  0.32110737  0.12992521  0.42234387  1
  C  C205  1  0.82053547  0.13351969  0.42105484  1
  C  C206  1  0.24432292  0.36032526  0.41968152  1
  C  C207  1  0.74501198  0.35182569  0.42255933  1
  C  C208  1  0.42085685  0.49719895  0.41957356  1
  C  C209  1  0.93392291  0.50983356  0.42050044  1
  C  C210  1  0.17511527  0.48284344  0.07762711  1
  C  C211  1  0.68009239  0.50613742  0.07909989  1
  C  C212  1  0.08116566  0.66121404  0.07617272  1
  C  C213  1  0.57879935  0.66203370  0.07672726  1
  C  C214  1  0.25855063  0.86725651  0.07864472  1
  C  C215  1  0.76085554  0.86823677  0.07953314  1
  C  C216  1  0.17198747  0.84815480  0.57506275  1
  C  C217  1  0.68045156  0.87102349  0.57646038  1
  C  C218  1  0.25020964  0.65096715  0.57658534  1
  C  C219  1  0.75334394  0.67041444  0.57635382  1
  C  C220  1  0.07301198  0.49497266  0.57543117  1
  C  C221  1  0.56627156  0.48397716  0.57725106  1
  C  C222  1  0.15138577  0.82727413  0.25536233  1
  C  C223  1  0.65339103  0.84552374  0.25468236  1
  C  C224  1  0.26166161  0.69818245  0.25564428  1
  C  C225  1  0.76069184  0.70142974  0.25489015  1
  C  C226  1  0.08301561  0.47390414  0.25477664  1
  C  C227  1  0.58659144  0.47774688  0.25334847  1
  C  C228  1  0.15094657  0.48039671  0.75246216  1
  C  C229  1  0.65643680  0.48234038  0.75402818  1
  C  C230  1  0.07711156  0.68897458  0.75458010  1
  C  C231  1  0.57860357  0.69963040  0.75691389  1
  C  C232  1  0.26799524  0.84623221  0.75611244  1
  C  C233  1  0.75737256  0.83313525  0.75259084  1
