# generated using pymatgen
data_Cu6Ni3C28
_symmetry_space_group_name_H-M   'P 1'
_cell_length_a   8.45339310
_cell_length_b   8.45465364
_cell_length_c   21.77959297
_cell_angle_alpha   89.99713032
_cell_angle_beta   89.98583963
_cell_angle_gamma   120.21464873
_symmetry_Int_Tables_number   1
_chemical_formula_structural   Cu6Ni3C28
_chemical_formula_sum   'Cu18 Ni9 C84'
_cell_volume   1345.12867500
_cell_formula_units_Z   3
loop_
 _symmetry_equiv_pos_site_id
 _symmetry_equiv_pos_as_xyz
  1  'x, y, z'
loop_
 _atom_site_type_symbol
 _atom_site_label
 _atom_site_symmetry_multiplicity
 _atom_site_fract_x
 _atom_site_fract_y
 _atom_site_fract_z
 _atom_site_occupancy
  C  C0  1  0.36546626  0.36223823  0.24847798  1
  C  C1  1  0.63522675  0.63251448  0.74911798  1
  C  C2  1  0.96857513  0.29903120  0.41548407  1
  C  C3  1  0.00064401  0.99343866  0.49988619  1
  C  C4  1  0.99996366  0.00000609  0.00084359  1
  C  C5  1  0.66734214  0.32685820  0.83391841  1
  C  C6  1  0.66696100  0.33354039  0.33110087  1
  C  C7  1  0.33276803  0.67330041  0.16489861  1
  C  C8  1  0.32712481  0.66758061  0.66546115  1
  C  C9  1  0.99977067  0.99406946  0.35205028  1
  C  C10  1  0.66705101  0.32793282  0.68518090  1
  C  C11  1  0.67152941  0.33250737  0.18407952  1
  Ni  Ni12  1  0.00071423  0.00110383  0.85479589  1
  Ni  Ni13  1  0.00138564  0.00088489  0.64572020  1
  Ni  Ni14  1  0.99868961  0.99775973  0.14570347  1
  Ni  Ni15  1  0.66712422  0.33306455  0.98148411  1
  Ni  Ni16  1  0.66223440  0.33347663  0.48199075  1
  Ni  Ni17  1  0.33294911  0.66673897  0.02033887  1
  Ni  Ni18  1  0.33396437  0.66813851  0.52072180  1
  Ni  Ni19  1  0.33410397  0.67222069  0.31281274  1
  Ni  Ni20  1  0.32893209  0.66746126  0.81526126  1
  Cu  Cu21  1  0.28741660  0.99639689  0.24981999  1
  Cu  Cu22  1  0.71345756  0.71344541  0.25008028  1
  Cu  Cu23  1  0.99534952  0.28779230  0.25091121  1
  Cu  Cu24  1  0.28308436  0.28463220  0.75083536  1
  Cu  Cu25  1  0.00572262  0.71586510  0.75062378  1
  Cu  Cu26  1  0.71459109  0.00366101  0.75109579  1
  Cu  Cu27  1  0.95730184  0.33380504  0.58311657  1
  Cu  Cu28  1  0.37629259  0.04265531  0.58338026  1
  Cu  Cu29  1  0.66603012  0.62341566  0.58377534  1
  Cu  Cu30  1  0.95675022  0.62299825  0.08274283  1
  Cu  Cu31  1  0.66649258  0.04337454  0.08289299  1
  Cu  Cu32  1  0.37664809  0.33382436  0.08319431  1
  Cu  Cu33  1  0.62119523  0.66570745  0.91693600  1
  Cu  Cu34  1  0.04451008  0.37861575  0.91726773  1
  Cu  Cu35  1  0.33391182  0.95523421  0.91717371  1
  Cu  Cu36  1  0.61720886  0.95213686  0.41779220  1
  Cu  Cu37  1  0.33931161  0.38175928  0.41734148  1
  Cu  Cu38  1  0.04706594  0.67014776  0.41795676  1
  C  C39  1  0.21176472  0.04086492  0.30718900  1
  C  C40  1  0.82499061  0.79008688  0.30834525  1
  C  C41  1  0.96687701  0.17916828  0.31042735  1
  C  C42  1  0.20165898  0.16670222  0.80861260  1
  C  C43  1  0.96101608  0.79664067  0.80769863  1
  C  C44  1  0.83223010  0.03469034  0.80870510  1
  C  C45  1  0.79180219  0.95473425  0.69347283  1
  C  C46  1  0.16516176  0.20588433  0.69239738  1
  C  C47  1  0.04120476  0.83400257  0.69233940  1
  C  C48  1  0.79265927  0.83327027  0.19195050  1
  C  C49  1  0.04475713  0.20805004  0.19409731  1
  C  C50  1  0.16715120  0.95907598  0.19185012  1
  C  C51  1  0.87929713  0.37298465  0.63986282  1
  C  C52  1  0.49163702  0.11951432  0.64069613  1
  C  C53  1  0.62872879  0.51132574  0.64254743  1
  C  C54  1  0.88105503  0.50859530  0.14024367  1
  C  C55  1  0.62645955  0.11855485  0.14016655  1
  C  C56  1  0.48805642  0.37145618  0.14200858  1
  C  C57  1  0.45924378  0.29506992  0.02533258  1
  C  C58  1  0.83673944  0.54235778  0.02425266  1
  C  C59  1  0.70595314  0.16318660  0.02438043  1
  C  C60  1  0.45661234  0.16253821  0.52483893  1
  C  C61  1  0.70542117  0.54124465  0.52590297  1
  C  C62  1  0.84024354  0.29543652  0.52331590  1
  C  C63  1  0.53763992  0.70448564  0.97325756  1
  C  C64  1  0.16597192  0.46086389  0.97405543  1
  C  C65  1  0.29464917  0.83389891  0.97395225  1
  C  C66  1  0.53507082  0.83364382  0.47525334  1
  C  C67  1  0.29539942  0.46488794  0.47365684  1
  C  C68  1  0.16512100  0.70107495  0.47528984  1
  C  C69  1  0.12459276  0.62085886  0.36048006  1
  C  C70  1  0.49904890  0.87343772  0.35947325  1
  C  C71  1  0.37360826  0.49702896  0.35784382  1
  C  C72  1  0.12466569  0.49705728  0.85852172  1
  C  C73  1  0.37282645  0.87539277  0.85855962  1
  C  C74  1  0.50561314  0.62906634  0.85694927  1
  C  C75  1  0.02692368  0.83717306  0.41201455  1
  C  C76  1  0.80979972  0.97922304  0.41218636  1
  C  C77  1  0.16649079  0.19328854  0.41187003  1
  C  C78  1  0.02645465  0.18807489  0.90970717  1
  C  C79  1  0.16139220  0.97310675  0.90940742  1
  C  C80  1  0.81251181  0.83871851  0.90944970  1
  C  C81  1  0.97555498  0.16078048  0.58941510  1
  C  C82  1  0.18444810  0.02355479  0.58936055  1
  C  C83  1  0.83927103  0.81579058  0.58968468  1
  C  C84  1  0.97644038  0.81512837  0.08893037  1
  C  C85  1  0.83917452  0.02422965  0.08945351  1
  C  C86  1  0.18396662  0.16086668  0.08947696  1
  C  C87  1  0.69361609  0.17038433  0.74500243  1
  C  C88  1  0.47606429  0.31209899  0.74494085  1
  C  C89  1  0.83292423  0.52711385  0.74466731  1
  C  C90  1  0.68371825  0.52007329  0.24346704  1
  C  C91  1  0.83004533  0.30999514  0.24418017  1
  C  C92  1  0.47675517  0.16735830  0.24311108  1
  C  C93  1  0.64016650  0.49408865  0.92362291  1
  C  C94  1  0.85353126  0.35917412  0.92384818  1
  C  C95  1  0.50578390  0.14687538  0.92395108  1
  C  C96  1  0.64018045  0.14713791  0.42429977  1
  C  C97  1  0.51164658  0.36471043  0.42431146  1
  C  C98  1  0.85608106  0.49139267  0.42454389  1
  C  C99  1  0.35745606  0.50549388  0.07463898  1
  C  C100  1  0.14823781  0.64296415  0.07448364  1
  C  C101  1  0.49475033  0.85124455  0.07437905  1
  C  C102  1  0.35663188  0.85172292  0.57527802  1
  C  C103  1  0.49453523  0.64224372  0.57523636  1
  C  C104  1  0.14911986  0.50513376  0.57493142  1
  C  C105  1  0.30375318  0.82267270  0.25667601  1
  C  C106  1  0.51725969  0.69071709  0.25632404  1
  C  C107  1  0.17602861  0.47971959  0.25686176  1
  C  C108  1  0.30676692  0.48016594  0.75746327  1
  C  C109  1  0.17765193  0.69762567  0.75761625  1
  C  C110  1  0.52311005  0.82485773  0.75768329  1
