# generated using pymatgen
data_Cu2NiC24
_symmetry_space_group_name_H-M   'P 1'
_cell_length_a   8.86005547
_cell_length_b   8.85067356
_cell_length_c   22.94391131
_cell_angle_alpha   89.79443735
_cell_angle_beta   90.04360107
_cell_angle_gamma   119.97458164
_symmetry_Int_Tables_number   1
_chemical_formula_structural   Cu2NiC24
_chemical_formula_sum   'Cu8 Ni4 C96'
_cell_volume   1558.54349795
_cell_formula_units_Z   4
loop_
 _symmetry_equiv_pos_site_id
 _symmetry_equiv_pos_as_xyz
  1  'x, y, z'
loop_
 _atom_site_type_symbol
 _atom_site_label
 _atom_site_symmetry_multiplicity
 _atom_site_fract_x
 _atom_site_fract_y
 _atom_site_fract_z
 _atom_site_occupancy
  C  C0  1  0.99955072  0.00024711  0.49575491  1
  C  C1  1  0.99628537  0.00278816  0.99946623  1
  C  C2  1  0.67420490  0.33571540  0.82574779  1
  C  C3  1  0.66537040  0.32639191  0.32651336  1
  C  C4  1  0.33081951  0.66650380  0.16947892  1
  C  C5  1  0.33245698  0.66968550  0.66322236  1
  Ni  Ni6  1  0.67487460  0.33424461  0.68738838  1
  Ni  Ni7  1  0.66533851  0.32624855  0.18991319  1
  Ni  Ni8  1  0.33609129  0.66069614  0.01724261  1
  Ni  Ni9  1  0.33296881  0.66724814  0.51357343  1
  Cu  Cu10  1  0.01211034  0.01518285  0.35735273  1
  Cu  Cu11  1  0.97885499  0.98985513  0.85354074  1
  Cu  Cu12  1  0.98977731  0.98585262  0.64563382  1
  Cu  Cu13  1  0.00856178  0.00732812  0.15233498  1
  Cu  Cu14  1  0.67661949  0.34101107  0.97724679  1
  Cu  Cu15  1  0.66581020  0.32896335  0.47113108  1
  Cu  Cu16  1  0.32163839  0.66531970  0.31585857  1
  Cu  Cu17  1  0.33006551  0.65934907  0.81125398  1
  C  C18  1  0.30014416  0.00388411  0.25213622  1
  C  C19  1  0.99828475  0.29840605  0.25213649  1
  C  C20  1  0.99445411  0.70331670  0.75045141  1
  C  C21  1  0.70435937  0.00459354  0.74848704  1
  C  C22  1  0.61350939  0.66633149  0.91957610  1
  C  C23  1  0.05433562  0.37933582  0.91908496  1
  C  C24  1  0.61755143  0.94164986  0.41847177  1
  C  C25  1  0.33262775  0.38887713  0.41933788  1
  C  C26  1  0.05131878  0.67390473  0.42030436  1
  C  C27  1  0.71055346  0.70857456  0.25022288  1
  C  C28  1  0.28883843  0.28492787  0.74950103  1
  C  C29  1  0.95860933  0.33789177  0.58446320  1
  C  C30  1  0.38083327  0.04422944  0.58495854  1
  C  C31  1  0.65895033  0.61511216  0.58439584  1
  C  C32  1  0.95823323  0.62267320  0.08467591  1
  C  C33  1  0.66230855  0.04088413  0.08423207  1
  C  C34  1  0.38020941  0.33607207  0.08449059  1
  C  C35  1  0.33263497  0.95382477  0.91790033  1
  C  C36  1  0.18804721  0.01950289  0.30534264  1
  C  C37  1  0.81785276  0.79000555  0.30152975  1
  C  C38  1  0.97272419  0.16637311  0.30543707  1
  C  C39  1  0.20794347  0.18201107  0.80299311  1
  C  C40  1  0.98294784  0.81405052  0.80629706  1
  C  C41  1  0.83001346  0.02617951  0.80577803  1
  C  C42  1  0.80847183  0.97086378  0.69347821  1
  C  C43  1  0.17675272  0.20788456  0.69709475  1
  C  C44  1  0.03339931  0.83810386  0.69309833  1
  C  C45  1  0.79800878  0.82566089  0.19553339  1
  C  C46  1  0.02865776  0.19312920  0.19336872  1
  C  C47  1  0.16393549  0.96708748  0.19279740  1
  C  C48  1  0.87406974  0.35646922  0.63622630  1
  C  C49  1  0.48293396  0.12894688  0.63689337  1
  C  C50  1  0.64352518  0.51624356  0.63691892  1
  C  C51  1  0.87247209  0.51534323  0.13469214  1
  C  C52  1  0.64237479  0.12588170  0.13479244  1
  C  C53  1  0.48458238  0.35628875  0.13537495  1
  C  C54  1  0.46061924  0.30546539  0.03054282  1
  C  C55  1  0.84397974  0.53615420  0.02956098  1
  C  C56  1  0.69207104  0.15494022  0.02998304  1
  C  C57  1  0.45774137  0.15376598  0.53166590  1
  C  C58  1  0.69689670  0.54448133  0.53170177  1
  C  C59  1  0.84788517  0.30342938  0.53157247  1
  C  C60  1  0.54396693  0.70743378  0.97613510  1
  C  C61  1  0.15819490  0.46196668  0.97616566  1
  C  C62  1  0.30351840  0.85025123  0.97020556  1
  C  C63  1  0.54567793  0.84140893  0.47723830  1
  C  C64  1  0.29605573  0.45569448  0.47745775  1
  C  C65  1  0.15910287  0.70579750  0.47718781  1
  C  C66  1  0.12753293  0.63005487  0.35989096  1
  C  C67  1  0.49880950  0.86580769  0.35860061  1
  C  C68  1  0.36871625  0.50044427  0.35851165  1
  C  C69  1  0.13349515  0.49967007  0.85928063  1
  C  C70  1  0.36544548  0.87914530  0.86440445  1
  C  C71  1  0.49944065  0.63590399  0.85967030  1
  C  C72  1  0.01268281  0.83083543  0.40546135  1
  C  C73  1  0.81440185  0.97938324  0.40557739  1
  C  C74  1  0.17073271  0.18824575  0.40872622  1
  C  C75  1  0.02558211  0.18449190  0.90626127  1
  C  C76  1  0.18186817  0.98092079  0.90893973  1
  C  C77  1  0.81605662  0.82848312  0.90811345  1
  C  C78  1  0.97576765  0.17268495  0.59154276  1
  C  C79  1  0.19948878  0.03019371  0.59118951  1
  C  C80  1  0.82913564  0.80141869  0.59053138  1
  C  C81  1  0.96866380  0.79785346  0.08694421  1
  C  C82  1  0.82453556  0.02452257  0.08801929  1
  C  C83  1  0.19934140  0.17006669  0.08852730  1
  C  C84  1  0.68421710  0.17006431  0.74389077  1
  C  C85  1  0.46162028  0.30847302  0.74239731  1
  C  C86  1  0.82456172  0.52157697  0.74379155  1
  C  C87  1  0.69507052  0.53959543  0.24007019  1
  C  C88  1  0.83273379  0.31620907  0.24216998  1
  C  C89  1  0.47772831  0.17659710  0.24246457  1
  C  C90  1  0.64057134  0.49128520  0.92702816  1
  C  C91  1  0.84978195  0.35030402  0.92718543  1
  C  C92  1  0.49266984  0.13329683  0.92438866  1
  C  C93  1  0.64347846  0.14435753  0.42609299  1
  C  C94  1  0.50340853  0.35650258  0.42672835  1
  C  C95  1  0.85293474  0.49613960  0.42685875  1
  C  C96  1  0.35497930  0.48658728  0.07733255  1
  C  C97  1  0.13221709  0.64569073  0.07538292  1
  C  C98  1  0.50801367  0.86804031  0.07587512  1
  C  C99  1  0.35383497  0.86790263  0.57925061  1
  C  C100  1  0.51337603  0.64724776  0.57908821  1
  C  C101  1  0.13396746  0.48810640  0.57860774  1
  C  C102  1  0.30777462  0.82346428  0.25512641  1
  C  C103  1  0.53963540  0.69885613  0.25299480  1
  C  C104  1  0.18357589  0.48091183  0.25537167  1
  C  C105  1  0.30193370  0.46217180  0.75546805  1
  C  C106  1  0.17640117  0.69680954  0.75889798  1
  C  C107  1  0.52023866  0.82174768  0.75880054  1
