# generated using pymatgen
data_Cu13Ni5C4
_symmetry_space_group_name_H-M   'P 1'
_cell_length_a   9.37265500
_cell_length_b   10.26030900
_cell_length_c   35.49147800
_cell_angle_alpha   90.00000000
_cell_angle_beta   90.00000000
_cell_angle_gamma   90.00000000
_symmetry_Int_Tables_number   1
_chemical_formula_structural   Cu13Ni5C4
_chemical_formula_sum   'Cu52 Ni20 C16'
_cell_volume   3413.08541447
_cell_formula_units_Z   4
loop_
 _symmetry_equiv_pos_site_id
 _symmetry_equiv_pos_as_xyz
  1  'x, y, z'
loop_
 _atom_site_type_symbol
 _atom_site_label
 _atom_site_symmetry_multiplicity
 _atom_site_fract_x
 _atom_site_fract_y
 _atom_site_fract_z
 _atom_site_occupancy
  C  C0  1  0.50713300  0.72559700  0.98485300  1
  C  C1  1  0.00713300  0.27440300  0.01514700  1
  C  C2  1  0.99286700  0.22559700  0.51514700  1
  C  C3  1  0.49286700  0.77440300  0.48485300  1
  C  C4  1  0.49286700  0.27440300  0.01514700  1
  C  C5  1  0.99286700  0.72559700  0.98485300  1
  C  C6  1  0.00713300  0.77440300  0.48485300  1
  C  C7  1  0.50713300  0.22559700  0.51514700  1
  C  C8  1  0.75000000  0.08298800  0.84039600  1
  C  C9  1  0.25000000  0.91701200  0.15960400  1
  C  C10  1  0.75000000  0.58298800  0.65960400  1
  C  C11  1  0.25000000  0.41701200  0.34039600  1
  C  C12  1  0.25000000  0.58790500  0.75340200  1
  C  C13  1  0.75000000  0.41209500  0.24659800  1
  C  C14  1  0.25000000  0.08790500  0.74659800  1
  C  C15  1  0.75000000  0.91209500  0.25340200  1
  Ni  Ni16  1  0.75000000  0.44411300  0.80290800  1
  Ni  Ni17  1  0.25000000  0.55588700  0.19709200  1
  Ni  Ni18  1  0.75000000  0.94411300  0.69709200  1
  Ni  Ni19  1  0.25000000  0.05588700  0.30290800  1
  Ni  Ni20  1  0.47520100  0.29090500  0.90307000  1
  Ni  Ni21  1  0.97520100  0.70909500  0.09693000  1
  Ni  Ni22  1  0.02479900  0.79090500  0.59693000  1
  Ni  Ni23  1  0.52479900  0.20909500  0.40307000  1
  Ni  Ni24  1  0.52479900  0.70909500  0.09693000  1
  Ni  Ni25  1  0.02479900  0.29090500  0.90307000  1
  Ni  Ni26  1  0.97520100  0.20909500  0.40307000  1
  Ni  Ni27  1  0.47520100  0.79090500  0.59693000  1
  Ni  Ni28  1  0.49179300  0.62766400  0.85552300  1
  Ni  Ni29  1  0.99179300  0.37233600  0.14447700  1
  Ni  Ni30  1  0.00820700  0.12766400  0.64447700  1
  Ni  Ni31  1  0.50820700  0.87233600  0.35552300  1
  Ni  Ni32  1  0.50820700  0.37233600  0.14447700  1
  Ni  Ni33  1  0.00820700  0.62766400  0.85552300  1
  Ni  Ni34  1  0.99179300  0.87233600  0.35552300  1
  Ni  Ni35  1  0.49179300  0.12766400  0.64447700  1
  Cu  Cu36  1  0.47242500  0.37034200  0.82468400  1
  Cu  Cu37  1  0.97242500  0.62965800  0.17531600  1
  Cu  Cu38  1  0.02757500  0.87034200  0.67531600  1
  Cu  Cu39  1  0.52757500  0.12965800  0.32468400  1
  Cu  Cu40  1  0.52757500  0.62965800  0.17531600  1
  Cu  Cu41  1  0.02757500  0.37034200  0.82468400  1
  Cu  Cu42  1  0.97242500  0.12965800  0.32468400  1
  Cu  Cu43  1  0.47242500  0.87034200  0.67531600  1
  Cu  Cu44  1  0.25000000  0.43047600  0.94181400  1
  Cu  Cu45  1  0.75000000  0.56952400  0.05818600  1
  Cu  Cu46  1  0.25000000  0.93047600  0.55818600  1
  Cu  Cu47  1  0.75000000  0.06952400  0.44181400  1
  Cu  Cu48  1  0.75000000  0.64043200  0.90371000  1
  Cu  Cu49  1  0.25000000  0.35956800  0.09629000  1
  Cu  Cu50  1  0.75000000  0.14043200  0.59629000  1
  Cu  Cu51  1  0.25000000  0.85956800  0.40371000  1
  Cu  Cu52  1  0.75000000  0.39351000  0.93693500  1
  Cu  Cu53  1  0.25000000  0.60649000  0.06306500  1
  Cu  Cu54  1  0.75000000  0.89351000  0.56306500  1
  Cu  Cu55  1  0.25000000  0.10649000  0.43693500  1
  Cu  Cu56  1  0.25000000  0.70516400  0.90103200  1
  Cu  Cu57  1  0.75000000  0.29483600  0.09896800  1
  Cu  Cu58  1  0.25000000  0.20516400  0.59896800  1
  Cu  Cu59  1  0.75000000  0.79483600  0.40103200  1
  Cu  Cu60  1  0.25000000  0.94673000  0.85524100  1
  Cu  Cu61  1  0.75000000  0.05327000  0.14475900  1
  Cu  Cu62  1  0.25000000  0.44673000  0.64475900  1
  Cu  Cu63  1  0.75000000  0.55327000  0.35524100  1
  Cu  Cu64  1  0.75000000  0.70544700  0.76551500  1
  Cu  Cu65  1  0.25000000  0.29455300  0.23448500  1
  Cu  Cu66  1  0.75000000  0.20544700  0.73448500  1
  Cu  Cu67  1  0.25000000  0.79455300  0.26551500  1
  Cu  Cu68  1  0.50295700  0.83340000  0.80194800  1
  Cu  Cu69  1  0.00295700  0.16660000  0.19805200  1
  Cu  Cu70  1  0.99704300  0.33340000  0.69805200  1
  Cu  Cu71  1  0.49704300  0.66660000  0.30194800  1
  Cu  Cu72  1  0.49704300  0.16660000  0.19805200  1
  Cu  Cu73  1  0.99704300  0.83340000  0.80194800  1
  Cu  Cu74  1  0.00295700  0.66660000  0.30194800  1
  Cu  Cu75  1  0.50295700  0.33340000  0.69805200  1
  Cu  Cu76  1  0.75000000  0.03740700  0.96838000  1
  Cu  Cu77  1  0.25000000  0.96259300  0.03162000  1
  Cu  Cu78  1  0.75000000  0.53740700  0.53162000  1
  Cu  Cu79  1  0.25000000  0.46259300  0.46838000  1
  Cu  Cu80  1  0.50557400  0.02091400  0.92061900  1
  Cu  Cu81  1  0.00557400  0.97908600  0.07938100  1
  Cu  Cu82  1  0.99442600  0.52091400  0.57938100  1
  Cu  Cu83  1  0.49442600  0.47908600  0.42061900  1
  Cu  Cu84  1  0.49442600  0.97908600  0.07938100  1
  Cu  Cu85  1  0.99442600  0.02091400  0.92061900  1
  Cu  Cu86  1  0.00557400  0.47908600  0.42061900  1
  Cu  Cu87  1  0.50557400  0.52091400  0.57938100  1
