# generated using pymatgen
data_Cu2NiC6
_symmetry_space_group_name_H-M   'P 1'
_cell_length_a   3.44230493
_cell_length_b   5.03527318
_cell_length_c   9.19392565
_cell_angle_alpha   89.97116940
_cell_angle_beta   90.00000000
_cell_angle_gamma   90.00000000
_symmetry_Int_Tables_number   1
_chemical_formula_structural   Cu2NiC6
_chemical_formula_sum   'Cu2 Ni1 C6'
_cell_volume   159.35779382
_cell_formula_units_Z   1
loop_
 _symmetry_equiv_pos_site_id
 _symmetry_equiv_pos_as_xyz
  1  'x, y, z'
loop_
 _atom_site_type_symbol
 _atom_site_label
 _atom_site_symmetry_multiplicity
 _atom_site_fract_x
 _atom_site_fract_y
 _atom_site_fract_z
 _atom_site_occupancy
  Ni  Ni0  1  0.25000000  0.24167632  0.95838077  1
  Cu  Cu1  1  0.25000000  0.73383054  0.64409757  1
  Cu  Cu2  1  0.75000000  0.25065299  0.34090023  1
  C  C3  1  0.25000000  -0.00021556  0.19482317  1
  C  C4  1  0.75000000  0.97479236  0.80700130  1
  C  C5  1  0.75000000  0.74033936  0.45589814  1
  C  C6  1  0.25000000  0.24138952  0.53635473  1
  C  C7  1  0.75000000  0.49279676  0.80670188  1
  C  C8  1  0.25000000  0.49973771  0.19334221  1
