# generated using pymatgen
data_CuNiC3
_symmetry_space_group_name_H-M   'P 1'
_cell_length_a   3.24414608
_cell_length_b   6.20873788
_cell_length_c   6.20873658
_cell_angle_alpha   93.90489925
_cell_angle_beta   107.42928971
_cell_angle_gamma   107.42929792
_symmetry_Int_Tables_number   1
_chemical_formula_structural   CuNiC3
_chemical_formula_sum   'Cu2 Ni2 C6'
_cell_volume   112.11302673
_cell_formula_units_Z   2
loop_
 _symmetry_equiv_pos_site_id
 _symmetry_equiv_pos_as_xyz
  1  'x, y, z'
loop_
 _atom_site_type_symbol
 _atom_site_label
 _atom_site_symmetry_multiplicity
 _atom_site_fract_x
 _atom_site_fract_y
 _atom_site_fract_z
 _atom_site_occupancy
  C  C0  1  0.50000000  0.13467991  0.86532009  1
  C  C1  1  0.00000000  0.90534114  0.09465886  1
  C  C2  1  0.90386757  0.28265118  0.50949819  1
  C  C3  1  0.94049549  0.52981158  0.26016572  1
  C  C4  1  0.05950451  0.73983428  0.47018842  1
  C  C5  1  0.09613243  0.49050181  0.71734882  1
  Ni  Ni6  1  0.00000000  0.69694304  0.30305696  1
  Ni  Ni7  1  1.00000000  0.31876157  0.68123843  1
  Cu  Cu8  1  0.19264195  0.80374697  0.72727150  1
  Cu  Cu9  1  0.80735805  0.27272850  0.19625303  1
