# generated using pymatgen
data_Cu4NiC12
_symmetry_space_group_name_H-M   'P 1'
_cell_length_a   5.26837572
_cell_length_b   7.28549438
_cell_length_c   5.39617949
_cell_angle_alpha   93.09735348
_cell_angle_beta   88.27286046
_cell_angle_gamma   88.26555107
_symmetry_Int_Tables_number   1
_chemical_formula_structural   Cu4NiC12
_chemical_formula_sum   'Cu4 Ni1 C12'
_cell_volume   206.61794543
_cell_formula_units_Z   1
loop_
 _symmetry_equiv_pos_site_id
 _symmetry_equiv_pos_as_xyz
  1  'x, y, z'
loop_
 _atom_site_type_symbol
 _atom_site_label
 _atom_site_symmetry_multiplicity
 _atom_site_fract_x
 _atom_site_fract_y
 _atom_site_fract_z
 _atom_site_occupancy
  Ni  Ni0  1  0.51989500  0.25173500  0.93365500  1
  Cu  Cu1  1  0.48684300  0.52257800  0.50602200  1
  Cu  Cu2  1  0.51771400  0.01686400  0.48419100  1
  Cu  Cu3  1  0.00250000  0.49002400  0.98146300  1
  Cu  Cu4  1  0.02281600  0.98792100  0.98932900  1
  C  C5  1  0.88883100  0.24457100  0.99537900  1
  C  C6  1  0.67971600  0.97816000  0.20990800  1
  C  C7  1  0.57896000  0.25247700  0.53735400  1
  C  C8  1  0.41606200  0.74766800  0.48849500  1
  C  C9  1  0.31579700  0.04459200  0.80377600  1
  C  C10  1  0.20053300  0.45974900  0.72136000  1
  C  C11  1  0.05727300  0.75320800  0.02097600  1
  C  C12  1  0.81184500  0.53263800  0.31296000  1
  C  C13  1  0.80442900  0.94380300  0.68068400  1
  C  C14  1  0.67100200  0.54134000  0.82623100  1
  C  C15  1  0.32211200  0.42353100  0.18741400  1
  C  C16  1  0.20367300  0.05913800  0.30830700  1
