# generated using pymatgen
data_Cu3NiC10
_symmetry_space_group_name_H-M   'P 1'
_cell_length_a   5.35806381
_cell_length_b   6.17404208
_cell_length_c   6.26420005
_cell_angle_alpha   119.52502882
_cell_angle_beta   88.70882200
_cell_angle_gamma   89.99999165
_symmetry_Int_Tables_number   1
_chemical_formula_structural   Cu3NiC10
_chemical_formula_sum   'Cu3 Ni1 C10'
_cell_volume   180.25478355
_cell_formula_units_Z   1
loop_
 _symmetry_equiv_pos_site_id
 _symmetry_equiv_pos_as_xyz
  1  'x, y, z'
loop_
 _atom_site_type_symbol
 _atom_site_label
 _atom_site_symmetry_multiplicity
 _atom_site_fract_x
 _atom_site_fract_y
 _atom_site_fract_z
 _atom_site_occupancy
  Ni  Ni0  1  0.13606489  0.18618123  0.37236345  1
  Cu  Cu1  1  0.51119494  0.99007100  0.98014400  1
  Cu  Cu2  1  0.00165344  0.71948105  0.94193239  1
  Cu  Cu3  1  0.00165444  0.22245434  0.94193439  1
  C  C4  1  0.53392439  0.70787177  0.41574253  1
  C  C5  1  0.50049759  0.42827662  0.85655523  1
  C  C6  1  0.11508355  0.36260636  0.72521171  1
  C  C7  1  0.86076991  0.56132898  0.12265996  1
  C  C8  1  0.19304552  0.89666834  0.79333768  1
  C  C9  1  0.84119576  0.07416814  0.14833527  1
  C  C10  1  0.34057504  0.31609634  0.18521474  1
  C  C11  1  0.34057504  0.86911740  0.18521474  1
  C  C12  1  0.66188525  0.07351018  0.74901145  1
  C  C13  1  0.66188525  0.67550127  0.74901145  1
