# generated using pymatgen
data_Cu4NiC10
_symmetry_space_group_name_H-M   'P 1'
_cell_length_a   5.87982075
_cell_length_b   7.58822656
_cell_length_c   5.87982075
_cell_angle_alpha   67.20529623
_cell_angle_beta   90.00000000
_cell_angle_gamma   112.79470377
_symmetry_Int_Tables_number   1
_chemical_formula_structural   Cu4NiC10
_chemical_formula_sum   'Cu4 Ni1 C10'
_cell_volume   219.45930958
_cell_formula_units_Z   1
loop_
 _symmetry_equiv_pos_site_id
 _symmetry_equiv_pos_as_xyz
  1  'x, y, z'
loop_
 _atom_site_type_symbol
 _atom_site_label
 _atom_site_symmetry_multiplicity
 _atom_site_fract_x
 _atom_site_fract_y
 _atom_site_fract_z
 _atom_site_occupancy
  C  C0  1  0.00000000  -0.00000000  0.00000000  1
  C  C1  1  0.75000000  0.50000000  0.75000000  1
  Ni  Ni2  1  0.50000000  -0.00000000  0.50000000  1
  Cu  Cu3  1  0.41591723  0.33494990  0.33252505  1
  Cu  Cu4  1  0.91903267  0.33494990  0.33252505  1
  Cu  Cu5  1  0.33252505  0.66505010  0.41591723  1
  Cu  Cu6  1  0.33252505  0.66505010  0.91903267  1
  C  C7  1  0.16266703  0.32533306  0.11582207  1
  C  C8  1  0.62512765  0.25025630  0.16681081  1
  C  C9  1  0.55884487  0.67466694  0.16266703  1
  C  C10  1  0.11582207  0.67466694  0.16266703  1
  C  C11  1  0.62512765  0.25025630  0.58293289  1
  C  C12  1  0.16266703  0.32533306  0.55884487  1
  C  C13  1  0.58293289  0.74974370  0.62512765  1
  C  C14  1  0.16681081  0.74974370  0.62512765  1
