# generated using pymatgen
data_Cu2NiC6
_symmetry_space_group_name_H-M   'P 1'
_cell_length_a   5.53552397
_cell_length_b   5.97626930
_cell_length_c   7.59960455
_cell_angle_alpha   113.15366524
_cell_angle_beta   111.35839106
_cell_angle_gamma   89.99962708
_symmetry_Int_Tables_number   1
_chemical_formula_structural   Cu2NiC6
_chemical_formula_sum   'Cu2 Ni1 C6'
_cell_volume   212.25110441
_cell_formula_units_Z   1
loop_
 _symmetry_equiv_pos_site_id
 _symmetry_equiv_pos_as_xyz
  1  'x, y, z'
loop_
 _atom_site_type_symbol
 _atom_site_label
 _atom_site_symmetry_multiplicity
 _atom_site_fract_x
 _atom_site_fract_y
 _atom_site_fract_z
 _atom_site_occupancy
  C  C0  1  0.26338915  0.26338915  0.52677729  1
  C  C1  1  0.73662483  0.73662483  0.47324966  1
  Ni  Ni2  1  0.99999371  0.49999371  0.99998743  1
  Cu  Cu3  1  0.99999347  0.99999347  0.99998694  1
  Cu  Cu4  1  0.50000832  0.00000832  0.00001664  1
  C  C5  1  0.85468901  0.32957185  0.20280970  1
  C  C6  1  0.34812169  0.87323785  0.20280970  1
  C  C7  1  0.65186479  0.67041368  0.79718182  1
  C  C8  1  0.14531603  0.12676814  0.79718182  1
