# generated using pymatgen
data_CuNiC11
_symmetry_space_group_name_H-M   'P 1'
_cell_length_a   5.93287739
_cell_length_b   5.93287760
_cell_length_c   10.40745073
_cell_angle_alpha   90.00000000
_cell_angle_beta   90.00000000
_cell_angle_gamma   119.99999879
_symmetry_Int_Tables_number   1
_chemical_formula_structural   CuNiC11
_chemical_formula_sum   'Cu1 Ni1 C11'
_cell_volume   317.25301801
_cell_formula_units_Z   1
loop_
 _symmetry_equiv_pos_site_id
 _symmetry_equiv_pos_as_xyz
  1  'x, y, z'
loop_
 _atom_site_type_symbol
 _atom_site_label
 _atom_site_symmetry_multiplicity
 _atom_site_fract_x
 _atom_site_fract_y
 _atom_site_fract_z
 _atom_site_occupancy
  C  C0  1  -0.00000000  -0.00000000  0.38767991  1
  Ni  Ni1  1  -0.00000000  -0.00000000  0.75364318  1
  Cu  Cu2  1  -0.00000000  -0.00000000  0.01617609  1
  C  C3  1  0.66666700  0.33333300  0.81392830  1
  C  C4  1  0.33333300  0.66666700  0.19927956  1
  C  C5  1  0.30727332  0.15363716  0.86926028  1
  C  C6  1  0.84636284  0.15363716  0.86926028  1
  C  C7  1  0.84636284  0.69272668  0.86926028  1
  C  C8  1  0.16494259  0.83505741  0.14854018  1
  C  C9  1  0.33333300  0.66666700  0.36828530  1
  C  C10  1  0.66666700  0.33333300  0.64093930  1
  C  C11  1  0.16494259  0.32988417  0.14854018  1
  C  C12  1  0.67011583  0.83505741  0.14854018  1
