# generated using pymatgen
data_Cu5NiC35
_symmetry_space_group_name_H-M   'P 1'
_cell_length_a   8.79858099
_cell_length_b   8.80601220
_cell_length_c   21.63966695
_cell_angle_alpha   90.21101312
_cell_angle_beta   89.50440502
_cell_angle_gamma   119.95208461
_symmetry_Int_Tables_number   1
_chemical_formula_structural   Cu5NiC35
_chemical_formula_sum   'Cu15 Ni3 C105'
_cell_volume   1452.66758471
_cell_formula_units_Z   3
loop_
 _symmetry_equiv_pos_site_id
 _symmetry_equiv_pos_as_xyz
  1  'x, y, z'
loop_
 _atom_site_type_symbol
 _atom_site_label
 _atom_site_symmetry_multiplicity
 _atom_site_fract_x
 _atom_site_fract_y
 _atom_site_fract_z
 _atom_site_occupancy
  C  C0  1  0.36558030  0.36677764  0.25073281  1
  C  C1  1  0.99684223  0.63052329  0.24839751  1
  C  C2  1  0.63402055  0.63673164  0.74887732  1
  C  C3  1  0.99597150  0.36368624  0.75175468  1
  C  C4  1  0.37124133  0.00086364  0.74876709  1
  C  C5  1  0.29862151  0.32784339  0.58168791  1
  C  C6  1  0.03534844  0.70225301  0.58290112  1
  C  C7  1  0.66376596  0.96502251  0.58605761  1
  C  C8  1  0.29810324  0.96500819  0.08326950  1
  C  C9  1  0.67114331  0.70115698  0.08236215  1
  C  C10  1  0.03426774  0.33777799  0.08456373  1
  C  C11  1  0.96460573  0.66489423  0.91865159  1
  C  C12  1  0.70200684  0.03359452  0.91473438  1
  C  C13  1  0.96791692  0.30008973  0.41574023  1
  C  C14  1  0.33619403  0.03577372  0.41820951  1
  C  C15  1  0.99173645  0.98807020  0.49895022  1
  C  C16  1  0.01177421  0.00824208  0.99895649  1
  C  C17  1  0.65470454  0.32922560  0.83454914  1
  C  C18  1  0.66675331  0.33341263  0.33326105  1
  C  C19  1  0.34134065  0.67827648  0.16777724  1
  C  C20  1  0.33732920  0.67252549  0.66655450  1
  C  C21  1  0.99350818  0.99357236  0.35035010  1
  C  C22  1  0.00299066  0.00725675  0.85060811  1
  C  C23  1  0.00031415  0.99867483  0.64965281  1
  C  C24  1  0.99675864  0.99381985  0.14989059  1
  C  C25  1  0.66341812  0.32276547  0.68373204  1
  C  C26  1  0.67116420  0.32982033  0.18399611  1
  C  C27  1  0.66436928  0.33821427  0.98313068  1
  C  C28  1  0.66008387  0.33510499  0.48220251  1
  C  C29  1  0.32781312  0.66510830  0.01705699  1
  C  C30  1  0.33699459  0.67287152  0.51644680  1
  C  C31  1  0.33982692  0.67313243  0.31627243  1
  C  C32  1  0.33974399  0.67093957  0.81643386  1
  Ni  Ni33  1  0.70870630  0.00067466  0.75058797  1
  Ni  Ni34  1  0.37087857  0.03837487  0.58273933  1
  Ni  Ni35  1  0.96002656  0.62682422  0.08336192  1
  Cu  Cu36  1  0.29579134  0.00077702  0.25061000  1
  Cu  Cu37  1  0.70516355  0.70868828  0.24967858  1
  Cu  Cu38  1  0.99662547  0.28855849  0.25089094  1
  Cu  Cu39  1  0.29125852  0.29178530  0.74982601  1
  Cu  Cu40  1  0.99935020  0.70749511  0.75090213  1
  Cu  Cu41  1  0.95824063  0.33430293  0.58188165  1
  Cu  Cu42  1  0.66682092  0.62136138  0.58380814  1
  Cu  Cu43  1  0.66668272  0.04348798  0.08214193  1
  Cu  Cu44  1  0.37645469  0.33318370  0.08475738  1
  Cu  Cu45  1  0.62246687  0.66206065  0.91673973  1
  Cu  Cu46  1  0.04437512  0.37334749  0.91678778  1
  Cu  Cu47  1  0.33330104  0.96437810  0.91671583  1
  Cu  Cu48  1  0.62826409  0.95792085  0.41698038  1
  Cu  Cu49  1  0.33656453  0.37793795  0.41560662  1
  Cu  Cu50  1  0.03734619  0.66573673  0.41591639  1
  C  C51  1  0.21266779  0.03615562  0.30860536  1
  C  C52  1  0.82931751  0.79359457  0.30447745  1
  C  C53  1  0.97533729  0.18174295  0.30975410  1
  C  C54  1  0.21016232  0.16696323  0.80493261  1
  C  C55  1  0.96641488  0.78984364  0.80896150  1
  C  C56  1  0.83076302  0.03964376  0.81141655  1
  C  C57  1  0.79218171  0.95937086  0.68941290  1
  C  C58  1  0.18009955  0.21648835  0.69075571  1
  C  C59  1  0.03991621  0.82380720  0.69290403  1
  C  C60  1  0.78204264  0.81436127  0.18951847  1
  C  C61  1  0.03071335  0.20565140  0.19284676  1
  C  C62  1  0.17919768  0.96516948  0.19281028  1
  C  C63  1  0.88225813  0.37510244  0.64035411  1
  C  C64  1  0.49428304  0.11827498  0.64349580  1
  C  C65  1  0.63441175  0.51073763  0.64300192  1
  C  C66  1  0.87792869  0.50176215  0.14419811  1
  C  C67  1  0.62172151  0.12239078  0.13798825  1
  C  C68  1  0.48826157  0.36789758  0.14345673  1
  C  C69  1  0.45579267  0.28845988  0.02887087  1
  C  C70  1  0.83594944  0.54513700  0.02267210  1
  C  C71  1  0.70174523  0.15553806  0.02311844  1
  C  C72  1  0.45259065  0.16298136  0.52183944  1
  C  C73  1  0.70739347  0.53977922  0.52791177  1
  C  C74  1  0.84314094  0.30222512  0.52456059  1
  C  C75  1  0.53836645  0.69609212  0.97445408  1
  C  C76  1  0.15073670  0.45675796  0.97566820  1
  C  C77  1  0.29833300  0.84744792  0.97461890  1
  C  C78  1  0.55152999  0.85224673  0.47714008  1
  C  C79  1  0.30254883  0.46083368  0.47377909  1
  C  C80  1  0.15409267  0.70127830  0.47370057  1
  C  C81  1  0.12084782  0.63064465  0.35797016  1
  C  C82  1  0.50409969  0.87340035  0.36219447  1
  C  C83  1  0.35783298  0.48507382  0.35688364  1
  C  C84  1  0.12836724  0.49116917  0.85921743  1
  C  C85  1  0.36835613  0.88191856  0.85861426  1
  C  C86  1  0.51656106  0.63909502  0.85779592  1
  C  C87  1  0.02583762  0.83492202  0.40983240  1
  C  C88  1  0.81456972  0.98257345  0.41043834  1
  C  C89  1  0.16903252  0.19128388  0.41268511  1
  C  C90  1  0.02240644  0.18834970  0.91282141  1
  C  C91  1  0.16403476  0.97525979  0.91069174  1
  C  C92  1  0.80917664  0.82891877  0.91378725  1
  C  C93  1  0.97448191  0.16792669  0.58730834  1
  C  C94  1  0.17481264  0.01776862  0.58901782  1
  C  C95  1  0.82910407  0.80760153  0.58772853  1
  C  C96  1  0.98207010  0.82359832  0.08888060  1
  C  C97  1  0.83456444  0.02954361  0.08900370  1
  C  C98  1  0.18863248  0.17251595  0.09065455  1
  C  C99  1  0.69036822  0.17733707  0.74629567  1
  C  C100  1  0.47896869  0.31944504  0.74458444  1
  C  C101  1  0.83205293  0.52585440  0.74485291  1
  C  C102  1  0.68427664  0.52172001  0.24592741  1
  C  C103  1  0.83361093  0.31087150  0.24709391  1
  C  C104  1  0.47655642  0.16895278  0.24438226  1
  C  C105  1  0.64453211  0.49903520  0.92072264  1
  C  C106  1  0.85758462  0.35384467  0.91985108  1
  C  C107  1  0.50232327  0.14435145  0.92271655  1
  C  C108  1  0.64947181  0.14513696  0.42087594  1
  C  C109  1  0.49946548  0.35563571  0.41918588  1
  C  C110  1  0.85681910  0.49753470  0.42210180  1
  C  C111  1  0.36152104  0.50036730  0.07762846  1
  C  C112  1  0.15673053  0.64818599  0.07802616  1
  C  C113  1  0.50610468  0.85597018  0.07645894  1
  C  C114  1  0.35063098  0.84246495  0.57718325  1
  C  C115  1  0.49893147  0.63633791  0.57789351  1
  C  C116  1  0.14510626  0.49645732  0.57606575  1
  C  C117  1  0.30747992  0.83173612  0.25676884  1
  C  C118  1  0.51888224  0.68439562  0.25619518  1
  C  C119  1  0.16407318  0.47538096  0.25390636  1
  C  C120  1  0.30518787  0.47370061  0.75696361  1
  C  C121  1  0.16148068  0.68280785  0.75658813  1
  C  C122  1  0.51191697  0.82521699  0.75518539  1
