# generated using pymatgen
data_Cu6NiC12
_symmetry_space_group_name_H-M   'P 1'
_cell_length_a   7.07592263
_cell_length_b   5.91495715
_cell_length_c   5.65611611
_cell_angle_alpha   82.81876770
_cell_angle_beta   72.99727107
_cell_angle_gamma   73.01698356
_symmetry_Int_Tables_number   1
_chemical_formula_structural   Cu6NiC12
_chemical_formula_sum   'Cu6 Ni1 C12'
_cell_volume   216.30732820
_cell_formula_units_Z   1
loop_
 _symmetry_equiv_pos_site_id
 _symmetry_equiv_pos_as_xyz
  1  'x, y, z'
loop_
 _atom_site_type_symbol
 _atom_site_label
 _atom_site_symmetry_multiplicity
 _atom_site_fract_x
 _atom_site_fract_y
 _atom_site_fract_z
 _atom_site_occupancy
  Ni  Ni0  1  0.00523736  0.49246074  0.99325131  1
  Cu  Cu1  1  0.83211056  0.67524474  0.62120502  1
  Cu  Cu2  1  0.66630559  0.27501986  0.38508258  1
  Cu  Cu3  1  0.34169182  0.71808427  0.60792961  1
  Cu  Cu4  1  0.17660383  0.31806792  0.36853134  1
  Cu  Cu5  1  0.50487566  0.99523498  0.99682734  1
  Cu  Cu6  1  0.00481553  0.98915680  0.00313165  1
  C  C7  1  0.66870077  0.98808743  0.64947535  1
  C  C8  1  0.29944466  0.89712758  0.89280881  1
  C  C9  1  0.63173597  0.55606449  0.56299936  1
  C  C10  1  0.96696894  0.22448603  0.23857673  1
  C  C11  1  0.70985021  0.09285147  0.10207442  1
  C  C12  1  0.04226116  0.76615446  0.75438895  1
  C  C13  1  0.37626054  0.43757884  0.42845622  1
  C  C14  1  0.33942356  0.00476340  0.34359942  1
  C  C15  1  0.00289094  0.34463610  0.68304413  1
  C  C16  1  0.00427969  0.65081588  0.30329364  1
  C  C17  1  0.30052883  0.36013559  0.99910243  1
  C  C18  1  0.70934736  0.63069640  0.99122170  1
