# generated using pymatgen
data_Cu5NiC35
_symmetry_space_group_name_H-M   'P 1'
_cell_length_a   8.95527021
_cell_length_b   8.94417314
_cell_length_c   21.88725601
_cell_angle_alpha   89.51096046
_cell_angle_beta   90.41096055
_cell_angle_gamma   119.97052201
_symmetry_Int_Tables_number   1
_chemical_formula_structural   Cu5NiC35
_chemical_formula_sum   'Cu15 Ni3 C105'
_cell_volume   1518.62833877
_cell_formula_units_Z   3
loop_
 _symmetry_equiv_pos_site_id
 _symmetry_equiv_pos_as_xyz
  1  'x, y, z'
loop_
 _atom_site_type_symbol
 _atom_site_label
 _atom_site_symmetry_multiplicity
 _atom_site_fract_x
 _atom_site_fract_y
 _atom_site_fract_z
 _atom_site_occupancy
  C  C0  1  0.62691068  -0.00040733  0.25106685  1
  C  C1  1  0.36662713  0.36007265  0.25268928  1
  C  C2  1  0.00694774  0.63986273  0.24979942  1
  C  C3  1  0.64779850  0.63806881  0.74794938  1
  C  C4  1  0.99179599  0.35392945  0.74870010  1
  C  C5  1  0.29295233  0.33850185  0.58664812  1
  C  C6  1  0.03357324  0.70129405  0.58710593  1
  C  C7  1  0.67199173  0.95942207  0.58435210  1
  C  C8  1  0.29305154  0.95754014  0.08142305  1
  C  C9  1  0.66374050  0.70468203  0.07885564  1
  C  C10  1  0.04019568  0.33513457  0.07899698  1
  C  C11  1  0.97461727  0.67782493  0.91108115  1
  C  C12  1  0.32402024  0.29530138  0.91096386  1
  C  C13  1  0.32581768  0.01951209  0.41316663  1
  C  C14  1  0.69508532  0.67547664  0.41753860  1
  C  C15  1  0.99514027  0.01215913  0.49811309  1
  C  C16  1  0.98760976  0.00065281  0.99418159  1
  C  C17  1  0.65526849  0.30914111  0.82854338  1
  C  C18  1  0.67093652  0.32605820  0.33413930  1
  C  C19  1  0.33240513  0.67208945  0.16325002  1
  C  C20  1  0.33411426  0.67206616  0.66776282  1
  C  C21  1  0.00928805  0.00928504  0.35362102  1
  C  C22  1  0.99654744  0.00221458  0.84668018  1
  C  C23  1  0.99252172  0.99985184  0.66178169  1
  C  C24  1  0.00813175  0.99848407  0.14577770  1
  C  C25  1  0.66793230  0.33517293  0.68686980  1
  C  C26  1  0.65792706  0.32396310  0.17691783  1
  C  C27  1  0.33568438  0.66800657  0.01265658  1
  C  C28  1  0.33094431  0.65767543  0.51029973  1
  C  C29  1  0.33098540  0.67365409  0.32929341  1
  Ni  Ni30  1  0.66710650  0.32870311  0.98030360  1
  Ni  Ni31  1  0.67965482  0.34013834  0.48074003  1
  Ni  Ni32  1  0.33537316  0.67431208  0.81716337  1
  Cu  Cu33  1  0.29768550  0.99795140  0.25008893  1
  Cu  Cu34  1  0.29855077  0.30495767  0.75355934  1
  Cu  Cu35  1  0.01172196  0.70736103  0.75288173  1
  Cu  Cu36  1  0.69232200  0.99277382  0.75166621  1
  Cu  Cu37  1  0.95707087  0.33391231  0.58382813  1
  Cu  Cu38  1  0.66617973  0.62287281  0.58228728  1
  Cu  Cu39  1  0.95316561  0.61991700  0.08282663  1
  Cu  Cu40  1  0.66786130  0.04206076  0.08329890  1
  Cu  Cu41  1  0.37695793  0.33492847  0.08179898  1
  Cu  Cu42  1  0.62600815  0.66179579  0.91905900  1
  Cu  Cu43  1  0.03404600  0.37376407  0.91884259  1
  Cu  Cu44  1  0.34261594  0.96379725  0.91921552  1
  Cu  Cu45  1  0.63580744  0.97574650  0.41947617  1
  Cu  Cu46  1  0.34080000  0.36742308  0.41925780  1
  Cu  Cu47  1  0.02897020  0.65972773  0.41832850  1
  C  C48  1  0.70294464  0.70428601  0.25003062  1
  C  C49  1  0.00082297  0.29586870  0.24891168  1
  C  C50  1  0.37829436  0.04554921  0.58137388  1
  C  C51  1  0.21199152  0.02343222  0.30695031  1
  C  C52  1  0.80561049  0.78916537  0.30535299  1
  C  C53  1  0.97441855  0.18402163  0.30221384  1
  C  C54  1  0.21531192  0.19875844  0.81067267  1
  C  C55  1  0.98161954  0.78961266  0.80876237  1
  C  C56  1  0.81472400  0.02677765  0.80483659  1
  C  C57  1  0.75728915  0.94847559  0.69174248  1
  C  C58  1  0.18637136  0.23096380  0.69454938  1
  C  C59  1  0.03806830  0.81002090  0.69241243  1
  C  C60  1  0.78277345  0.80849282  0.19370482  1
  C  C61  1  0.02025611  0.21838558  0.19141566  1
  C  C62  1  0.18865968  0.97073870  0.19114483  1
  C  C63  1  0.87787631  0.35993438  0.64151023  1
  C  C64  1  0.48499543  0.12750548  0.63504393  1
  C  C65  1  0.63715527  0.51242464  0.63939092  1
  C  C66  1  0.87514806  0.51616311  0.14179489  1
  C  C67  1  0.63967758  0.11325136  0.14301644  1
  C  C68  1  0.47974873  0.36417709  0.14125587  1
  C  C69  1  0.46995635  0.30484988  0.02496661  1
  C  C70  1  0.83365561  0.52845260  0.02453350  1
  C  C71  1  0.69974888  0.17043432  0.02769131  1
  C  C72  1  0.45917396  0.15193952  0.52349453  1
  C  C73  1  0.69169788  0.53047863  0.52349211  1
  C  C74  1  0.83107848  0.30030576  0.52676086  1
  C  C75  1  0.54963600  0.68371388  0.97766271  1
  C  C76  1  0.13952386  0.45155486  0.97701378  1
  C  C77  1  0.31058578  0.85968244  0.97812128  1
  C  C78  1  0.55108096  0.86183542  0.47595544  1
  C  C79  1  0.31866880  0.44709377  0.47702589  1
  C  C80  1  0.14401098  0.69327746  0.47457781  1
  C  C81  1  0.10208492  0.63040456  0.35883981  1
  C  C82  1  0.52211129  0.90233506  0.36098144  1
  C  C83  1  0.37680076  0.48231840  0.36111822  1
  C  C84  1  0.12343421  0.49994976  0.86185637  1
  C  C85  1  0.37029318  0.87089740  0.86313381  1
  C  C86  1  0.50094489  0.62665289  0.86210355  1
  C  C87  1  -0.00039516  0.81664391  0.41343345  1
  C  C88  1  0.81433395  0.99226562  0.41218054  1
  C  C89  1  0.18822245  0.18158744  0.41394909  1
  C  C90  1  0.01531359  0.19537076  0.91088255  1
  C  C91  1  0.18537797  0.98964883  0.91112967  1
  C  C92  1  0.81070374  0.81210489  0.91115514  1
  C  C93  1  0.97470552  0.16936273  0.58473293  1
  C  C94  1  0.20462918  0.03053548  0.58371240  1
  C  C95  1  0.83394536  0.80191315  0.58274956  1
  C  C96  1  0.96553842  0.80010706  0.08230484  1
  C  C97  1  0.83446234  0.02817164  0.08407896  1
  C  C98  1  0.19649326  0.16815477  0.08197773  1
  C  C99  1  0.67037259  0.15195119  0.74470728  1
  C  C100  1  0.48451263  0.33927712  0.74762934  1
  C  C101  1  0.85290266  0.52177826  0.74892986  1
  C  C102  1  0.68913260  0.53041079  0.24759535  1
  C  C103  1  0.84692178  0.32020309  0.24692457  1
  C  C104  1  0.48093831  0.16365461  0.24726130  1
  C  C105  1  0.63497979  0.48516841  0.92108048  1
  C  C106  1  0.85231377  0.36719660  0.92181714  1
  C  C107  1  0.51039398  0.15117795  0.92228029  1
  C  C108  1  0.64457648  0.15758710  0.42552911  1
  C  C109  1  0.51320443  0.35231373  0.42374814  1
  C  C110  1  0.84233452  0.49360752  0.42384053  1
  C  C111  1  0.35542865  0.49535066  0.07645485  1
  C  C112  1  0.13493857  0.64134735  0.07826948  1
  C  C113  1  0.50672532  0.86156409  0.07694418  1
  C  C114  1  0.35818432  0.87013364  0.57693138  1
  C  C115  1  0.50576723  0.64578256  0.57662731  1
  C  C116  1  0.13672157  0.49847866  0.57666674  1
  C  C117  1  0.31658192  0.83286677  0.25437606  1
  C  C118  1  0.52571023  0.68231928  0.25316346  1
  C  C119  1  0.16139702  0.46911034  0.25387529  1
  C  C120  1  0.31022504  0.49156894  0.75938777  1
  C  C121  1  0.17795100  0.68599002  0.75928192  1
  C  C122  1  0.51178448  0.81894528  0.76079351  1
