# generated using pymatgen
data_Cu6Ni2C3
_symmetry_space_group_name_H-M   'P 1'
_cell_length_a   5.79563240
_cell_length_b   5.79563240
_cell_length_c   17.51597800
_cell_angle_alpha   90.00000000
_cell_angle_beta   90.00000000
_cell_angle_gamma   120.00000452
_symmetry_Int_Tables_number   1
_chemical_formula_structural   Cu6Ni2C3
_chemical_formula_sum   'Cu12 Ni4 C6'
_cell_volume   509.52637030
_cell_formula_units_Z   2
loop_
 _symmetry_equiv_pos_site_id
 _symmetry_equiv_pos_as_xyz
  1  'x, y, z'
loop_
 _atom_site_type_symbol
 _atom_site_label
 _atom_site_symmetry_multiplicity
 _atom_site_fract_x
 _atom_site_fract_y
 _atom_site_fract_z
 _atom_site_occupancy
  C  C0  1  0.67381800  0.00000000  0.75000000  1
  C  C1  1  0.67381800  0.67381800  0.25000000  1
  C  C2  1  0.00000000  0.32618200  0.25000000  1
  C  C3  1  0.00000000  0.67381800  0.75000000  1
  C  C4  1  0.32618200  0.00000000  0.25000000  1
  C  C5  1  0.32618200  0.32618200  0.75000000  1
  Ni  Ni6  1  0.33333300  0.66666700  0.00000000  1
  Ni  Ni7  1  0.66666700  0.33333300  0.50000000  1
  Ni  Ni8  1  0.33333300  0.66666700  0.50000000  1
  Ni  Ni9  1  0.66666700  0.33333300  0.00000000  1
  Cu  Cu10  1  0.33333300  0.66666700  0.66168500  1
  Cu  Cu11  1  0.66666700  0.33333300  0.16168500  1
  Cu  Cu12  1  0.66666700  0.33333300  0.83831500  1
  Cu  Cu13  1  0.33333300  0.66666700  0.33831500  1
  Cu  Cu14  1  0.33333300  0.66666700  0.16168500  1
  Cu  Cu15  1  0.66666700  0.33333300  0.66168500  1
  Cu  Cu16  1  0.66666700  0.33333300  0.33831500  1
  Cu  Cu17  1  0.33333300  0.66666700  0.83831500  1
  Cu  Cu18  1  0.00000000  0.00000000  0.15845000  1
  Cu  Cu19  1  0.00000000  0.00000000  0.65845000  1
  Cu  Cu20  1  0.00000000  0.00000000  0.84155000  1
  Cu  Cu21  1  0.00000000  0.00000000  0.34155000  1
