# generated using pymatgen
data_Cu4NiC12
_symmetry_space_group_name_H-M   'P 1'
_cell_length_a   3.00543666
_cell_length_b   5.80653931
_cell_length_c   12.90355626
_cell_angle_alpha   86.87175398
_cell_angle_beta   90.00062426
_cell_angle_gamma   90.00323691
_symmetry_Int_Tables_number   1
_chemical_formula_structural   Cu4NiC12
_chemical_formula_sum   'Cu4 Ni1 C12'
_cell_volume   224.84681457
_cell_formula_units_Z   1
loop_
 _symmetry_equiv_pos_site_id
 _symmetry_equiv_pos_as_xyz
  1  'x, y, z'
loop_
 _atom_site_type_symbol
 _atom_site_label
 _atom_site_symmetry_multiplicity
 _atom_site_fract_x
 _atom_site_fract_y
 _atom_site_fract_z
 _atom_site_occupancy
  C  C0  1  0.24999557  0.54792397  0.21246947  1
  C  C1  1  0.25000073  0.02716527  0.61567657  1
  C  C2  1  0.75005732  0.40425557  0.83750356  1
  C  C3  1  0.75002157  0.96663261  0.35510282  1
  Ni  Ni4  1  0.75001418  0.64569571  0.02409039  1
  Cu  Cu5  1  0.25001706  0.09634482  0.11430962  1
  Cu  Cu6  1  0.74999878  0.90673994  0.82422185  1
  Cu  Cu7  1  0.74997951  0.45569440  0.41697997  1
  Cu  Cu8  1  0.25002177  0.52499653  0.62336592  1
  C  C9  1  0.75000494  0.84816449  0.14680355  1
  C  C10  1  0.25001651  0.13191880  0.79316620  1
  C  C11  1  0.25003101  0.27904103  0.35779380  1
  C  C12  1  0.75001231  0.70622921  0.68437390  1
  C  C13  1  0.75003243  0.33809889  0.09757483  1
  C  C14  1  0.25001686  0.69696899  0.92429597  1
  C  C15  1  0.75001387  0.32934572  0.57267480  1
  C  C16  1  0.24997858  0.67811107  0.43848577  1
