# generated using pymatgen
data_Cu(NiC18)2
_symmetry_space_group_name_H-M   'P 1'
_cell_length_a   9.05525790
_cell_length_b   9.04847792
_cell_length_c   22.85160771
_cell_angle_alpha   89.98893113
_cell_angle_beta   89.97023104
_cell_angle_gamma   120.10920158
_symmetry_Int_Tables_number   1
_chemical_formula_structural   Cu(NiC18)2
_chemical_formula_sum   'Cu3 Ni6 C108'
_cell_volume   1619.73767300
_cell_formula_units_Z   3
loop_
 _symmetry_equiv_pos_site_id
 _symmetry_equiv_pos_as_xyz
  1  'x, y, z'
loop_
 _atom_site_type_symbol
 _atom_site_label
 _atom_site_symmetry_multiplicity
 _atom_site_fract_x
 _atom_site_fract_y
 _atom_site_fract_z
 _atom_site_occupancy
  C  C0  1  0.00364833  0.64035963  0.25169667  1
  C  C1  1  0.63115455  0.64077485  0.75200430  1
  C  C2  1  0.36843562  0.99630728  0.75262223  1
  C  C3  1  0.66512832  0.97198968  0.58570496  1
  C  C4  1  0.29650738  0.97045175  0.08354849  1
  C  C5  1  0.67898349  0.69902375  0.08201842  1
  C  C6  1  0.02621511  0.33091268  0.08456340  1
  C  C7  1  0.96613202  0.29974457  0.41638903  1
  C  C8  1  0.33812583  0.03639785  0.41915947  1
  C  C9  1  0.00564283  0.99022505  0.50068804  1
  C  C10  1  0.99997994  0.99334729  0.99701772  1
  C  C11  1  0.67883889  0.33143118  0.83964181  1
  C  C12  1  0.65506947  0.33449985  0.33524350  1
  C  C13  1  0.34095184  0.66703760  0.17241327  1
  C  C14  1  0.31874133  0.65558617  0.66881549  1
  C  C15  1  0.99587059  0.00263763  0.85468893  1
  C  C16  1  0.00401687  0.00127636  0.64771747  1
  C  C17  1  0.66890116  0.32830338  0.68492729  1
  C  C18  1  0.66656484  0.33122888  0.18577381  1
  C  C19  1  0.33015036  0.66676828  0.01484725  1
  C  C20  1  0.33245363  0.66560727  0.52066814  1
  Ni  Ni21  1  0.99412923  0.99552189  0.35001334  1
  Ni  Ni22  1  -0.00012883  0.99957354  0.15362891  1
  Ni  Ni23  1  0.66931996  0.33809649  0.98005731  1
  Ni  Ni24  1  0.66303327  0.33958191  0.48535051  1
  Ni  Ni25  1  0.34054098  0.66668211  0.31621505  1
  Ni  Ni26  1  0.33100999  0.66558801  0.81670042  1
  Cu  Cu27  1  0.70783022  0.00173359  0.74959009  1
  Cu  Cu28  1  0.36853445  0.03764155  0.58156179  1
  Cu  Cu29  1  0.96177265  0.62919106  0.08379999  1
  C  C30  1  0.29935058  0.00059531  0.25127295  1
  C  C31  1  0.70073954  0.70116704  0.24818171  1
  C  C32  1  0.99947987  0.29846638  0.25014537  1
  C  C33  1  0.28971713  0.29038197  0.75014215  1
  C  C34  1  0.99847990  0.71020367  0.75078564  1
  C  C35  1  0.96084124  0.33350817  0.58205211  1
  C  C36  1  0.66795152  0.62871290  0.58456820  1
  C  C37  1  0.66584286  0.04063121  0.08251661  1
  C  C38  1  0.37516110  0.33423265  0.08284549  1
  C  C39  1  0.62937229  0.66629764  0.91521192  1
  C  C40  1  0.03827762  0.37083912  0.91597058  1
  C  C41  1  0.33374171  0.96526951  0.91524474  1
  C  C42  1  0.62844697  0.96095289  0.41791894  1
  C  C43  1  0.33446023  0.37327066  0.41608754  1
  C  C44  1  0.03982780  0.66533237  0.41574977  1
  C  C45  1  0.22039054  0.02899240  0.30691399  1
  C  C46  1  0.82112587  0.78012735  0.30081231  1
  C  C47  1  0.97240882  0.19295658  0.30586977  1
  C  C48  1  0.20827339  0.17472223  0.80411607  1
  C  C49  1  0.97190666  0.79649952  0.80503699  1
  C  C50  1  0.82903044  0.02355046  0.80552728  1
  C  C51  1  0.79492015  0.97350192  0.69112091  1
  C  C52  1  0.18148263  0.20111191  0.69592295  1
  C  C53  1  0.02579499  0.82477510  0.69670238  1
  C  C54  1  0.77507421  0.80052849  0.19081915  1
  C  C55  1  0.02352356  0.22015968  0.19367873  1
  C  C56  1  0.19011168  0.96930088  0.19540597  1
  C  C57  1  0.87050159  0.36120712  0.63489164  1
  C  C58  1  0.49576296  0.13220708  0.63820188  1
  C  C59  1  0.64336132  0.52001128  0.63993623  1
  C  C60  1  0.87579326  0.50712144  0.14217741  1
  C  C61  1  0.63106058  0.12327870  0.13646857  1
  C  C62  1  0.49086970  0.36319478  0.13677898  1
  C  C63  1  0.44549342  0.29031172  0.02922155  1
  C  C64  1  0.83489965  0.54719396  0.02947333  1
  C  C65  1  0.70032217  0.15154468  0.02862897  1
  C  C66  1  0.44485429  0.14129322  0.52130263  1
  C  C67  1  0.70463822  0.55787014  0.52991416  1
  C  C68  1  0.85527946  0.29722938  0.52573326  1
  C  C69  1  0.53781537  0.68712044  0.97062147  1
  C  C70  1  0.14778608  0.45929219  0.97257462  1
  C  C71  1  0.31236577  0.84965367  0.97029262  1
  C  C72  1  0.53939065  0.85261004  0.47350382  1
  C  C73  1  0.31254412  0.46599178  0.46992807  1
  C  C74  1  0.16003654  0.68730808  0.46826228  1
  C  C75  1  0.11261461  0.63565772  0.35863801  1
  C  C76  1  0.51558355  0.88218685  0.36410662  1
  C  C77  1  0.35537117  0.47351513  0.36029806  1
  C  C78  1  0.12193390  0.47904208  0.86221512  1
  C  C79  1  0.35690185  0.88635537  0.85900898  1
  C  C80  1  0.52829754  0.64617319  0.85902549  1
  C  C81  1  0.03357315  0.83388386  0.41405587  1
  C  C82  1  0.80938503  0.98199105  0.41449456  1
  C  C83  1  0.16578770  0.19310848  0.41455804  1
  C  C84  1  0.03027473  0.19463697  0.91255034  1
  C  C85  1  0.16724523  0.97535185  0.91248072  1
  C  C86  1  0.80810041  0.83220024  0.91265290  1
  C  C87  1  0.97452577  0.17084393  0.59183552  1
  C  C88  1  0.17875022  0.01123715  0.59038287  1
  C  C89  1  0.82034348  0.81439300  0.59149843  1
  C  C90  1  0.99201564  0.82351215  0.08935791  1
  C  C91  1  0.82428254  0.01905710  0.09024144  1
  C  C92  1  0.19040545  0.18269215  0.09101156  1
  C  C93  1  0.68338623  0.17035320  0.74471320  1
  C  C94  1  0.47181109  0.30858653  0.74268961  1
  C  C95  1  0.83158077  0.53545319  0.74317435  1
  C  C96  1  0.68815570  0.52106306  0.24224741  1
  C  C97  1  0.83511199  0.31648699  0.24414509  1
  C  C98  1  0.47828016  0.16028173  0.24339615  1
  C  C99  1  0.64768959  0.50705562  0.91969306  1
  C  C100  1  0.85810075  0.34587158  0.92115206  1
  C  C101  1  0.49238316  0.14255172  0.92200573  1
  C  C102  1  0.65076708  0.14405068  0.42191935  1
  C  C103  1  0.48899546  0.34480901  0.41996964  1
  C  C104  1  0.86337917  0.50196960  0.42291756  1
  C  C105  1  0.36542523  0.50222980  0.07620942  1
  C  C106  1  0.15214230  0.64409948  0.07656625  1
  C  C107  1  0.50332864  0.85827873  0.07635473  1
  C  C108  1  0.36170213  0.85083044  0.57760951  1
  C  C109  1  0.50553681  0.64684167  0.57776441  1
  C  C110  1  0.14123864  0.49268239  0.57692342  1
  C  C111  1  0.31047771  0.83467431  0.25520128  1
  C  C112  1  0.52230717  0.67922689  0.25392878  1
  C  C113  1  0.15280891  0.48321416  0.25332140  1
  C  C114  1  0.31627984  0.47145462  0.75377132  1
  C  C115  1  0.15895134  0.69380619  0.75417247  1
  C  C116  1  0.51673937  0.83100733  0.75280855  1
