# generated using pymatgen
data_Cu2NiC
_symmetry_space_group_name_H-M   'P 1'
_cell_length_a   9.97629663
_cell_length_b   9.97629663
_cell_length_c   30.08393200
_cell_angle_alpha   90.00000000
_cell_angle_beta   90.00000000
_cell_angle_gamma   133.83320820
_symmetry_Int_Tables_number   1
_chemical_formula_structural   Cu2NiC
_chemical_formula_sum   'Cu32 Ni16 C16'
_cell_volume   2159.85565476
_cell_formula_units_Z   16
loop_
 _symmetry_equiv_pos_site_id
 _symmetry_equiv_pos_as_xyz
  1  'x, y, z'
loop_
 _atom_site_type_symbol
 _atom_site_label
 _atom_site_symmetry_multiplicity
 _atom_site_fract_x
 _atom_site_fract_y
 _atom_site_fract_z
 _atom_site_occupancy
  C  C0  1  0.28075300  0.28075300  0.00000000  1
  C  C1  1  0.21924700  0.21924700  0.50000000  1
  C  C2  1  0.71924700  0.71924700  0.00000000  1
  C  C3  1  0.78075300  0.78075300  0.50000000  1
  C  C4  1  0.34310500  0.65689500  0.19373700  1
  C  C5  1  0.65689500  0.34310500  0.80626300  1
  C  C6  1  0.15689500  0.84310500  0.69373700  1
  C  C7  1  0.84310500  0.15689500  0.30626300  1
  C  C8  1  0.20190400  0.79809600  0.01097500  1
  C  C9  1  0.79809600  0.20190400  0.98902500  1
  C  C10  1  0.29809600  0.70190400  0.51097500  1
  C  C11  1  0.70190400  0.29809600  0.48902500  1
  C  C12  1  0.65194300  0.84805700  0.75000000  1
  C  C13  1  0.84805700  0.65194300  0.25000000  1
  C  C14  1  0.34805700  0.15194300  0.25000000  1
  C  C15  1  0.15194300  0.34805700  0.75000000  1
  Ni  Ni16  1  0.44993100  0.99442100  0.37505300  1
  Ni  Ni17  1  0.99442100  0.44993100  0.62494700  1
  Ni  Ni18  1  0.05006900  0.50557900  0.87505300  1
  Ni  Ni19  1  0.50557900  0.05006900  0.12494700  1
  Ni  Ni20  1  0.55006900  0.00557900  0.62494700  1
  Ni  Ni21  1  0.00557900  0.55006900  0.37505300  1
  Ni  Ni22  1  0.94993100  0.49442100  0.12494700  1
  Ni  Ni23  1  0.49442100  0.94993100  0.87505300  1
  Ni  Ni24  1  0.73413600  0.81131400  0.12965300  1
  Ni  Ni25  1  0.81131400  0.73413600  0.87034700  1
  Ni  Ni26  1  0.76586400  0.68868600  0.62965300  1
  Ni  Ni27  1  0.68868600  0.76586400  0.37034700  1
  Ni  Ni28  1  0.26586400  0.18868600  0.87034700  1
  Ni  Ni29  1  0.18868600  0.26586400  0.12965300  1
  Ni  Ni30  1  0.23413600  0.31131400  0.37034700  1
  Ni  Ni31  1  0.31131400  0.23413600  0.62965300  1
  Cu  Cu32  1  0.84846300  0.15153700  0.84625500  1
  Cu  Cu33  1  0.15153700  0.84846300  0.15374500  1
  Cu  Cu34  1  0.65153700  0.34846300  0.34625500  1
  Cu  Cu35  1  0.34846300  0.65153700  0.65374500  1
  Cu  Cu36  1  0.26494500  0.73505500  0.30752400  1
  Cu  Cu37  1  0.73505500  0.26494500  0.69247600  1
  Cu  Cu38  1  0.23505500  0.76494500  0.80752400  1
  Cu  Cu39  1  0.76494500  0.23505500  0.19247600  1
  Cu  Cu40  1  0.45321800  0.54678200  0.58492500  1
  Cu  Cu41  1  0.54678200  0.45321800  0.41507500  1
  Cu  Cu42  1  0.04678200  0.95321800  0.08492500  1
  Cu  Cu43  1  0.95321800  0.04678200  0.91507500  1
  Cu  Cu44  1  0.13832800  0.86167200  0.42057000  1
  Cu  Cu45  1  0.86167200  0.13832800  0.57943000  1
  Cu  Cu46  1  0.36167200  0.63832800  0.92057000  1
  Cu  Cu47  1  0.63832800  0.36167200  0.07943000  1
  Cu  Cu48  1  0.95672300  0.04327700  0.65491400  1
  Cu  Cu49  1  0.04327700  0.95672300  0.34508600  1
  Cu  Cu50  1  0.54327700  0.45672300  0.15491400  1
  Cu  Cu51  1  0.45672300  0.54327700  0.84508600  1
  Cu  Cu52  1  0.42093100  0.57906900  0.30494200  1
  Cu  Cu53  1  0.57906900  0.42093100  0.69505800  1
  Cu  Cu54  1  0.07906900  0.92093100  0.80494200  1
  Cu  Cu55  1  0.92093100  0.07906900  0.19505800  1
  Cu  Cu56  1  0.33633600  0.03127600  0.57610500  1
  Cu  Cu57  1  0.03127600  0.33633600  0.42389500  1
  Cu  Cu58  1  0.16366400  0.46872400  0.07610500  1
  Cu  Cu59  1  0.46872400  0.16366400  0.92389500  1
  Cu  Cu60  1  0.66366400  0.96872400  0.42389500  1
  Cu  Cu61  1  0.96872400  0.66366400  0.57610500  1
  Cu  Cu62  1  0.83633600  0.53127600  0.92389500  1
  Cu  Cu63  1  0.53127600  0.83633600  0.07610500  1
