# generated using pymatgen
data_Cu4Ni4C35
_symmetry_space_group_name_H-M   'P 1'
_cell_length_a   7.72022600
_cell_length_b   8.27177206
_cell_length_c   8.60471215
_cell_angle_alpha   71.12345429
_cell_angle_beta   76.75635764
_cell_angle_gamma   64.39871599
_symmetry_Int_Tables_number   1
_chemical_formula_structural   Cu4Ni4C35
_chemical_formula_sum   'Cu4 Ni4 C35'
_cell_volume   466.32257518
_cell_formula_units_Z   1
loop_
 _symmetry_equiv_pos_site_id
 _symmetry_equiv_pos_as_xyz
  1  'x, y, z'
loop_
 _atom_site_type_symbol
 _atom_site_label
 _atom_site_symmetry_multiplicity
 _atom_site_fract_x
 _atom_site_fract_y
 _atom_site_fract_z
 _atom_site_occupancy
  C  C0  1  0.50000000  0.00000000  0.50000000  1
  C  C1  1  0.79658700  0.16493500  0.96641700  1
  C  C2  1  0.99079600  0.48611700  0.79316700  1
  C  C3  1  0.00920400  0.51388300  0.20683300  1
  C  C4  1  0.20341300  0.83506500  0.03358300  1
  C  C5  1  0.83510700  0.95054100  0.92172000  1
  C  C6  1  0.16489300  0.04945900  0.07828000  1
  C  C7  1  0.60851500  0.07711200  0.02426500  1
  C  C8  1  0.19227100  0.29574300  0.72903000  1
  C  C9  1  0.80772900  0.70425700  0.27097000  1
  C  C10  1  0.14420000  0.53111800  0.60516900  1
  C  C11  1  0.85580000  0.46888200  0.39483100  1
  C  C12  1  0.20034400  0.87848100  0.71124400  1
  C  C13  1  0.58854900  0.60053200  0.69390200  1
  C  C14  1  0.33864400  0.31015800  0.21227300  1
  C  C15  1  0.66135600  0.68984200  0.78772700  1
  C  C16  1  0.39148500  0.92288800  0.97573500  1
  C  C17  1  0.06326300  0.08330800  0.63092500  1
  C  C18  1  0.79965600  0.12151900  0.28875600  1
  C  C19  1  0.93673700  0.91669200  0.36907500  1
  C  C20  1  0.41145100  0.39946800  0.30609800  1
  Ni  Ni21  1  0.73065900  0.08834900  0.93355800  1
  Ni  Ni22  1  0.13757500  0.44155900  0.73022600  1
  Ni  Ni23  1  0.86242500  0.55844100  0.26977400  1
  Ni  Ni24  1  0.26934100  0.91165100  0.06644200  1
  Cu  Cu25  1  0.64446400  0.21529500  0.73788300  1
  Cu  Cu26  1  0.35553600  0.78470500  0.26211700  1
  Cu  Cu27  1  0.28329300  0.46519500  0.84674800  1
  Cu  Cu28  1  0.71670700  0.53480500  0.15325200  1
  C  C29  1  0.49743100  0.42036800  0.74858800  1
  C  C30  1  0.50256900  0.57963200  0.25141200  1
  C  C31  1  0.19159400  0.76433500  0.37859100  1
  C  C32  1  0.54956700  0.11331700  0.69999000  1
  C  C33  1  0.36767900  0.29721600  0.32266400  1
  C  C34  1  0.28123200  0.33569400  0.00979800  1
  C  C35  1  0.71876800  0.66430600  0.99020200  1
  C  C36  1  0.20858300  0.66029200  0.84711700  1
  C  C37  1  0.79141700  0.33970800  0.15288300  1
  C  C38  1  0.63232100  0.70278400  0.67733600  1
  C  C39  1  0.80840600  0.23566500  0.62140900  1
  C  C40  1  0.80067300  0.99784800  0.35195100  1
  C  C41  1  0.19932700  0.00215200  0.64804900  1
  C  C42  1  0.45043300  0.88668300  0.30001000  1
