# generated using pymatgen
data_Cu26Ni20C
_symmetry_space_group_name_H-M   'P 1'
_cell_length_a   13.41078563
_cell_length_b   13.41078563
_cell_length_c   10.39757687
_cell_angle_alpha   84.05207654
_cell_angle_beta   84.05207654
_cell_angle_gamma   33.33214107
_symmetry_Int_Tables_number   1
_chemical_formula_structural   Cu26Ni20C
_chemical_formula_sum   'Cu52 Ni40 C2'
_cell_volume   1021.51780881
_cell_formula_units_Z   2
loop_
 _symmetry_equiv_pos_site_id
 _symmetry_equiv_pos_as_xyz
  1  'x, y, z'
loop_
 _atom_site_type_symbol
 _atom_site_label
 _atom_site_symmetry_multiplicity
 _atom_site_fract_x
 _atom_site_fract_y
 _atom_site_fract_z
 _atom_site_occupancy
  Ni  Ni0  1  0.90116000  0.78117200  0.62574700  1
  Ni  Ni1  1  0.21882800  0.09884000  0.87425300  1
  Ni  Ni2  1  0.09884000  0.21882800  0.37425300  1
  Ni  Ni3  1  0.78117200  0.90116000  0.12574700  1
  Ni  Ni4  1  0.99914000  0.63528600  0.76201300  1
  Ni  Ni5  1  0.36471400  0.00086000  0.73798700  1
  Ni  Ni6  1  0.00086000  0.36471400  0.23798700  1
  Ni  Ni7  1  0.63528600  0.99914000  0.26201300  1
  Ni  Ni8  1  0.23239300  0.46746400  0.75422100  1
  Ni  Ni9  1  0.53253600  0.76760700  0.74577900  1
  Ni  Ni10  1  0.76760700  0.53253600  0.24577900  1
  Ni  Ni11  1  0.46746400  0.23239300  0.25422100  1
  Ni  Ni12  1  0.29741500  0.55407800  0.72332900  1
  Ni  Ni13  1  0.44592200  0.70258500  0.77667100  1
  Ni  Ni14  1  0.70258500  0.44592200  0.27667100  1
  Ni  Ni15  1  0.55407800  0.29741500  0.22332900  1
  Ni  Ni16  1  0.11270100  0.79654800  0.70868000  1
  Ni  Ni17  1  0.20345200  0.88729900  0.79132000  1
  Ni  Ni18  1  0.88729900  0.20345200  0.29132000  1
  Ni  Ni19  1  0.79654800  0.11270100  0.20868000  1
  Ni  Ni20  1  0.96181900  0.87146600  0.59922600  1
  Ni  Ni21  1  0.12853400  0.03818100  0.90077400  1
  Ni  Ni22  1  0.03818100  0.12853400  0.40077400  1
  Ni  Ni23  1  0.87146600  0.96181900  0.09922600  1
  Ni  Ni24  1  0.10993300  0.53852800  0.61702400  1
  Ni  Ni25  1  0.46147200  0.89006700  0.88297600  1
  Ni  Ni26  1  0.89006700  0.46147200  0.38297600  1
  Ni  Ni27  1  0.53852800  0.10993300  0.11702400  1
  Ni  Ni28  1  0.28542500  0.48440800  0.59975400  1
  Ni  Ni29  1  0.51559200  0.71457500  0.90024600  1
  Ni  Ni30  1  0.71457500  0.51559200  0.40024600  1
  Ni  Ni31  1  0.48440800  0.28542500  0.09975400  1
  Ni  Ni32  1  0.20413000  0.67663100  0.57000600  1
  Ni  Ni33  1  0.32336900  0.79587000  0.92999400  1
  Ni  Ni34  1  0.79587000  0.32336900  0.42999400  1
  Ni  Ni35  1  0.67663100  0.20413000  0.07000600  1
  Ni  Ni36  1  0.07758700  0.68195300  0.52056400  1
  Ni  Ni37  1  0.31804700  0.92241300  0.97943600  1
  Ni  Ni38  1  0.92241300  0.31804700  0.47943600  1
  Ni  Ni39  1  0.68195300  0.07758700  0.02056400  1
  Cu  Cu40  1  0.85801100  0.80948700  0.75869900  1
  Cu  Cu41  1  0.19051300  0.14198900  0.74130100  1
  Cu  Cu42  1  0.14198900  0.19051300  0.24130100  1
  Cu  Cu43  1  0.80948700  0.85801100  0.25869900  1
  Cu  Cu44  1  0.09527400  0.58847900  0.84906100  1
  Cu  Cu45  1  0.41152100  0.90472600  0.65093900  1
  Cu  Cu46  1  0.90472600  0.41152100  0.15093900  1
  Cu  Cu47  1  0.58847900  0.09527400  0.34906100  1
  Cu  Cu48  1  0.17251700  0.67561200  0.80854900  1
  Cu  Cu49  1  0.32438800  0.82748300  0.69145100  1
  Cu  Cu50  1  0.82748300  0.32438800  0.19145100  1
  Cu  Cu51  1  0.67561200  0.17251700  0.30854900  1
  Cu  Cu52  1  0.94070500  0.89377900  0.72275800  1
  Cu  Cu53  1  0.10622100  0.05929500  0.77724200  1
  Cu  Cu54  1  0.05929500  0.10622100  0.27724200  1
  Cu  Cu55  1  0.89377900  0.94070500  0.22275800  1
  Cu  Cu56  1  0.75836600  0.87526200  0.58824400  1
  Cu  Cu57  1  0.12473800  0.24163400  0.91175600  1
  Cu  Cu58  1  0.24163400  0.12473800  0.41175600  1
  Cu  Cu59  1  0.87526200  0.75836600  0.08824400  1
  Cu  Cu60  1  0.88396000  0.50112100  0.82497500  1
  Cu  Cu61  1  0.49887900  0.11604000  0.67502500  1
  Cu  Cu62  1  0.11604000  0.49887900  0.17502500  1
  Cu  Cu63  1  0.50112100  0.88396000  0.32497500  1
  Cu  Cu64  1  0.33593700  0.32859800  0.81597400  1
  Cu  Cu65  1  0.67140200  0.66406300  0.68402600  1
  Cu  Cu66  1  0.66406300  0.67140200  0.18402600  1
  Cu  Cu67  1  0.32859800  0.33593700  0.31597400  1
  Cu  Cu68  1  0.43871800  0.46167500  0.76197100  1
  Cu  Cu69  1  0.53832500  0.56128200  0.73802900  1
  Cu  Cu70  1  0.56128200  0.53832500  0.23802900  1
  Cu  Cu71  1  0.46167500  0.43871800  0.26197100  1
  Cu  Cu72  1  0.85342800  0.01779200  0.54795900  1
  Cu  Cu73  1  0.98220800  0.14657200  0.95204100  1
  Cu  Cu74  1  0.14657200  0.98220800  0.45204100  1
  Cu  Cu75  1  0.01779200  0.85342800  0.04795900  1
  Cu  Cu76  1  0.12753200  0.44747400  0.56781600  1
  Cu  Cu77  1  0.55252600  0.87246800  0.93218400  1
  Cu  Cu78  1  0.87246800  0.55252600  0.43218400  1
  Cu  Cu79  1  0.44747400  0.12753200  0.06781600  1
  Cu  Cu80  1  0.42936000  0.34391500  0.55310700  1
  Cu  Cu81  1  0.65608500  0.57064000  0.94689300  1
  Cu  Cu82  1  0.70563000  0.04930200  0.90781300  1
  Cu  Cu83  1  0.95069800  0.29437000  0.59218700  1
  Cu  Cu84  1  0.29437000  0.95069800  0.09218700  1
  Cu  Cu85  1  0.04930200  0.70563000  0.40781300  1
  Cu  Cu86  1  0.67383600  0.27806700  0.99169600  1
  Cu  Cu87  1  0.72193300  0.32616400  0.50830400  1
  Cu  Cu88  1  0.32616400  0.72193300  0.00830400  1
  Cu  Cu89  1  0.27806700  0.67383600  0.49169600  1
  Cu  Cu90  1  0.34391500  0.42936000  0.05310700  1
  Cu  Cu91  1  0.57064000  0.65608500  0.44689300  1
  C  C92  1  0.09557800  0.90442200  0.75000000  1
  C  C93  1  0.90442200  0.09557800  0.25000000  1
