# generated using pymatgen
data_Cu2Ni4C9
_symmetry_space_group_name_H-M   'P 1'
_cell_length_a   5.99783053
_cell_length_b   6.31709489
_cell_length_c   6.19050817
_cell_angle_alpha   60.65092171
_cell_angle_beta   58.93113497
_cell_angle_gamma   66.87138855
_symmetry_Int_Tables_number   1
_chemical_formula_structural   Cu2Ni4C9
_chemical_formula_sum   'Cu2 Ni4 C9'
_cell_volume   172.01841514
_cell_formula_units_Z   1
loop_
 _symmetry_equiv_pos_site_id
 _symmetry_equiv_pos_as_xyz
  1  'x, y, z'
loop_
 _atom_site_type_symbol
 _atom_site_label
 _atom_site_symmetry_multiplicity
 _atom_site_fract_x
 _atom_site_fract_y
 _atom_site_fract_z
 _atom_site_occupancy
  C  C0  1  0.12500000  0.62500000  0.12500000  1
  Ni  Ni1  1  0.97155463  0.09517696  0.96658666  1
  Ni  Ni2  1  0.27844537  0.15482304  0.28341334  1
  Ni  Ni3  1  0.62500000  0.62500000  0.12500000  1
  Ni  Ni4  1  0.62500000  0.62500000  0.62500000  1
  Cu  Cu5  1  0.12500000  0.62500000  0.62500000  1
  Cu  Cu6  1  0.62500000  0.12500000  0.62500000  1
  C  C7  1  0.35988604  0.41085910  0.35627396  1
  C  C8  1  0.44288825  0.79511594  0.38096314  1
  C  C9  1  0.35989792  0.41088403  0.87302920  1
  C  C10  1  0.87649450  0.35580671  0.38387574  1
  C  C11  1  0.37350550  0.89419329  0.86612426  1
  C  C12  1  0.80711175  0.45488406  0.86903686  1
  C  C13  1  0.89010208  0.83911597  0.37697080  1
  C  C14  1  0.89011396  0.83914090  0.89372604  1
