# generated using pymatgen
data_CuNiC9
_symmetry_space_group_name_H-M   'P 1'
_cell_length_a   5.62730514
_cell_length_b   6.21124092
_cell_length_c   6.37717047
_cell_angle_alpha   95.98117419
_cell_angle_beta   109.18693277
_cell_angle_gamma   120.96412437
_symmetry_Int_Tables_number   1
_chemical_formula_structural   CuNiC9
_chemical_formula_sum   'Cu1 Ni1 C9'
_cell_volume   169.92686245
_cell_formula_units_Z   1
loop_
 _symmetry_equiv_pos_site_id
 _symmetry_equiv_pos_as_xyz
  1  'x, y, z'
loop_
 _atom_site_type_symbol
 _atom_site_label
 _atom_site_symmetry_multiplicity
 _atom_site_fract_x
 _atom_site_fract_y
 _atom_site_fract_z
 _atom_site_occupancy
  C  C0  1  0.54485443  0.70344440  0.23200278  1
  C  C1  1  0.38893081  0.16842717  0.47772229  1
  C  C2  1  0.79893314  0.29544894  0.11119669  1
  Ni  Ni3  1  0.12584194  0.58366997  0.64640145  1
  Cu  Cu4  1  0.98333958  0.02859084  0.86588124  1
  C  C5  1  0.15136618  0.69525226  0.35053177  1
  C  C6  1  0.98456964  0.37225491  0.87589364  1
  C  C7  1  0.56235614  0.87682610  0.88921626  1
  C  C8  1  0.42326399  0.25094010  0.11122293  1
  C  C9  1  -0.03645286  0.21560718  0.41921664  1
  C  C10  1  0.82299703  0.67858614  0.62785731  1
