# generated using pymatgen
data_CuNi2C17
_symmetry_space_group_name_H-M   'P 1'
_cell_length_a   15.64658355
_cell_length_b   9.06762777
_cell_length_c   9.10433727
_cell_angle_alpha   90.00000000
_cell_angle_beta   125.23054672
_cell_angle_gamma   90.00000000
_symmetry_Int_Tables_number   1
_chemical_formula_structural   CuNi2C17
_chemical_formula_sum   'Cu4 Ni8 C68'
_cell_volume   1055.10867281
_cell_formula_units_Z   4
loop_
 _symmetry_equiv_pos_site_id
 _symmetry_equiv_pos_as_xyz
  1  'x, y, z'
loop_
 _atom_site_type_symbol
 _atom_site_label
 _atom_site_symmetry_multiplicity
 _atom_site_fract_x
 _atom_site_fract_y
 _atom_site_fract_z
 _atom_site_occupancy
  C  C0  1  0.24493595  0.77150123  0.99601722  1
  C  C1  1  0.74493595  0.72849877  0.49601722  1
  C  C2  1  0.74493595  0.27150123  0.99601722  1
  C  C3  1  0.24493595  0.22849877  0.49601722  1
  C  C4  1  0.50222309  0.10784885  0.75002733  1
  C  C5  1  0.50222309  0.89215115  0.25002733  1
  C  C6  1  0.00222309  0.60784885  0.75002733  1
  C  C7  1  0.00222309  0.39215115  0.25002733  1
  C  C8  1  0.80826457  0.93401540  0.21395077  1
  C  C9  1  0.80826457  0.06598460  0.71395077  1
  C  C10  1  0.30826457  0.43401540  0.21395077  1
  C  C11  1  0.30826457  0.56598460  0.71395077  1
  Ni  Ni12  1  0.35351411  0.89565965  0.75423155  1
  Ni  Ni13  1  0.64872101  0.89493581  0.74517326  1
  Ni  Ni14  1  0.64872101  0.10506419  0.24517326  1
  Ni  Ni15  1  0.35351411  0.10434035  0.25423155  1
  Ni  Ni16  1  0.85351411  0.39565965  0.75423155  1
  Ni  Ni17  1  0.14872101  0.39493581  0.74517326  1
  Ni  Ni18  1  0.14872101  0.60506419  0.24517326  1
  Ni  Ni19  1  0.85351411  0.60434035  0.25423155  1
  C  C20  1  0.10333044  0.75024339  0.55904667  1
  C  C21  1  0.89688413  0.74534244  0.93646993  1
  C  C22  1  0.89688413  0.25465756  0.43646993  1
  C  C23  1  0.10333044  0.24975661  0.05904667  1
  C  C24  1  0.60333044  0.25024339  0.55904667  1
  C  C25  1  0.39688413  0.24534244  0.93646993  1
  C  C26  1  0.39688413  0.75465756  0.43646993  1
  C  C27  1  0.60333044  0.74975661  0.05904667  1
  Cu  Cu28  1  0.00212928  0.95864648  0.74860740  1
  Cu  Cu29  1  0.00212928  0.04135352  0.24860740  1
  Cu  Cu30  1  0.50212928  0.45864648  0.74860740  1
  Cu  Cu31  1  0.50212928  0.54135352  0.24860740  1
  C  C32  1  0.15226163  0.57774714  0.74323589  1
  C  C33  1  0.85177844  0.57680875  0.75412850  1
  C  C34  1  0.85177844  0.42319125  0.25412850  1
  C  C35  1  0.15226163  0.42225286  0.24323589  1
  C  C36  1  0.65226163  0.07774714  0.74323589  1
  C  C37  1  0.35177844  0.07680875  0.75412850  1
  C  C38  1  0.35177844  0.92319125  0.25412850  1
  C  C39  1  0.65226163  0.92225286  0.24323589  1
  C  C40  1  0.43265859  0.55041188  0.57416399  1
  C  C41  1  0.56554444  0.55453469  0.91789733  1
  C  C42  1  0.56554444  0.44546531  0.41789733  1
  C  C43  1  0.43265859  0.44958812  0.07416399  1
  C  C44  1  0.93265859  0.05041188  0.57416399  1
  C  C45  1  0.06554444  0.05453469  0.91789733  1
  C  C46  1  0.06554444  0.94546531  0.41789733  1
  C  C47  1  0.93265859  0.94958812  0.07416399  1
  C  C48  1  0.25405631  0.81979033  0.73960269  1
  C  C49  1  0.75221967  0.83831121  0.75640263  1
  C  C50  1  0.75221967  0.16168879  0.25640263  1
  C  C51  1  0.25405631  0.18020967  0.23960269  1
  C  C52  1  0.75405631  0.31979033  0.73960269  1
  C  C53  1  0.25221967  0.33831121  0.75640263  1
  C  C54  1  0.25221967  0.66168879  0.25640263  1
  C  C55  1  0.75405631  0.68020967  0.23960269  1
  C  C56  1  0.36000157  0.85477348  0.58702030  1
  C  C57  1  0.64885437  0.86380277  0.92261039  1
  C  C58  1  0.64885437  0.13619723  0.42261039  1
  C  C59  1  0.36000157  0.14522652  0.08702030  1
  C  C60  1  0.86000157  0.35477348  0.58702030  1
  C  C61  1  0.14885437  0.36380277  0.92261039  1
  C  C62  1  0.14885437  0.63619723  0.42261039  1
  C  C63  1  0.86000157  0.64522652  0.08702030  1
  C  C64  1  0.45485545  0.82488270  0.94192776  1
  C  C65  1  0.54661447  0.82690519  0.55939310  1
  C  C66  1  0.54661447  0.17309481  0.05939310  1
  C  C67  1  0.45485545  0.17511730  0.44192776  1
  C  C68  1  0.95485545  0.32488270  0.94192776  1
  C  C69  1  0.04661447  0.32690519  0.55939310  1
  C  C70  1  0.04661447  0.67309481  0.05939310  1
  C  C71  1  0.95485545  0.67511730  0.44192776  1
  C  C72  1  0.07939621  0.85524088  0.74532741  1
  C  C73  1  0.92175628  0.86141326  0.75476589  1
  C  C74  1  0.92175628  0.13858674  0.25476589  1
  C  C75  1  0.07939621  0.14475912  0.24532741  1
  C  C76  1  0.57939621  0.35524088  0.74532741  1
  C  C77  1  0.42175628  0.36141326  0.75476589  1
  C  C78  1  0.42175628  0.63858674  0.25476589  1
  C  C79  1  0.57939621  0.64475912  0.24532741  1
