# generated using pymatgen
data_CuNiC9
_symmetry_space_group_name_H-M   'P 1'
_cell_length_a   5.83684973
_cell_length_b   6.05799136
_cell_length_c   5.97887432
_cell_angle_alpha   94.47812496
_cell_angle_beta   119.13323618
_cell_angle_gamma   118.40288467
_symmetry_Int_Tables_number   1
_chemical_formula_structural   CuNiC9
_chemical_formula_sum   'Cu1 Ni1 C9'
_cell_volume   148.66020491
_cell_formula_units_Z   1
loop_
 _symmetry_equiv_pos_site_id
 _symmetry_equiv_pos_as_xyz
  1  'x, y, z'
loop_
 _atom_site_type_symbol
 _atom_site_label
 _atom_site_symmetry_multiplicity
 _atom_site_fract_x
 _atom_site_fract_y
 _atom_site_fract_z
 _atom_site_occupancy
  C  C0  1  0.53445800  0.69389900  0.32612100  1
  C  C1  1  0.46554200  0.30610100  0.67387900  1
  Ni  Ni2  1  0.50000000  0.00000000  0.00000000  1
  Cu  Cu3  1  0.00000000  0.50000000  0.50000000  1
  C  C4  1  0.00000000  0.00000000  0.00000000  1
  C  C5  1  0.00065400  0.79259800  0.30606300  1
  C  C6  1  0.99934700  0.20740200  0.69393700  1
  C  C7  1  0.97130300  0.28593900  0.19836300  1
  C  C8  1  0.02869700  0.71406100  0.80163700  1
  C  C9  1  0.51353400  0.25660400  0.25359300  1
  C  C10  1  0.48646600  0.74339600  0.74640700  1
