# generated using pymatgen
data_Cu2(NiC15)5
_symmetry_space_group_name_H-M   'P 1'
_cell_length_a   18.28779583
_cell_length_b   9.16627320
_cell_length_c   22.14471038
_cell_angle_alpha   90.00273226
_cell_angle_beta   89.73184459
_cell_angle_gamma   120.29149637
_symmetry_Int_Tables_number   1
_chemical_formula_structural   Cu2(NiC15)5
_chemical_formula_sum   'Cu6 Ni15 C225'
_cell_volume   3205.27515046
_cell_formula_units_Z   3
loop_
 _symmetry_equiv_pos_site_id
 _symmetry_equiv_pos_as_xyz
  1  'x, y, z'
loop_
 _atom_site_type_symbol
 _atom_site_label
 _atom_site_symmetry_multiplicity
 _atom_site_fract_x
 _atom_site_fract_y
 _atom_site_fract_z
 _atom_site_occupancy
  C  C0  1  0.81137969  0.00657501  0.24922054  1
  C  C1  1  0.69073946  0.36380832  0.24733230  1
  C  C2  1  0.50257852  0.64078569  0.24364492  1
  C  C3  1  0.31092881  0.61634528  0.75015302  1
  C  C4  1  0.00399449  0.36721732  0.74304974  1
  C  C5  1  0.17805138  0.99290994  0.74261059  1
  C  C6  1  0.15511714  0.33152064  0.57107508  1
  C  C7  1  0.66963891  0.36530165  0.58163791  1
  C  C8  1  0.01293508  0.69136302  0.57104487  1
  C  C9  1  0.52192384  0.68334553  0.58915653  1
  C  C10  1  0.32285849  0.98267987  0.58074898  1
  C  C11  1  0.82331776  0.96447082  0.58918481  1
  C  C12  1  0.16133342  0.96503615  0.07310521  1
  C  C13  1  0.65935566  0.98855990  0.06521911  1
  C  C14  1  0.31994006  0.68361125  0.08151940  1
  C  C15  1  0.82539208  0.66532213  0.07324921  1
  C  C16  1  0.01928455  0.35941409  0.08241058  1
  C  C17  1  0.51150653  0.33000819  0.06416880  1
  C  C18  1  0.48502858  0.66320060  0.92145816  1
  C  C19  1  0.97753479  0.65634373  0.91409742  1
  C  C20  1  0.35225872  0.04074051  0.92612599  1
  C  C21  1  0.84795621  0.04494126  0.91116045  1
  C  C22  1  0.16724586  0.28944660  0.91503418  1
  C  C23  1  0.66405412  0.29125867  0.93112579  1
  C  C24  1  0.48080650  0.30888538  0.42913276  1
  C  C25  1  0.98591912  0.30878873  0.42644797  1
  C  C26  1  0.15986707  0.03042884  0.43399508  1
  C  C27  1  0.67268670  0.05264847  0.42313969  1
  C  C28  1  0.34428413  0.65072113  0.41979220  1
  C  C29  1  0.85221667  0.66275255  0.42768047  1
  C  C30  1  0.00222865  0.98241675  0.49875126  1
  C  C31  1  0.50798492  0.01794188  0.50206872  1
  C  C32  1  0.00575216  0.99692216  0.99582273  1
  C  C33  1  0.50308803  0.02078520  0.99509971  1
  C  C34  1  0.34100958  0.33235598  0.82994219  1
  C  C35  1  0.82579951  0.33235142  0.82641397  1
  C  C36  1  0.31501264  0.32036949  0.33198241  1
  C  C37  1  0.84487176  0.35047516  0.33189696  1
  C  C38  1  0.16585577  0.66984830  0.15723219  1
  C  C39  1  0.66818922  0.66310161  0.16200844  1
  C  C40  1  0.15946861  0.67368449  0.66743184  1
  C  C41  1  0.66982327  0.66486340  0.65921890  1
  C  C42  1  0.01054265  0.00736374  0.35809592  1
  C  C43  1  0.50691402  0.00976232  0.33985493  1
  C  C44  1  0.00982946  0.98217292  0.82598695  1
  C  C45  1  0.51020558  0.01360894  0.85764879  1
  C  C46  1  0.32374187  0.30749433  0.67536065  1
  C  C47  1  0.83112853  0.35351335  0.67969513  1
  C  C48  1  0.31278532  0.29955229  0.16431232  1
  C  C49  1  0.82418991  0.33665927  0.17353727  1
  C  C50  1  0.33236405  0.30569260  0.99059076  1
  C  C51  1  0.82517412  0.33697490  0.99021222  1
  C  C52  1  0.32477276  0.31743529  0.49289620  1
  C  C53  1  0.83546360  0.36016947  0.49581661  1
  C  C54  1  0.16433079  0.66562044  0.02254000  1
  C  C55  1  0.65836055  0.64813152  0.00831995  1
  C  C56  1  0.15677403  0.66665204  0.50957526  1
  C  C57  1  0.66556727  0.67206833  0.52521282  1
  C  C58  1  0.66366117  0.68161549  0.31642830  1
  C  C59  1  0.15662844  0.64333287  0.81115385  1
  Ni  Ni60  1  0.65213525  0.00288681  0.25150106  1
  Ni  Ni61  1  0.15308821  0.29797418  0.75019404  1
  Ni  Ni62  1  0.99372242  0.67732287  0.75388828  1
  Ni  Ni63  1  0.47581163  0.33272214  0.58232829  1
  Ni  Ni64  1  0.17892772  0.01491709  0.58441091  1
  Ni  Ni65  1  0.69104281  0.05328567  0.58319145  1
  Ni  Ni66  1  0.83569269  0.64600965  0.58354956  1
  Ni  Ni67  1  0.97533738  0.61945369  0.08203814  1
  Ni  Ni68  1  0.33670100  0.02947651  0.08560729  1
  Ni  Ni69  1  0.18597444  0.33283644  0.08051954  1
  Ni  Ni70  1  0.67922816  0.34260086  0.08624623  1
  Ni  Ni71  1  0.51105098  0.36543603  0.91578886  1
  Ni  Ni72  1  0.67230692  0.97016128  0.92191971  1
  Ni  Ni73  1  0.17197647  0.37468904  0.42197969  1
  Ni  Ni74  1  0.01079030  0.65716024  0.41603006  1
  Cu  Cu75  1  0.00247065  0.98706337  0.65278256  1
  Cu  Cu76  1  0.50829249  0.02339011  0.64996590  1
  Cu  Cu77  1  0.00719898  0.99353484  0.14977119  1
  Cu  Cu78  1  0.50134888  0.00435480  0.15122746  1
  Cu  Cu79  1  0.16313059  0.65042905  0.31870221  1
  Cu  Cu80  1  0.66395726  0.67605645  0.81888054  1
  C  C81  1  0.15261663  0.98747289  0.25387781  1
  C  C82  1  0.34676955  0.70337390  0.25375118  1
  C  C83  1  0.85497691  0.71637494  0.25389635  1
  C  C84  1  0.00596100  0.29321490  0.25187858  1
  C  C85  1  0.49947255  0.30302852  0.25395429  1
  C  C86  1  0.64988009  0.31692547  0.75473904  1
  C  C87  1  0.50587143  0.71788206  0.75188986  1
  C  C88  1  0.35756009  0.99744947  0.75351451  1
  C  C89  1  0.84507322  0.98279050  0.75397482  1
  C  C90  1  0.98332175  0.32529928  0.58616320  1
  C  C91  1  0.33883503  0.64435490  0.58636444  1
  C  C92  1  0.48131052  0.63446217  0.08894477  1
  C  C93  1  0.83792085  0.03223415  0.08790887  1
  C  C94  1  0.31214566  0.66625454  0.91426795  1
  C  C95  1  0.81599293  0.67331328  0.91573816  1
  C  C96  1  0.01638530  0.36114543  0.91801003  1
  C  C97  1  0.16604270  0.95649084  0.91494695  1
  C  C98  1  0.32003604  0.96316763  0.41147429  1
  C  C99  1  0.81367105  0.96228971  0.41396636  1
  C  C100  1  0.66145673  0.37532638  0.41092757  1
  C  C101  1  0.51666291  0.67249571  0.41485278  1
  C  C102  1  0.10592636  0.98938328  0.30724824  1
  C  C103  1  0.61194343  0.03533855  0.31260471  1
  C  C104  1  0.39463361  0.79759976  0.30792712  1
  C  C105  1  0.90172125  0.81626603  0.30640365  1
  C  C106  1  0.48860579  0.20279273  0.30906234  1
  C  C107  1  0.00531153  0.19715373  0.30516229  1
  C  C108  1  0.11027434  0.19034838  0.81246232  1
  C  C109  1  0.60165684  0.22129437  0.80792832  1
  C  C110  1  0.50532509  0.81231507  0.80549754  1
  C  C111  1  0.97858304  0.75442646  0.81631848  1
  C  C112  1  0.40576855  0.99491438  0.80571077  1
  C  C113  1  0.89406927  0.98779668  0.80794603  1
  C  C114  1  0.39838424  0.97537051  0.69521208  1
  C  C115  1  0.88815570  0.97490690  0.69704754  1
  C  C116  1  0.08430150  0.20337662  0.69330725  1
  C  C117  1  0.60059306  0.23918691  0.69645058  1
  C  C118  1  0.01047535  0.80844812  0.69658543  1
  C  C119  1  0.51107697  0.81395123  0.69385320  1
  C  C120  1  0.38971564  0.80099483  0.19710402  1
  C  C121  1  0.89634629  0.82006312  0.19604980  1
  C  C122  1  0.01053481  0.20778909  0.19372333  1
  C  C123  1  0.50458267  0.21060167  0.19894035  1
  C  C124  1  0.10398225  0.97022912  0.19572575  1
  C  C125  1  0.58243170  0.95866845  0.19482217  1
  C  C126  1  0.43123603  0.37791585  0.63675052  1
  C  C127  1  0.94062842  0.33456051  0.64102674  1
  C  C128  1  0.23466854  0.08920554  0.64547112  1
  C  C129  1  0.75400396  0.14023901  0.63909736  1
  C  C130  1  0.32866224  0.54483445  0.64121745  1
  C  C131  1  0.81415847  0.51722038  0.63838992  1
  C  C132  1  0.43800837  0.54125938  0.14495059  1
  C  C133  1  0.93212997  0.48640090  0.13743776  1
  C  C134  1  0.32804529  0.12186635  0.14504703  1
  C  C135  1  0.82824662  0.10988380  0.14366093  1
  C  C136  1  0.24649307  0.38818446  0.13992878  1
  C  C137  1  0.73281568  0.37443318  0.14812694  1
  C  C138  1  0.22543690  0.28458725  0.02210513  1
  C  C139  1  0.71924373  0.29760209  0.02805635  1
  C  C140  1  0.43420380  0.54826670  0.03382961  1
  C  C141  1  0.91986205  0.55354207  0.01948860  1
  C  C142  1  0.36489810  0.14833410  0.02500453  1
  C  C143  1  0.84866505  0.13338800  0.03327545  1
  C  C144  1  0.22036786  0.13631633  0.52542407  1
  C  C145  1  0.72472337  0.16577999  0.51996681  1
  C  C146  1  0.35046672  0.56679139  0.53082701  1
  C  C147  1  0.86476995  0.58581055  0.52244344  1
  C  C148  1  0.42033298  0.29054107  0.51965054  1
  C  C149  1  0.93599828  0.31495865  0.53010757  1
  C  C150  1  0.27149953  0.68397674  0.96982399  1
  C  C151  1  0.77368520  0.67809058  0.97250839  1
  C  C152  1  0.06783988  0.44961478  0.97182422  1
  C  C153  1  0.57059010  0.43988048  0.97483484  1
  C  C154  1  0.16629512  0.86778386  0.97106825  1
  C  C155  1  0.66011292  0.85232772  0.98086423  1
  C  C156  1  0.28102490  0.86972143  0.46787951  1
  C  C157  1  0.76823337  0.85569976  0.46639726  1
  C  C158  1  0.16249136  0.47133921  0.48065186  1
  C  C159  1  0.66028972  0.46495514  0.46583614  1
  C  C160  1  0.07091612  0.70401829  0.47483582  1
  C  C161  1  0.56941865  0.68807710  0.46730999  1
  C  C162  1  0.05869491  0.61851649  0.35757516  1
  C  C163  1  0.55614542  0.66009039  0.35697015  1
  C  C164  1  0.26480164  0.87344354  0.35761455  1
  C  C165  1  0.76786021  0.88129695  0.35626190  1
  C  C166  1  0.19659259  0.50366954  0.36150247  1
  C  C167  1  0.66238267  0.46796213  0.35490910  1
  C  C168  1  0.05854586  0.45406182  0.86145011  1
  C  C169  1  0.55968554  0.50094711  0.85839911  1
  C  C170  1  0.16715121  0.86497197  0.86021101  1
  C  C171  1  0.69621388  0.88842543  0.86229894  1
  C  C172  1  0.26383793  0.65936931  0.85922976  1
  C  C173  1  0.76123408  0.65312815  0.86184172  1
  C  C174  1  0.99863101  0.82168093  0.40860355  1
  C  C175  1  0.50612768  0.82535908  0.41442772  1
  C  C176  1  0.40471099  0.97502595  0.40659503  1
  C  C177  1  0.90063282  0.98463858  0.41354388  1
  C  C178  1  0.08330182  0.19262927  0.41582381  1
  C  C179  1  0.58162179  0.20283712  0.41348370  1
  C  C180  1  0.00469606  0.18746286  0.91757825  1
  C  C181  1  0.49817721  0.17565355  0.90938814  1
  C  C182  1  0.08827152  0.97258544  0.91760413  1
  C  C183  1  0.58396070  0.97640780  0.91587297  1
  C  C184  1  0.40026449  0.81693079  0.91298989  1
  C  C185  1  0.89851030  0.83290570  0.91318291  1
  C  C186  1  0.47875019  0.15138163  0.59037611  1
  C  C187  1  0.98878880  0.16588284  0.58595474  1
  C  C188  1  0.08579209  0.00722574  0.58704412  1
  C  C189  1  0.59360119  0.03708426  0.59028275  1
  C  C190  1  0.42107800  0.81640222  0.58946308  1
  C  C191  1  0.91706429  0.84186291  0.59143540  1
  C  C192  1  0.48596059  0.80544926  0.08745816  1
  C  C193  1  0.97871771  0.80714671  0.09101547  1
  C  C194  1  0.41678501  0.99186508  0.09238239  1
  C  C195  1  0.91933926  0.02324556  0.09064885  1
  C  C196  1  0.09133126  0.15164304  0.08941425  1
  C  C197  1  0.58401379  0.16535210  0.08963864  1
  C  C198  1  0.35359176  0.15333451  0.75133593  1
  C  C199  1  0.83410481  0.13001963  0.75404128  1
  C  C200  1  0.24632579  0.31216351  0.74241530  1
  C  C201  1  0.73194721  0.32750331  0.75221623  1
  C  C202  1  0.42848347  0.55218598  0.75091501  1
  C  C203  1  0.91656740  0.48340314  0.74470444  1
  C  C204  1  0.34182665  0.53785621  0.25336658  1
  C  C205  1  0.85052840  0.55184326  0.25253945  1
  C  C206  1  0.42975550  0.33971908  0.25012924  1
  C  C207  1  0.92911628  0.30548047  0.25124667  1
  C  C208  1  0.23624039  0.14245416  0.25061082  1
  C  C209  1  0.74625029  0.17125839  0.24195614  1
  C  C210  1  0.31846264  0.51040968  0.91525405  1
  C  C211  1  0.82584619  0.52251482  0.91308194  1
  C  C212  1  0.41922871  0.35849524  0.91959441  1
  C  C213  1  0.93162108  0.34824116  0.91992454  1
  C  C214  1  0.24341055  0.12919885  0.91260687  1
  C  C215  1  0.75524892  0.16256133  0.92431678  1
  C  C216  1  0.33020002  0.13403638  0.40974518  1
  C  C217  1  0.82135422  0.13170920  0.41638885  1
  C  C218  1  0.25483173  0.34843172  0.42409834  1
  C  C219  1  0.73717308  0.35505678  0.40809469  1
  C  C220  1  0.43129074  0.51724873  0.41776825  1
  C  C221  1  0.91888931  0.48053049  0.42026556  1
  C  C222  1  0.16522234  0.48455700  0.07339267  1
  C  C223  1  0.66783052  0.50776980  0.07839365  1
  C  C224  1  0.07386996  0.66606386  0.07703556  1
  C  C225  1  0.56883854  0.66442761  0.08885471  1
  C  C226  1  0.25199871  0.84531623  0.07865676  1
  C  C227  1  0.76512345  0.85768271  0.08412089  1
  C  C228  1  0.16735558  0.82581158  0.57747319  1
  C  C229  1  0.66901387  0.85689621  0.57769102  1
  C  C230  1  0.26680454  0.67387062  0.58212039  1
  C  C231  1  0.75356489  0.66933313  0.57558991  1
  C  C232  1  0.07067949  0.47383951  0.58497018  1
  C  C233  1  0.57462529  0.48472469  0.57711578  1
  C  C234  1  0.16196137  0.83192035  0.25308664  1
  C  C235  1  0.65890037  0.82932845  0.25143540  1
  C  C236  1  0.26013303  0.68632109  0.25151749  1
  C  C237  1  0.76761827  0.69177313  0.25088378  1
  C  C238  1  0.08531382  0.46590582  0.24905411  1
  C  C239  1  0.58253800  0.46665553  0.25278654  1
  C  C240  1  0.16443974  0.48699108  0.75016601  1
  C  C241  1  0.65951523  0.49112577  0.75394948  1
  C  C242  1  0.08524802  0.68118666  0.75350391  1
  C  C243  1  0.58469604  0.70372854  0.74936308  1
  C  C244  1  0.27127562  0.84623399  0.75127439  1
  C  C245  1  0.75920134  0.81924122  0.75187007  1
