# generated using pymatgen
data_Cu2Ni10C7
_symmetry_space_group_name_H-M   'P 1'
_cell_length_a   5.12876273
_cell_length_b   7.65455505
_cell_length_c   5.70624627
_cell_angle_alpha   98.63960700
_cell_angle_beta   97.44886697
_cell_angle_gamma   84.63941471
_symmetry_Int_Tables_number   1
_chemical_formula_structural   Cu2Ni10C7
_chemical_formula_sum   'Cu2 Ni10 C7'
_cell_volume   218.98134048
_cell_formula_units_Z   1
loop_
 _symmetry_equiv_pos_site_id
 _symmetry_equiv_pos_as_xyz
  1  'x, y, z'
loop_
 _atom_site_type_symbol
 _atom_site_label
 _atom_site_symmetry_multiplicity
 _atom_site_fract_x
 _atom_site_fract_y
 _atom_site_fract_z
 _atom_site_occupancy
  C  C0  1  0.03562301  0.49083986  0.00354051  1
  C  C1  1  0.55040288  0.69944100  0.11505015  1
  C  C2  1  0.43384014  0.97791749  0.53486475  1
  C  C3  1  0.54887623  0.33889360  0.80100216  1
  C  C4  1  0.98193459  0.68290949  0.63662143  1
  C  C5  1  0.96302110  0.30202890  0.37708645  1
  C  C6  1  0.99420804  0.99047833  -0.00168818  1
  Ni  Ni7  1  0.83533154  0.43362695  0.65771137  1
  Ni  Ni8  1  0.84728621  0.74675152  0.95710957  1
  Ni  Ni9  1  0.83943176  0.08145331  0.27328092  1
  Ni  Ni10  1  0.68979877  0.09458779  0.79649873  1
  Ni  Ni11  1  0.66551340  0.76552458  0.45479354  1
  Ni  Ni12  1  0.70388689  0.43424635  0.12082869  1
  Ni  Ni13  1  0.32528275  0.56097158  0.85125522  1
  Ni  Ni14  1  0.31142629  0.22940157  0.54860119  1
  Ni  Ni15  1  0.30388250  0.90244762  0.19540886  1
  Ni  Ni16  1  0.16846152  0.89913174  0.71223225  1
  Cu  Cu17  1  0.16565198  0.24475284  0.05183366  1
  Cu  Cu18  1  0.15003039  0.54959448  0.35444471  1
