# generated using pymatgen
data_Cu2NiC17
_symmetry_space_group_name_H-M   'P 1'
_cell_length_a   9.33632662
_cell_length_b   9.35480326
_cell_length_c   23.02177549
_cell_angle_alpha   90.40777275
_cell_angle_beta   89.22620630
_cell_angle_gamma   119.98971033
_symmetry_Int_Tables_number   1
_chemical_formula_structural   Cu2NiC17
_chemical_formula_sum   'Cu12 Ni6 C102'
_cell_volume   1741.34777775
_cell_formula_units_Z   6
loop_
 _symmetry_equiv_pos_site_id
 _symmetry_equiv_pos_as_xyz
  1  'x, y, z'
loop_
 _atom_site_type_symbol
 _atom_site_label
 _atom_site_symmetry_multiplicity
 _atom_site_fract_x
 _atom_site_fract_y
 _atom_site_fract_z
 _atom_site_occupancy
  C  C0  1  0.63500165  0.99931105  0.26159779  1
  C  C1  1  0.36692114  0.36306119  0.24017967  1
  C  C2  1  0.63612799  0.64967972  0.74102559  1
  C  C3  1  0.32176141  0.35063068  0.58902432  1
  C  C4  1  0.02137758  0.69981855  0.58243443  1
  C  C5  1  0.66175155  0.93785765  0.58185441  1
  C  C6  1  0.29734228  0.96982275  0.07238362  1
  C  C7  1  0.05520926  0.33925323  0.07106303  1
  C  C8  1  0.98471968  0.67274491  0.91804486  1
  C  C9  1  0.71031027  0.03798074  0.90396459  1
  C  C10  1  0.30322106  0.29298174  0.91686238  1
  C  C11  1  0.69167962  0.69093890  0.42341898  1
  C  C12  1  0.97877712  0.99672377  0.49600830  1
  C  C13  1  0.01770281  0.01726525  0.99449715  1
  C  C14  1  0.67457434  0.30576906  0.82644106  1
  C  C15  1  0.67426772  0.31644704  0.34028724  1
  C  C16  1  0.33664244  0.64887789  0.16039923  1
  C  C17  1  0.35696568  0.67519303  0.67454936  1
  C  C18  1  0.00314334  0.00449298  0.35202377  1
  C  C19  1  0.99984427  0.00948822  0.84566936  1
  C  C20  1  0.97686193  0.99068886  0.65582133  1
  C  C21  1  0.00331250  0.99778626  0.14473329  1
  C  C22  1  0.66189093  0.32149047  0.68750669  1
  C  C23  1  0.66972051  0.34519348  0.18167269  1
  C  C24  1  0.33939261  0.66238019  0.01510435  1
  C  C25  1  0.33983799  0.67033700  0.51187623  1
  C  C26  1  0.33755897  0.68612814  0.32601807  1
  C  C27  1  0.65038000  0.32082510  0.97749769  1
  C  C28  1  0.66659100  0.33164714  0.48242460  1
  C  C29  1  0.31575416  0.68680346  0.82047347  1
  Ni  Ni30  1  0.67277146  0.98385975  0.75549043  1
  Ni  Ni31  1  0.66592080  0.62397319  0.58319125  1
  Ni  Ni32  1  0.37146166  0.33330797  0.08416074  1
  Ni  Ni33  1  0.03091537  0.37531855  0.92036570  1
  Ni  Ni34  1  0.33306134  0.96785905  0.92262038  1
  Ni  Ni35  1  0.64709762  0.98709459  0.41907813  1
  Cu  Cu36  1  0.30414809  0.99744562  0.24751745  1
  Cu  Cu37  1  0.69498228  0.69826716  0.25299047  1
  Cu  Cu38  1  0.00289959  0.30122660  0.24838619  1
  Cu  Cu39  1  0.30633327  0.31920936  0.75143222  1
  Cu  Cu40  1  0.00850095  0.69719023  0.75211413  1
  Cu  Cu41  1  0.95445279  0.33362790  0.57949477  1
  Cu  Cu42  1  0.37454444  0.04560801  0.57992426  1
  Cu  Cu43  1  0.96070037  0.62702250  0.07889190  1
  Cu  Cu44  1  0.66960777  0.04880292  0.08071914  1
  Cu  Cu45  1  0.63007294  0.65394155  0.91513843  1
  Cu  Cu46  1  0.34776071  0.36188719  0.41849344  1
  Cu  Cu47  1  0.01381957  0.65404535  0.42160787  1
  C  C48  1  0.21481933  0.01089657  0.29838169  1
  C  C49  1  0.78362830  0.77780579  0.30684582  1
  C  C50  1  0.98533883  0.19574277  0.29835346  1
  C  C51  1  0.22529564  0.21860163  0.80314899  1
  C  C52  1  0.99159171  0.78105108  0.80363209  1
  C  C53  1  0.77817981  0.99381557  0.81171470  1
  C  C54  1  0.73873538  0.93563145  0.69521819  1
  C  C55  1  0.21549356  0.23694243  0.69734379  1
  C  C56  1  0.03455286  0.79353119  0.69813890  1
  C  C57  1  0.78311269  0.79874163  0.20172137  1
  C  C58  1  0.01838446  0.22373680  0.19352946  1
  C  C59  1  0.21606080  0.98808518  0.19359598  1
  C  C60  1  0.88078745  0.35028016  0.63308219  1
  C  C61  1  0.47115382  0.11224015  0.63202760  1
  C  C62  1  0.65108222  0.52549665  0.64187508  1
  C  C63  1  0.88138784  0.53131271  0.13141900  1
  C  C64  1  0.65733896  0.12530735  0.13506555  1
  C  C65  1  0.45674770  0.33511654  0.14459542  1
  C  C66  1  0.49958889  0.32816202  0.02714742  1
  C  C67  1  0.86569691  0.53819946  0.02601602  1
  C  C68  1  0.68202343  0.15447393  0.02889086  1
  C  C69  1  0.47130169  0.14854415  0.52829850  1
  C  C70  1  0.67103284  0.50171866  0.52736433  1
  C  C71  1  0.84716377  0.31627262  0.52864345  1
  C  C72  1  0.56143534  0.68829860  0.96752708  1
  C  C73  1  0.13696615  0.44174358  0.97844221  1
  C  C74  1  0.31204310  0.86895227  0.98088495  1
  C  C75  1  0.55378869  0.86756784  0.47401557  1
  C  C76  1  0.32328584  0.43809629  0.47101889  1
  C  C77  1  0.10568672  0.67188669  0.47495522  1
  C  C78  1  0.09391311  0.63179752  0.37005652  1
  C  C79  1  0.54661971  0.92451799  0.35797232  1
  C  C80  1  0.37133607  0.46491405  0.36632464  1
  C  C81  1  0.14177389  0.51435393  0.86694922  1
  C  C82  1  0.35813494  0.86312646  0.86642139  1
  C  C83  1  0.52505611  0.62918598  0.86404850  1
  C  C84  1  0.98719762  0.79743487  0.41579865  1
  C  C85  1  0.82656230  0.99698877  0.41635405  1
  C  C86  1  0.21022344  0.19243464  0.41291958  1
  C  C87  1  0.99819389  0.18943414  0.91026702  1
  C  C88  1  0.18074763  0.99871232  0.91207298  1
  C  C89  1  0.80325534  0.78967750  0.90828402  1
  C  C90  1  0.97361766  0.18375314  0.58013192  1
  C  C91  1  0.21510305  0.04736269  0.58212706  1
  C  C92  1  0.83828572  0.80429244  0.57651612  1
  C  C93  1  0.97567639  0.79315073  0.08034773  1
  C  C94  1  0.82366151  0.03880497  0.07912585  1
  C  C95  1  0.19581069  0.15849341  0.07392061  1
  C  C96  1  0.64581360  0.14001021  0.75126247  1
  C  C97  1  0.47924023  0.35077182  0.74947353  1
  C  C98  1  0.85960096  0.53226152  0.74837325  1
  C  C99  1  0.67081104  0.52825754  0.25071249  1
  C  C100  1  0.84979433  0.31425918  0.24760213  1
  C  C101  1  0.47442375  0.14886432  0.24807409  1
  C  C102  1  0.63582456  0.49451899  0.92182366  1
  C  C103  1  0.84597938  0.36776100  0.92625300  1
  C  C104  1  0.51367367  0.15239637  0.92567154  1
  C  C105  1  0.66517926  0.17518907  0.43301205  1
  C  C106  1  0.50925848  0.35889100  0.42356056  1
  C  C107  1  0.84234592  0.50181919  0.42581185  1
  C  C108  1  0.34045059  0.48884300  0.08265317  1
  C  C109  1  0.13125937  0.65070884  0.07779837  1
  C  C110  1  0.52017399  0.88458550  0.07715054  1
  C  C111  1  0.33653395  0.87130394  0.57356764  1
  C  C112  1  0.49953902  0.64213165  0.57922994  1
  C  C113  1  0.12039082  0.48329743  0.57261560  1
  C  C114  1  0.32666175  0.85036279  0.25036123  1
  C  C115  1  0.52479933  0.68092237  0.25401917  1
  C  C116  1  0.15587764  0.46540620  0.25336217  1
  C  C117  1  0.31595431  0.48430807  0.75598587  1
  C  C118  1  0.16074522  0.68008536  0.75842244  1
  C  C119  1  0.48576919  0.80308439  0.76752986  1
