# generated using pymatgen
data_Cu(NiC4)2
_symmetry_space_group_name_H-M   'P 1'
_cell_length_a   6.65077984
_cell_length_b   6.64997074
_cell_length_c   6.65077982
_cell_angle_alpha   54.01316081
_cell_angle_beta   54.04941592
_cell_angle_gamma   54.01316359
_symmetry_Int_Tables_number   1
_chemical_formula_structural   Cu(NiC4)2
_chemical_formula_sum   'Cu1 Ni2 C8'
_cell_volume   178.96954506
_cell_formula_units_Z   1
loop_
 _symmetry_equiv_pos_site_id
 _symmetry_equiv_pos_as_xyz
  1  'x, y, z'
loop_
 _atom_site_type_symbol
 _atom_site_label
 _atom_site_symmetry_multiplicity
 _atom_site_fract_x
 _atom_site_fract_y
 _atom_site_fract_z
 _atom_site_occupancy
  Ni  Ni0  1  0.69147439  0.69304461  0.69147439  1
  Ni  Ni1  1  0.23304769  0.23452973  0.23304769  1
  Cu  Cu2  1  0.02574411  0.02666141  0.02574411  1
  C  C3  1  0.86271080  0.86439159  0.86271080  1
  C  C4  1  0.50077243  0.50150391  0.50077243  1
  C  C5  1  0.24358532  0.75621988  0.75510617  1
  C  C6  1  0.27333035  0.76002220  0.27333035  1
  C  C7  1  0.75543965  0.24494391  0.75543965  1
  C  C8  1  0.27349436  0.27393994  0.76029473  1
  C  C9  1  0.76029473  0.27393994  0.27349436  1
  C  C10  1  0.75510617  0.75621988  0.24358532  1
