# generated using pymatgen
data_Cu(NiC8)2
_symmetry_space_group_name_H-M   'P 1'
_cell_length_a   9.22500673
_cell_length_b   9.21935054
_cell_length_c   23.11524359
_cell_angle_alpha   89.75801979
_cell_angle_beta   90.17755026
_cell_angle_gamma   120.24778914
_symmetry_Int_Tables_number   1
_chemical_formula_structural   Cu(NiC8)2
_chemical_formula_sum   'Cu6 Ni12 C96'
_cell_volume   1698.25213512
_cell_formula_units_Z   6
loop_
 _symmetry_equiv_pos_site_id
 _symmetry_equiv_pos_as_xyz
  1  'x, y, z'
loop_
 _atom_site_type_symbol
 _atom_site_label
 _atom_site_symmetry_multiplicity
 _atom_site_fract_x
 _atom_site_fract_y
 _atom_site_fract_z
 _atom_site_occupancy
  Ni  Ni0  1  0.36618037  0.33874091  0.24277786  1
  Ni  Ni1  1  0.65049571  0.62980375  0.74581529  1
  Ni  Ni2  1  0.02074331  0.67005823  0.59283294  1
  Ni  Ni3  1  0.33600709  0.97193349  0.07741932  1
  Ni  Ni4  1  0.69649481  0.01880920  0.90568658  1
  Ni  Ni5  1  0.99744782  0.30725139  0.42341422  1
  Ni  Ni6  1  0.02187940  0.02462629  0.50158228  1
  Ni  Ni7  1  0.01626045  0.99869184  0.98986339  1
  Ni  Ni8  1  0.68916843  0.33713683  0.82038964  1
  Ni  Ni9  1  0.63726108  0.30693954  0.33093621  1
  Ni  Ni10  1  0.35671496  0.66626256  0.15330836  1
  Ni  Ni11  1  0.33344018  0.63683858  0.65525428  1
  Cu  Cu12  1  0.00231107  0.99306395  0.35249286  1
  Cu  Cu13  1  0.01051476  0.00414515  0.85188203  1
  Cu  Cu14  1  0.66483504  0.32368498  0.68626365  1
  Cu  Cu15  1  0.67030859  0.33047246  0.18579876  1
  Cu  Cu16  1  0.33359745  0.65795818  0.01771929  1
  Cu  Cu17  1  0.34534419  0.66549899  0.51951420  1
  C  C18  1  0.97779511  0.99398609  0.64981305  1
  C  C19  1  0.01392471  0.00062319  0.14188688  1
  C  C20  1  0.65112567  0.31285369  0.98257460  1
  C  C21  1  0.66154464  0.34426221  0.48823137  1
  C  C22  1  0.34299803  0.67095263  0.31423947  1
  C  C23  1  0.32556912  0.68425547  0.81025328  1
  C  C24  1  0.29473662  0.99244860  0.25171985  1
  C  C25  1  0.99911287  0.71147486  0.74969185  1
  C  C26  1  0.69710071  0.99698122  0.75810958  1
  C  C27  1  0.95973405  0.32683741  0.58344395  1
  C  C28  1  0.67113106  0.64293122  0.59179943  1
  C  C29  1  0.67441502  0.03534832  0.08650199  1
  C  C30  1  0.37348661  0.33607883  0.08905416  1
  C  C31  1  0.33117396  0.96448138  0.92210276  1
  C  C32  1  0.34099957  0.36954302  0.41744270  1
  C  C33  1  0.69832637  0.71069039  0.25063179  1
  C  C34  1  0.01408971  0.29892535  0.25120854  1
  C  C35  1  0.28648253  0.30289070  0.74960634  1
  C  C36  1  0.36233686  0.04414222  0.58183957  1
  C  C37  1  0.95557963  0.63306260  0.08357045  1
  C  C38  1  0.62473829  0.65314975  0.91638547  1
  C  C39  1  0.02935832  0.37839412  0.91627360  1
  C  C40  1  0.62441197  0.97159722  0.41438731  1
  C  C41  1  0.03451145  0.65303501  0.41697439  1
  C  C42  1  0.19763011  0.01594636  0.30312056  1
  C  C43  1  0.78320338  0.78815394  0.30420297  1
  C  C44  1  0.98857030  0.20761742  0.30550156  1
  C  C45  1  0.21464638  0.21114824  0.80256740  1
  C  C46  1  0.98335020  0.80201683  0.80458932  1
  C  C47  1  0.79104953  0.00979056  0.81684016  1
  C  C48  1  0.80624817  0.96937786  0.70004015  1
  C  C49  1  0.17867953  0.21303937  0.69718089  1
  C  C50  1  0.03324966  0.83630062  0.68983806  1
  C  C51  1  0.78377960  0.81346412  0.19847194  1
  C  C52  1  0.03399673  0.20403968  0.20100073  1
  C  C53  1  0.16832048  0.96831886  0.19152603  1
  C  C54  1  0.86284879  0.34972934  0.63497548  1
  C  C55  1  0.45624695  0.11278836  0.63408816  1
  C  C56  1  0.65202605  0.54058145  0.64854672  1
  C  C57  1  0.88453185  0.54549012  0.13735274  1
  C  C58  1  0.64805393  0.13047753  0.13764797  1
  C  C59  1  0.46134995  0.34885365  0.14887658  1
  C  C60  1  0.48113379  0.30392249  0.03239345  1
  C  C61  1  0.85105313  0.54740226  0.03172339  1
  C  C62  1  0.69965120  0.16569909  0.02505232  1
  C  C63  1  0.46416144  0.15905683  0.52921394  1
  C  C64  1  0.69311673  0.52391854  0.53345384  1
  C  C65  1  0.83106400  0.30128058  0.52077063  1
  C  C66  1  0.53933056  0.66944345  0.96668588  1
  C  C67  1  0.12262081  0.45101008  0.96905303  1
  C  C68  1  0.33308882  0.87534441  0.98022699  1
  C  C69  1  0.54563072  0.87918078  0.46629816  1
  C  C70  1  0.30947446  0.46539620  0.46735124  1
  C  C71  1  0.12685702  0.67891207  0.47052296  1
  C  C72  1  0.13475780  0.63711715  0.36632980  1
  C  C73  1  0.51425239  0.87043613  0.36122671  1
  C  C74  1  0.36328575  0.50063779  0.35701110  1
  C  C75  1  0.12415528  0.48151453  0.86383071  1
  C  C76  1  0.35659028  0.85496517  0.86422668  1
  C  C77  1  0.52426892  0.62964238  0.86220653  1
  C  C78  1  0.99551525  0.78565420  0.40791590  1
  C  C79  1  0.79363657  0.99637809  0.40774137  1
  C  C80  1  0.17304012  0.18852108  0.41211141  1
  C  C81  1  0.99168263  0.20329692  0.91153713  1
  C  C82  1  0.18962938  0.01237689  0.91758523  1
  C  C83  1  0.79217431  0.80724885  0.91369817  1
  C  C84  1  0.97708717  0.15479746  0.59112523  1
  C  C85  1  0.20005743  0.04287672  0.58106154  1
  C  C86  1  0.86378311  0.81953181  0.58966441  1
  C  C87  1  0.96121424  0.80517081  0.08646119  1
  C  C88  1  0.85101714  0.02679092  0.09560373  1
  C  C89  1  0.18847927  0.14086837  0.09027124  1
  C  C90  1  0.64287246  0.13292293  0.74907312  1
  C  C91  1  0.45764757  0.33406991  0.74280089  1
  C  C92  1  0.84092762  0.52579134  0.74588692  1
  C  C93  1  0.66669424  0.53795360  0.24688491  1
  C  C94  1  0.88195000  0.33880414  0.24277898  1
  C  C95  1  0.48005518  0.15463049  0.24919497  1
  C  C96  1  0.64489901  0.50042846  0.92327306  1
  C  C97  1  0.86181689  0.37394831  0.91825494  1
  C  C98  1  0.52419815  0.15325624  0.92362312  1
  C  C99  1  0.63508945  0.13858014  0.41252610  1
  C  C100  1  0.51868894  0.35931265  0.42455812  1
  C  C101  1  0.87088811  0.48397754  0.41780335  1
  C  C102  1  0.31737055  0.46948508  0.07953916  1
  C  C103  1  0.13059768  0.67433805  0.07751704  1
  C  C104  1  0.51311680  0.85341493  0.07877760  1
  C  C105  1  0.33081957  0.87496951  0.57072508  1
  C  C106  1  0.53251215  0.69259930  0.58138023  1
  C  C107  1  0.13654810  0.49817219  0.57590957  1
  C  C108  1  0.30348890  0.81337934  0.26181922  1
  C  C109  1  0.52184669  0.69639941  0.25280093  1
  C  C110  1  0.18358761  0.46489931  0.25375355  1
  C  C111  1  0.29718172  0.47327845  0.75251550  1
  C  C112  1  0.17831204  0.69732506  0.75854180  1
  C  C113  1  0.51561170  0.80167544  0.76064694  1
