# generated using pymatgen
data_Cu2NiC8
_symmetry_space_group_name_H-M   'P 1'
_cell_length_a   5.14100895
_cell_length_b   5.14100895
_cell_length_c   7.28190627
_cell_angle_alpha   89.11877303
_cell_angle_beta   90.88122697
_cell_angle_gamma   107.09805586
_symmetry_Int_Tables_number   1
_chemical_formula_structural   Cu2NiC8
_chemical_formula_sum   'Cu2 Ni1 C8'
_cell_volume   183.92077551
_cell_formula_units_Z   1
loop_
 _symmetry_equiv_pos_site_id
 _symmetry_equiv_pos_as_xyz
  1  'x, y, z'
loop_
 _atom_site_type_symbol
 _atom_site_label
 _atom_site_symmetry_multiplicity
 _atom_site_fract_x
 _atom_site_fract_y
 _atom_site_fract_z
 _atom_site_occupancy
  C  C0  1  0.23762162  0.76237838  0.65445143  1
  C  C1  1  0.47006537  0.52993463  0.01127133  1
  Ni  Ni2  1  0.50643621  0.49356379  0.48228399  1
  Cu  Cu3  1  0.88590205  0.11409795  0.74067763  1
  Cu  Cu4  1  0.86690130  0.13309870  0.26544151  1
  C  C5  1  0.07754878  0.42434305  0.50182568  1
  C  C6  1  0.57565695  0.92245122  0.50182568  1
  C  C7  1  0.10727436  0.41623602  0.03785113  1
  C  C8  1  0.58376398  0.89272564  0.03785113  1
  C  C9  1  0.48425746  0.51574254  0.75759271  1
  C  C10  1  0.60368092  0.39631908  0.24040878  1
