# generated using pymatgen
data_CuNiC15
_symmetry_space_group_name_H-M   'P 1'
_cell_length_a   8.85525893
_cell_length_b   9.04058069
_cell_length_c   21.59574617
_cell_angle_alpha   88.46934389
_cell_angle_beta   90.00000000
_cell_angle_gamma   119.32418796
_symmetry_Int_Tables_number   1
_chemical_formula_structural   CuNiC15
_chemical_formula_sum   'Cu6 Ni6 C90'
_cell_volume   1506.64150929
_cell_formula_units_Z   6
loop_
 _symmetry_equiv_pos_site_id
 _symmetry_equiv_pos_as_xyz
  1  'x, y, z'
loop_
 _atom_site_type_symbol
 _atom_site_label
 _atom_site_symmetry_multiplicity
 _atom_site_fract_x
 _atom_site_fract_y
 _atom_site_fract_z
 _atom_site_occupancy
  C  C0  1  0.01126662  0.00388168  0.38004047  1
  C  C1  1  0.99261506  0.00388168  0.88004047  1
  C  C2  1  0.67676965  0.33829615  0.71492473  1
  C  C3  1  0.66152750  0.33829615  0.21492473  1
  C  C4  1  0.33238761  0.65179453  0.04680686  1
  C  C5  1  0.31940592  0.65179453  0.54680686  1
  Ni  Ni6  1  0.99010810  0.98563086  0.63906005  1
  Ni  Ni7  1  0.99552276  0.98563086  0.13906005  1
  Ni  Ni8  1  0.65596186  0.31717178  0.97446749  1
  Ni  Ni9  1  0.66121092  0.31717178  0.47446749  1
  Ni  Ni10  1  0.35287851  0.65892718  0.30758244  1
  Ni  Ni11  1  0.30604768  0.65892718  0.80758244  1
  Cu  Cu12  1  0.71632591  0.76990255  0.25044052  1
  Cu  Cu13  1  0.05357664  0.76990255  0.75044052  1
  Cu  Cu14  1  0.89696938  0.26100941  0.58243281  1
  Cu  Cu15  1  0.36404102  0.26100941  0.08243281  1
  Cu  Cu16  1  0.02880371  0.42634406  0.91791763  1
  Cu  Cu17  1  0.39753935  0.42634406  0.41791763  1
  C  C18  1  0.24923150  0.92422141  0.24945204  1
  C  C19  1  0.07088974  0.31667591  0.24834261  1
  C  C20  1  0.24578617  0.31667591  0.74834261  1
  C  C21  1  0.67498991  0.92422141  0.74945204  1
  C  C22  1  0.35915109  0.08929258  0.58345115  1
  C  C23  1  0.72766985  0.63952977  0.58136651  1
  C  C24  1  0.91186092  0.63952977  0.08136651  1
  C  C25  1  0.73014249  0.08929258  0.08345115  1
  C  C26  1  0.57360468  0.59863385  0.91442970  1
  C  C27  1  0.39475063  0.97412237  0.91653712  1
  C  C28  1  0.57937074  0.97412237  0.41653712  1
  C  C29  1  0.02502817  0.59863385  0.41442970  1
  C  C30  1  0.19324817  0.96977406  0.30577089  1
  C  C31  1  0.82016536  0.84721263  0.30735454  1
  C  C32  1  0.03757102  0.21743014  0.30600789  1
  C  C33  1  0.17985912  0.21743014  0.80600789  1
  C  C34  1  0.02704727  0.84721263  0.80735454  1
  C  C35  1  0.77652589  0.96977406  0.80577089  1
  C  C36  1  0.76708669  0.89488737  0.69703780  1
  C  C37  1  0.14284056  0.23077275  0.69370124  1
  C  C38  1  0.08514083  0.89212647  0.69136306  1
  C  C39  1  0.80698564  0.89212647  0.19136306  1
  C  C40  1  0.08793219  0.23077275  0.19370124  1
  C  C41  1  0.12780068  0.89488737  0.19703780  1
  C  C42  1  0.83320573  0.30375525  0.64060665  1
  C  C43  1  0.46052639  0.16285475  0.63813892  1
  C  C44  1  0.68250700  0.53884607  0.63896317  1
  C  C45  1  0.85634007  0.53884607  0.13896317  1
  C  C46  1  0.70232936  0.16285475  0.13813892  1
  C  C47  1  0.47055052  0.30375525  0.14060665  1
  C  C48  1  0.46252691  0.22968618  0.02728292  1
  C  C49  1  0.80193471  0.54937634  0.02846566  1
  C  C50  1  0.75367079  0.19742764  0.02560519  1
  C  C51  1  0.44375785  0.19742764  0.52560519  1
  C  C52  1  0.74744263  0.54937634  0.52846566  1
  C  C53  1  0.76716027  0.22968618  0.52728292  1
  C  C54  1  0.52655802  0.64981094  0.97159112  1
  C  C55  1  0.14304882  0.50364624  0.97289311  1
  C  C56  1  0.37423943  0.87552792  0.97305533  1
  C  C57  1  0.50128750  0.87552792  0.47305533  1
  C  C58  1  0.36059642  0.50364624  0.47289311  1
  C  C59  1  0.12325192  0.64981094  0.47159112  1
  C  C60  1  0.12866575  0.58232957  0.36318090  1
  C  C61  1  0.48227141  0.88917332  0.36020679  1
  C  C62  1  0.43101572  0.54611652  0.35817165  1
  C  C63  1  0.11509980  0.54611652  0.85817165  1
  C  C64  1  0.40690092  0.88917332  0.86020679  1
  C  C65  1  0.45366282  0.58232957  0.86318090  1
  C  C66  1  0.96107987  0.71663206  0.39951186  1
  C  C67  1  0.76369988  0.02383902  0.41301217  1
  C  C68  1  0.25635166  0.24522286  0.40833267  1
  C  C69  1  0.98887120  0.24522286  0.90833267  1
  C  C70  1  0.26013914  0.02383902  0.91301217  1
  C  C71  1  0.75555219  0.71663206  0.89951186  1
  C  C72  1  0.88804073  0.08169683  0.59144934  1
  C  C73  1  0.19044425  0.09711494  0.58549048  1
  C  C74  1  0.90757807  0.79745043  0.58603934  1
  C  C75  1  0.88987235  0.79745043  0.08603934  1
  C  C76  1  0.90667069  0.09711494  0.08549048  1
  C  C77  1  0.19365610  0.08169683  0.09144934  1
  C  C78  1  0.62065225  0.04974752  0.73484181  1
  C  C79  1  0.43099111  0.37081231  0.74129749  1
  C  C80  1  0.90723353  0.59015302  0.74181165  1
  C  C81  1  0.68292049  0.59015302  0.24181165  1
  C  C82  1  0.93982221  0.37081231  0.24129749  1
  C  C83  1  0.42909627  0.04974752  0.23484181  1
  C  C84  1  0.54978036  0.42018162  0.92206169  1
  C  C85  1  0.85149607  0.42827592  0.92435695  1
  C  C86  1  0.57089177  0.13861583  0.91698587  1
  C  C87  1  0.56772506  0.13861583  0.41698587  1
  C  C88  1  0.57678086  0.42827592  0.42435695  1
  C  C89  1  0.87040226  0.42018162  0.42206169  1
  C  C90  1  0.31165697  0.39330555  0.06653972  1
  C  C91  1  0.09704135  0.70062998  0.07113106  1
  C  C92  1  0.59421751  0.91333684  0.07729724  1
  C  C93  1  0.31911833  0.91333684  0.57729724  1
  C  C94  1  0.60358763  0.70062998  0.57113106  1
  C  C95  1  0.08164759  0.39330555  0.56653972  1
  C  C96  1  0.23697130  0.75094793  0.25787682  1
  C  C97  1  0.53782013  0.76875209  0.25359034  1
  C  C98  1  0.24895770  0.47709700  0.25172457  1
  C  C99  1  0.22813831  0.47709700  0.75172457  1
  C  C100  1  0.23093096  0.76875209  0.75359034  1
  C  C101  1  0.51397563  0.75094793  0.75787682  1
