# generated using pymatgen
data_Cu3Ni2C
_symmetry_space_group_name_H-M   'P 1'
_cell_length_a   7.07700200
_cell_length_b   7.32207000
_cell_length_c   16.43508500
_cell_angle_alpha   90.00000000
_cell_angle_beta   90.00000000
_cell_angle_gamma   90.00000000
_symmetry_Int_Tables_number   1
_chemical_formula_structural   Cu3Ni2C
_chemical_formula_sum   'Cu24 Ni16 C8'
_cell_volume   851.63823136
_cell_formula_units_Z   8
loop_
 _symmetry_equiv_pos_site_id
 _symmetry_equiv_pos_as_xyz
  1  'x, y, z'
loop_
 _atom_site_type_symbol
 _atom_site_label
 _atom_site_symmetry_multiplicity
 _atom_site_fract_x
 _atom_site_fract_y
 _atom_site_fract_z
 _atom_site_occupancy
  C  C0  1  0.65446600  0.52845600  0.12303100  1
  C  C1  1  0.15446600  0.47154400  0.37696900  1
  C  C2  1  0.84553400  0.02845600  0.87696900  1
  C  C3  1  0.34553400  0.97154400  0.62303100  1
  C  C4  1  0.34553400  0.47154400  0.87696900  1
  C  C5  1  0.84553400  0.52845600  0.62303100  1
  C  C6  1  0.15446600  0.97154400  0.12303100  1
  C  C7  1  0.65446600  0.02845600  0.37696900  1
  Ni  Ni8  1  0.32900400  0.99917800  0.89315100  1
  Ni  Ni9  1  0.30397200  0.10772500  0.29170000  1
  Ni  Ni10  1  0.69602800  0.39227500  0.79170000  1
  Ni  Ni11  1  0.19602800  0.60772500  0.70830000  1
  Ni  Ni12  1  0.19602800  0.10772500  0.79170000  1
  Ni  Ni13  1  0.69602800  0.89227500  0.70830000  1
  Ni  Ni14  1  0.30397200  0.60772500  0.20830000  1
  Ni  Ni15  1  0.80397200  0.39227500  0.29170000  1
  Ni  Ni16  1  0.67099600  0.00082200  0.10684900  1
  Ni  Ni17  1  0.17099600  0.99917800  0.39315100  1
  Ni  Ni18  1  0.82900400  0.50082200  0.89315100  1
  Ni  Ni19  1  0.32900400  0.49917800  0.60684900  1
  Ni  Ni20  1  0.67099600  0.50082200  0.39315100  1
  Ni  Ni21  1  0.82900400  0.00082200  0.60684900  1
  Ni  Ni22  1  0.17099600  0.49917800  0.10684900  1
  Ni  Ni23  1  0.80397200  0.89227500  0.20830000  1
  Cu  Cu24  1  0.56574500  0.16713600  0.12925700  1
  Cu  Cu25  1  0.06574500  0.83286400  0.37074300  1
  Cu  Cu26  1  0.93425500  0.66713600  0.87074300  1
  Cu  Cu27  1  0.43425500  0.33286400  0.62925700  1
  Cu  Cu28  1  0.43425500  0.83286400  0.87074300  1
  Cu  Cu29  1  0.93425500  0.16713600  0.62925700  1
  Cu  Cu30  1  0.06574500  0.33286400  0.12925700  1
  Cu  Cu31  1  0.56574500  0.66713600  0.37074300  1
  Cu  Cu32  1  0.53958600  0.85763700  0.07661300  1
  Cu  Cu33  1  0.03958600  0.14236300  0.42338700  1
  Cu  Cu34  1  0.96041400  0.35763700  0.92338700  1
  Cu  Cu35  1  0.46041400  0.64236300  0.57661300  1
  Cu  Cu36  1  0.46041400  0.14236300  0.92338700  1
  Cu  Cu37  1  0.96041400  0.85763700  0.57661300  1
  Cu  Cu38  1  0.03958600  0.64236300  0.07661300  1
  Cu  Cu39  1  0.53958600  0.35763700  0.42338700  1
  Cu  Cu40  1  0.82592400  0.03636300  0.04775500  1
  Cu  Cu41  1  0.32592400  0.96363700  0.45224500  1
  Cu  Cu42  1  0.67407600  0.53636300  0.95224500  1
  Cu  Cu43  1  0.82592400  0.53636300  0.45224500  1
  Cu  Cu44  1  0.17407600  0.96363700  0.95224500  1
  Cu  Cu45  1  0.67407600  0.03636300  0.54775500  1
  Cu  Cu46  1  0.32592400  0.46363700  0.04775500  1
  Cu  Cu47  1  0.17407600  0.46363700  0.54775500  1
