# generated using pymatgen
data_Cu4NiC14
_symmetry_space_group_name_H-M   'P 1'
_cell_length_a   5.53197187
_cell_length_b   5.72101853
_cell_length_c   9.31343299
_cell_angle_alpha   109.06579744
_cell_angle_beta   107.21082048
_cell_angle_gamma   90.03878588
_symmetry_Int_Tables_number   1
_chemical_formula_structural   Cu4NiC14
_chemical_formula_sum   'Cu4 Ni1 C14'
_cell_volume   264.56181521
_cell_formula_units_Z   1
loop_
 _symmetry_equiv_pos_site_id
 _symmetry_equiv_pos_as_xyz
  1  'x, y, z'
loop_
 _atom_site_type_symbol
 _atom_site_label
 _atom_site_symmetry_multiplicity
 _atom_site_fract_x
 _atom_site_fract_y
 _atom_site_fract_z
 _atom_site_occupancy
  C  C0  1  0.60710147  0.13529999  0.23499911  1
  C  C1  1  0.37589527  0.86577849  0.76647375  1
  C  C2  1  0.15928747  0.66992627  0.34036345  1
  C  C3  1  0.82206968  0.33186184  0.66420647  1
  Ni  Ni4  1  0.99249963  0.50069659  0.00288621  1
  Cu  Cu5  1  0.99174307  0.00091025  0.00160211  1
  Cu  Cu6  1  0.49064781  0.50040458  0.99982729  1
  Cu  Cu7  1  0.23894098  0.27859536  0.49683562  1
  Cu  Cu8  1  0.74165454  0.72364678  0.50248052  1
  C  C9  1  0.22690927  0.23456709  0.97129513  1
  C  C10  1  0.25404732  0.76310591  0.02483995  1
  C  C11  1  0.72627684  0.23545787  0.97199524  1
  C  C12  1  0.75348457  0.76375272  0.02595761  1
  C  C13  1  0.12040158  0.18487765  0.25521684  1
  C  C14  1  0.86096754  0.80962063  0.74328072  1
  C  C15  1  0.61684807  0.56872885  0.25466857  1
  C  C16  1  0.36227818  0.42951851  0.74326816  1
  C  C17  1  0.98517211  0.00309671  0.49801987  1
  C  C18  1  0.48987058  0.00015491  0.50178335  1
