# generated using pymatgen
data_Cu2NiC6
_symmetry_space_group_name_H-M   'P 1'
_cell_length_a   6.59958163
_cell_length_b   6.57689757
_cell_length_c   6.57689721
_cell_angle_alpha   97.21202123
_cell_angle_beta   55.88637228
_cell_angle_gamma   124.11363124
_symmetry_Int_Tables_number   1
_chemical_formula_structural   Cu2NiC6
_chemical_formula_sum   'Cu2 Ni1 C6'
_cell_volume   188.09339926
_cell_formula_units_Z   1
loop_
 _symmetry_equiv_pos_site_id
 _symmetry_equiv_pos_as_xyz
  1  'x, y, z'
loop_
 _atom_site_type_symbol
 _atom_site_label
 _atom_site_symmetry_multiplicity
 _atom_site_fract_x
 _atom_site_fract_y
 _atom_site_fract_z
 _atom_site_occupancy
  C  C0  1  0.50000000  0.65302774  0.84697226  1
  C  C1  1  0.50000000  0.34697226  0.15302774  1
  Ni  Ni2  1  0.50000000  0.00000000  0.50000000  1
  Cu  Cu3  1  -0.00000000  0.50000000  0.50000000  1
  Cu  Cu4  1  -0.00000000  0.00000000  0.00000000  1
  C  C5  1  0.50000000  0.26336962  0.76336962  1
  C  C6  1  0.96599436  0.23299718  0.26700282  1
  C  C7  1  0.50000000  0.73663038  0.23663038  1
  C  C8  1  0.03400564  0.76700282  0.73299718  1
