# generated using pymatgen
data_Cu7(NiC)4
_symmetry_space_group_name_H-M   'P 1'
_cell_length_a   9.75387777
_cell_length_b   9.75387777
_cell_length_c   9.75387777
_cell_angle_alpha   94.15463948
_cell_angle_beta   94.15463948
_cell_angle_gamma   148.77109133
_symmetry_Int_Tables_number   1
_chemical_formula_structural   Cu7(NiC)4
_chemical_formula_sum   'Cu14 Ni8 C8'
_cell_volume   463.35615073
_cell_formula_units_Z   2
loop_
 _symmetry_equiv_pos_site_id
 _symmetry_equiv_pos_as_xyz
  1  'x, y, z'
loop_
 _atom_site_type_symbol
 _atom_site_label
 _atom_site_symmetry_multiplicity
 _atom_site_fract_x
 _atom_site_fract_y
 _atom_site_fract_z
 _atom_site_occupancy
  C  C0  1  0.86127400  0.86127400  0.72254700  1
  C  C1  1  0.13872600  0.86127400  0.00000000  1
  C  C2  1  0.86127400  0.13872600  0.00000000  1
  C  C3  1  0.13872600  0.13872600  0.27745300  1
  C  C4  1  0.30434900  0.50000000  0.80434900  1
  C  C5  1  0.50000000  0.30434900  0.80434900  1
  C  C6  1  0.50000000  0.69565100  0.19565100  1
  C  C7  1  0.69565100  0.50000000  0.19565100  1
  Ni  Ni8  1  0.10169400  0.60169400  0.20338800  1
  Ni  Ni9  1  0.89830600  0.10169400  0.50000000  1
  Ni  Ni10  1  0.60169400  0.39830600  0.50000000  1
  Ni  Ni11  1  0.39830600  0.89830600  0.79661200  1
  Ni  Ni12  1  0.89830600  0.39830600  0.79661200  1
  Ni  Ni13  1  0.10169400  0.89830600  0.50000000  1
  Ni  Ni14  1  0.39830600  0.60169400  0.50000000  1
  Ni  Ni15  1  0.60169400  0.10169400  0.20338800  1
  Cu  Cu16  1  0.70798000  0.70798000  0.41595900  1
  Cu  Cu17  1  0.29202000  0.70798000  0.00000000  1
  Cu  Cu18  1  0.70798000  0.29202000  0.00000000  1
  Cu  Cu19  1  0.29202000  0.29202000  0.58404100  1
  Cu  Cu20  1  0.70667600  0.00000000  0.70667600  1
  Cu  Cu21  1  0.00000000  0.70667600  0.70667600  1
  Cu  Cu22  1  0.00000000  0.29332400  0.29332400  1
  Cu  Cu23  1  0.29332400  0.00000000  0.29332400  1
  Cu  Cu24  1  0.09393500  0.50000000  0.59393500  1
  Cu  Cu25  1  0.50000000  0.09393500  0.59393500  1
  Cu  Cu26  1  0.50000000  0.90606500  0.40606500  1
  Cu  Cu27  1  0.90606500  0.50000000  0.40606500  1
  Cu  Cu28  1  0.24930200  0.24930200  0.00000000  1
  Cu  Cu29  1  0.75069800  0.75069800  0.00000000  1
