# generated using pymatgen
data_Cu6NiC24
_symmetry_space_group_name_H-M   'P 1'
_cell_length_a   6.23440008
_cell_length_b   6.25145423
_cell_length_c   11.90402984
_cell_angle_alpha   89.96599807
_cell_angle_beta   90.75900787
_cell_angle_gamma   119.49519132
_symmetry_Int_Tables_number   1
_chemical_formula_structural   Cu6NiC24
_chemical_formula_sum   'Cu6 Ni1 C24'
_cell_volume   403.77455115
_cell_formula_units_Z   1
loop_
 _symmetry_equiv_pos_site_id
 _symmetry_equiv_pos_as_xyz
  1  'x, y, z'
loop_
 _atom_site_type_symbol
 _atom_site_label
 _atom_site_symmetry_multiplicity
 _atom_site_fract_x
 _atom_site_fract_y
 _atom_site_fract_z
 _atom_site_occupancy
  C  C0  1  0.65428800  0.32529700  0.23696000  1
  C  C1  1  0.33710500  0.67060200  0.71853300  1
  C  C2  1  0.67946000  0.33433300  0.72277700  1
  C  C3  1  0.32259600  0.65008600  0.23589700  1
  C  C4  1  0.99233100  0.98775400  0.76745200  1
  C  C5  1  0.99187900  0.99569600  0.28038600  1
  Ni  Ni6  1  0.35422100  0.37738400  0.92379300  1
  Cu  Cu7  1  0.66298600  0.99582900  0.49875800  1
  Cu  Cu8  1  0.73530500  0.73903700  0.01701000  1
  Cu  Cu9  1  0.94520000  0.33841100  0.00292800  1
  Cu  Cu10  1  0.99906200  0.66447300  0.49849400  1
  Cu  Cu11  1  0.33053000  0.32302700  0.50061700  1
  Cu  Cu12  1  0.34024900  0.96720000  0.00354300  1
  C  C13  1  0.60843200  0.33255600  0.02156700  1
  C  C14  1  0.33292800  0.66309900  0.52044900  1
  C  C15  1  0.66892500  0.33245700  0.52092600  1
  C  C16  1  0.33585200  0.64821400  0.01993700  1
  C  C17  1  0.05052300  0.04610800  0.96616000  1
  C  C18  1  0.99662600  0.99687100  0.47667800  1
  C  C19  1  0.37452400  0.01263600  0.83702400  1
  C  C20  1  0.35220700  0.34623300  0.34053200  1
  C  C21  1  0.99909900  0.63656100  0.34112500  1
  C  C22  1  0.03267400  0.36832900  0.82765800  1
  C  C23  1  0.63484700  0.63140200  0.83135400  1
  C  C24  1  0.62982700  0.99397200  0.34114500  1
  C  C25  1  0.29802700  0.97535700  0.16411900  1
  C  C26  1  0.30949300  0.29906300  0.66170000  1
  C  C27  1  0.00056500  0.69299600  0.66073300  1
  C  C28  1  0.97870500  0.29926900  0.17356200  1
  C  C29  1  0.69038500  0.69058700  0.18283000  1
  C  C30  1  0.69448000  0.99849600  0.66090800  1
