# generated using pymatgen
data_CuNiC16
_symmetry_space_group_name_H-M   'P 1'
_cell_length_a   8.76096514
_cell_length_b   8.76096485
_cell_length_c   22.76961562
_cell_angle_alpha   90.00000000
_cell_angle_beta   90.00000000
_cell_angle_gamma   120.00000109
_symmetry_Int_Tables_number   1
_chemical_formula_structural   CuNiC16
_chemical_formula_sum   'Cu6 Ni6 C96'
_cell_volume   1513.52715204
_cell_formula_units_Z   6
loop_
 _symmetry_equiv_pos_site_id
 _symmetry_equiv_pos_as_xyz
  1  'x, y, z'
loop_
 _atom_site_type_symbol
 _atom_site_label
 _atom_site_symmetry_multiplicity
 _atom_site_fract_x
 _atom_site_fract_y
 _atom_site_fract_z
 _atom_site_occupancy
  C  C0  1  -0.00000000  0.00000000  0.49773290  1
  C  C1  1  -0.00000000  0.00000000  0.99699360  1
  C  C2  1  0.66666700  0.33333300  0.83655923  1
  C  C3  1  0.66666700  0.33333300  0.33076933  1
  C  C4  1  0.33333300  0.66666700  0.16376495  1
  C  C5  1  0.33333300  0.66666700  0.66898263  1
  Ni  Ni6  1  -0.00000000  -0.00000000  0.64866073  1
  Ni  Ni7  1  -0.00000000  0.00000000  0.14297797  1
  Ni  Ni8  1  0.66666700  0.33333300  0.69037870  1
  Ni  Ni9  1  0.66666700  0.33333300  0.47864316  1
  Ni  Ni10  1  0.33333300  0.66666700  0.51850802  1
  Ni  Ni11  1  0.33333300  0.66666700  0.31118042  1
  Cu  Cu12  1  -0.00000000  0.00000000  0.35113797  1
  Cu  Cu13  1  -0.00000000  0.00000000  0.85447194  1
  Cu  Cu14  1  0.66666700  0.33333300  0.18578380  1
  Cu  Cu15  1  0.66666700  0.33333300  0.97954482  1
  Cu  Cu16  1  0.33333300  0.66666700  0.01833453  1
  Cu  Cu17  1  0.33333300  0.66666700  0.81634514  1
  C  C18  1  0.29326438  0.00976677  0.24977563  1
  C  C19  1  0.71650239  0.70673562  0.24977563  1
  C  C20  1  0.99023323  0.28349761  0.24977563  1
  C  C21  1  0.28492876  0.29334768  0.75498876  1
  C  C22  1  0.00841891  0.71507124  0.75498876  1
  C  C23  1  0.70665232  0.99158109  0.75498876  1
  C  C24  1  0.95905631  0.33388035  0.58394841  1
  C  C25  1  0.37482503  0.04094369  0.58394841  1
  C  C26  1  0.66611965  0.62517497  0.58394841  1
  C  C27  1  0.95259335  0.60973390  0.08139961  1
  C  C28  1  0.65714154  0.04740665  0.08139961  1
  C  C29  1  0.39026610  0.34285846  0.08139961  1
  C  C30  1  0.62022014  0.66684234  0.91728142  1
  C  C31  1  0.04662120  0.37977986  0.91728142  1
  C  C32  1  0.33315766  0.95337880  0.91728142  1
  C  C33  1  0.63545472  0.95940078  0.41476015  1
  C  C34  1  0.32394506  0.36454528  0.41476015  1
  C  C35  1  0.04059922  0.67605494  0.41476015  1
  C  C36  1  0.19943278  0.03023815  0.30430583  1
  C  C37  1  0.83080537  0.80056722  0.30430583  1
  C  C38  1  0.96976185  0.16919463  0.30430583  1
  C  C39  1  0.19063971  0.17119169  0.80769538  1
  C  C40  1  0.98055198  0.80936029  0.80769538  1
  C  C41  1  0.82880831  0.01944802  0.80769538  1
  C  C42  1  0.78592468  0.96551506  0.69821245  1
  C  C43  1  0.17959038  0.21407532  0.69821245  1
  C  C44  1  0.03448494  0.82040962  0.69821245  1
  C  C45  1  0.79624431  0.81927127  0.19465628  1
  C  C46  1  0.02302696  0.20375569  0.19465628  1
  C  C47  1  0.18072873  0.97697304  0.19465628  1
  C  C48  1  0.87129282  0.35716186  0.63914419  1
  C  C49  1  0.48587004  0.12870718  0.63914419  1
  C  C50  1  0.64283814  0.51412996  0.63914419  1
  C  C51  1  0.86409714  0.50055184  0.13759537  1
  C  C52  1  0.63645570  0.13590286  0.13759537  1
  C  C53  1  0.49944816  0.36354430  0.13759537  1
  C  C54  1  0.47716500  0.31382440  0.02673598  1
  C  C55  1  0.83666040  0.52283500  0.02673598  1
  C  C56  1  0.68617560  0.16333960  0.02673598  1
  C  C57  1  0.46065934  0.15163941  0.52871071  1
  C  C58  1  0.69098107  0.53934066  0.52871071  1
  C  C59  1  0.84836059  0.30901893  0.52871071  1
  C  C60  1  0.53094277  0.69535358  0.97181905  1
  C  C61  1  0.16440981  0.46905723  0.97181905  1
  C  C62  1  0.30464642  0.83559019  0.97181905  1
  C  C63  1  0.54881737  0.84795712  0.46993633  1
  C  C64  1  0.29913875  0.45118263  0.46993633  1
  C  C65  1  0.15204288  0.70086125  0.46993633  1
  C  C66  1  0.12703392  0.64320404  0.36125404  1
  C  C67  1  0.51616912  0.87296608  0.36125404  1
  C  C68  1  0.35679596  0.48383088  0.36125404  1
  C  C69  1  0.13491800  0.49697071  0.86276562  1
  C  C70  1  0.36205172  0.86508200  0.86276562  1
  C  C71  1  0.50302929  0.63794828  0.86276562  1
  C  C72  1  0.02357753  0.84104605  0.40623239  1
  C  C73  1  0.81746852  0.97642247  0.40623239  1
  C  C74  1  0.15895395  0.18253148  0.40623239  1
  C  C75  1  0.02722161  0.19512542  0.90937576  1
  C  C76  1  0.16790382  0.97277839  0.90937576  1
  C  C77  1  0.80487458  0.83209618  0.90937576  1
  C  C78  1  0.97715101  0.16932409  0.58907749  1
  C  C79  1  0.19217309  0.02284899  0.58907749  1
  C  C80  1  0.83067591  0.80782691  0.58907749  1
  C  C81  1  0.97168406  0.79483535  0.08635332  1
  C  C82  1  0.82315129  0.02831594  0.08635332  1
  C  C83  1  0.20516465  0.17684871  0.08635332  1
  C  C84  1  0.69064511  0.15873263  0.74921153  1
  C  C85  1  0.46808852  0.30935489  0.74921153  1
  C  C86  1  0.84126737  0.53191148  0.74921153  1
  C  C87  1  0.69866873  0.52349614  0.24164562  1
  C  C88  1  0.82482842  0.30133127  0.24164562  1
  C  C89  1  0.47650386  0.17517158  0.24164562  1
  C  C90  1  0.63991205  0.50192482  0.92505943  1
  C  C91  1  0.86201377  0.36008795  0.92505943  1
  C  C92  1  0.49807518  0.13798623  0.92505943  1
  C  C93  1  0.65281933  0.14226069  0.42051103  1
  C  C94  1  0.48944235  0.34718067  0.42051103  1
  C  C95  1  0.85773931  0.51055765  0.42051103  1
  C  C96  1  0.36866240  0.50633006  0.07427263  1
  C  C97  1  0.13766666  0.63133760  0.07427263  1
  C  C98  1  0.49366994  0.86233334  0.07427263  1
  C  C99  1  0.35689608  0.85814202  0.57882561  1
  C  C100  1  0.50124495  0.64310392  0.57882561  1
  C  C101  1  0.14185798  0.49875505  0.57882561  1
  C  C102  1  0.31430094  0.84500644  0.25506150  1
  C  C103  1  0.53070450  0.68569906  0.25506150  1
  C  C104  1  0.15499356  0.46929550  0.25506150  1
  C  C105  1  0.30639199  0.47787839  0.76246523  1
  C  C106  1  0.17148540  0.69360801  0.76246523  1
  C  C107  1  0.52212161  0.82851460  0.76246523  1
