# generated using pymatgen
data_Cu6NiC12
_symmetry_space_group_name_H-M   'P 1'
_cell_length_a   5.10901286
_cell_length_b   14.29990889
_cell_length_c   2.99083688
_cell_angle_alpha   90.00000000
_cell_angle_beta   90.00000000
_cell_angle_gamma   98.89680786
_symmetry_Int_Tables_number   1
_chemical_formula_structural   Cu6NiC12
_chemical_formula_sum   'Cu6 Ni1 C12'
_cell_volume   215.87685605
_cell_formula_units_Z   1
loop_
 _symmetry_equiv_pos_site_id
 _symmetry_equiv_pos_as_xyz
  1  'x, y, z'
loop_
 _atom_site_type_symbol
 _atom_site_label
 _atom_site_symmetry_multiplicity
 _atom_site_fract_x
 _atom_site_fract_y
 _atom_site_fract_z
 _atom_site_occupancy
  Ni  Ni0  1  0.41957119  0.31459805  0.00000000  1
  Cu  Cu1  1  0.05060610  0.99030894  -0.00000000  1
  Cu  Cu2  1  0.91744159  0.36072672  0.00000000  1
  Cu  Cu3  1  0.00400877  0.66602169  -0.00000000  1
  Cu  Cu4  1  0.61435139  0.12951878  0.50000000  1
  Cu  Cu5  1  0.43945921  0.52705504  0.50000000  1
  Cu  Cu6  1  0.48545729  0.84446859  0.50000000  1
  C  C7  1  0.16183038  0.60593108  0.50000000  1
  C  C8  1  0.19640955  0.92538651  0.50000000  1
  C  C9  1  0.38310233  0.08255285  -0.00000000  1
  C  C10  1  0.32813467  0.76994061  0.00000000  1
  C  C11  1  0.25608691  0.43527454  0.00000000  1
  C  C12  1  0.69956930  0.22988892  0.00000000  1
  C  C13  1  0.66288944  0.57361752  -0.00000000  1
  C  C14  1  0.69681371  0.90214235  -0.00000000  1
  C  C15  1  0.90248008  0.05916780  0.50000000  1
  C  C16  1  0.69694124  0.38720782  0.50000000  1
  C  C17  1  0.17408652  0.27441072  0.50000000  1
  C  C18  1  0.84131633  0.73659648  0.50000000  1
