# generated using pymatgen
data_Cu3Ni3C35
_symmetry_space_group_name_H-M   'P 1'
_cell_length_a   8.69771386
_cell_length_b   8.67989040
_cell_length_c   21.58923572
_cell_angle_alpha   89.78283337
_cell_angle_beta   89.65527659
_cell_angle_gamma   119.95287286
_symmetry_Int_Tables_number   1
_chemical_formula_structural   Cu3Ni3C35
_chemical_formula_sum   'Cu9 Ni9 C105'
_cell_volume   1412.12157053
_cell_formula_units_Z   3
loop_
 _symmetry_equiv_pos_site_id
 _symmetry_equiv_pos_as_xyz
  1  'x, y, z'
loop_
 _atom_site_type_symbol
 _atom_site_label
 _atom_site_symmetry_multiplicity
 _atom_site_fract_x
 _atom_site_fract_y
 _atom_site_fract_z
 _atom_site_occupancy
  C  C0  1  0.63325112  0.00191766  0.25135513  1
  C  C1  1  0.36687364  0.36857530  0.24870989  1
  C  C2  1  0.99991314  0.62766648  0.24988859  1
  C  C3  1  0.63219753  0.63529211  0.74978215  1
  C  C4  1  0.99607256  0.36402156  0.74901069  1
  C  C5  1  0.37125409  0.00078747  0.74836249  1
  C  C6  1  0.03244876  0.69806861  0.58298160  1
  C  C7  1  0.66443467  0.96855144  0.58277468  1
  C  C8  1  0.66503533  0.69341573  0.08262287  1
  C  C9  1  0.03167721  0.33447614  0.08475706  1
  C  C10  1  0.96267020  0.66595021  0.91846012  1
  C  C11  1  0.70084842  0.03101528  0.91651020  1
  C  C12  1  0.33779162  0.30242804  0.91806608  1
  C  C13  1  0.96687099  0.30137231  0.41649802  1
  C  C14  1  0.33535586  0.03109078  0.41786486  1
  C  C15  1  0.99967718  0.99985985  0.50008526  1
  C  C16  1  0.00549999  0.99739940  0.00098677  1
  C  C17  1  0.66629095  0.33305157  0.83337664  1
  C  C18  1  0.67022997  0.33874488  0.33467462  1
  C  C19  1  0.32936945  0.66820770  0.16589773  1
  C  C20  1  0.33386942  0.66270794  0.66502421  1
  C  C21  1  0.99295702  0.99771800  0.85204451  1
  C  C22  1  0.66905635  0.32709785  0.68357204  1
  C  C23  1  0.67308121  0.33649968  0.18321140  1
  C  C24  1  0.66525571  0.34251962  0.98328248  1
  C  C25  1  0.32691231  0.66271931  0.31639873  1
  C  C26  1  0.34098985  0.66970148  0.81465600  1
  Ni  Ni27  1  0.99983798  0.29019466  0.24992018  1
  Ni  Ni28  1  0.71054262  0.00170014  0.75058882  1
  Ni  Ni29  1  0.96132035  0.33586113  0.58369924  1
  Ni  Ni30  1  0.37711157  0.04958043  0.58420510  1
  Ni  Ni31  1  0.96018107  0.62699641  0.08311498  1
  Ni  Ni32  1  0.37980915  0.32819914  0.08374843  1
  Ni  Ni33  1  0.62347417  0.66521056  0.91586064  1
  Ni  Ni34  1  0.61867273  0.94831254  0.41562666  1
  Ni  Ni35  1  0.03843553  0.66606779  0.41579730  1
  C  C36  1  0.98788052  0.99280248  0.35465661  1
  C  C37  1  0.00355923  0.00873102  0.64600785  1
  C  C38  1  0.01165506  0.00427169  0.14569709  1
  C  C39  1  0.66852098  0.33023974  0.48082491  1
  C  C40  1  0.33522498  0.66817936  0.02105413  1
  C  C41  1  0.33049214  0.67000151  0.51915106  1
  Cu  Cu42  1  0.28909161  0.00040616  0.25045066  1
  Cu  Cu43  1  0.71115566  0.71135346  0.24975564  1
  Cu  Cu44  1  0.28784385  0.28814575  0.75128858  1
  Cu  Cu45  1  0.99959985  0.71134934  0.75085356  1
  Cu  Cu46  1  0.66129090  0.61454014  0.58425055  1
  Cu  Cu47  1  0.66207284  0.04664923  0.08292387  1
  Cu  Cu48  1  0.04540482  0.37843385  0.91562998  1
  Cu  Cu49  1  0.33411243  0.95500423  0.91584719  1
  Cu  Cu50  1  0.33923918  0.38397987  0.41635351  1
  C  C51  1  0.20741418  0.04006415  0.30833014  1
  C  C52  1  0.83588425  0.79248089  0.30603384  1
  C  C53  1  0.96043614  0.15935246  0.31055877  1
  C  C54  1  0.20572187  0.16694502  0.80863459  1
  C  C55  1  0.96783168  0.79743348  0.80800693  1
  C  C56  1  0.83886631  0.04154489  0.80969393  1
  C  C57  1  0.79812198  0.95549670  0.68963933  1
  C  C58  1  0.16681064  0.20618560  0.69396335  1
  C  C59  1  0.04159276  0.83167497  0.69209861  1
  C  C60  1  0.79274959  0.83301411  0.19154603  1
  C  C61  1  0.03904759  0.19893166  0.18954415  1
  C  C62  1  0.16420011  0.95653667  0.19406434  1
  C  C63  1  0.87764223  0.37960284  0.64378767  1
  C  C64  1  0.50085554  0.13053518  0.64416044  1
  C  C65  1  0.63467823  0.50478346  0.64340627  1
  C  C66  1  0.87751128  0.50092191  0.14400439  1
  C  C67  1  0.63312334  0.12713676  0.14189641  1
  C  C68  1  0.50289060  0.37173006  0.14476824  1
  C  C69  1  0.46143366  0.29592008  0.02151353  1
  C  C70  1  0.83715401  0.54217670  0.02259666  1
  C  C71  1  0.70143137  0.16422234  0.02482089  1
  C  C72  1  0.46084482  0.16841074  0.52112309  1
  C  C73  1  0.70525231  0.53691920  0.52664285  1
  C  C74  1  0.83274220  0.29045796  0.52288620  1
  C  C75  1  0.53666625  0.71161063  0.97704328  1
  C  C76  1  0.16324191  0.45839023  0.97410812  1
  C  C77  1  0.29027137  0.83070127  0.97328598  1
  C  C78  1  0.53578035  0.83004520  0.47884828  1
  C  C79  1  0.29364512  0.46160026  0.47341504  1
  C  C80  1  0.16592188  0.71067643  0.47684779  1
  C  C81  1  0.12361025  0.62359312  0.35596836  1
  C  C82  1  0.49551828  0.86603049  0.35526822  1
  C  C83  1  0.36777485  0.49401307  0.35714447  1
  C  C84  1  0.12838451  0.50009553  0.85855532  1
  C  C85  1  0.36607484  0.87040085  0.85807901  1
  C  C86  1  0.49460573  0.62534689  0.85697014  1
  C  C87  1  0.03142185  0.85146707  0.40819281  1
  C  C88  1  0.82223836  0.98162546  0.41153105  1
  C  C89  1  0.17044927  0.19403283  0.41090492  1
  C  C90  1  0.03110025  0.19340249  0.90998541  1
  C  C91  1  0.16869764  0.97773070  0.90920575  1
  C  C92  1  0.82150547  0.84300942  0.91024054  1
  C  C93  1  0.97068897  0.15200702  0.58985534  1
  C  C94  1  0.17268057  0.01348990  0.59134420  1
  C  C95  1  0.83175147  0.80387631  0.58871754  1
  C  C96  1  0.96916961  0.82035638  0.09182806  1
  C  C97  1  0.82944934  0.02346318  0.08874538  1
  C  C98  1  0.17504891  0.15929192  0.08891371  1
  C  C99  1  0.69055687  0.17908710  0.74402296  1
  C  C100  1  0.47538257  0.31200802  0.74366683  1
  C  C101  1  0.83012976  0.52747774  0.74454447  1
  C  C102  1  0.69123944  0.52498825  0.24446387  1
  C  C103  1  0.82074588  0.30578295  0.24379210  1
  C  C104  1  0.47370059  0.16798867  0.24309016  1
  C  C105  1  0.64455630  0.48864997  0.92204759  1
  C  C106  1  0.85752211  0.35400402  0.92310971  1
  C  C107  1  0.50343844  0.13836905  0.92245950  1
  C  C108  1  0.63988749  0.14928111  0.42194358  1
  C  C109  1  0.50237135  0.35897427  0.42229090  1
  C  C110  1  0.84339420  0.48794713  0.42455346  1
  C  C111  1  0.35668264  0.50879263  0.07692020  1
  C  C112  1  0.15644995  0.64351670  0.07487645  1
  C  C113  1  0.49830935  0.85628499  0.07793870  1
  C  C114  1  0.35831998  0.84984763  0.57773372  1
  C  C115  1  0.49891623  0.64077151  0.57808281  1
  C  C116  1  0.15705704  0.51344287  0.57527947  1
  C  C117  1  0.30891572  0.83357274  0.25566520  1
  C  C118  1  0.52663634  0.69481804  0.25672019  1
  C  C119  1  0.17889725  0.48505774  0.25602105  1
  C  C120  1  0.30200606  0.47303679  0.75677708  1
  C  C121  1  0.16470021  0.68842259  0.75748694  1
  C  C122  1  0.51246974  0.82404297  0.75629924  1
