# generated using pymatgen
data_Cu2Ni2C35
_symmetry_space_group_name_H-M   'P 1'
_cell_length_a   17.83881262
_cell_length_b   8.91431180
_cell_length_c   22.07832868
_cell_angle_alpha   89.88443292
_cell_angle_beta   89.81460726
_cell_angle_gamma   120.07197326
_symmetry_Int_Tables_number   1
_chemical_formula_structural   Cu2Ni2C35
_chemical_formula_sum   'Cu12 Ni12 C210'
_cell_volume   3038.28877295
_cell_formula_units_Z   6
loop_
 _symmetry_equiv_pos_site_id
 _symmetry_equiv_pos_as_xyz
  1  'x, y, z'
loop_
 _atom_site_type_symbol
 _atom_site_label
 _atom_site_symmetry_multiplicity
 _atom_site_fract_x
 _atom_site_fract_y
 _atom_site_fract_z
 _atom_site_occupancy
  C  C0  1  0.81689367  0.98996623  0.24454215  1
  C  C1  1  0.68296427  0.37023188  0.25026406  1
  C  C2  1  0.99542042  0.64531059  0.25386274  1
  C  C3  1  0.49851477  0.62940035  0.25131538  1
  C  C4  1  0.31839745  0.65095085  0.74408077  1
  C  C5  1  0.81773986  0.65009517  0.74400885  1
  C  C6  1  0.99286241  0.34980605  0.75555287  1
  C  C7  1  0.49266907  0.34921359  0.75570810  1
  C  C8  1  0.18410513  0.00003515  0.75015808  1
  C  C9  1  0.68381502  0.99906094  0.75037728  1
  C  C10  1  0.33554887  0.97014286  0.58998240  1
  C  C11  1  0.83434114  0.96892723  0.59296656  1
  C  C12  1  0.15377038  0.97402845  0.08415090  1
  C  C13  1  0.83677337  0.70403882  0.09293334  1
  C  C14  1  0.35067032  0.03081555  0.91046077  1
  C  C15  1  0.84940398  0.02948137  0.90708514  1
  C  C16  1  0.16676535  0.02894884  0.41496860  1
  C  C17  1  0.85124447  0.67280658  0.40786687  1
  C  C18  1  0.00905185  0.02425332  0.50157014  1
  C  C19  1  0.50980267  0.99564528  0.49957354  1
  C  C20  1  0.01055693  0.02417958  0.99862204  1
  C  C21  1  0.50867672  0.99418818  0.00038620  1
  C  C22  1  0.33329668  0.34036019  0.83450360  1
  C  C23  1  0.83212542  0.33865949  0.83377014  1
  C  C24  1  0.33455108  0.33881640  0.33368459  1
  C  C25  1  0.83193310  0.32568241  0.33368551  1
  C  C26  1  0.18250037  0.65032873  0.16717376  1
  C  C27  1  0.66015531  0.66167475  0.16585637  1
  C  C28  1  0.16339342  0.66055116  0.66601642  1
  C  C29  1  0.66173714  0.65938243  0.66584680  1
  Ni  Ni30  1  0.49628961  0.99768804  0.35269973  1
  Ni  Ni31  1  0.49527916  0.99585211  0.14650676  1
  Ni  Ni32  1  0.33204830  0.33271309  0.18238374  1
  Ni  Ni33  1  0.33657680  0.34262052  0.98497343  1
  Ni  Ni34  1  0.83162719  0.33482687  0.98358263  1
  Ni  Ni35  1  0.33717599  0.34274519  0.48167880  1
  Ni  Ni36  1  0.83124150  0.32760703  0.48442509  1
  Ni  Ni37  1  0.16721845  0.65969309  0.01660094  1
  Ni  Ni38  1  0.66019605  0.66614554  0.01777390  1
  Ni  Ni39  1  0.16702436  0.65567681  0.51628476  1
  Ni  Ni40  1  0.66125907  0.66048024  0.51487053  1
  Ni  Ni41  1  0.17196305  0.66584132  0.31752968  1
  Cu  Cu42  1  0.99881518  0.99948423  0.34337765  1
  Cu  Cu43  1  0.99807872  0.00476897  0.84710988  1
  Cu  Cu44  1  0.49789971  0.00619380  0.84711629  1
  Cu  Cu45  1  0.99577868  0.99429927  0.65271292  1
  Cu  Cu46  1  0.49530865  0.99460834  0.65263882  1
  Cu  Cu47  1  0.99797424  0.01088872  0.15725374  1
  Cu  Cu48  1  0.33566428  0.32656009  0.67808280  1
  Cu  Cu49  1  0.83461106  0.32391730  0.67829855  1
  Cu  Cu50  1  0.83470776  0.34631924  0.17954013  1
  Cu  Cu51  1  0.67003182  0.66648640  0.32072702  1
  Cu  Cu52  1  0.17268864  0.67328801  0.82201160  1
  Cu  Cu53  1  0.67124309  0.67380181  0.82197653  1
  C  C54  1  0.84819568  0.69849428  0.25046253  1
  C  C55  1  0.34744362  0.00029469  0.75004047  1
  C  C56  1  0.84755628  0.99930867  0.75022545  1
  C  C57  1  0.15440166  0.00166660  0.25062729  1
  C  C58  1  0.64305388  0.99914656  0.24920920  1
  C  C59  1  0.35221325  0.70287279  0.25001580  1
  C  C60  1  0.00468091  0.30721573  0.25021962  1
  C  C61  1  0.49482554  0.28597013  0.24949441  1
  C  C62  1  0.14763215  0.29402124  0.74919869  1
  C  C63  1  0.64800095  0.29462519  0.74908070  1
  C  C64  1  0.00032107  0.70570446  0.75065692  1
  C  C65  1  0.50046878  0.70555745  0.75073487  1
  C  C66  1  0.48507253  0.33727429  0.58309385  1
  C  C67  1  0.98523953  0.33842504  0.58357565  1
  C  C68  1  0.18065964  0.02965474  0.58073716  1
  C  C69  1  0.68028872  0.02848052  0.58359380  1
  C  C70  1  0.33261192  0.62757208  0.58355107  1
  C  C71  1  0.83257848  0.62969005  0.58115543  1
  C  C72  1  0.48302403  0.63321851  0.08627630  1
  C  C73  1  0.98590543  0.63063535  0.08288567  1
  C  C74  1  0.33318149  0.03553555  0.08010782  1
  C  C75  1  0.83307770  0.03741669  0.08220051  1
  C  C76  1  0.18436065  0.33136031  0.08477386  1
  C  C77  1  0.68141189  0.33334065  0.08315913  1
  C  C78  1  0.31731939  0.66270309  0.91653099  1
  C  C79  1  0.81643046  0.66352901  0.91942612  1
  C  C80  1  0.01813568  0.37257384  0.91636858  1
  C  C81  1  0.51840843  0.37186124  0.91635862  1
  C  C82  1  0.16614482  0.97109666  0.91896570  1
  C  C83  1  0.66603511  0.97024125  0.91675501  1
  C  C84  1  0.31565228  0.96388704  0.41976600  1
  C  C85  1  0.81693992  0.97133773  0.41838452  1
  C  C86  1  0.16647838  0.36575954  0.41574246  1
  C  C87  1  0.66659092  0.36299925  0.41688056  1
  C  C88  1  0.01925054  0.66329814  0.41644925  1
  C  C89  1  0.51751800  0.66658784  0.41319453  1
  C  C90  1  0.11467964  0.02368996  0.30724319  1
  C  C91  1  0.60292834  0.02472882  0.30383688  1
  C  C92  1  0.40646891  0.78882281  0.30369711  1
  C  C93  1  0.90950093  0.78218136  0.31076419  1
  C  C94  1  0.48894324  0.19022174  0.30563670  1
  C  C95  1  0.99533282  0.20297450  0.30472266  1
  C  C96  1  0.11166697  0.18308050  0.80387824  1
  C  C97  1  0.61240582  0.18380246  0.80367744  1
  C  C98  1  0.49302069  0.79058391  0.80588314  1
  C  C99  1  0.99219343  0.78980352  0.80583419  1
  C  C100  1  0.40826319  0.03917890  0.81052501  1
  C  C101  1  0.90848472  0.03770279  0.81073447  1
  C  C102  1  0.38896343  0.96091458  0.68919487  1
  C  C103  1  0.88937781  0.96089102  0.68930018  1
  C  C104  1  0.09722126  0.20961140  0.69424447  1
  C  C105  1  0.59759935  0.21038053  0.69415714  1
  C  C106  1  0.02024859  0.81692706  0.69621906  1
  C  C107  1  0.51968270  0.81584251  0.69618031  1
  C  C108  1  0.39296842  0.80266814  0.19402773  1
  C  C109  1  0.89247306  0.82125356  0.18968672  1
  C  C110  1  0.02112067  0.23721104  0.19423620  1
  C  C111  1  0.50422520  0.19997332  0.19551378  1
  C  C112  1  0.09929327  0.97741348  0.19625256  1
  C  C113  1  0.59351534  0.98801310  0.19447762  1
  C  C114  1  0.45100771  0.35424990  0.64345099  1
  C  C115  1  0.95045961  0.35450561  0.64374435  1
  C  C116  1  0.23213386  0.11149285  0.63704139  1
  C  C117  1  0.72836339  0.10113752  0.64191956  1
  C  C118  1  0.32782060  0.53995655  0.64248524  1
  C  C119  1  0.82784963  0.53484189  0.63821055  1
  C  C120  1  0.44374374  0.54017316  0.14442853  1
  C  C121  1  0.95037286  0.54552300  0.14292127  1
  C  C122  1  0.32123154  0.12890350  0.13153308  1
  C  C123  1  0.82771599  0.12120717  0.13955849  1
  C  C124  1  0.23460177  0.35106623  0.14065727  1
  C  C125  1  0.72990218  0.35698786  0.14152017  1
  C  C126  1  0.22734098  0.30655813  0.03116787  1
  C  C127  1  0.73013954  0.31837117  0.03181792  1
  C  C128  1  0.42892077  0.53697377  0.03399929  1
  C  C129  1  0.92759216  0.52904608  0.03349187  1
  C  C130  1  0.34053600  0.12886039  0.02227229  1
  C  C131  1  0.83470308  0.13487436  0.02771708  1
  C  C132  1  0.22575805  0.13296179  0.52598049  1
  C  C133  1  0.72945123  0.14100341  0.53205667  1
  C  C134  1  0.33285492  0.52579004  0.53167349  1
  C  C135  1  0.83441581  0.53602791  0.52669085  1
  C  C136  1  0.42483153  0.32038698  0.53441817  1
  C  C137  1  0.92584186  0.32324586  0.53453463  1
  C  C138  1  0.26567638  0.67999352  0.96554123  1
  C  C139  1  0.76765303  0.67759696  0.97157206  1
  C  C140  1  0.06987688  0.47336854  0.96816779  1
  C  C141  1  0.57048693  0.47300903  0.96792265  1
  C  C142  1  0.15957770  0.86756315  0.97358285  1
  C  C143  1  0.66017318  0.86033257  0.96849478  1
  C  C144  1  0.27600460  0.86835787  0.47735025  1
  C  C145  1  0.76897648  0.86001623  0.47093574  1
  C  C146  1  0.15976364  0.44904549  0.47137049  1
  C  C147  1  0.66008650  0.46157306  0.46793293  1
  C  C148  1  0.07420058  0.67181344  0.46741625  1
  C  C149  1  0.57245200  0.68145697  0.46515955  1
  C  C150  1  0.05751885  0.65238140  0.35776398  1
  C  C151  1  0.55626954  0.64947139  0.35459303  1
  C  C152  1  0.25720738  0.87170900  0.36803701  1
  C  C153  1  0.77031502  0.89482257  0.36025578  1
  C  C154  1  0.17282331  0.46531305  0.36074387  1
  C  C155  1  0.67862995  0.45949276  0.35818113  1
  C  C156  1  0.05738282  0.46076565  0.85743016  1
  C  C157  1  0.55741705  0.45986048  0.85723401  1
  C  C158  1  0.17597720  0.88817849  0.86263033  1
  C  C159  1  0.67702813  0.89634438  0.85839516  1
  C  C160  1  0.27411784  0.64377746  0.85653822  1
  C  C161  1  0.77056519  0.64743542  0.86093969  1
  C  C162  1  0.01412204  0.82642546  0.41869348  1
  C  C163  1  0.50842456  0.82337098  0.41116599  1
  C  C164  1  0.40266489  0.98496668  0.41298427  1
  C  C165  1  0.90309711  0.98111412  0.41775095  1
  C  C166  1  0.08902819  0.18588549  0.41322806  1
  C  C167  1  0.58966813  0.18828840  0.41407171  1
  C  C168  1  0.00966702  0.19712973  0.91828120  1
  C  C169  1  0.50962380  0.19642297  0.91840985  1
  C  C170  1  0.08908740  0.99179387  0.91543444  1
  C  C171  1  0.58929722  0.99153238  0.91448407  1
  C  C172  1  0.40373122  0.82516692  0.91705702  1
  C  C173  1  0.90262583  0.82699554  0.91918035  1
  C  C174  1  0.49048928  0.17520349  0.58206435  1
  C  C175  1  0.98966274  0.17529614  0.58257662  1
  C  C176  1  0.09327434  0.00938729  0.58476859  1
  C  C177  1  0.59278875  0.00707834  0.58637970  1
  C  C178  1  0.41171590  0.80288932  0.58102745  1
  C  C179  1  0.91171837  0.80540735  0.57999458  1
  C  C180  1  0.49243336  0.80899837  0.08713304  1
  C  C181  1  0.99414224  0.80644440  0.08161404  1
  C  C182  1  0.40988415  0.01504070  0.08644661  1
  C  C183  1  0.91249962  0.02130547  0.08123225  1
  C  C184  1  0.09718960  0.16805177  0.08846684  1
  C  C185  1  0.59370896  0.18043400  0.08662492  1
  C  C186  1  0.33720742  0.17364366  0.74455959  1
  C  C187  1  0.83796918  0.17352584  0.74522845  1
  C  C188  1  0.23868741  0.33249814  0.74422667  1
  C  C189  1  0.73939480  0.33438815  0.74393006  1
  C  C190  1  0.41771515  0.53772779  0.74574245  1
  C  C191  1  0.91727305  0.53844324  0.74492569  1
  C  C192  1  0.34608211  0.52839396  0.24707052  1
  C  C193  1  0.83762059  0.50466279  0.24552818  1
  C  C194  1  0.41839369  0.31168011  0.24558456  1
  C  C195  1  0.92136696  0.30966472  0.24645065  1
  C  C196  1  0.24179351  0.15420734  0.24403347  1
  C  C197  1  0.73424290  0.14702590  0.24624438  1
  C  C198  1  0.32779408  0.50957919  0.92401378  1
  C  C199  1  0.82821689  0.51117658  0.92448415  1
  C  C200  1  0.42865721  0.34584968  0.91870232  1
  C  C201  1  0.92788335  0.34404035  0.91892622  1
  C  C202  1  0.24763230  0.14350091  0.92134550  1
  C  C203  1  0.74771228  0.14279177  0.92055342  1
  C  C204  1  0.32136182  0.13745205  0.42163931  1
  C  C205  1  0.82839696  0.14736923  0.42357648  1
  C  C206  1  0.24418718  0.34193866  0.41802716  1
  C  C207  1  0.74767875  0.35253554  0.42129459  1
  C  C208  1  0.42996770  0.50950134  0.41803450  1
  C  C209  1  0.92876460  0.51417911  0.42115233  1
  C  C210  1  0.17290474  0.48422750  0.07817557  1
  C  C211  1  0.67698397  0.49600100  0.07835184  1
  C  C212  1  0.07460454  0.65662525  0.07725698  1
  C  C213  1  0.57088207  0.65220668  0.08217361  1
  C  C214  1  0.25230942  0.86055070  0.07888557  1
  C  C215  1  0.75657053  0.85739372  0.08101891  1
  C  C216  1  0.17536569  0.85660724  0.57812072  1
  C  C217  1  0.67571736  0.85668014  0.57858934  1
  C  C218  1  0.25596422  0.65431282  0.58207039  1
  C  C219  1  0.75590011  0.65586100  0.58000857  1
  C  C220  1  0.07286369  0.49075999  0.57691435  1
  C  C221  1  0.57218462  0.49099103  0.57590967  1
  C  C222  1  0.15882891  0.83935528  0.25492050  1
  C  C223  1  0.64796523  0.83666211  0.25210874  1
  C  C224  1  0.26390840  0.67933339  0.25585612  1
  C  C225  1  0.75200244  0.68248556  0.25511697  1
  C  C226  1  0.07643830  0.48917756  0.25614030  1
  C  C227  1  0.57392892  0.46374720  0.25064081  1
  C  C228  1  0.14886520  0.46183867  0.75469684  1
  C  C229  1  0.64948640  0.46260397  0.75472339  1
  C  C230  1  0.07183831  0.66694791  0.75551345  1
  C  C231  1  0.57224878  0.66699708  0.75508598  1
  C  C232  1  0.25029576  0.82557058  0.75549072  1
  C  C233  1  0.75085935  0.82411873  0.75545311  1
