# generated using pymatgen
data_CuNiC6
_symmetry_space_group_name_H-M   'P 1'
_cell_length_a   6.36425208
_cell_length_b   6.36425208
_cell_length_c   13.33921600
_cell_angle_alpha   90.00000000
_cell_angle_beta   90.00000000
_cell_angle_gamma   120.00000083
_symmetry_Int_Tables_number   1
_chemical_formula_structural   CuNiC6
_chemical_formula_sum   'Cu2 Ni2 C12'
_cell_volume   467.90283809
_cell_formula_units_Z   2
loop_
 _symmetry_equiv_pos_site_id
 _symmetry_equiv_pos_as_xyz
  1  'x, y, z'
loop_
 _atom_site_type_symbol
 _atom_site_label
 _atom_site_symmetry_multiplicity
 _atom_site_fract_x
 _atom_site_fract_y
 _atom_site_fract_z
 _atom_site_occupancy
  Ni  Ni0  1  0.33333300  0.66666700  0.25000000  1
  Ni  Ni1  1  0.66666700  0.33333300  0.75000000  1
  Cu  Cu2  1  0.00000000  0.00000000  0.25000000  1
  Cu  Cu3  1  0.00000000  0.00000000  0.75000000  1
  C  C4  1  0.66872200  0.97522800  0.14331800  1
  C  C5  1  0.02477200  0.69349400  0.14331800  1
  C  C6  1  0.30650600  0.33127800  0.14331800  1
  C  C7  1  0.02477200  0.33127800  0.35668200  1
  C  C8  1  0.33127800  0.30650600  0.64331800  1
  C  C9  1  0.69349400  0.02477200  0.64331800  1
  C  C10  1  0.97522800  0.66872200  0.64331800  1
  C  C11  1  0.69349400  0.66872200  0.85668200  1
  C  C12  1  0.97522800  0.30650600  0.85668200  1
  C  C13  1  0.33127800  0.02477200  0.85668200  1
  C  C14  1  0.66872200  0.69349400  0.35668200  1
  C  C15  1  0.30650600  0.97522800  0.35668200  1
