# generated using pymatgen
data_CuNi2C15
_symmetry_space_group_name_H-M   'P 1'
_cell_length_a   8.81016377
_cell_length_b   8.81680351
_cell_length_c   23.16933375
_cell_angle_alpha   90.12346307
_cell_angle_beta   89.85695831
_cell_angle_gamma   120.05148683
_symmetry_Int_Tables_number   1
_chemical_formula_structural   CuNi2C15
_chemical_formula_sum   'Cu6 Ni12 C90'
_cell_volume   1557.80171659
_cell_formula_units_Z   6
loop_
 _symmetry_equiv_pos_site_id
 _symmetry_equiv_pos_as_xyz
  1  'x, y, z'
loop_
 _atom_site_type_symbol
 _atom_site_label
 _atom_site_symmetry_multiplicity
 _atom_site_fract_x
 _atom_site_fract_y
 _atom_site_fract_z
 _atom_site_occupancy
  C  C0  1  0.00045139  0.99512188  0.50604869  1
  C  C1  1  0.00467368  0.99869763  0.00347806  1
  C  C2  1  0.66335712  0.32807042  0.83209419  1
  C  C3  1  0.66744935  0.33280849  0.33737512  1
  C  C4  1  0.32962906  0.66270120  0.17060202  1
  C  C5  1  0.34140043  0.66905388  0.66483090  1
  C  C6  1  0.00093435  -0.00001302  0.35707476  1
  C  C7  1  0.00190815  0.00788365  0.85250244  1
  C  C8  1  0.65282968  0.32502578  0.68530751  1
  C  C9  1  0.66854556  0.34139986  0.18605841  1
  C  C10  1  0.66396959  0.33904502  0.97968901  1
  C  C11  1  0.66055938  0.33595817  0.48001076  1
  C  C12  1  0.32739508  0.66106036  0.01975073  1
  C  C13  1  0.34010924  0.67231650  0.51848791  1
  C  C14  1  0.34014130  0.66801625  0.81311357  1
  C  C15  1  0.99803880  -0.00001416  0.64747443  1
  C  C16  1  0.01039232  0.99971437  0.14703663  1
  C  C17  1  0.33248062  0.66632804  0.32388281  1
  Ni  Ni18  1  0.28614912  0.28797326  0.74802354  1
  Ni  Ni19  1  0.71366398  0.00218067  0.74789923  1
  Ni  Ni20  1  0.36821569  0.03973970  0.58299815  1
  Ni  Ni21  1  0.67139114  0.62959938  0.58401001  1
  Ni  Ni22  1  0.95720020  0.62908881  0.08366741  1
  Ni  Ni23  1  0.37084449  0.32942187  0.08392596  1
  Ni  Ni24  1  0.62482663  0.66965575  0.91698459  1
  Ni  Ni25  1  0.04244102  0.37725836  0.91616885  1
  Ni  Ni26  1  0.33225246  0.95548449  0.91679988  1
  Ni  Ni27  1  0.62102402  0.95787974  0.41454958  1
  Ni  Ni28  1  0.33448992  0.38122769  0.41490182  1
  Ni  Ni29  1  0.04459312  0.66329622  0.41529809  1
  Cu  Cu30  1  0.28986109  0.99538179  0.24897459  1
  Cu  Cu31  1  0.70768398  0.71420554  0.24868248  1
  Cu  Cu32  1  0.00366080  0.29150843  0.24847524  1
  Cu  Cu33  1  -0.00001863  0.70924305  0.74945587  1
  Cu  Cu34  1  0.95676267  0.33227742  0.58326887  1
  Cu  Cu35  1  0.66943643  0.04376577  0.08355153  1
  C  C36  1  0.20944160  0.02767433  0.30134960  1
  C  C37  1  0.81895212  0.79225896  0.30122436  1
  C  C38  1  0.97282912  0.18076488  0.30118997  1
  C  C39  1  0.20576251  0.17718940  0.80386603  1
  C  C40  1  0.97300923  0.78935405  0.80249452  1
  C  C41  1  0.82235262  0.02588606  0.80391800  1
  C  C42  1  0.78935032  0.96681345  0.69475493  1
  C  C43  1  0.17838947  0.20960510  0.69462756  1
  C  C44  1  0.03126156  0.81358579  0.69772946  1
  C  C45  1  0.79072302  0.81591052  0.19667654  1
  C  C46  1  0.02318177  0.20798766  0.19652447  1
  C  C47  1  0.18647311  0.97410703  0.19723724  1
  C  C48  1  0.87533628  0.36085713  0.63571151  1
  C  C49  1  0.48863102  0.12571604  0.63696972  1
  C  C50  1  0.64193822  0.51009635  0.63749182  1
  C  C51  1  0.86993931  0.50822453  0.13723257  1
  C  C52  1  0.63944179  0.12602832  0.13572363  1
  C  C53  1  0.49096267  0.35875098  0.13726430  1
  C  C54  1  0.46392658  0.30759847  0.03015265  1
  C  C55  1  0.84444297  0.53322895  0.02998337  1
  C  C56  1  0.69052725  0.15068041  0.03136431  1
  C  C57  1  0.46594167  0.15408831  0.52997697  1
  C  C58  1  0.69091050  0.53523802  0.53019728  1
  C  C59  1  0.84949152  0.31163981  0.53126762  1
  C  C60  1  0.53865590  0.69564065  0.97114253  1
  C  C61  1  0.15600337  0.46110213  0.97061698  1
  C  C62  1  0.30666907  0.84306343  0.97108305  1
  C  C63  1  0.54084116  0.84400094  0.46955288  1
  C  C64  1  0.30302199  0.46068922  0.47010055  1
  C  C65  1  0.15749483  0.69552988  0.47011228  1
  C  C66  1  0.11672312  0.63238346  0.36023747  1
  C  C67  1  0.51584464  0.88398787  0.36018911  1
  C  C68  1  0.36773423  0.48508413  0.36014702  1
  C  C69  1  0.12755762  0.49016779  0.86268723  1
  C  C70  1  0.36018018  0.87032036  0.86292719  1
  C  C71  1  0.51060044  0.63829209  0.86322842  1
  C  C72  1  0.02326169  0.82928461  0.40846879  1
  C  C73  1  0.80694479  0.97667136  0.40823503  1
  C  C74  1  0.16991564  0.19356317  0.40853270  1
  C  C75  1  0.02429780  0.19425031  0.91018077  1
  C  C76  1  0.16865672  0.97450317  0.90951159  1
  C  C77  1  0.80827946  0.83020687  0.90926843  1
  C  C78  1  0.97464837  0.17747769  0.58800001  1
  C  C79  1  0.19053670  0.02449601  0.58913928  1
  C  C80  1  0.83229717  0.80954904  0.58885874  1
  C  C81  1  0.97243779  0.80696119  0.08943984  1
  C  C82  1  0.82342272  0.02545167  0.08962284  1
  C  C83  1  0.19032761  0.16966235  0.08939578  1
  C  C84  1  0.69380975  0.16814780  0.74366576  1
  C  C85  1  0.47490501  0.31227205  0.74433018  1
  C  C86  1  0.84236826  0.53087254  0.74432371  1
  C  C87  1  0.69393245  0.53364986  0.24340065  1
  C  C88  1  0.83756501  0.30483647  0.24287169  1
  C  C89  1  0.46904393  0.16046444  0.24281937  1
  C  C90  1  0.64247248  0.50406740  0.92346291  1
  C  C91  1  0.85880576  0.35493424  0.92462553  1
  C  C92  1  0.49700714  0.13846872  0.92457225  1
  C  C93  1  0.64905008  0.14332215  0.42530707  1
  C  C94  1  0.49371869  0.35320080  0.42396453  1
  C  C95  1  0.85854451  0.50416424  0.42513078  1
  C  C96  1  0.36283617  0.50083620  0.07695156  1
  C  C97  1  0.13939754  0.64216085  0.07705623  1
  C  C98  1  0.50699668  0.86883525  0.07733981  1
  C  C99  1  0.35720377  0.85855424  0.57669977  1
  C  C100  1  0.49925762  0.63750032  0.57685332  1
  C  C101  1  0.13213171  0.49429251  0.57711437  1
  C  C102  1  0.31343231  0.84361060  0.25570070  1
  C  C103  1  0.53092884  0.68710174  0.25547909  1
  C  C104  1  0.15506589  0.46772581  0.25527240  1
  C  C105  1  0.31084292  0.47377176  0.75837056  1
  C  C106  1  0.15647980  0.68781429  0.75835621  1
  C  C107  1  0.52589125  0.84140951  0.75827097  1
