# generated using pymatgen
data_Cu5Ni3C74
_symmetry_space_group_name_H-M   'P 1'
_cell_length_a   18.03094189
_cell_length_b   9.01495512
_cell_length_c   22.26876826
_cell_angle_alpha   90.12823064
_cell_angle_beta   89.89680468
_cell_angle_gamma   120.07275818
_symmetry_Int_Tables_number   1
_chemical_formula_structural   Cu5Ni3C74
_chemical_formula_sum   'Cu15 Ni9 C222'
_cell_volume   3132.48293789
_cell_formula_units_Z   3
loop_
 _symmetry_equiv_pos_site_id
 _symmetry_equiv_pos_as_xyz
  1  'x, y, z'
loop_
 _atom_site_type_symbol
 _atom_site_label
 _atom_site_symmetry_multiplicity
 _atom_site_fract_x
 _atom_site_fract_y
 _atom_site_fract_z
 _atom_site_occupancy
  C  C0  1  0.18459853  0.35968746  0.24649250  1
  C  C1  1  0.68519383  0.36080744  0.24708525  1
  C  C2  1  0.99391517  0.62950702  0.24756573  1
  C  C3  1  0.49417422  0.62886351  0.24632680  1
  C  C4  1  0.31961791  0.62920449  0.74644125  1
  C  C5  1  0.82020029  0.63108227  0.74680352  1
  C  C6  1  0.18507302  0.01255078  0.74650937  1
  C  C7  1  0.68542736  0.01144009  0.74590792  1
  C  C8  1  0.15589348  0.34378482  0.57776085  1
  C  C9  1  0.65616669  0.34427057  0.57762945  1
  C  C10  1  0.01529161  0.68687324  0.57822096  1
  C  C11  1  0.51530388  0.68656975  0.57812355  1
  C  C12  1  0.32761142  0.96824810  0.57765209  1
  C  C13  1  0.82782505  0.96797454  0.57811444  1
  C  C14  1  0.15644333  0.97101697  0.07824710  1
  C  C15  1  0.65344862  0.96343723  0.08088835  1
  C  C16  1  0.32777847  0.68640781  0.07809860  1
  C  C17  1  0.01908551  0.34529863  0.08055799  1
  C  C18  1  0.51557873  0.34541321  0.07749742  1
  C  C19  1  0.48100623  0.66538893  0.91871118  1
  C  C20  1  0.98815346  0.67941980  0.91355055  1
  C  C21  1  0.35125437  0.03626868  0.91836156  1
  C  C22  1  0.16737205  0.29427962  0.91868291  1
  C  C23  1  0.66180671  0.30051898  0.91386938  1
  C  C24  1  0.48212698  0.29772719  0.41836017  1
  C  C25  1  0.98209851  0.29753164  0.41826014  1
  C  C26  1  0.16662110  0.03642683  0.41850414  1
  C  C27  1  0.66675370  0.03644966  0.41860250  1
  C  C28  1  0.35141419  0.66571498  0.41858540  1
  C  C29  1  0.85156883  0.66599180  0.41829745  1
  C  C30  1  0.99989810  0.00028178  0.49396601  1
  C  C31  1  0.49993355  0.00037071  0.49384092  1
  C  C32  1  0.98838594  0.99163724  0.99346604  1
  C  C33  1  0.49869142  0.99898872  0.99428351  1
  C  C34  1  0.33962621  0.33380950  0.83167805  1
  C  C35  1  0.84136934  0.32473166  0.82683560  1
  C  C36  1  0.33281795  0.32009214  0.33173978  1
  C  C37  1  0.83321393  0.32062703  0.33203885  1
  C  C38  1  0.17250520  0.67852216  0.16234839  1
  C  C39  1  0.67832654  0.67842201  0.16006215  1
  C  C40  1  0.16070129  0.65607490  0.66159601  1
  C  C41  1  0.66124115  0.65677517  0.66178079  1
  Ni  Ni42  1  0.99964524  0.00292160  0.64963665  1
  Ni  Ni43  1  0.50004060  0.00286571  0.64968516  1
  Ni  Ni44  1  0.99570084  0.99493463  0.14831263  1
  Ni  Ni45  1  0.49881779  0.00018313  0.14947250  1
  Ni  Ni46  1  0.83349001  0.33095630  0.98139180  1
  Ni  Ni47  1  0.16874680  0.67168584  0.31498131  1
  Ni  Ni48  1  0.66889633  0.67201380  0.31511444  1
  Ni  Ni49  1  0.16429169  0.66288744  0.81498994  1
  Ni  Ni50  1  0.66569009  0.66464331  0.81552737  1
  Cu  Cu51  1  0.99907215  0.00068776  0.35007286  1
  Cu  Cu52  1  0.49925753  0.00093214  0.35017886  1
  Cu  Cu53  1  0.99709809  0.00280226  0.85118268  1
  Cu  Cu54  1  0.49899253  0.00072929  0.85003289  1
  Cu  Cu55  1  0.33678404  0.33406160  0.68337895  1
  Cu  Cu56  1  0.83692318  0.33424358  0.68288652  1
  Cu  Cu57  1  0.33273761  0.32630432  0.18338671  1
  Cu  Cu58  1  0.83289205  0.32787868  0.18485708  1
  Cu  Cu59  1  0.33316720  0.33246110  0.98390011  1
  Cu  Cu60  1  0.33373132  0.33334361  0.48357338  1
  Cu  Cu61  1  0.83377147  0.33343186  0.48355368  1
  Cu  Cu62  1  0.16717993  0.66756846  0.01640910  1
  Cu  Cu63  1  0.67040890  0.66782898  0.01744956  1
  Cu  Cu64  1  0.16662681  0.66678195  0.51604621  1
  Cu  Cu65  1  0.66671897  0.66684526  0.51606464  1
  C  C66  1  0.14744160  0.00235688  0.25132880  1
  C  C67  1  0.64828317  0.00290354  0.25225458  1
  C  C68  1  0.35260780  0.70283490  0.25201442  1
  C  C69  1  0.85276936  0.70307396  0.25304408  1
  C  C70  1  0.99806203  0.29347944  0.25236915  1
  C  C71  1  0.49811145  0.29464675  0.25279656  1
  C  C72  1  0.14832971  0.29427900  0.75235797  1
  C  C73  1  0.64873967  0.29555011  0.75238592  1
  C  C74  1  0.99861631  0.70367126  0.75231554  1
  C  C75  1  0.49892839  0.70347114  0.75235285  1
  C  C76  1  0.35264519  0.00392103  0.75297473  1
  C  C77  1  0.85317713  0.00411775  0.75181413  1
  C  C78  1  0.48033840  0.33538015  0.58222034  1
  C  C79  1  0.98047947  0.33546355  0.58205283  1
  C  C80  1  0.18651379  0.03881501  0.58402020  1
  C  C81  1  0.68655609  0.03887242  0.58395263  1
  C  C82  1  0.33245243  0.62601253  0.58413900  1
  C  C83  1  0.83252663  0.62597048  0.58406102  1
  C  C84  1  0.48036506  0.62627077  0.08382678  1
  C  C85  1  0.98109491  0.62791319  0.08499834  1
  C  C86  1  0.33244792  0.03941753  0.08211019  1
  C  C87  1  0.83150716  0.03853500  0.08512050  1
  C  C88  1  0.18643383  0.33404872  0.08413522  1
  C  C89  1  0.68707014  0.33790080  0.08608404  1
  C  C90  1  0.31476558  0.66708791  0.91836700  1
  C  C91  1  0.81489885  0.67009191  0.91770848  1
  C  C92  1  0.01994659  0.36986466  0.91995415  1
  C  C93  1  0.51854712  0.37025789  0.92010301  1
  C  C94  1  0.16643073  0.96310008  0.91853599  1
  C  C95  1  0.66535033  0.95985078  0.91847207  1
  C  C96  1  0.31535005  0.96297794  0.42002151  1
  C  C97  1  0.81544085  0.96326923  0.42013253  1
  C  C98  1  0.16640991  0.37036579  0.41832249  1
  C  C99  1  0.66636894  0.37021623  0.41839230  1
  C  C100  1  0.01881060  0.66782335  0.41841321  1
  C  C101  1  0.51871478  0.66769109  0.41838287  1
  C  C102  1  0.10433502  0.02401060  0.30705975  1
  C  C103  1  0.60449503  0.02421733  0.30747977  1
  C  C104  1  0.40730695  0.78913813  0.30718813  1
  C  C105  1  0.90591709  0.78520802  0.30915226  1
  C  C106  1  0.49017531  0.19142549  0.30855205  1
  C  C107  1  0.99016418  0.19140327  0.30855544  1
  C  C108  1  0.10536289  0.18446472  0.80747415  1
  C  C109  1  0.60576405  0.18646026  0.80765320  1
  C  C110  1  0.48793559  0.79016517  0.80773230  1
  C  C111  1  0.98841663  0.79044945  0.80792893  1
  C  C112  1  0.40391587  0.01954824  0.80883621  1
  C  C113  1  0.90756505  0.02064380  0.80534861  1
  C  C114  1  0.39561867  0.97328812  0.69610323  1
  C  C115  1  0.89310117  0.97193213  0.69327247  1
  C  C116  1  0.09297857  0.20853320  0.69481024  1
  C  C117  1  0.59330294  0.20865980  0.69499498  1
  C  C118  1  0.01355552  0.82117907  0.69572665  1
  C  C119  1  0.51421465  0.82130026  0.69573323  1
  C  C120  1  0.39599174  0.81400249  0.19451170  1
  C  C121  1  0.89773123  0.81813135  0.19723464  1
  C  C122  1  0.01282489  0.20702126  0.19550564  1
  C  C123  1  0.51359946  0.20872308  0.19568503  1
  C  C124  1  0.08849111  0.97105272  0.19480824  1
  C  C125  1  0.58976512  0.97276537  0.19539171  1
  C  C126  1  0.43697937  0.36236967  0.63617465  1
  C  C127  1  0.93721794  0.36249730  0.63609578  1
  C  C128  1  0.23970708  0.12153354  0.64049534  1
  C  C129  1  0.73960204  0.12173607  0.64042153  1
  C  C130  1  0.32021383  0.51955131  0.64058601  1
  C  C131  1  0.82018181  0.51951719  0.64056919  1
  C  C132  1  0.43874908  0.52014794  0.14023566  1
  C  C133  1  0.93849766  0.51889244  0.14057520  1
  C  C134  1  0.31903998  0.12618743  0.13607491  1
  C  C135  1  0.81903173  0.12536249  0.13926306  1
  C  C136  1  0.24032178  0.36005955  0.14046221  1
  C  C137  1  0.73807850  0.35322309  0.14233495  1
  C  C138  1  0.22453240  0.29873016  0.02742172  1
  C  C139  1  0.72956081  0.30614160  0.02914791  1
  C  C140  1  0.42488144  0.55048159  0.02720282  1
  C  C141  1  0.92587723  0.54081936  0.02748018  1
  C  C142  1  0.35144706  0.14619610  0.02418650  1
  C  C143  1  0.84823773  0.15695431  0.02865801  1
  C  C144  1  0.22480182  0.15027753  0.52740101  1
  C  C145  1  0.72471460  0.15017785  0.52734660  1
  C  C146  1  0.35058762  0.55066761  0.52747180  1
  C  C147  1  0.85033746  0.55013350  0.52745475  1
  C  C148  1  0.42679586  0.29699676  0.52431840  1
  C  C149  1  0.92682309  0.29716914  0.52425093  1
  C  C150  1  0.27230770  0.69239142  0.97365752  1
  C  C151  1  0.76849468  0.68601089  0.97157742  1
  C  C152  1  0.07200295  0.45328718  0.97634577  1
  C  C153  1  0.57273677  0.45173439  0.97617005  1
  C  C154  1  0.15288341  0.85098135  0.97332744  1
  C  C155  1  0.65326265  0.85117056  0.97400048  1
  C  C156  1  0.27454449  0.85495312  0.47599499  1
  C  C157  1  0.77451655  0.85505892  0.47604230  1
  C  C158  1  0.15386697  0.45555631  0.47356686  1
  C  C159  1  0.65375995  0.45538987  0.47363729  1
  C  C160  1  0.07433687  0.69384040  0.47340021  1
  C  C161  1  0.57427443  0.69402161  0.47342568  1
  C  C162  1  0.06469689  0.64501829  0.36101746  1
  C  C163  1  0.56466235  0.64490685  0.36107059  1
  C  C164  1  0.25554202  0.86621212  0.36463782  1
  C  C165  1  0.75561097  0.86650909  0.36473154  1
  C  C166  1  0.17755109  0.48524724  0.36128115  1
  C  C167  1  0.67743405  0.48499204  0.36134535  1
  C  C168  1  0.06487781  0.49136744  0.86475429  1
  C  C169  1  0.56794569  0.49044294  0.86499873  1
  C  C170  1  0.17752119  0.87041161  0.86123265  1
  C  C171  1  0.67817233  0.87467068  0.86089452  1
  C  C172  1  0.25703626  0.64444760  0.86145964  1
  C  C173  1  0.75914168  0.63824080  0.85924574  1
  C  C174  1  0.00959904  0.82886951  0.41168190  1
  C  C175  1  0.50926799  0.82847078  0.41155808  1
  C  C176  1  0.40485188  0.98114514  0.41186854  1
  C  C177  1  0.90495868  0.98164789  0.41201204  1
  C  C178  1  0.08591403  0.19029820  0.41160715  1
  C  C179  1  0.58584322  0.19018241  0.41172297  1
  C  C180  1  0.01195819  0.19390613  0.91135173  1
  C  C181  1  0.50920666  0.19107576  0.91171824  1
  C  C182  1  0.08658831  0.98322148  0.91149836  1
  C  C183  1  0.58591206  0.98198179  0.91198500  1
  C  C184  1  0.40469770  0.82801902  0.91161626  1
  C  C185  1  0.90664621  0.81927980  0.91140624  1
  C  C186  1  0.49045899  0.16991096  0.59039886  1
  C  C187  1  0.99084119  0.17029995  0.59004431  1
  C  C188  1  0.09349745  0.01843449  0.59007103  1
  C  C189  1  0.59351033  0.01850718  0.59004670  1
  C  C190  1  0.41526598  0.81245434  0.59062616  1
  C  C191  1  0.91553353  0.81199885  0.59032326  1
  C  C192  1  0.49048454  0.81252457  0.08993084  1
  C  C193  1  0.99181217  0.81198694  0.08808691  1
  C  C194  1  0.41534576  0.01935151  0.09007208  1
  C  C195  1  0.91649111  0.02977355  0.08898614  1
  C  C196  1  0.09356954  0.16898344  0.09080232  1
  C  C197  1  0.59572087  0.16584447  0.08838383  1
  C  C198  1  0.33670307  0.15437644  0.74541561  1
  C  C199  1  0.83663881  0.15375376  0.74468624  1
  C  C200  1  0.23877390  0.31735894  0.74539542  1
  C  C201  1  0.73889376  0.31730977  0.74554507  1
  C  C202  1  0.41900011  0.52664819  0.74422748  1
  C  C203  1  0.91891286  0.52663236  0.74432851  1
  C  C204  1  0.34143679  0.52243341  0.24512058  1
  C  C205  1  0.84168602  0.52275477  0.24523279  1
  C  C206  1  0.42280563  0.32598491  0.24517049  1
  C  C207  1  0.92318108  0.32688417  0.24535586  1
  C  C208  1  0.23593821  0.16165307  0.24358743  1
  C  C209  1  0.73670611  0.16254324  0.24482038  1
  C  C210  1  0.32157622  0.50202164  0.91990807  1
  C  C211  1  0.82033338  0.49885624  0.92154905  1
  C  C212  1  0.42963268  0.35778909  0.92058256  1
  C  C213  1  0.93060805  0.36153866  0.92207887  1
  C  C214  1  0.24965098  0.14125962  0.92022697  1
  C  C215  1  0.74639098  0.14472755  0.92193663  1
  C  C216  1  0.32155828  0.14084654  0.42081994  1
  C  C217  1  0.82156361  0.14102793  0.42088554  1
  C  C218  1  0.24894099  0.35680334  0.41996048  1
  C  C219  1  0.74886991  0.35664721  0.42001130  1
  C  C220  1  0.42943370  0.50227186  0.42012326  1
  C  C221  1  0.92952749  0.50240425  0.42008697  1
  C  C222  1  0.17363876  0.49132363  0.07868686  1
  C  C223  1  0.67036154  0.48722431  0.07908595  1
  C  C224  1  0.07175962  0.65121776  0.07872395  1
  C  C225  1  0.57220567  0.65397281  0.07866414  1
  C  C226  1  0.25464865  0.85498905  0.07746437  1
  C  C227  1  0.75256871  0.86079157  0.07657607  1
  C  C228  1  0.17286447  0.85539115  0.57873431  1
  C  C229  1  0.67283125  0.85537869  0.57874926  1
  C  C230  1  0.25417258  0.65241431  0.57877856  1
  C  C231  1  0.75422736  0.65249020  0.57878805  1
  C  C232  1  0.07257822  0.49099610  0.57736706  1
  C  C233  1  0.57248992  0.49079050  0.57746964  1
  C  C234  1  0.15194255  0.83229324  0.25461807  1
  C  C235  1  0.65236123  0.83274114  0.25501567  1
  C  C236  1  0.26083308  0.68221748  0.25465910  1
  C  C237  1  0.76078219  0.68158013  0.25515083  1
  C  C238  1  0.08387231  0.47552423  0.25430889  1
  C  C239  1  0.58375783  0.47609353  0.25473895  1
  C  C240  1  0.15874076  0.47806557  0.75529255  1
  C  C241  1  0.65904898  0.47915089  0.75509827  1
  C  C242  1  0.08368589  0.69500357  0.75484989  1
  C  C243  1  0.58400012  0.69526894  0.75543161  1
  C  C244  1  0.26178151  0.83254518  0.75477622  1
  C  C245  1  0.76210534  0.83324687  0.75496895  1
