# generated using pymatgen
data_Cu2Ni2C9
_symmetry_space_group_name_H-M   'P 1'
_cell_length_a   3.34269504
_cell_length_b   3.34289422
_cell_length_c   45.73178139
_cell_angle_alpha   90.00839972
_cell_angle_beta   89.98320389
_cell_angle_gamma   119.99959939
_symmetry_Int_Tables_number   1
_chemical_formula_structural   Cu2Ni2C9
_chemical_formula_sum   'Cu2 Ni2 C9'
_cell_volume   442.55767437
_cell_formula_units_Z   1
loop_
 _symmetry_equiv_pos_site_id
 _symmetry_equiv_pos_as_xyz
  1  'x, y, z'
loop_
 _atom_site_type_symbol
 _atom_site_label
 _atom_site_symmetry_multiplicity
 _atom_site_fract_x
 _atom_site_fract_y
 _atom_site_fract_z
 _atom_site_occupancy
  C  C0  1  0.00041900  0.00004600  0.36169000  1
  C  C1  1  0.66672900  0.33325100  0.05217400  1
  C  C2  1  0.66638000  0.33314900  0.13516100  1
  Ni  Ni3  1  0.33322100  0.66650300  0.09364900  1
  Ni  Ni4  1  0.66643500  0.33341700  0.27526300  1
  Cu  Cu5  1  0.33326500  0.66671700  0.47890700  1
  Cu  Cu6  1  0.66689200  0.33336000  0.65795200  1
  C  C7  1  0.33334100  0.66661300  0.69457000  1
  C  C8  1  0.66676900  0.33344600  0.44222000  1
  C  C9  1  0.66653200  0.33339300  0.51556400  1
  C  C10  1  0.33373200  0.66673200  0.62132300  1
  C  C11  1  0.33303300  0.66659900  0.30932700  1
  C  C12  1  0.33325100  0.66677000  0.24248000  1
