# generated using pymatgen
data_Cu(NiC3)3
_symmetry_space_group_name_H-M   'P 1'
_cell_length_a   3.33766200
_cell_length_b   3.33760996
_cell_length_c   38.11400400
_cell_angle_alpha   90.00040637
_cell_angle_beta   90.00012880
_cell_angle_gamma   119.99946825
_symmetry_Int_Tables_number   1
_chemical_formula_structural   Cu(NiC3)3
_chemical_formula_sum   'Cu1 Ni3 C9'
_cell_volume   367.70155859
_cell_formula_units_Z   1
loop_
 _symmetry_equiv_pos_site_id
 _symmetry_equiv_pos_as_xyz
  1  'x, y, z'
loop_
 _atom_site_type_symbol
 _atom_site_label
 _atom_site_symmetry_multiplicity
 _atom_site_fract_x
 _atom_site_fract_y
 _atom_site_fract_z
 _atom_site_occupancy
  C  C0  1  0.38751900  0.63516400  0.88233300  1
  C  C1  1  0.33334800  0.66669600  0.70765900  1
  C  C2  1  0.33335100  0.66670200  0.60750700  1
  Ni  Ni3  1  0.33330700  0.66661300  0.09387700  1
  Ni  Ni4  1  0.33331300  0.66662700  0.46959500  1
  Ni  Ni5  1  0.66669100  0.33338700  0.28178200  1
  Cu  Cu6  1  0.66668500  0.33336900  0.65763800  1
  C  C7  1  0.66663600  0.33327000  0.05012100  1
  C  C8  1  0.66665200  0.33330200  0.42579400  1
  C  C9  1  0.66664700  0.33329100  0.13774200  1
  C  C10  1  0.66665000  0.33329900  0.51341900  1
  C  C11  1  0.33335700  0.66671400  0.32161600  1
  C  C12  1  0.33335800  0.66671800  0.24199300  1
