# generated using pymatgen
data_Cu4NiC12
_symmetry_space_group_name_H-M   'P 1'
_cell_length_a   5.12850038
_cell_length_b   7.70903772
_cell_length_c   5.43977245
_cell_angle_alpha   93.00342935
_cell_angle_beta   86.30678878
_cell_angle_gamma   88.87106846
_symmetry_Int_Tables_number   1
_chemical_formula_structural   Cu4NiC12
_chemical_formula_sum   'Cu4 Ni1 C12'
_cell_volume   214.26686036
_cell_formula_units_Z   1
loop_
 _symmetry_equiv_pos_site_id
 _symmetry_equiv_pos_as_xyz
  1  'x, y, z'
loop_
 _atom_site_type_symbol
 _atom_site_label
 _atom_site_symmetry_multiplicity
 _atom_site_fract_x
 _atom_site_fract_y
 _atom_site_fract_z
 _atom_site_occupancy
  Ni  Ni0  1  0.97633700  0.76799000  0.41796800  1
  Cu  Cu1  1  0.51959800  0.46748600  0.49405700  1
  Cu  Cu2  1  0.49696000  0.01254400  0.50769000  1
  Cu  Cu3  1  0.00344600  0.49195200  0.98975100  1
  Cu  Cu4  1  0.00237900  0.00689600  0.00674700  1
  C  C5  1  0.80150000  0.55520100  0.28984900  1
  C  C6  1  0.73080500  0.94296100  0.25156900  1
  C  C7  1  0.59883800  0.25467600  0.51167000  1
  C  C8  1  0.29234200  0.03502200  0.77995000  1
  C  C9  1  0.20942400  0.47361000  0.72461700  1
  C  C10  1  0.87988900  0.25302900  0.98759200  1
  C  C11  1  0.80635400  0.91717200  0.70703200  1
  C  C12  1  0.71033800  0.56301700  0.78044500  1
  C  C13  1  0.35137400  0.75188700  0.48636700  1
  C  C14  1  0.30026200  0.44164700  0.20733400  1
  C  C15  1  0.20759500  0.06384700  0.30072300  1
  C  C16  1  0.11255900  0.75106300  0.04413600  1
