# generated using pymatgen
data_CuNiC3
_symmetry_space_group_name_H-M   'P 1'
_cell_length_a   3.35587260
_cell_length_b   3.06107926
_cell_length_c   5.65857481
_cell_angle_alpha   90.00001379
_cell_angle_beta   100.84354580
_cell_angle_gamma   62.86565620
_symmetry_Int_Tables_number   1
_chemical_formula_structural   CuNiC3
_chemical_formula_sum   'Cu1 Ni1 C3'
_cell_volume   50.56155184
_cell_formula_units_Z   1
loop_
 _symmetry_equiv_pos_site_id
 _symmetry_equiv_pos_as_xyz
  1  'x, y, z'
loop_
 _atom_site_type_symbol
 _atom_site_label
 _atom_site_symmetry_multiplicity
 _atom_site_fract_x
 _atom_site_fract_y
 _atom_site_fract_z
 _atom_site_occupancy
  Ni  Ni0  1  0.49008339  0.25495830  0.63713734  1
  Cu  Cu1  1  0.12855456  0.93572322  0.02750315  1
  C  C2  1  0.88528056  0.55735922  0.28551811  1
  C  C3  1  0.21378183  0.39310909  0.28302289  1
  C  C4  1  0.90729966  0.54635017  0.74745751  1
