# generated using pymatgen
data_Cu2NiC17
_symmetry_space_group_name_H-M   'P 1'
_cell_length_a   5.13632112
_cell_length_b   5.17216590
_cell_length_c   10.11566353
_cell_angle_alpha   84.34450216
_cell_angle_beta   95.77441263
_cell_angle_gamma   57.54030887
_symmetry_Int_Tables_number   1
_chemical_formula_structural   Cu2NiC17
_chemical_formula_sum   'Cu2 Ni1 C17'
_cell_volume   221.84118099
_cell_formula_units_Z   1
loop_
 _symmetry_equiv_pos_site_id
 _symmetry_equiv_pos_as_xyz
  1  'x, y, z'
loop_
 _atom_site_type_symbol
 _atom_site_label
 _atom_site_symmetry_multiplicity
 _atom_site_fract_x
 _atom_site_fract_y
 _atom_site_fract_z
 _atom_site_occupancy
  Ni  Ni0  1  0.47405279  0.00470805  0.47979263  1
  Cu  Cu1  1  0.23627544  0.25315535  0.73059140  1
  Cu  Cu2  1  0.71937325  0.75590810  0.22788086  1
  C  C3  1  0.04917489  0.09075064  0.22493878  1
  C  C4  1  0.97706810  0.50858891  0.97841828  1
  C  C5  1  0.90161285  0.93110371  0.73251334  1
  C  C6  1  0.39053159  0.42559890  0.22997073  1
  C  C7  1  0.56757611  0.58933072  0.73011190  1
  C  C8  1  0.94642417  0.24164715  0.83617047  1
  C  C9  1  0.21588655  0.96641048  0.62706837  1
  C  C10  1  0.09508025  0.38013084  0.33659392  1
  C  C11  1  0.34294301  0.13392802  0.11809994  1
  C  C12  1  0.26342357  0.54296390  0.82934168  1
  C  C13  1  0.51909359  0.26345247  0.62187771  1
  C  C14  1  0.43233316  0.74183155  0.33345908  1
  C  C15  1  0.69718234  0.47415017  0.12309070  1
  C  C16  1  0.61182407  0.88519427  0.84217500  1
  C  C17  1  0.84519674  0.62717290  0.62555368  1
  C  C18  1  0.73777440  0.04027093  0.33336276  1
  C  C19  1  0.00574813  0.77228094  0.12232076  1
