# generated using pymatgen
data_Cu3(Ni3C)2
_symmetry_space_group_name_H-M   'P 1'
_cell_length_a   11.29711400
_cell_length_b   13.09319600
_cell_length_c   13.28703300
_cell_angle_alpha   90.00000000
_cell_angle_beta   90.00000000
_cell_angle_gamma   90.00000000
_symmetry_Int_Tables_number   1
_chemical_formula_structural   Cu3(Ni3C)2
_chemical_formula_sum   'Cu48 Ni96 C32'
_cell_volume   1965.35584217
_cell_formula_units_Z   16
loop_
 _symmetry_equiv_pos_site_id
 _symmetry_equiv_pos_as_xyz
  1  'x, y, z'
loop_
 _atom_site_type_symbol
 _atom_site_label
 _atom_site_symmetry_multiplicity
 _atom_site_fract_x
 _atom_site_fract_y
 _atom_site_fract_z
 _atom_site_occupancy
  C  C0  1  0.16253300  0.46132100  0.70089600  1
  C  C1  1  0.66253300  0.53867900  0.79910400  1
  C  C2  1  0.33746700  0.96132100  0.29910400  1
  C  C3  1  0.83746700  0.03867900  0.20089600  1
  C  C4  1  0.83746700  0.53867900  0.29910400  1
  C  C5  1  0.33746700  0.46132100  0.20089600  1
  C  C6  1  0.66253300  0.03867900  0.70089600  1
  C  C7  1  0.16253300  0.96132100  0.79910400  1
  C  C8  1  0.94414900  0.34178200  0.47994300  1
  C  C9  1  0.44414900  0.65821800  0.02005700  1
  C  C10  1  0.55585100  0.84178200  0.52005700  1
  C  C11  1  0.05585100  0.15821800  0.97994300  1
  C  C12  1  0.05585100  0.65821800  0.52005700  1
  C  C13  1  0.55585100  0.34178200  0.97994300  1
  C  C14  1  0.44414900  0.15821800  0.47994300  1
  C  C15  1  0.94414900  0.84178200  0.02005700  1
  C  C16  1  0.20506700  0.44976600  0.44343800  1
  C  C17  1  0.79493300  0.05023400  0.94343800  1
  C  C18  1  0.29493300  0.94976600  0.55656200  1
  C  C19  1  0.29493300  0.44976600  0.94343800  1
  C  C20  1  0.79493300  0.55023400  0.55656200  1
  C  C21  1  0.20506700  0.94976600  0.05656200  1
  C  C22  1  0.70506700  0.05023400  0.44343800  1
  C  C23  1  0.96981500  0.75886000  0.25361000  1
  C  C24  1  0.46981500  0.24114000  0.24639000  1
  C  C25  1  0.53018500  0.25886000  0.74639000  1
  C  C26  1  0.03018500  0.74114000  0.75361000  1
  C  C27  1  0.03018500  0.24114000  0.74639000  1
  C  C28  1  0.53018500  0.75886000  0.75361000  1
  C  C29  1  0.46981500  0.74114000  0.25361000  1
  C  C30  1  0.96981500  0.25886000  0.24639000  1
  C  C31  1  0.70506700  0.55023400  0.05656200  1
  Ni  Ni32  1  0.15526500  0.27729100  0.17859200  1
  Ni  Ni33  1  0.65526500  0.72270900  0.32140800  1
  Ni  Ni34  1  0.34473500  0.77729100  0.82140800  1
  Ni  Ni35  1  0.84473500  0.22270900  0.67859200  1
  Ni  Ni36  1  0.84473500  0.72270900  0.82140800  1
  Ni  Ni37  1  0.34473500  0.27729100  0.67859200  1
  Ni  Ni38  1  0.65526500  0.22270900  0.17859200  1
  Ni  Ni39  1  0.15526500  0.77729100  0.32140800  1
  Ni  Ni40  1  0.05900800  0.35265000  0.12173300  1
  Ni  Ni41  1  0.55900800  0.64735000  0.37826700  1
  Ni  Ni42  1  0.44099200  0.85265000  0.87826700  1
  Ni  Ni43  1  0.94099200  0.14735000  0.62173300  1
  Ni  Ni44  1  0.94099200  0.64735000  0.87826700  1
  Ni  Ni45  1  0.44099200  0.35265000  0.62173300  1
  Ni  Ni46  1  0.55900800  0.14735000  0.12173300  1
  Ni  Ni47  1  0.05900800  0.85265000  0.37826700  1
  Ni  Ni48  1  0.80820400  0.35186900  0.19025100  1
  Ni  Ni49  1  0.30820400  0.64813100  0.30974900  1
  Ni  Ni50  1  0.69179600  0.85186900  0.80974900  1
  Ni  Ni51  1  0.19179600  0.14813100  0.69025100  1
  Ni  Ni52  1  0.19179600  0.64813100  0.80974900  1
  Ni  Ni53  1  0.69179600  0.35186900  0.69025100  1
  Ni  Ni54  1  0.30820400  0.14813100  0.19025100  1
  Ni  Ni55  1  0.80820400  0.85186900  0.30974900  1
  Ni  Ni56  1  0.77701800  0.29033600  0.29483200  1
  Ni  Ni57  1  0.27701800  0.70966400  0.20516800  1
  Ni  Ni58  1  0.72298200  0.79033600  0.70516800  1
  Ni  Ni59  1  0.22298200  0.20966400  0.79483200  1
  Ni  Ni60  1  0.22298200  0.70966400  0.70516800  1
  Ni  Ni61  1  0.72298200  0.29033600  0.79483200  1
  Ni  Ni62  1  0.27701800  0.20966400  0.29483200  1
  Ni  Ni63  1  0.77701800  0.79033600  0.20516800  1
  Ni  Ni64  1  0.93303900  0.14686500  0.38086500  1
  Ni  Ni65  1  0.43303900  0.85313500  0.11913500  1
  Ni  Ni66  1  0.56696100  0.64686500  0.61913500  1
  Ni  Ni67  1  0.06696100  0.35313500  0.88086500  1
  Ni  Ni68  1  0.06696100  0.85313500  0.61913500  1
  Ni  Ni69  1  0.56696100  0.14686500  0.88086500  1
  Ni  Ni70  1  0.43303900  0.35313500  0.38086500  1
  Ni  Ni71  1  0.93303900  0.64686500  0.11913500  1
  Ni  Ni72  1  0.07128200  0.13479000  0.34215000  1
  Ni  Ni73  1  0.57128200  0.86521000  0.15785000  1
  Ni  Ni74  1  0.42871800  0.63479000  0.65785000  1
  Ni  Ni75  1  0.85345800  0.99309600  0.54513600  1
  Ni  Ni76  1  0.92871800  0.36521000  0.84215000  1
  Ni  Ni77  1  0.42871800  0.13479000  0.84215000  1
  Ni  Ni78  1  0.57128200  0.36521000  0.34215000  1
  Ni  Ni79  1  0.07128200  0.63479000  0.15785000  1
  Ni  Ni80  1  0.61229200  0.94320000  0.32438800  1
  Ni  Ni81  1  0.11229200  0.05680000  0.17561200  1
  Ni  Ni82  1  0.88770800  0.44320000  0.67561200  1
  Ni  Ni83  1  0.38770800  0.55680000  0.82438800  1
  Ni  Ni84  1  0.38770800  0.05680000  0.67561200  1
  Ni  Ni85  1  0.88770800  0.94320000  0.82438800  1
  Ni  Ni86  1  0.11229200  0.55680000  0.32438800  1
  Ni  Ni87  1  0.61229200  0.44320000  0.17561200  1
  Ni  Ni88  1  0.58284400  0.06442600  0.30479400  1
  Ni  Ni89  1  0.08284400  0.93557400  0.19520600  1
  Ni  Ni90  1  0.91715600  0.56442600  0.69520600  1
  Ni  Ni91  1  0.41715600  0.43557400  0.80479400  1
  Ni  Ni92  1  0.41715600  0.93557400  0.69520600  1
  Ni  Ni93  1  0.91715600  0.06442600  0.80479400  1
  Ni  Ni94  1  0.08284400  0.43557400  0.30479400  1
  Ni  Ni95  1  0.58284400  0.56442600  0.19520600  1
  Ni  Ni96  1  0.66841300  0.22629200  0.43853900  1
  Ni  Ni97  1  0.16841300  0.77370800  0.06146100  1
  Ni  Ni98  1  0.83158700  0.72629200  0.56146100  1
  Ni  Ni99  1  0.33158700  0.27370800  0.93853900  1
  Ni  Ni100  1  0.33158700  0.77370800  0.56146100  1
  Ni  Ni101  1  0.83158700  0.22629200  0.93853900  1
  Ni  Ni102  1  0.16841300  0.27370800  0.43853900  1
  Ni  Ni103  1  0.66841300  0.72629200  0.06146100  1
  Ni  Ni104  1  0.75610900  0.19720800  0.53375400  1
  Ni  Ni105  1  0.25610900  0.80279200  0.96624600  1
  Ni  Ni106  1  0.74389100  0.69720800  0.46624600  1
  Ni  Ni107  1  0.24389100  0.30279200  0.03375400  1
  Ni  Ni108  1  0.24389100  0.80279200  0.46624600  1
  Ni  Ni109  1  0.74389100  0.19720800  0.03375400  1
  Ni  Ni110  1  0.25610900  0.30279200  0.53375400  1
  Ni  Ni111  1  0.75610900  0.69720800  0.96624600  1
  Ni  Ni112  1  0.80284300  0.39876500  0.02033400  1
  Ni  Ni113  1  0.30284300  0.60123500  0.47966600  1
  Ni  Ni114  1  0.69715700  0.89876500  0.97966600  1
  Ni  Ni115  1  0.19715700  0.10123500  0.52033400  1
  Ni  Ni116  1  0.19715700  0.60123500  0.97966600  1
  Ni  Ni117  1  0.69715700  0.39876500  0.52033400  1
  Ni  Ni118  1  0.30284300  0.10123500  0.02033400  1
  Ni  Ni119  1  0.80284300  0.89876500  0.47966600  1
  Ni  Ni120  1  0.85345800  0.49309600  0.95486400  1
  Ni  Ni121  1  0.35345800  0.50690400  0.54513600  1
  Ni  Ni122  1  0.64654200  0.99309600  0.04513600  1
  Ni  Ni123  1  0.14654200  0.00690400  0.45486400  1
  Ni  Ni124  1  0.14654200  0.50690400  0.04513600  1
  Ni  Ni125  1  0.64654200  0.49309600  0.45486400  1
  Ni  Ni126  1  0.35345800  0.00690400  0.95486400  1
  Ni  Ni127  1  0.92871800  0.86521000  0.65785000  1
  Cu  Cu128  1  0.27898800  0.53241700  0.50953900  1
  Cu  Cu129  1  0.49325600  0.82877700  0.17113700  1
  Cu  Cu130  1  0.50674400  0.67122300  0.67113700  1
  Cu  Cu131  1  0.00674400  0.32877700  0.82886300  1
  Cu  Cu132  1  0.00674400  0.82877700  0.67113700  1
  Cu  Cu133  1  0.50674400  0.17122300  0.82886300  1
  Cu  Cu134  1  0.49325600  0.32877700  0.32886300  1
  Cu  Cu135  1  0.99325600  0.67122300  0.17113700  1
  Cu  Cu136  1  0.61259200  0.01352800  0.35750900  1
  Cu  Cu137  1  0.11259200  0.98647200  0.14249100  1
  Cu  Cu138  1  0.88740800  0.51352800  0.64249100  1
  Cu  Cu139  1  0.38740800  0.48647200  0.85750900  1
  Cu  Cu140  1  0.38740800  0.98647200  0.64249100  1
  Cu  Cu141  1  0.88740800  0.01352800  0.85750900  1
  Cu  Cu142  1  0.11259200  0.48647200  0.35750900  1
  Cu  Cu143  1  0.61259200  0.51352800  0.14249100  1
  Cu  Cu144  1  0.70448500  0.16739500  0.47830300  1
  Cu  Cu145  1  0.20448500  0.83260500  0.02169700  1
  Cu  Cu146  1  0.79551500  0.66739500  0.52169700  1
  Cu  Cu147  1  0.29551500  0.33260500  0.97830300  1
  Cu  Cu148  1  0.29551500  0.83260500  0.52169700  1
  Cu  Cu149  1  0.79551500  0.16739500  0.97830300  1
  Cu  Cu150  1  0.20448500  0.33260500  0.47830300  1
  Cu  Cu151  1  0.70448500  0.66739500  0.02169700  1
  Cu  Cu152  1  0.84473300  0.81865600  0.24766400  1
  Cu  Cu153  1  0.27898800  0.03241700  0.99046100  1
  Cu  Cu154  1  0.72101200  0.46758300  0.49046100  1
  Cu  Cu155  1  0.22101200  0.53241700  0.00953900  1
  Cu  Cu156  1  0.22101200  0.03241700  0.49046100  1
  Cu  Cu157  1  0.72101200  0.96758300  0.00953900  1
  Cu  Cu158  1  0.99325600  0.17122300  0.32886300  1
  Cu  Cu159  1  0.77898800  0.46758300  0.99046100  1
  Cu  Cu160  1  0.34473300  0.18134400  0.25233600  1
  Cu  Cu161  1  0.65526700  0.31865600  0.75233600  1
  Cu  Cu162  1  0.15526700  0.68134400  0.74766400  1
  Cu  Cu163  1  0.15526700  0.18134400  0.75233600  1
  Cu  Cu164  1  0.65526700  0.81865600  0.74766400  1
  Cu  Cu165  1  0.34473300  0.68134400  0.24766400  1
  Cu  Cu166  1  0.84473300  0.31865600  0.25233600  1
  Cu  Cu167  1  0.06775700  0.78636300  0.33855200  1
  Cu  Cu168  1  0.56775700  0.21363700  0.16144800  1
  Cu  Cu169  1  0.43224300  0.28636300  0.66144800  1
  Cu  Cu170  1  0.93224300  0.71363700  0.83855200  1
  Cu  Cu171  1  0.93224300  0.21363700  0.66144800  1
  Cu  Cu172  1  0.43224300  0.78636300  0.83855200  1
  Cu  Cu173  1  0.56775700  0.71363700  0.33855200  1
  Cu  Cu174  1  0.06775700  0.28636300  0.16144800  1
  Cu  Cu175  1  0.77898800  0.96758300  0.50953900  1
