# generated using pymatgen
data_CuNi4C33
_symmetry_space_group_name_H-M   'P 1'
_cell_length_a   8.95665785
_cell_length_b   8.97273239
_cell_length_c   22.69441943
_cell_angle_alpha   90.04176123
_cell_angle_beta   89.90334948
_cell_angle_gamma   120.01927351
_symmetry_Int_Tables_number   1
_chemical_formula_structural   CuNi4C33
_chemical_formula_sum   'Cu3 Ni12 C99'
_cell_volume   1579.19372023
_cell_formula_units_Z   3
loop_
 _symmetry_equiv_pos_site_id
 _symmetry_equiv_pos_as_xyz
  1  'x, y, z'
loop_
 _atom_site_type_symbol
 _atom_site_label
 _atom_site_symmetry_multiplicity
 _atom_site_fract_x
 _atom_site_fract_y
 _atom_site_fract_z
 _atom_site_occupancy
  Ni  Ni0  1  0.63405066  0.62578347  0.74626145  1
  Ni  Ni1  1  0.99452205  0.36681235  0.74697683  1
  Ni  Ni2  1  0.31181802  0.97590878  0.08420679  1
  Ni  Ni3  1  0.02596752  0.34013947  0.08423971  1
  Ni  Ni4  1  0.96522554  0.29475507  0.41314933  1
  Ni  Ni5  1  0.70670284  0.67753155  0.41523064  1
  Ni  Ni6  1  0.00576525  0.99622037  0.49963150  1
  Ni  Ni7  1  0.99089249  0.99061470  0.99629562  1
  Ni  Ni8  1  0.65393025  0.31947413  0.83286668  1
  Ni  Ni9  1  0.65787171  0.32420671  0.32506416  1
  Ni  Ni10  1  0.34354348  0.66568927  0.16549000  1
  Ni  Ni11  1  0.33449562  0.67199185  0.66570256  1
  Cu  Cu12  1  0.00307837  0.99794790  0.35332687  1
  Cu  Cu13  1  0.66080599  0.32827596  0.68614864  1
  Cu  Cu14  1  0.66687043  0.33423612  0.18419353  1
  C  C15  1  0.00375189  0.00671314  0.85703539  1
  C  C16  1  0.99517247  0.00152949  0.64434807  1
  C  C17  1  0.99566245  0.99656096  0.14646142  1
  C  C18  1  0.66702213  0.33450184  0.97773472  1
  C  C19  1  0.66894241  0.33169525  0.48153699  1
  C  C20  1  0.33740890  0.66740141  0.01854464  1
  C  C21  1  0.33484412  0.66937477  0.52237010  1
  C  C22  1  0.33153650  0.67147794  0.31071942  1
  C  C23  1  0.33602016  0.66958266  0.81393639  1
  C  C24  1  0.29013933  0.28768053  0.75038143  1
  C  C25  1  0.70945126  -0.00027408  0.75095599  1
  C  C26  1  0.95858387  0.33412338  0.58564724  1
  C  C27  1  0.66797543  0.62413851  0.58492430  1
  C  C28  1  0.95339810  0.62124843  0.08347721  1
  C  C29  1  0.66475859  0.04375140  0.08377378  1
  C  C30  1  0.38152387  0.33810390  0.08453062  1
  C  C31  1  0.62404677  0.66496451  0.91559499  1
  C  C32  1  0.04205586  0.37847306  0.91628404  1
  C  C33  1  0.33403872  0.95695368  0.91701239  1
  C  C34  1  0.61875863  0.95806023  0.41625230  1
  C  C35  1  0.04586100  0.66884350  0.41725627  1
  C  C36  1  0.29137773  0.00090506  0.25074506  1
  C  C37  1  0.70781322  0.70751302  0.25234156  1
  C  C38  1  0.00059013  0.29146519  0.25206195  1
  C  C39  1  0.00555573  0.71935885  0.75034464  1
  C  C40  1  0.37586719  0.04333275  0.58336382  1
  C  C41  1  0.33637995  0.38326367  0.41663298  1
  C  C42  1  0.20016779  0.01698864  0.30483636  1
  C  C43  1  0.80916628  0.79280336  0.30866062  1
  C  C44  1  0.98380861  0.18856544  0.30795815  1
  C  C45  1  0.19033974  0.16839547  0.80764976  1
  C  C46  1  0.97984176  0.80696540  0.80480661  1
  C  C47  1  0.83285425  0.01926718  0.80699982  1
  C  C48  1  0.80208468  0.96394666  0.69265520  1
  C  C49  1  0.16323494  0.19182437  0.69311172  1
  C  C50  1  0.03081826  0.82971919  0.69453814  1
  C  C51  1  0.80380944  0.82822725  0.19768649  1
  C  C52  1  0.02508146  0.19941909  0.19621177  1
  C  C53  1  0.17835796  0.97429316  0.19415456  1
  C  C54  1  0.88103152  0.36650256  0.64429476  1
  C  C55  1  0.48507732  0.11757443  0.63779507  1
  C  C56  1  0.63236065  0.51349577  0.64376795  1
  C  C57  1  0.88205908  0.49818383  0.13956044  1
  C  C58  1  0.61872476  0.11832789  0.14036335  1
  C  C59  1  0.49334204  0.37123915  0.14217638  1
  C  C60  1  0.46472532  0.29333707  0.02717500  1
  C  C61  1  0.83185220  0.53251771  0.02558225  1
  C  C62  1  0.70700409  0.17089774  0.02648337  1
  C  C63  1  0.46630439  0.15924855  0.52794983  1
  C  C64  1  0.68995464  0.52636562  0.52534263  1
  C  C65  1  0.83438860  0.30473100  0.52630169  1
  C  C66  1  0.52790308  0.69368848  0.97208390  1
  C  C67  1  0.16053789  0.46905361  0.97439720  1
  C  C68  1  0.30585831  0.83946518  0.97551998  1
  C  C69  1  0.52488567  0.83065941  0.47201167  1
  C  C70  1  0.30944734  0.47117361  0.47112095  1
  C  C71  1  0.16532279  0.68590861  0.47331863  1
  C  C72  1  0.13552897  0.62926573  0.35958010  1
  C  C73  1  0.49614416  0.85845735  0.35848664  1
  C  C74  1  0.36874830  0.50039497  0.36163033  1
  C  C75  1  0.13554359  0.49582861  0.85738779  1
  C  C76  1  0.36016842  0.85859537  0.85983526  1
  C  C77  1  0.50364993  0.63803386  0.85682803  1
  C  C78  1  0.01359120  0.82894364  0.41325817  1
  C  C79  1  0.81094334  0.98355482  0.41186022  1
  C  C80  1  0.17372595  0.20741079  0.41155030  1
  C  C81  1  0.02490943  0.18836245  0.91005457  1
  C  C82  1  0.16153264  0.97251405  0.90917629  1
  C  C83  1  0.81299641  0.83521370  0.90847845  1
  C  C84  1  0.97777246  0.16057540  0.58939194  1
  C  C85  1  0.19503702  0.02388659  0.58849919  1
  C  C86  1  0.84433067  0.81402033  0.58896526  1
  C  C87  1  0.98207579  0.81803259  0.09304474  1
  C  C88  1  0.84103526  0.02835775  0.09322551  1
  C  C89  1  0.18412172  0.16217257  0.09355314  1
  C  C90  1  0.70108148  0.17348902  0.74711931  1
  C  C91  1  0.48377309  0.32214173  0.74802267  1
  C  C92  1  0.84467880  0.53901267  0.74629651  1
  C  C93  1  0.68648169  0.52998470  0.24614594  1
  C  C94  1  0.84490255  0.31469899  0.24629709  1
  C  C95  1  0.47139032  0.15409098  0.24594876  1
  C  C96  1  0.63769015  0.49247996  0.92349665  1
  C  C97  1  0.85293866  0.35963230  0.92297135  1
  C  C98  1  0.50550238  0.14474082  0.92394504  1
  C  C99  1  0.63548798  0.14822606  0.42326595  1
  C  C100  1  0.50262280  0.37107961  0.42386333  1
  C  C101  1  0.85324034  0.48985310  0.42417257  1
  C  C102  1  0.34029716  0.49537219  0.07446459  1
  C  C103  1  0.15040404  0.65298821  0.07332890  1
  C  C104  1  0.49778220  0.85134232  0.07355876  1
  C  C105  1  0.35330354  0.86102498  0.57289791  1
  C  C106  1  0.50177023  0.65163790  0.57287632  1
  C  C107  1  0.15029621  0.50047001  0.57299641  1
  C  C108  1  0.30073007  0.82754777  0.25607502  1
  C  C109  1  0.52552010  0.69554892  0.25601333  1
  C  C110  1  0.17295881  0.47260662  0.25628872  1
  C  C111  1  0.29635964  0.47664957  0.75571332  1
  C  C112  1  0.16737023  0.69756807  0.75611896  1
  C  C113  1  0.52184076  0.82047672  0.75575036  1
