# generated using pymatgen
data_Cu3NiC3
_symmetry_space_group_name_H-M   'P 1'
_cell_length_a   7.79893763
_cell_length_b   7.79893763
_cell_length_c   7.25730300
_cell_angle_alpha   90.00000000
_cell_angle_beta   90.00000000
_cell_angle_gamma   119.99999684
_symmetry_Int_Tables_number   1
_chemical_formula_structural   Cu3NiC3
_chemical_formula_sum   'Cu6 Ni2 C6'
_cell_volume   382.27579074
_cell_formula_units_Z   2
loop_
 _symmetry_equiv_pos_site_id
 _symmetry_equiv_pos_as_xyz
  1  'x, y, z'
loop_
 _atom_site_type_symbol
 _atom_site_label
 _atom_site_symmetry_multiplicity
 _atom_site_fract_x
 _atom_site_fract_y
 _atom_site_fract_z
 _atom_site_occupancy
  C  C0  1  0.66666700  0.33333300  0.48521500  1
  C  C1  1  0.33333300  0.66666700  0.51478500  1
  C  C2  1  0.50000000  0.50000000  0.00000000  1
  C  C3  1  0.00000000  0.50000000  0.00000000  1
  C  C4  1  0.50000000  0.00000000  0.00000000  1
  C  C5  1  0.00000000  0.00000000  0.50000000  1
  Ni  Ni6  1  0.66666700  0.33333300  0.14208600  1
  Ni  Ni7  1  0.33333300  0.66666700  0.85791400  1
  Cu  Cu8  1  0.34250900  0.17125500  0.69057900  1
  Cu  Cu9  1  0.82874500  0.65749100  0.69057900  1
  Cu  Cu10  1  0.65749100  0.82874500  0.30942100  1
  Cu  Cu11  1  0.17125500  0.34250900  0.30942100  1
  Cu  Cu12  1  0.17125500  0.82874500  0.30942100  1
  Cu  Cu13  1  0.82874500  0.17125500  0.69057900  1
