# generated using pymatgen
data_Cu3NiC6
_symmetry_space_group_name_H-M   'P 1'
_cell_length_a   3.77200500
_cell_length_b   13.32969100
_cell_length_c   16.39112900
_cell_angle_alpha   90.00000000
_cell_angle_beta   90.00000000
_cell_angle_gamma   90.00000000
_symmetry_Int_Tables_number   1
_chemical_formula_structural   Cu3NiC6
_chemical_formula_sum   'Cu12 Ni4 C24'
_cell_volume   824.14041117
_cell_formula_units_Z   4
loop_
 _symmetry_equiv_pos_site_id
 _symmetry_equiv_pos_as_xyz
  1  'x, y, z'
loop_
 _atom_site_type_symbol
 _atom_site_label
 _atom_site_symmetry_multiplicity
 _atom_site_fract_x
 _atom_site_fract_y
 _atom_site_fract_z
 _atom_site_occupancy
  Ni  Ni0  1  0.50000000  0.00000000  0.00000000  1
  Ni  Ni1  1  0.00000000  0.50000000  0.50000000  1
  Ni  Ni2  1  0.50000000  0.00000000  0.50000000  1
  Ni  Ni3  1  0.00000000  0.50000000  0.00000000  1
  Cu  Cu4  1  0.50000000  0.55080400  0.28327000  1
  Cu  Cu5  1  0.50000000  0.44919600  0.71673000  1
  Cu  Cu6  1  0.00000000  0.94919600  0.78327000  1
  Cu  Cu7  1  0.00000000  0.05080400  0.21673000  1
  Cu  Cu8  1  0.50000000  0.25055500  0.90113100  1
  Cu  Cu9  1  0.50000000  0.74944500  0.09886900  1
  Cu  Cu10  1  0.00000000  0.24944500  0.40113100  1
  Cu  Cu11  1  0.00000000  0.75055500  0.59886900  1
  Cu  Cu12  1  0.50000000  0.67906700  0.84889800  1
  Cu  Cu13  1  0.50000000  0.32093300  0.15110200  1
  Cu  Cu14  1  0.00000000  0.82093300  0.34889800  1
  Cu  Cu15  1  0.00000000  0.17906700  0.65110200  1
  C  C16  1  0.50000000  0.59260100  0.57850800  1
  C  C17  1  0.50000000  0.40739900  0.42149200  1
  C  C18  1  0.00000000  0.90739900  0.07850800  1
  C  C19  1  0.00000000  0.09260100  0.92149200  1
  C  C20  1  0.50000000  0.87402800  0.89071600  1
  C  C21  1  0.50000000  0.12597200  0.10928400  1
  C  C22  1  0.00000000  0.62597200  0.39071600  1
  C  C23  1  0.00000000  0.37402800  0.60928400  1
  C  C24  1  0.50000000  0.90045700  0.24611600  1
  C  C25  1  0.50000000  0.09954300  0.75388400  1
  C  C26  1  0.00000000  0.59954300  0.74611600  1
  C  C27  1  0.00000000  0.40045700  0.25388400  1
  C  C28  1  0.50000000  0.80990900  0.47574300  1
  C  C29  1  0.50000000  0.19009100  0.52425700  1
  C  C30  1  0.00000000  0.69009100  0.97574300  1
  C  C31  1  0.00000000  0.30990900  0.02425700  1
  C  C32  1  0.50000000  0.52476100  0.10639800  1
  C  C33  1  0.50000000  0.47523900  0.89360200  1
  C  C34  1  0.00000000  0.97523900  0.60639800  1
  C  C35  1  0.00000000  0.02476100  0.39360200  1
  C  C36  1  0.50000000  0.81475500  0.71123400  1
  C  C37  1  0.50000000  0.18524500  0.28876600  1
  C  C38  1  0.00000000  0.68524500  0.21123400  1
  C  C39  1  0.00000000  0.31475500  0.78876600  1
