# generated using pymatgen
data_Cu3Ni5C31
_symmetry_space_group_name_H-M   'P 1'
_cell_length_a   9.06777479
_cell_length_b   9.09197928
_cell_length_c   22.87418161
_cell_angle_alpha   90.17995460
_cell_angle_beta   90.12480660
_cell_angle_gamma   120.07859587
_symmetry_Int_Tables_number   1
_chemical_formula_structural   Cu3Ni5C31
_chemical_formula_sum   'Cu9 Ni15 C93'
_cell_volume   1631.86652631
_cell_formula_units_Z   3
loop_
 _symmetry_equiv_pos_site_id
 _symmetry_equiv_pos_as_xyz
  1  'x, y, z'
loop_
 _atom_site_type_symbol
 _atom_site_label
 _atom_site_symmetry_multiplicity
 _atom_site_fract_x
 _atom_site_fract_y
 _atom_site_fract_z
 _atom_site_occupancy
  Ni  Ni0  1  0.64498613  0.00646833  0.25535689  1
  Ni  Ni1  1  0.00191263  0.62393714  0.24807635  1
  Ni  Ni2  1  0.63035641  0.63568108  0.74499220  1
  Ni  Ni3  1  0.37083821  0.01317970  0.75563482  1
  Ni  Ni4  1  0.66704224  0.95341404  0.58540793  1
  Ni  Ni5  1  0.97345914  0.68381045  0.92172730  1
  Ni  Ni6  1  0.69035448  0.01401899  0.91175854  1
  Ni  Ni7  1  0.96320185  0.30200952  0.40965950  1
  Ni  Ni8  1  0.70782176  0.68443380  0.42269466  1
  Ni  Ni9  1  0.00111246  0.97592270  0.50190226  1
  Ni  Ni10  1  0.00734570  0.98555565  0.99925645  1
  Ni  Ni11  1  0.64666572  0.31931637  0.83100869  1
  Ni  Ni12  1  0.66384063  0.31971885  0.33284480  1
  Ni  Ni13  1  0.30919764  0.63940707  0.16084496  1
  Ni  Ni14  1  0.33063423  0.63957639  0.66549887  1
  C  C15  1  0.66126414  0.34309917  0.98107471  1
  C  C16  1  0.67220115  0.34104400  0.48157066  1
  C  C17  1  0.34775385  0.66863058  0.81451595  1
  Cu  Cu18  1  0.99413385  0.00134710  0.35293437  1
  Cu  Cu19  1  0.00833847  0.01140018  0.85115686  1
  Cu  Cu20  1  0.99218111  0.99991104  0.65082679  1
  Cu  Cu21  1  0.00421791  0.00551422  0.14454441  1
  Cu  Cu22  1  0.65888708  0.33751735  0.68668299  1
  Cu  Cu23  1  0.68453897  0.34226208  0.18179822  1
  Cu  Cu24  1  0.33298774  0.67981784  0.01842981  1
  Cu  Cu25  1  0.34085549  0.67614774  0.51698028  1
  Cu  Cu26  1  0.32035449  0.66253517  0.31749441  1
  C  C27  1  0.00427609  0.29473451  0.24977517  1
  C  C28  1  0.28745649  0.29220387  0.74866314  1
  C  C29  1  0.70812730  0.00648365  0.75069474  1
  C  C30  1  0.66672766  0.63246530  0.58434548  1
  C  C31  1  0.96910843  0.63422561  0.08403494  1
  C  C32  1  0.62856107  0.66917901  0.91861902  1
  C  C33  1  0.33241659  0.96151950  0.91619087  1
  C  C34  1  0.62435884  0.96198739  0.41536217  1
  C  C35  1  0.04230370  0.67182480  0.41715755  1
  C  C36  1  0.29227601  0.00243551  0.24975873  1
  C  C37  1  0.70564951  0.70610052  0.24947093  1
  C  C38  1  0.00089626  0.70686939  0.75062997  1
  C  C39  1  0.96020332  0.33546230  0.58368129  1
  C  C40  1  0.37351725  0.04229188  0.58321652  1
  C  C41  1  0.66746852  0.04143948  0.08354355  1
  C  C42  1  0.37541121  0.33457592  0.08465108  1
  C  C43  1  0.04353615  0.37702297  0.91835367  1
  C  C44  1  0.33426874  0.37450306  0.41714101  1
  C  C45  1  0.21194078  0.02194726  0.30279737  1
  C  C46  1  0.81096692  0.78039605  0.30361603  1
  C  C47  1  0.97259290  0.18157586  0.30965778  1
  C  C48  1  0.20764913  0.16831626  0.80465959  1
  C  C49  1  0.97108227  0.78110716  0.80386502  1
  C  C50  1  0.81492506  0.02368992  0.80972393  1
  C  C51  1  0.78599484  0.96263231  0.69261601  1
  C  C52  1  0.17630696  0.19804486  0.69070013  1
  C  C53  1  0.03115645  0.81556223  0.69911741  1
  C  C54  1  0.79185678  0.81449154  0.19888145  1
  C  C55  1  0.01759353  0.18945527  0.19461601  1
  C  C56  1  0.18459811  0.97280030  0.19778373  1
  C  C57  1  0.87374769  0.35327273  0.63456152  1
  C  C58  1  0.47806147  0.11970531  0.63639494  1
  C  C59  1  0.65096902  0.52049061  0.64199793  1
  C  C60  1  0.87387271  0.52048641  0.14313529  1
  C  C61  1  0.64560442  0.12268429  0.13703306  1
  C  C62  1  0.47883152  0.35065907  0.13660732  1
  C  C63  1  0.45885791  0.31048351  0.03121099  1
  C  C64  1  0.84580148  0.53141193  0.02688662  1
  C  C65  1  0.68484519  0.14570172  0.03117002  1
  C  C66  1  0.46459318  0.14875988  0.53133663  1
  C  C67  1  0.68091551  0.53180090  0.52565374  1
  C  C68  1  0.85194389  0.31030174  0.52926038  1
  C  C69  1  0.53060498  0.69442850  0.97253737  1
  C  C70  1  0.14508220  0.45534788  0.97051612  1
  C  C71  1  0.29569906  0.83382693  0.97083480  1
  C  C72  1  0.54318969  0.84048878  0.47251559  1
  C  C73  1  0.30598159  0.45143313  0.46922326  1
  C  C74  1  0.15710157  0.68551247  0.47280513  1
  C  C75  1  0.11390493  0.62527145  0.35792584  1
  C  C76  1  0.51612299  0.87285633  0.35563242  1
  C  C77  1  0.36787001  0.48229698  0.36503830  1
  C  C78  1  0.11879861  0.48368082  0.86557820  1
  C  C79  1  0.36174262  0.87250159  0.85715951  1
  C  C80  1  0.51618684  0.63740366  0.85828152  1
  C  C81  1  0.00962645  0.83127023  0.41004571  1
  C  C82  1  0.81967116  0.98784811  0.41099465  1
  C  C83  1  0.18290030  0.20434355  0.40997749  1
  C  C84  1  0.01658845  0.20391151  0.91209416  1
  C  C85  1  0.16315062  0.97862458  0.91071726  1
  C  C86  1  0.81730874  0.83667905  0.91265104  1
  C  C87  1  0.96872583  0.17641048  0.58578887  1
  C  C88  1  0.20410011  0.02442190  0.58619396  1
  C  C89  1  0.83737853  0.82470331  0.58492923  1
  C  C90  1  0.98127799  0.82020832  0.08944171  1
  C  C91  1  0.82330228  0.02834148  0.08759483  1
  C  C92  1  0.20524732  0.17912503  0.08737451  1
  C  C93  1  0.67517867  0.16585841  0.74283721  1
  C  C94  1  0.48529243  0.32364379  0.74439447  1
  C  C95  1  0.84817974  0.53672783  0.74363756  1
  C  C96  1  0.68656319  0.53375191  0.24392162  1
  C  C97  1  0.82569892  0.30990090  0.24552284  1
  C  C98  1  0.46623860  0.15234552  0.24400301  1
  C  C99  1  0.65574998  0.50172451  0.92273043  1
  C  C100  1  0.86778965  0.35858409  0.92370899  1
  C  C101  1  0.51490604  0.14211571  0.92492987  1
  C  C102  1  0.65058029  0.15376200  0.42401890  1
  C  C103  1  0.48920574  0.35690660  0.42378766  1
  C  C104  1  0.84639773  0.49816884  0.42396324  1
  C  C105  1  0.36057001  0.48690691  0.07886578  1
  C  C106  1  0.15348624  0.64471623  0.07985849  1
  C  C107  1  0.51539839  0.87106064  0.07975295  1
  C  C108  1  0.36261692  0.87367448  0.57758369  1
  C  C109  1  0.49681226  0.65542413  0.57986519  1
  C  C110  1  0.12960395  0.48526517  0.57719309  1
  C  C111  1  0.31160807  0.84689017  0.25429707  1
  C  C112  1  0.53715053  0.69384692  0.25512239  1
  C  C113  1  0.16827468  0.49065565  0.25333813  1
  C  C114  1  0.30987494  0.48293218  0.75519354  1
  C  C115  1  0.15531669  0.69024314  0.75706635  1
  C  C116  1  0.51288815  0.83128083  0.75531067  1
