# generated using pymatgen
data_Cu2Ni2C15
_symmetry_space_group_name_H-M   'P 1'
_cell_length_a   5.98501821
_cell_length_b   5.98501821
_cell_length_c   8.68941357
_cell_angle_alpha   90.20513578
_cell_angle_beta   89.79486422
_cell_angle_gamma   86.75266316
_symmetry_Int_Tables_number   1
_chemical_formula_structural   Cu2Ni2C15
_chemical_formula_sum   'Cu2 Ni2 C15'
_cell_volume   310.75463424
_cell_formula_units_Z   1
loop_
 _symmetry_equiv_pos_site_id
 _symmetry_equiv_pos_as_xyz
  1  'x, y, z'
loop_
 _atom_site_type_symbol
 _atom_site_label
 _atom_site_symmetry_multiplicity
 _atom_site_fract_x
 _atom_site_fract_y
 _atom_site_fract_z
 _atom_site_occupancy
  Ni  Ni0  1  0.75132285  0.13667152  0.04662248  1
  Ni  Ni1  1  0.36332848  0.74867715  0.04662248  1
  Cu  Cu2  1  0.28604448  0.21395552  0.74172208  1
  Cu  Cu3  1  0.75121421  0.74878579  0.27961584  1
  C  C4  1  0.21260200  0.73044053  0.51545928  1
  C  C5  1  0.76955947  0.28739800  0.51545928  1
  C  C6  1  0.00042073  0.49957927  0.91081736  1
  C  C7  1  0.70722549  0.79277451  0.71417685  1
  C  C8  1  0.24520144  0.25479856  0.25986865  1
  C  C9  1  0.45940251  0.46522201  0.34179051  1
  C  C10  1  0.50833989  0.99166011  0.59370275  1
  C  C11  1  0.47589111  0.02410889  0.25222357  1
  C  C12  1  0.50967133  0.54266836  0.67700760  1
  C  C13  1  0.01277138  0.48722862  0.35102574  1
  C  C14  1  0.19093324  0.30906676  0.04127351  1
  C  C15  1  0.77704992  0.72295008  0.95432127  1
  C  C16  1  0.03477799  0.04059749  0.34179051  1
  C  C17  1  0.99732883  0.50267117  0.69261764  1
  C  C18  1  0.95733164  0.99032867  0.67700760  1
