# generated using pymatgen
data_Cu(NiC5)2
_symmetry_space_group_name_H-M   'P 1'
_cell_length_a   3.90392300
_cell_length_b   3.95568000
_cell_length_c   11.91643200
_cell_angle_alpha   90.00000000
_cell_angle_beta   90.00000000
_cell_angle_gamma   90.00000000
_symmetry_Int_Tables_number   1
_chemical_formula_structural   Cu(NiC5)2
_chemical_formula_sum   'Cu1 Ni2 C10'
_cell_volume   184.02152853
_cell_formula_units_Z   1
loop_
 _symmetry_equiv_pos_site_id
 _symmetry_equiv_pos_as_xyz
  1  'x, y, z'
loop_
 _atom_site_type_symbol
 _atom_site_label
 _atom_site_symmetry_multiplicity
 _atom_site_fract_x
 _atom_site_fract_y
 _atom_site_fract_z
 _atom_site_occupancy
  Ni  Ni0  1  0.50000000  0.50000000  0.82112200  1
  Ni  Ni1  1  0.50000000  0.50000000  0.17887800  1
  Cu  Cu2  1  0.50000000  0.50000000  0.50000000  1
  C  C3  1  0.00000000  0.00000000  0.65408600  1
  C  C4  1  0.00000000  0.00000000  0.34591400  1
  C  C5  1  0.00000000  0.00000000  0.00000000  1
  C  C6  1  0.00000000  0.50000000  0.00000000  1
  C  C7  1  0.50000000  0.00000000  0.62982700  1
  C  C8  1  0.50000000  0.00000000  0.37017300  1
  C  C9  1  0.00000000  0.50000000  0.62976900  1
  C  C10  1  0.00000000  0.50000000  0.37023100  1
  C  C11  1  0.00000000  0.00000000  0.84267000  1
  C  C12  1  0.00000000  0.00000000  0.15733000  1
