# generated using pymatgen
data_Cu4NiC10
_symmetry_space_group_name_H-M   'P 1'
_cell_length_a   5.17339005
_cell_length_b   6.05545631
_cell_length_c   7.93135349
_cell_angle_alpha   103.48629427
_cell_angle_beta   72.46830390
_cell_angle_gamma   63.81285498
_symmetry_Int_Tables_number   1
_chemical_formula_structural   Cu4NiC10
_chemical_formula_sum   'Cu4 Ni1 C10'
_cell_volume   192.15961496
_cell_formula_units_Z   1
loop_
 _symmetry_equiv_pos_site_id
 _symmetry_equiv_pos_as_xyz
  1  'x, y, z'
loop_
 _atom_site_type_symbol
 _atom_site_label
 _atom_site_symmetry_multiplicity
 _atom_site_fract_x
 _atom_site_fract_y
 _atom_site_fract_z
 _atom_site_occupancy
  Ni  Ni0  1  0.00021000  0.50330200  0.00225500  1
  Cu  Cu1  1  0.35701600  0.94126300  0.87930000  1
  Cu  Cu2  1  0.79283000  0.49434200  0.39385800  1
  Cu  Cu3  1  0.20588800  0.51283500  0.61075000  1
  Cu  Cu4  1  0.64244100  0.06557800  0.12514500  1
  C  C5  1  0.77611900  0.76175300  0.87740000  1
  C  C6  1  0.40346100  0.71303500  0.64694700  1
  C  C7  1  0.59516100  0.29431200  0.35752000  1
  C  C8  1  0.22360300  0.24490500  0.12712100  1
  C  C9  1  0.94639200  0.71324200  0.47054700  1
  C  C10  1  0.89227100  0.21020900  0.95085400  1
  C  C11  1  0.62274600  0.74992500  0.24577900  1
  C  C12  1  0.37691700  0.25676000  0.75852100  1
  C  C13  1  0.10724500  0.79676400  0.05368800  1
  C  C14  1  0.05241700  0.29382700  0.53419700  1
