# generated using pymatgen
data_Cu2NiC12
_symmetry_space_group_name_H-M   'P 1'
_cell_length_a   5.47121229
_cell_length_b   5.32627063
_cell_length_c   7.56331347
_cell_angle_alpha   108.02047965
_cell_angle_beta   108.70954318
_cell_angle_gamma   96.04025776
_symmetry_Int_Tables_number   1
_chemical_formula_structural   Cu2NiC12
_chemical_formula_sum   'Cu2 Ni1 C12'
_cell_volume   193.33409503
_cell_formula_units_Z   1
loop_
 _symmetry_equiv_pos_site_id
 _symmetry_equiv_pos_as_xyz
  1  'x, y, z'
loop_
 _atom_site_type_symbol
 _atom_site_label
 _atom_site_symmetry_multiplicity
 _atom_site_fract_x
 _atom_site_fract_y
 _atom_site_fract_z
 _atom_site_occupancy
  Ni  Ni0  1  0.18798000  0.53595000  0.78778200  1
  Cu  Cu1  1  0.99538300  0.02722600  0.01119000  1
  Cu  Cu2  1  0.50430500  0.50785900  0.48687800  1
  C  C3  1  0.40425900  0.09810600  0.75885500  1
  C  C4  1  0.60033400  0.91892700  0.23902700  1
  C  C5  1  0.31367000  0.82982800  0.07032800  1
  C  C6  1  0.79341300  0.84938000  0.13110300  1
  C  C7  1  0.67081700  0.22207800  0.36987000  1
  C  C8  1  0.61406800  0.75851900  0.37871100  1
  C  C9  1  0.21938300  0.19947400  0.87414200  1
  C  C10  1  0.31973700  0.78393600  0.65291400  1
  C  C11  1  0.35480800  0.26482300  0.61804800  1
  C  C12  1  0.69881200  0.18095400  0.89408300  1
  C  C13  1  0.17807400  0.33711500  0.25505800  1
  C  C14  1  0.85745600  0.66082800  0.74879900  1
