# generated using pymatgen
data_CuNi2C17
_symmetry_space_group_name_H-M   'P 1'
_cell_length_a   9.01325517
_cell_length_b   9.00029323
_cell_length_c   22.23467930
_cell_angle_alpha   89.98353958
_cell_angle_beta   89.95112589
_cell_angle_gamma   120.03301761
_symmetry_Int_Tables_number   1
_chemical_formula_structural   CuNi2C17
_chemical_formula_sum   'Cu6 Ni12 C102'
_cell_volume   1561.54653852
_cell_formula_units_Z   6
loop_
 _symmetry_equiv_pos_site_id
 _symmetry_equiv_pos_as_xyz
  1  'x, y, z'
loop_
 _atom_site_type_symbol
 _atom_site_label
 _atom_site_symmetry_multiplicity
 _atom_site_fract_x
 _atom_site_fract_y
 _atom_site_fract_z
 _atom_site_occupancy
  C  C0  1  0.36418749  0.36542103  0.25354001  1
  C  C1  1  0.63832092  0.63559219  0.74360239  1
  C  C2  1  0.99566890  0.34653348  0.74762697  1
  C  C3  1  0.29812385  0.34157153  0.58481499  1
  C  C4  1  0.02666223  0.69193399  0.57914496  1
  C  C5  1  0.67495062  0.96337870  0.58146313  1
  C  C6  1  0.29122539  0.96458227  0.07957379  1
  C  C7  1  0.66339936  0.69142254  0.08261731  1
  C  C8  1  0.04326208  0.34243668  0.08317733  1
  C  C9  1  0.32289660  0.29643532  0.90983443  1
  C  C10  1  0.98018868  0.30551759  0.41064493  1
  C  C11  1  0.69451188  0.67591288  0.41061051  1
  C  C12  1  0.00654045  0.00012831  0.49296065  1
  C  C13  1  0.99248801  0.98532872  0.99125625  1
  C  C14  1  0.65186924  0.30181175  0.82808112  1
  C  C15  1  0.66540697  0.31436542  0.32783216  1
  C  C16  1  0.32317892  0.67203461  0.17110400  1
  C  C17  1  0.33953171  0.66949675  0.66351051  1
  C  C18  1  0.00530292  0.99735108  0.35178105  1
  C  C19  1  0.99684701  0.00318442  0.85185789  1
  C  C20  1  0.99504954  0.00570835  0.65172098  1
  C  C21  1  0.00423893  0.99580331  0.15174389  1
  C  C22  1  0.66104981  0.32782318  0.68551124  1
  C  C23  1  0.67345469  0.34102624  0.18463923  1
  C  C24  1  0.32905431  0.66468674  0.01482854  1
  C  C25  1  0.33293477  0.66451188  0.51177602  1
  C  C26  1  0.33374508  0.67639134  0.31999572  1
  C  C27  1  0.67182601  0.34215590  0.97839987  1
  C  C28  1  0.66777064  0.33372826  0.47868531  1
  C  C29  1  0.33682883  0.67504046  0.81708079  1
  Ni  Ni30  1  0.29839374  0.29367875  0.75035371  1
  Ni  Ni31  1  0.70758281  0.00347500  0.74786305  1
  Ni  Ni32  1  0.96612262  0.33579501  0.58650422  1
  Ni  Ni33  1  0.66719135  0.63171554  0.58633173  1
  Ni  Ni34  1  0.96500872  0.62994924  0.08676641  1
  Ni  Ni35  1  0.36939515  0.33414214  0.08692213  1
  Ni  Ni36  1  0.63471820  0.67708061  0.91960080  1
  Ni  Ni37  1  0.03772204  0.36666297  0.91832536  1
  Ni  Ni38  1  0.32608736  0.96229755  0.92174538  1
  Ni  Ni39  1  0.62971241  0.95797518  0.41725846  1
  Ni  Ni40  1  0.32899934  0.37021577  0.41487782  1
  Ni  Ni41  1  0.04503315  0.67420034  0.41814194  1
  Cu  Cu42  1  0.29789218  -0.00082731  0.24848064  1
  Cu  Cu43  1  0.70099210  0.70283214  0.24967666  1
  Cu  Cu44  1  0.99852173  0.29527987  0.24955745  1
  Cu  Cu45  1  0.99964706  0.70827852  0.74823575  1
  Cu  Cu46  1  0.36970298  0.03588906  0.58571628  1
  Cu  Cu47  1  0.66682352  0.03937389  0.08640095  1
  C  C48  1  0.20643956  0.02333249  0.29934777  1
  C  C49  1  0.80145773  0.78960113  0.30403288  1
  C  C50  1  0.98382503  0.19447881  0.30435511  1
  C  C51  1  0.21243593  0.19381161  0.80770360  1
  C  C52  1  0.98390564  0.79667263  0.80083125  1
  C  C53  1  0.82248437  0.02359471  0.80104632  1
  C  C54  1  0.77490672  0.96539149  0.68906145  1
  C  C55  1  0.18960974  0.21333140  0.69323437  1
  C  C56  1  0.02042406  0.80339744  0.69174006  1
  C  C57  1  0.78709496  0.80135555  0.19439831  1
  C  C58  1  0.01772869  0.20875806  0.19494051  1
  C  C59  1  0.20367047  0.98167600  0.19116600  1
  C  C60  1  0.87780792  0.35770457  0.64197188  1
  C  C61  1  0.47747142  0.12016590  0.63825068  1
  C  C62  1  0.64240207  0.51963909  0.64164473  1
  C  C63  1  0.87761012  0.50998731  0.13971077  1
  C  C64  1  0.64131618  0.12324146  0.13902258  1
  C  C65  1  0.48099905  0.35743157  0.14214673  1
  C  C66  1  0.45964960  0.30763827  0.03010344  1
  C  C67  1  0.84978638  0.53932772  0.02965869  1
  C  C68  1  0.69304945  0.14685848  0.03152953  1
  C  C69  1  0.45159601  0.14283235  0.53082822  1
  C  C70  1  0.68387769  0.53639632  0.52932152  1
  C  C71  1  0.84950427  0.31130704  0.53005022  1
  C  C72  1  0.54743552  0.68968569  0.97682428  1
  C  C73  1  0.14426527  0.45562457  0.97431326  1
  C  C74  1  0.31563052  0.86621422  0.97950831  1
  C  C75  1  0.55275029  0.85953616  0.47651038  1
  C  C76  1  0.30593550  0.45211469  0.47255838  1
  C  C77  1  0.13683633  0.69198446  0.47824969  1
  C  C78  1  0.12606995  0.63322785  0.36537645  1
  C  C79  1  0.51895547  0.87234504  0.36288189  1
  C  C80  1  0.36506344  0.48355576  0.35878415  1
  C  C81  1  0.12430906  0.47837934  0.86070990  1
  C  C82  1  0.34874603  0.86825265  0.86631800  1
  C  C83  1  0.51561205  0.64556525  0.86330037  1
  C  C84  1  0.00696715  0.82153376  0.41027241  1
  C  C85  1  0.81367252  0.98416312  0.41144470  1
  C  C86  1  0.16939407  0.19125410  0.40880962  1
  C  C87  1  0.02404692  0.19144014  0.91252709  1
  C  C88  1  0.17323351  0.98905666  0.91369525  1
  C  C89  1  0.81271641  0.82606615  0.91071538  1
  C  C90  1  0.98464357  0.17339651  0.58720085  1
  C  C91  1  0.19712650  0.01835033  0.58954714  1
  C  C92  1  0.83510543  0.80819241  0.58720374  1
  C  C93  1  0.97415094  0.80674676  0.08984636  1
  C  C94  1  0.82236659  0.02223072  0.09094400  1
  C  C95  1  0.18799121  0.17202800  0.08946835  1
  C  C96  1  0.69081487  0.16556455  0.74376510  1
  C  C97  1  0.48473128  0.32999866  0.74614419  1
  C  C98  1  0.84514574  0.53287821  0.74602921  1
  C  C99  1  0.67976728  0.52601409  0.24770689  1
  C  C100  1  0.84453543  0.31347255  0.24557106  1
  C  C101  1  0.47063560  0.16020423  0.24570663  1
  C  C102  1  0.63566593  0.50098255  0.92071298  1
  C  C103  1  0.85624908  0.34849596  0.92114842  1
  C  C104  1  0.49218447  0.14579930  0.92153562  1
  C  C105  1  0.65765277  0.14666827  0.42155954  1
  C  C106  1  0.49538155  0.35414893  0.42190973  1
  C  C107  1  0.85668714  0.50453632  0.42233013  1
  C  C108  1  0.35420528  0.49755900  0.08009630  1
  C  C109  1  0.14664486  0.65411724  0.07966376  1
  C  C110  1  0.51313104  0.86624647  0.08039847  1
  C  C111  1  0.35268103  0.86368439  0.57971018  1
  C  C112  1  0.50743869  0.65308184  0.58036760  1
  C  C113  1  0.14476262  0.49918140  0.57986842  1
  C  C114  1  0.31662010  0.84636050  0.25471749  1
  C  C115  1  0.52516390  0.68049276  0.25170651  1
  C  C116  1  0.15891899  0.46700458  0.25237746  1
  C  C117  1  0.31302125  0.48004532  0.75392881  1
  C  C118  1  0.15260102  0.68183246  0.75245640  1
  C  C119  1  0.52322151  0.83812454  0.75530682  1
