# generated using pymatgen
data_Cu2Ni2C5
_symmetry_space_group_name_H-M   'P 1'
_cell_length_a   3.04284000
_cell_length_b   3.04283799
_cell_length_c   14.35391700
_cell_angle_alpha   90.00000000
_cell_angle_beta   90.00000000
_cell_angle_gamma   120.00000007
_symmetry_Int_Tables_number   1
_chemical_formula_structural   Cu2Ni2C5
_chemical_formula_sum   'Cu2 Ni2 C5'
_cell_volume   115.09567626
_cell_formula_units_Z   1
loop_
 _symmetry_equiv_pos_site_id
 _symmetry_equiv_pos_as_xyz
  1  'x, y, z'
loop_
 _atom_site_type_symbol
 _atom_site_label
 _atom_site_symmetry_multiplicity
 _atom_site_fract_x
 _atom_site_fract_y
 _atom_site_fract_z
 _atom_site_occupancy
  C  C0  1  0.00000000  0.00000000  0.86534700  1
  Ni  Ni1  1  0.00000000  0.00000000  0.04894200  1
  Ni  Ni2  1  0.00000000  0.00000000  0.47679600  1
  Cu  Cu3  1  0.66666700  0.33333300  0.70136200  1
  Cu  Cu4  1  0.33333300  0.66666700  0.25884500  1
  C  C5  1  0.66666700  0.33333300  0.54636600  1
  C  C6  1  0.33333300  0.66666700  0.40481500  1
  C  C7  1  0.66666700  0.33333300  0.93762000  1
  C  C8  1  0.33333300  0.66666700  0.10886600  1
