# generated using pymatgen
data_Cu2NiC2
_symmetry_space_group_name_H-M   'P 1'
_cell_length_a   3.24197600
_cell_length_b   3.24199967
_cell_length_c   36.50725700
_cell_angle_alpha   90.00108638
_cell_angle_beta   90.00049698
_cell_angle_gamma   119.99811157
_symmetry_Int_Tables_number   1
_chemical_formula_structural   Cu2NiC2
_chemical_formula_sum   'Cu4 Ni2 C4'
_cell_volume   332.30804890
_cell_formula_units_Z   2
loop_
 _symmetry_equiv_pos_site_id
 _symmetry_equiv_pos_as_xyz
  1  'x, y, z'
loop_
 _atom_site_type_symbol
 _atom_site_label
 _atom_site_symmetry_multiplicity
 _atom_site_fract_x
 _atom_site_fract_y
 _atom_site_fract_z
 _atom_site_occupancy
  C  C0  1  0.66671100  0.33340700  0.22587100  1
  C  C1  1  0.33327900  0.66656000  0.10927000  1
  C  C2  1  0.33334900  0.66668500  0.57837200  1
  C  C3  1  0.66667000  0.33334500  0.35839900  1
  Ni  Ni4  1  0.33335100  0.66669700  0.40507700  1
  Ni  Ni5  1  0.33332600  0.66666400  0.31149600  1
  Cu  Cu6  1  0.66659700  0.33322600  0.06713000  1
  Cu  Cu7  1  0.66666600  0.33333100  0.53596000  1
  Cu  Cu8  1  0.66662300  0.33325200  0.15157200  1
  Cu  Cu9  1  0.66669300  0.33336700  0.62076600  1
