# generated using pymatgen
data_Cu2NiC12
_symmetry_space_group_name_H-M   'P 1'
_cell_length_a   7.10088134
_cell_length_b   6.75525515
_cell_length_c   6.74747997
_cell_angle_alpha   59.85073668
_cell_angle_beta   61.63389276
_cell_angle_gamma   61.58413971
_symmetry_Int_Tables_number   1
_chemical_formula_structural   Cu2NiC12
_chemical_formula_sum   'Cu2 Ni1 C12'
_cell_volume   233.99714213
_cell_formula_units_Z   1
loop_
 _symmetry_equiv_pos_site_id
 _symmetry_equiv_pos_as_xyz
  1  'x, y, z'
loop_
 _atom_site_type_symbol
 _atom_site_label
 _atom_site_symmetry_multiplicity
 _atom_site_fract_x
 _atom_site_fract_y
 _atom_site_fract_z
 _atom_site_occupancy
  Ni  Ni0  1  0.50000000  0.00000000  0.00000000  1
  Cu  Cu1  1  0.93791000  0.85395000  0.85419700  1
  Cu  Cu2  1  0.06209100  0.14605000  0.14580300  1
  C  C3  1  0.50000000  0.50000000  0.50000000  1
  C  C4  1  0.50000100  0.49999900  0.00000000  1
  C  C5  1  0.00000100  0.50000000  0.50000000  1
  C  C6  1  0.49999900  0.99999900  0.50000100  1
  C  C7  1  0.74108700  0.73449300  0.73465600  1
  C  C8  1  0.25989800  0.26491100  0.70985800  1
  C  C9  1  0.25932900  0.71007600  0.26496700  1
  C  C10  1  0.68390100  0.27224700  0.27270600  1
  C  C11  1  0.74067300  0.28992400  0.73503300  1
  C  C12  1  0.31609900  0.72775100  0.72729600  1
  C  C13  1  0.25891300  0.26550700  0.26534400  1
  C  C14  1  0.74010200  0.73508900  0.29014200  1
