# generated using pymatgen
data_Cu8Ni11C63
_symmetry_space_group_name_H-M   'P 1'
_cell_length_a   17.49249601
_cell_length_b   8.74704811
_cell_length_c   21.68686009
_cell_angle_alpha   90.25477140
_cell_angle_beta   90.19839146
_cell_angle_gamma   120.00564201
_symmetry_Int_Tables_number   1
_chemical_formula_structural   Cu8Ni11C63
_chemical_formula_sum   'Cu24 Ni33 C189'
_cell_volume   2873.44082716
_cell_formula_units_Z   3
loop_
 _symmetry_equiv_pos_site_id
 _symmetry_equiv_pos_as_xyz
  1  'x, y, z'
loop_
 _atom_site_type_symbol
 _atom_site_label
 _atom_site_symmetry_multiplicity
 _atom_site_fract_x
 _atom_site_fract_y
 _atom_site_fract_z
 _atom_site_occupancy
  C  C0  1  0.31798659  0.99993830  0.24998010  1
  C  C1  1  0.81790439  0.99992123  0.25002092  1
  C  C2  1  0.31728377  0.63515170  0.75046037  1
  C  C3  1  0.81639807  0.63216022  0.74968821  1
  C  C4  1  0.50057854  0.36659979  0.75080465  1
  C  C5  1  0.68533684  0.00099063  0.74953799  1
  C  C6  1  0.14934112  0.33450940  0.58204005  1
  C  C7  1  0.64931033  0.33260915  0.58396099  1
  C  C8  1  0.01729914  0.69806990  0.58358239  1
  C  C9  1  0.51831992  0.70328587  0.58289938  1
  C  C10  1  0.33294549  0.96328249  0.58364795  1
  C  C11  1  0.83262445  0.96640290  0.58338037  1
  C  C12  1  0.14982280  0.96588886  0.08267572  1
  C  C13  1  0.64971409  0.96605370  0.08247074  1
  C  C14  1  0.33231067  0.69973973  0.08336274  1
  C  C15  1  0.83224173  0.69947183  0.08364404  1
  C  C16  1  0.01816341  0.33659827  0.08350644  1
  C  C17  1  0.51813308  0.33634581  0.08355252  1
  C  C18  1  0.48195366  0.66669690  0.91647698  1
  C  C19  1  0.98265192  0.66408703  0.91652225  1
  C  C20  1  0.35065160  0.03534443  0.91633497  1
  C  C21  1  0.85005510  0.03632631  0.91654068  1
  C  C22  1  0.16710042  0.30117262  0.91820471  1
  C  C23  1  0.66633797  0.29649453  0.91643403  1
  C  C24  1  0.48252866  0.30045681  0.41635951  1
  C  C25  1  0.98236678  0.30038874  0.41663048  1
  C  C26  1  0.16669308  0.03370734  0.41746601  1
  C  C27  1  0.66676459  0.03418931  0.41768224  1
  C  C28  1  0.34995308  0.66360525  0.41631109  1
  C  C29  1  0.84979468  0.66306930  0.41638887  1
  C  C30  1  0.00017504  0.99990954  0.49992691  1
  C  C31  1  0.50031226  0.99916020  0.50071661  1
  C  C32  1  0.00059360  0.00151408  0.00031252  1
  C  C33  1  0.50023430  0.00039214  0.99920080  1
  C  C34  1  0.33142289  0.32544262  0.83308842  1
  C  C35  1  0.83787396  0.33488080  0.83126031  1
  C  C36  1  0.33616484  0.34492947  0.33095821  1
  C  C37  1  0.83604317  0.34486445  0.33111889  1
  C  C38  1  0.16375590  0.65499065  0.16891307  1
  C  C39  1  0.66372148  0.65495915  0.16898365  1
  C  C40  1  0.16319199  0.67184861  0.66864151  1
  C  C41  1  0.66727878  0.66764673  0.66685108  1
  Ni  Ni42  1  0.35498668  0.70644415  0.24976915  1
  Ni  Ni43  1  0.85493923  0.70635925  0.24974952  1
  Ni  Ni44  1  0.00186107  0.29345795  0.25012513  1
  Ni  Ni45  1  0.50187225  0.29342382  0.25012811  1
  Ni  Ni46  1  0.64377584  0.28693187  0.75029386  1
  Ni  Ni47  1  0.00343596  0.71323478  0.74992030  1
  Ni  Ni48  1  0.49884701  0.71140386  0.74972057  1
  Ni  Ni49  1  0.35266892  0.99834029  0.74973580  1
  Ni  Ni50  1  0.85878765  0.00576698  0.74994485  1
  Ni  Ni51  1  0.47842235  0.33344807  0.58195452  1
  Ni  Ni52  1  0.97702390  0.33305991  0.58417604  1
  Ni  Ni53  1  0.18998254  0.04736725  0.58367729  1
  Ni  Ni54  1  0.69032654  0.04767944  0.58378140  1
  Ni  Ni55  1  0.33288883  0.61819679  0.58433613  1
  Ni  Ni56  1  0.83174993  0.61554969  0.58325538  1
  Ni  Ni57  1  0.47891195  0.62466591  0.08268447  1
  Ni  Ni58  1  0.97896843  0.62452076  0.08257299  1
  Ni  Ni59  1  0.33173715  0.04938340  0.08392468  1
  Ni  Ni60  1  0.83173701  0.04927652  0.08406667  1
  Ni  Ni61  1  0.19061174  0.33250700  0.08465739  1
  Ni  Ni62  1  0.69065314  0.33237534  0.08452982  1
  Ni  Ni63  1  0.30864018  0.66658120  0.91540428  1
  Ni  Ni64  1  0.80842142  0.66351438  0.91745040  1
  Ni  Ni65  1  0.02422756  0.38113575  0.91533475  1
  Ni  Ni66  1  0.52323965  0.38046631  0.91628159  1
  Ni  Ni67  1  0.16685657  0.95780387  0.91783192  1
  Ni  Ni68  1  0.66640390  0.95321549  0.91660907  1
  Ni  Ni69  1  0.30700182  0.95041137  0.41621442  1
  Ni  Ni70  1  0.80715542  0.95064656  0.41600052  1
  Ni  Ni71  1  0.16659291  0.37554936  0.41741152  1
  Ni  Ni72  1  0.66669237  0.37544304  0.41749446  1
  Ni  Ni73  1  0.02436719  0.66725533  0.41525269  1
  Ni  Ni74  1  0.52430776  0.66732130  0.41518928  1
  Cu  Cu75  1  0.99198988  0.99467047  0.35451739  1
  Cu  Cu76  1  0.49207906  0.99486820  0.35462208  1
  Cu  Cu77  1  0.99283183  0.98884555  0.85543759  1
  Cu  Cu78  1  0.49883499  0.00030140  0.85265251  1
  Cu  Cu79  1  0.99537916  0.98457684  0.64493553  1
  Cu  Cu80  1  0.49920955  0.99923341  0.64732446  1
  Cu  Cu81  1  0.99476023  0.00512736  0.14562233  1
  Cu  Cu82  1  0.49475249  0.00519604  0.14554521  1
  Cu  Cu83  1  0.33881116  0.33083329  0.68322368  1
  Cu  Cu84  1  0.83739559  0.33637718  0.68838033  1
  Cu  Cu85  1  0.34314404  0.35285544  0.18482810  1
  Cu  Cu86  1  0.84312029  0.35292878  0.18482995  1
  Cu  Cu87  1  0.33295749  0.33508251  0.98031865  1
  Cu  Cu88  1  0.83281144  0.33342568  0.98015074  1
  Cu  Cu89  1  0.33294301  0.33274109  0.47993899  1
  Cu  Cu90  1  0.83362861  0.33171266  0.48017087  1
  Cu  Cu91  1  0.16650786  0.66612825  0.01979370  1
  Cu  Cu92  1  0.66652569  0.66662660  0.02020517  1
  Cu  Cu93  1  0.16563941  0.66559594  0.52000705  1
  Cu  Cu94  1  0.66610222  0.66655684  0.51963801  1
  Cu  Cu95  1  0.16654238  0.64744103  0.31512477  1
  Cu  Cu96  1  0.66650308  0.64728733  0.31515705  1
  Cu  Cu97  1  0.16578036  0.68371459  0.81564076  1
  Cu  Cu98  1  0.66725126  0.66752424  0.81284087  1
  C  C99  1  0.14314471  0.00014905  0.25008752  1
  C  C100  1  0.64314801  0.00015912  0.25008024  1
  C  C101  1  0.14343047  0.28620627  0.74997662  1
  C  C102  1  0.10319337  0.02807386  0.30642802  1
  C  C103  1  0.60321199  0.02807757  0.30641340  1
  C  C104  1  0.41617496  0.79568070  0.31156226  1
  C  C105  1  0.91619290  0.79558923  0.31151680  1
  C  C106  1  0.48034866  0.16324561  0.31043206  1
  C  C107  1  0.98042183  0.16326723  0.31043270  1
  C  C108  1  0.10440095  0.17983969  0.80616362  1
  C  C109  1  0.60124506  0.16045726  0.81068601  1
  C  C110  1  0.47744683  0.79443758  0.81052868  1
  C  C111  1  0.98147540  0.79972661  0.81066103  1
  C  C112  1  0.41773328  0.04453474  0.81038669  1
  C  C113  1  0.91795015  0.03640863  0.81202166  1
  C  C114  1  0.39629266  0.95762793  0.68915690  1
  C  C115  1  0.90022912  0.95981863  0.68947486  1
  C  C116  1  0.08974024  0.20597024  0.69338277  1
  C  C117  1  0.57977483  0.20412527  0.68937812  1
  C  C118  1  0.01949525  0.83429048  0.68835313  1
  C  C119  1  0.52043638  0.83716182  0.68923434  1
  C  C120  1  0.39859741  0.83696831  0.18958220  1
  C  C121  1  0.89860937  0.83696031  0.18956634  1
  C  C122  1  0.01828990  0.20432679  0.18846846  1
  C  C123  1  0.51827769  0.20431401  0.18848191  1
  C  C124  1  0.08902632  0.97201849  0.19349057  1
  C  C125  1  0.58903820  0.97203496  0.19348415  1
  C  C126  1  0.44003254  0.38105145  0.64332895  1
  C  C127  1  0.93418508  0.37982852  0.64200403  1
  C  C128  1  0.25594611  0.13529990  0.64252787  1
  C  C129  1  0.75365879  0.13130774  0.64428704  1
  C  C130  1  0.31157972  0.49080827  0.64492917  1
  C  C131  1  0.81142430  0.49379115  0.64413240  1
  C  C132  1  0.43956806  0.49390666  0.14093771  1
  C  C133  1  0.93957666  0.49398460  0.14090415  1
  C  C134  1  0.31140435  0.13301964  0.14495999  1
  C  C135  1  0.81149297  0.13323138  0.14498598  1
  C  C136  1  0.25720332  0.37568675  0.14266570  1
  C  C137  1  0.75722935  0.37579921  0.14261386  1
  C  C138  1  0.22956706  0.28869570  0.02229399  1
  C  C139  1  0.72980172  0.28863871  0.02217898  1
  C  C140  1  0.41459223  0.54362290  0.02196724  1
  C  C141  1  0.91462400  0.54337881  0.02186929  1
  C  C142  1  0.35461134  0.17439011  0.02299617  1
  C  C143  1  0.85470860  0.17391370  0.02297270  1
  C  C144  1  0.22967812  0.17094010  0.52242800  1
  C  C145  1  0.73106265  0.17145043  0.52258320  1
  C  C146  1  0.35470778  0.53605640  0.52335711  1
  C  C147  1  0.85489012  0.53620960  0.52225125  1
  C  C148  1  0.41347106  0.28928867  0.52222601  1
  C  C149  1  0.91494427  0.28629521  0.52199341  1
  C  C150  1  0.26805550  0.71007814  0.97689812  1
  C  C151  1  0.76851109  0.70980614  0.97800646  1
  C  C152  1  0.08561929  0.45961037  0.97771783  1
  C  C153  1  0.58631811  0.46237359  0.97738264  1
  C  C154  1  0.14327622  0.82995803  0.97793101  1
  C  C155  1  0.64537452  0.82827884  0.97732149  1
  C  C156  1  0.26749675  0.82543262  0.47722265  1
  C  C157  1  0.76784110  0.82600318  0.47697453  1
  C  C158  1  0.14332479  0.45668128  0.47803458  1
  C  C159  1  0.64311537  0.45675703  0.47792687  1
  C  C160  1  0.08553774  0.71170657  0.47785662  1
  C  C161  1  0.58542211  0.71131676  0.47772810  1
  C  C162  1  0.06924063  0.62421080  0.35739476  1
  C  C163  1  0.56909897  0.62402513  0.35734771  1
  C  C164  1  0.24471748  0.86688015  0.35501536  1
  C  C165  1  0.74476059  0.86688000  0.35490632  1
  C  C166  1  0.19245284  0.50600345  0.35907259  1
  C  C167  1  0.69238717  0.50597817  0.35910584  1
  C  C168  1  0.06850036  0.51316622  0.85746301  1
  C  C169  1  0.56477908  0.50619567  0.85583800  1
  C  C170  1  0.19242123  0.87889429  0.85903238  1
  C  C171  1  0.68828613  0.87047103  0.85583958  1
  C  C172  1  0.24458649  0.62234365  0.85476338  1
  C  C173  1  0.74734145  0.62360446  0.85601530  1
  C  C174  1  0.01429432  0.84483542  0.40888584  1
  C  C175  1  0.51423511  0.84479066  0.40885920  1
  C  C176  1  0.40647935  0.97308253  0.41205203  1
  C  C177  1  0.90662963  0.97314726  0.41197685  1
  C  C178  1  0.07887519  0.17889078  0.40809255  1
  C  C179  1  0.57879534  0.17891879  0.40804683  1
  C  C180  1  0.01463812  0.18379566  0.90892098  1
  C  C181  1  0.51315114  0.18360956  0.91066059  1
  C  C182  1  0.07929462  0.97943973  0.90850100  1
  C  C183  1  0.57809576  0.97294276  0.91071213  1
  C  C184  1  0.40720893  0.84286494  0.91023957  1
  C  C185  1  0.90735486  0.84051832  0.91285941  1
  C  C186  1  0.48650508  0.15575002  0.58856171  1
  C  C187  1  0.98944218  0.15895705  0.59248398  1
  C  C188  1  0.09182038  0.02870503  0.59071008  1
  C  C189  1  0.59157928  0.02613790  0.58923192  1
  C  C190  1  0.42117702  0.81485641  0.58990645  1
  C  C191  1  0.92041474  0.81427491  0.58728679  1
  C  C192  1  0.48942527  0.82105612  0.09207825  1
  C  C193  1  0.98942842  0.82103020  0.09199608  1
  C  C194  1  0.41994831  0.02679999  0.08805111  1
  C  C195  1  0.92001812  0.02681777  0.08801079  1
  C  C196  1  0.09180519  0.15509988  0.09100015  1
  C  C197  1  0.59185892  0.15517403  0.09101746  1
  C  C198  1  0.34706591  0.18038854  0.74308921  1
  C  C199  1  0.84451342  0.17501107  0.74439575  1
  C  C200  1  0.23325617  0.30667346  0.74623984  1
  C  C201  1  0.74153629  0.30764250  0.74462818  1
  C  C202  1  0.40880485  0.51438652  0.74365449  1
  C  C203  1  0.91119806  0.52331350  0.74398780  1
  C  C204  1  0.34482486  0.51122017  0.24358643  1
  C  C205  1  0.84486142  0.51124360  0.24358416  1
  C  C206  1  0.40836762  0.29734596  0.24349038  1
  C  C207  1  0.90837259  0.29732450  0.24348720  1
  C  C208  1  0.23229336  0.15840418  0.24672891  1
  C  C209  1  0.73232308  0.15842347  0.24671062  1
  C  C210  1  0.31930933  0.49098226  0.92189736  1
  C  C211  1  0.81980660  0.48920493  0.92258548  1
  C  C212  1  0.42498202  0.36007089  0.92258038  1
  C  C213  1  0.92570051  0.35886909  0.92237545  1
  C  C214  1  0.25497541  0.15313228  0.92358403  1
  C  C215  1  0.75501225  0.14940290  0.92253366  1
  C  C216  1  0.31930201  0.14845353  0.42224185  1
  C  C217  1  0.81948217  0.14861502  0.42197763  1
  C  C218  1  0.25480425  0.35676488  0.42359858  1
  C  C219  1  0.75480615  0.35646529  0.42361143  1
  C  C220  1  0.42567468  0.49227365  0.42223790  1
  C  C221  1  0.92587914  0.49200923  0.42217390  1
  C  C222  1  0.17980816  0.50791821  0.07779661  1
  C  C223  1  0.67971989  0.50774293  0.07779189  1
  C  C224  1  0.07649111  0.64316824  0.07637973  1
  C  C225  1  0.57642952  0.64342793  0.07647640  1
  C  C226  1  0.24507245  0.85120943  0.07763307  1
  C  C227  1  0.74510536  0.85130942  0.07797658  1
  C  C228  1  0.17972829  0.85101231  0.57768315  1
  C  C229  1  0.68018320  0.85069731  0.57742978  1
  C  C230  1  0.24510465  0.63925590  0.57793065  1
  C  C231  1  0.74502747  0.63999205  0.57714353  1
  C  C232  1  0.07519238  0.50926514  0.57735773  1
  C  C233  1  0.57575173  0.51044422  0.57684569  1
  C  C234  1  0.15305832  0.84159719  0.25339656  1
  C  C235  1  0.65307617  0.84161271  0.25339215  1
  C  C236  1  0.25958642  0.70249399  0.25645958  1
  C  C237  1  0.75959983  0.70248509  0.25642837  1
  C  C238  1  0.08925496  0.48871430  0.25630033  1
  C  C239  1  0.58924650  0.48873108  0.25629067  1
  C  C240  1  0.15365067  0.46465081  0.75348647  1
  C  C241  1  0.65308104  0.48336013  0.75590858  1
  C  C242  1  0.09025144  0.69128579  0.75659947  1
  C  C243  1  0.58698185  0.69140078  0.75544789  1
  C  C244  1  0.25805885  0.81402575  0.75657803  1
  C  C245  1  0.76028108  0.82557608  0.75560018  1
