# generated using pymatgen
data_Cu2NiC10
_symmetry_space_group_name_H-M   'P 1'
_cell_length_a   6.43205940
_cell_length_b   6.90396457
_cell_length_c   8.37400127
_cell_angle_alpha   114.37762208
_cell_angle_beta   112.61426897
_cell_angle_gamma   89.98628765
_symmetry_Int_Tables_number   1
_chemical_formula_structural   Cu2NiC10
_chemical_formula_sum   'Cu2 Ni1 C10'
_cell_volume   307.06305095
_cell_formula_units_Z   1
loop_
 _symmetry_equiv_pos_site_id
 _symmetry_equiv_pos_as_xyz
  1  'x, y, z'
loop_
 _atom_site_type_symbol
 _atom_site_label
 _atom_site_symmetry_multiplicity
 _atom_site_fract_x
 _atom_site_fract_y
 _atom_site_fract_z
 _atom_site_occupancy
  C  C0  1  0.12930100  0.87893300  0.25751500  1
  C  C1  1  0.87769700  0.12876300  0.75608300  1
  Ni  Ni2  1  0.83165200  0.58181400  0.66242700  1
  Cu  Cu3  1  0.36423700  0.61374000  0.72759800  1
  Cu  Cu4  1  0.62255200  0.37304300  0.24554200  1
  C  C5  1  0.72089200  0.28438500  0.44136300  1
  C  C6  1  0.68038000  0.67022900  0.83996300  1
  C  C7  1  0.16055900  0.67021900  0.83996800  1
  C  C8  1  0.30187700  0.77537800  0.60287900  1
  C  C9  1  0.30234400  0.32720800  0.60358000  1
  C  C10  1  0.32406300  0.30581500  0.11145300  1
  C  C11  1  0.78657400  0.30557700  0.11098400  1
  C  C12  1  0.72078900  0.65781400  0.44127100  1
