# generated using pymatgen
data_Cu5Ni7C58
_symmetry_space_group_name_H-M   'P 1'
_cell_length_a   17.96935515
_cell_length_b   8.97792526
_cell_length_c   23.31132958
_cell_angle_alpha   90.00798415
_cell_angle_beta   89.07530645
_cell_angle_gamma   119.98072504
_symmetry_Int_Tables_number   1
_chemical_formula_structural   Cu5Ni7C58
_chemical_formula_sum   'Cu15 Ni21 C174'
_cell_volume   3256.98477439
_cell_formula_units_Z   3
loop_
 _symmetry_equiv_pos_site_id
 _symmetry_equiv_pos_as_xyz
  1  'x, y, z'
loop_
 _atom_site_type_symbol
 _atom_site_label
 _atom_site_symmetry_multiplicity
 _atom_site_fract_x
 _atom_site_fract_y
 _atom_site_fract_z
 _atom_site_occupancy
  C  C0  1  0.99095136  0.00507984  0.49776370  1
  C  C1  1  0.49023149  0.97375287  0.00492497  1
  C  C2  1  0.32303696  0.33071622  0.84087538  1
  C  C3  1  0.82141897  0.32717967  0.83927481  1
  C  C4  1  0.32601208  0.31971148  0.33546822  1
  C  C5  1  0.82025043  0.31187513  0.33864987  1
  C  C6  1  0.00383856  0.01351905  0.35854577  1
  C  C7  1  0.50544998  0.99564936  0.85988372  1
  C  C8  1  0.00101595  0.01441817  0.64350771  1
  C  C9  1  0.50127461  0.99697461  0.14676470  1
  C  C10  1  0.33219424  0.33606214  0.98015585  1
  C  C11  1  0.83538159  0.33492471  0.97872588  1
  C  C12  1  0.33712681  0.33808693  0.47683288  1
  C  C13  1  0.83299864  0.32931515  0.47781850  1
  C  C14  1  0.17207222  0.68060026  0.30995985  1
  C  C15  1  0.67059792  0.67403790  0.30787668  1
  C  C16  1  0.17497640  0.66755228  0.81041894  1
  C  C17  1  0.67118650  0.66321618  0.81065475  1
  C  C18  1  0.50494503  0.02313725  0.35864152  1
  C  C19  1  0.00624555  0.00073384  0.86138998  1
  C  C20  1  0.50300483  0.01783891  0.64188661  1
  C  C21  1  0.00301753  0.98820146  0.14162933  1
  C  C22  1  0.33159567  0.34315718  0.68542937  1
  C  C23  1  0.83548665  0.35004754  0.68516529  1
  C  C24  1  0.34082915  0.32170837  0.18879869  1
  C  C25  1  0.83134322  0.32105393  0.18608267  1
  C  C26  1  0.17298025  0.69200613  0.02497722  1
  C  C27  1  0.67364664  0.69166869  0.02452077  1
  C  C28  1  0.17403752  0.65535467  0.52325000  1
  C  C29  1  0.67076739  0.65145094  0.52212652  1
  Ni  Ni30  1  0.14374517  0.00579649  0.24922891  1
  Ni  Ni31  1  0.64357170  0.00694245  0.25082808  1
  Ni  Ni32  1  0.50150649  0.28738611  0.25041108  1
  Ni  Ni33  1  0.14400462  0.28101799  0.75080260  1
  Ni  Ni34  1  0.64379686  0.28298504  0.74958670  1
  Ni  Ni35  1  0.47629528  0.34321801  0.58231369  1
  Ni  Ni36  1  0.97872906  0.34239090  0.58106179  1
  Ni  Ni37  1  0.33821064  0.62806975  0.58322810  1
  Ni  Ni38  1  0.83653394  0.62702546  0.58070840  1
  Ni  Ni39  1  0.47795453  0.62005592  0.08173368  1
  Ni  Ni40  1  0.97638109  0.61028232  0.08241278  1
  Ni  Ni41  1  0.33920680  0.05023797  0.08176180  1
  Ni  Ni42  1  0.83803412  0.04928587  0.08373569  1
  Ni  Ni43  1  0.30972221  0.66620685  0.91790618  1
  Ni  Ni44  1  0.80930904  0.66408931  0.91586239  1
  Ni  Ni45  1  0.17076581  0.95417455  0.91484335  1
  Ni  Ni46  1  0.66967683  0.95532106  0.91558382  1
  Ni  Ni47  1  0.31054199  0.95269730  0.41590451  1
  Ni  Ni48  1  0.80877392  0.94995790  0.41641433  1
  Ni  Ni49  1  0.16876224  0.38144561  0.41492602  1
  Ni  Ni50  1  0.67065533  0.38472458  0.41410625  1
  Cu  Cu51  1  0.35759566  0.70440297  0.25113312  1
  Cu  Cu52  1  0.86066588  0.71139904  0.24800995  1
  Cu  Cu53  1  0.99680827  0.28487511  0.24826190  1
  Cu  Cu54  1  0.99711821  0.71055049  0.75128551  1
  Cu  Cu55  1  0.49679419  0.70893519  0.74839499  1
  Cu  Cu56  1  0.35994841  0.00954707  0.74829169  1
  Cu  Cu57  1  0.85859165  0.01070494  0.75117776  1
  Cu  Cu58  1  0.19123667  0.04500803  0.58378484  1
  Cu  Cu59  1  0.68935508  0.04383435  0.58603722  1
  Cu  Cu60  1  0.18799516  0.33705204  0.08564848  1
  Cu  Cu61  1  0.69093001  0.33800755  0.08340664  1
  Cu  Cu62  1  0.02461974  0.37785649  0.91548665  1
  Cu  Cu63  1  0.52414143  0.38071803  0.91719878  1
  Cu  Cu64  1  0.02495973  0.66864053  0.41723421  1
  Cu  Cu65  1  0.52614438  0.67463509  0.41625344  1
  C  C66  1  0.09763872  0.03515050  0.30535095  1
  C  C67  1  0.59386614  0.03052351  0.30728053  1
  C  C68  1  0.40966520  0.78364735  0.30185872  1
  C  C69  1  0.91212569  0.78862277  0.29925045  1
  C  C70  1  0.48317820  0.16239347  0.30806535  1
  C  C71  1  0.97841103  0.17731774  0.30102766  1
  C  C72  1  0.09339624  0.15659862  0.80738700  1
  C  C73  1  0.59898661  0.16094843  0.80547323  1
  C  C74  1  0.47854078  0.77995833  0.80102040  1
  C  C75  1  0.98067276  0.78811051  0.80320940  1
  C  C76  1  0.41055789  0.03311569  0.79961779  1
  C  C77  1  0.91108553  0.03325581  0.80171216  1
  C  C78  1  0.40250949  0.98671824  0.69615470  1
  C  C79  1  0.89790279  0.98457513  0.69832360  1
  C  C80  1  0.08893630  0.18666163  0.69503237  1
  C  C81  1  0.58499481  0.17796086  0.69380554  1
  C  C82  1  0.00711335  0.81060350  0.69922211  1
  C  C83  1  0.50739521  0.81435701  0.69747180  1
  C  C84  1  0.39651165  0.80662091  0.19802406  1
  C  C85  1  0.90427993  0.81908198  0.19580562  1
  C  C86  1  0.00728587  0.20055601  0.19737670  1
  C  C87  1  0.50726745  0.19254838  0.19364371  1
  C  C88  1  0.08370020  0.99021081  0.19343744  1
  C  C89  1  0.59061850  0.98527039  0.19346217  1
  C  C90  1  0.42528363  0.35740216  0.64040967  1
  C  C91  1  0.92690605  0.35631283  0.63981334  1
  C  C92  1  0.24385987  0.13156565  0.63597585  1
  C  C93  1  0.74423851  0.13042237  0.63679131  1
  C  C94  1  0.31801613  0.49864197  0.64100632  1
  C  C95  1  0.82136846  0.50314050  0.63973925  1
  C  C96  1  0.42669622  0.49937270  0.13935501  1
  C  C97  1  0.92577107  0.49419901  0.13985110  1
  C  C98  1  0.32361205  0.13965611  0.13999260  1
  C  C99  1  0.81807261  0.13920905  0.14079775  1
  C  C100  1  0.24159248  0.36491509  0.13564456  1
  C  C101  1  0.74356311  0.35807118  0.13528213  1
  C  C102  1  0.22228953  0.29659989  0.03335284  1
  C  C103  1  0.73075162  0.30868692  0.03154877  1
  C  C104  1  0.41686889  0.53242113  0.02688297  1
  C  C105  1  0.91694987  0.53710620  0.02739387  1
  C  C106  1  0.34499861  0.16025416  0.02597017  1
  C  C107  1  0.85385597  0.16769285  0.02855787  1
  C  C108  1  0.22850823  0.15454527  0.53245076  1
  C  C109  1  0.72350843  0.15231044  0.53431488  1
  C  C110  1  0.35380630  0.53919121  0.52906981  1
  C  C111  1  0.84742511  0.53176428  0.52644586  1
  C  C112  1  0.41516434  0.29369695  0.52851191  1
  C  C113  1  0.91624589  0.30012307  0.52775604  1
  C  C114  1  0.25609324  0.67755553  0.97474985  1
  C  C115  1  0.76094385  0.68632063  0.97294078  1
  C  C116  1  0.07398712  0.44920986  0.96718879  1
  C  C117  1  0.57513383  0.46000260  0.96826759  1
  C  C118  1  0.15502873  0.83579782  0.97340976  1
  C  C119  1  0.65898958  0.83958201  0.97456078  1
  C  C120  1  0.25863495  0.83357509  0.47337770  1
  C  C121  1  0.75557185  0.83294277  0.47463916  1
  C  C122  1  0.15781862  0.47566242  0.47484118  1
  C  C123  1  0.65531529  0.47146702  0.47412156  1
  C  C124  1  0.07538493  0.68943869  0.46869525  1
  C  C125  1  0.57544085  0.69512211  0.46864013  1
  C  C126  1  0.06481842  0.64875067  0.36409112  1
  C  C127  1  0.56520005  0.64554318  0.36461199  1
  C  C128  1  0.25115602  0.86756940  0.35972577  1
  C  C129  1  0.75397689  0.86496591  0.36014863  1
  C  C130  1  0.17292778  0.49123162  0.35912172  1
  C  C131  1  0.68286676  0.50004319  0.35919170  1
  C  C132  1  0.06442891  0.48184949  0.86316714  1
  C  C133  1  0.56426904  0.48106617  0.86378418  1
  C  C134  1  0.17644029  0.85781666  0.85828606  1
  C  C135  1  0.67421822  0.85578435  0.85899636  1
  C  C136  1  0.25388102  0.64279121  0.86038805  1
  C  C137  1  0.75124679  0.63383548  0.85914543  1
  C  C138  1  0.01479520  0.82356106  0.41194828  1
  C  C139  1  0.51543951  0.82634943  0.40852984  1
  C  C140  1  0.40130301  0.95315115  0.40536842  1
  C  C141  1  0.90192576  0.95717325  0.41301246  1
  C  C142  1  0.08072029  0.19112878  0.41448157  1
  C  C143  1  0.58107374  0.19548735  0.40837725  1
  C  C144  1  0.01356578  0.20016178  0.90684481  1
  C  C145  1  0.51389774  0.20535275  0.91102049  1
  C  C146  1  0.08043841  0.96645852  0.90659421  1
  C  C147  1  0.58186063  0.97049201  0.91454772  1
  C  C148  1  0.40192274  0.84473199  0.91197633  1
  C  C149  1  0.90279751  0.84293511  0.90160867  1
  C  C150  1  0.49288864  0.17958492  0.59842845  1
  C  C151  1  0.99543620  0.18037013  0.59009171  1
  C  C152  1  0.10370179  0.02140431  0.59204361  1
  C  C153  1  0.60127719  0.02210946  0.59648411  1
  C  C154  1  0.41856216  0.81310127  0.60247717  1
  C  C155  1  0.91883108  0.81252658  0.59262932  1
  C  C156  1  0.49579681  0.81424760  0.08881961  1
  C  C157  1  0.99308178  0.80696242  0.09714312  1
  C  C158  1  0.41950141  0.02053087  0.08753533  1
  C  C159  1  0.91824454  0.02482426  0.10206724  1
  C  C160  1  0.09926632  0.18169433  0.09509092  1
  C  C161  1  0.60480183  0.18488897  0.08921131  1
  C  C162  1  0.34924887  0.16247311  0.74037966  1
  C  C163  1  0.84945336  0.16647470  0.74418058  1
  C  C164  1  0.24058428  0.29649390  0.74318080  1
  C  C165  1  0.73997779  0.30062822  0.73772446  1
  C  C166  1  0.41719418  0.53140625  0.74171737  1
  C  C167  1  0.91627214  0.53344371  0.74558235  1
  C  C168  1  0.34626128  0.52896388  0.24432599  1
  C  C169  1  0.85106304  0.53766889  0.23996576  1
  C  C170  1  0.41162947  0.30183005  0.24412706  1
  C  C171  1  0.91704791  0.30277661  0.24181889  1
  C  C172  1  0.23744162  0.18013877  0.23698916  1
  C  C173  1  0.74055087  0.19027752  0.24224492  1
  C  C174  1  0.32260459  0.50057382  0.92181572  1
  C  C175  1  0.82822793  0.50629488  0.92209229  1
  C  C176  1  0.43706799  0.36131648  0.92087444  1
  C  C177  1  0.93674531  0.35344375  0.91965942  1
  C  C178  1  0.25073008  0.14510676  0.92067093  1
  C  C179  1  0.75348707  0.14447304  0.92170907  1
  C  C180  1  0.32674504  0.14657543  0.42345632  1
  C  C181  1  0.82393261  0.14408113  0.42314646  1
  C  C182  1  0.25277511  0.36113644  0.42222417  1
  C  C183  1  0.75105436  0.35413722  0.42218111  1
  C  C184  1  0.43813038  0.51834911  0.42160985  1
  C  C185  1  0.93769503  0.51321635  0.42093272  1
  C  C186  1  0.17536810  0.48484148  0.07591352  1
  C  C187  1  0.68450584  0.49370648  0.07672976  1
  C  C188  1  0.06953512  0.62483234  0.07167265  1
  C  C189  1  0.57092806  0.62504242  0.07020101  1
  C  C190  1  0.24877386  0.86031455  0.07471339  1
  C  C191  1  0.75221526  0.85923608  0.07516476  1
  C  C192  1  0.18476595  0.87680400  0.57781366  1
  C  C193  1  0.67925058  0.87349858  0.57930801  1
  C  C194  1  0.25261404  0.64691476  0.57509516  1
  C  C195  1  0.74886413  0.64032499  0.57388060  1
  C  C196  1  0.07073594  0.52017588  0.57158682  1
  C  C197  1  0.56902808  0.51479200  0.57238240  1
  C  C198  1  0.15206053  0.83547918  0.25532792  1
  C  C199  1  0.66262455  0.85299342  0.26024051  1
  C  C200  1  0.27066240  0.68599312  0.25663070  1
  C  C201  1  0.77546787  0.69541098  0.25115169  1
  C  C202  1  0.07126299  0.45640555  0.25515160  1
  C  C203  1  0.58034398  0.47514578  0.26105223  1
  C  C204  1  0.15567684  0.46880058  0.75990940  1
  C  C205  1  0.65355191  0.47076740  0.75502207  1
  C  C206  1  0.07054430  0.68483781  0.75881334  1
  C  C207  1  0.57136669  0.68634586  0.75520233  1
  C  C208  1  0.27356280  0.85420462  0.75192587  1
  C  C209  1  0.77180920  0.85741419  0.75651697  1
