# generated using pymatgen
data_Cu2NiC11
_symmetry_space_group_name_H-M   'P 1'
_cell_length_a   8.19391516
_cell_length_b   7.58100819
_cell_length_c   8.19391550
_cell_angle_alpha   48.11963794
_cell_angle_beta   43.60575996
_cell_angle_gamma   48.11963714
_symmetry_Int_Tables_number   1
_chemical_formula_structural   Cu2NiC11
_chemical_formula_sum   'Cu2 Ni1 C11'
_cell_volume   243.97750173
_cell_formula_units_Z   1
loop_
 _symmetry_equiv_pos_site_id
 _symmetry_equiv_pos_as_xyz
  1  'x, y, z'
loop_
 _atom_site_type_symbol
 _atom_site_label
 _atom_site_symmetry_multiplicity
 _atom_site_fract_x
 _atom_site_fract_y
 _atom_site_fract_z
 _atom_site_occupancy
  C  C0  1  0.19923000  0.22628900  0.19923000  1
  C  C1  1  0.85648000  0.72008800  0.85648000  1
  C  C2  1  0.94316200  0.08595700  0.94316200  1
  Ni  Ni3  1  0.55328400  0.01807300  0.55328400  1
  Cu  Cu4  1  0.60321000  0.56436100  0.60321000  1
  Cu  Cu5  1  0.37455400  0.47797000  0.37455400  1
  C  C6  1  0.69053000  0.65659500  0.69053000  1
  C  C7  1  0.36021000  0.24890200  0.36021000  1
  C  C8  1  0.25950100  0.70088600  0.75314800  1
  C  C9  1  0.75314800  0.70088600  0.25950100  1
  C  C10  1  0.72832100  0.21920200  0.72832100  1
  C  C11  1  0.71849900  0.29779500  0.26441700  1
  C  C12  1  0.24545200  0.81020300  0.24545200  1
  C  C13  1  0.26441700  0.29779500  0.71849900  1
