# generated using pymatgen
data_Cu8Ni6C67
_symmetry_space_group_name_H-M   'P 1'
_cell_length_a   9.38753901
_cell_length_b   9.38923739
_cell_length_c   10.29117013
_cell_angle_alpha   89.99256847
_cell_angle_beta   89.98932759
_cell_angle_gamma   119.94189869
_symmetry_Int_Tables_number   1
_chemical_formula_structural   Cu8Ni6C67
_chemical_formula_sum   'Cu8 Ni6 C67'
_cell_volume   786.01604202
_cell_formula_units_Z   1
loop_
 _symmetry_equiv_pos_site_id
 _symmetry_equiv_pos_as_xyz
  1  'x, y, z'
loop_
 _atom_site_type_symbol
 _atom_site_label
 _atom_site_symmetry_multiplicity
 _atom_site_fract_x
 _atom_site_fract_y
 _atom_site_fract_z
 _atom_site_occupancy
  Ni  Ni0  1  0.66860300  0.77820000  0.50036000  1
  Ni  Ni1  1  0.33309700  0.77861300  0.50055700  1
  Ni  Ni2  1  0.99742800  0.44408600  0.50113600  1
  Ni  Ni3  1  0.33428800  0.11128700  0.50132700  1
  Ni  Ni4  1  0.66856400  0.44417800  0.16603900  1
  Ni  Ni5  1  0.66728000  0.77579500  0.83232100  1
  Cu  Cu6  1  0.33498800  0.11006700  0.16665600  1
  Cu  Cu7  1  0.33387300  0.44427700  0.50095800  1
  Cu  Cu8  1  0.99965300  0.77576900  0.16682900  1
  Cu  Cu9  1  0.33319800  0.44598700  0.16619200  1
  Cu  Cu10  1  0.33111300  0.77692300  0.83306700  1
  Cu  Cu11  1  0.99800500  0.11127900  0.16648000  1
  Cu  Cu12  1  0.66690000  0.11295700  0.83267600  1
  Cu  Cu13  1  0.00123000  0.11165500  0.83241500  1
  C  C14  1  0.66629400  0.77925900  0.16793500  1
  C  C15  1  0.99823200  0.44533700  0.82962300  1
  C  C16  1  0.99916200  0.11056200  0.50140600  1
  C  C17  1  0.66757800  0.44412500  0.83333300  1
  C  C18  1  0.99870500  0.77670000  0.50026300  1
  C  C19  1  0.33416500  0.11273300  0.83111800  1
  C  C20  1  0.66860800  0.44445700  0.50158000  1
  C  C21  1  0.66776800  0.11295900  0.50248600  1
  C  C22  1  0.33334700  0.77734400  0.16582800  1
  C  C23  1  0.99835900  0.44386500  0.16941300  1
  C  C24  1  0.66744700  0.11172100  0.16440100  1
  C  C25  1  0.99959700  0.77524100  0.83282200  1
  C  C26  1  0.33369900  0.44392400  0.83282200  1
  C  C27  1  0.77843700  0.33549900  0.99726900  1
  C  C28  1  0.44604600  0.99997600  0.33444500  1
  C  C29  1  0.10957500  0.99837500  0.33821000  1
  C  C30  1  0.77665000  0.66458400  0.99768600  1
  C  C31  1  0.44531600  0.66687900  0.99953500  1
  C  C32  1  0.10929200  0.66379400  0.99949400  1
  C  C33  1  0.11031400  0.33543300  0.99782300  1
  C  C34  1  0.44694500  0.33492300  0.99615600  1
  C  C35  1  0.10917100  0.33254600  0.33578000  1
  C  C36  1  0.77636900  0.99871800  0.99973100  1
  C  C37  1  0.44501300  0.00006200  0.99964500  1
  C  C38  1  0.11145600  0.99889500  0.99798700  1
  C  C39  1  0.77680900  0.00018200  0.33512800  1
  C  C40  1  0.88836700  0.55646900  0.66739300  1
  C  C41  1  0.55788700  0.55467500  0.66912200  1
  C  C42  1  0.77742500  0.33216000  0.33396200  1
  C  C43  1  0.88755300  0.55382600  0.99588600  1
  C  C44  1  0.22112800  0.88767900  0.33729100  1
  C  C45  1  0.55650100  0.89016200  0.33343700  1
  C  C46  1  0.88890700  0.88831800  0.33681000  1
  C  C47  1  0.22094900  0.22075400  0.33571000  1
  C  C48  1  0.55750800  0.22192700  0.33478700  1
  C  C49  1  0.88715300  0.22160400  0.33537400  1
  C  C50  1  0.22050600  0.55647300  0.33438800  1
  C  C51  1  0.55781000  0.55705900  0.33323200  1
  C  C52  1  0.88896900  0.55642300  0.33673900  1
  C  C53  1  0.21960300  0.88835900  0.66427000  1
  C  C54  1  0.55609300  0.88887000  0.66578900  1
  C  C55  1  0.88996600  0.88698300  0.66380000  1
  C  C56  1  0.22245900  0.22143400  0.66612200  1
  C  C57  1  0.55661600  0.22507000  0.66829200  1
  C  C58  1  0.88904400  0.22287200  0.66593400  1
  C  C59  1  0.22067500  0.55502700  0.66675100  1
  C  C60  1  0.55730400  0.55544900  0.99752900  1
  C  C61  1  0.21993900  0.55474400  0.99863600  1
  C  C62  1  0.88900600  0.22518300  0.99901400  1
  C  C63  1  0.44660500  0.33412600  0.66997100  1
  C  C64  1  0.11021300  0.66690000  0.33656500  1
  C  C65  1  0.44612000  0.66937900  0.33347800  1
  C  C66  1  0.77864300  0.66740000  0.33560500  1
  C  C67  1  0.10993800  0.99764100  0.66332300  1
  C  C68  1  0.44389300  0.00064500  0.66583300  1
  C  C69  1  0.77837000  0.99957700  0.66554800  1
  C  C70  1  0.11035900  0.33401800  0.66661000  1
  C  C71  1  0.77734500  0.33605000  0.66887900  1
  C  C72  1  0.55738500  0.22510500  0.99681900  1
  C  C73  1  0.10833100  0.66690700  0.66425800  1
  C  C74  1  0.44538100  0.66648000  0.66675300  1
  C  C75  1  0.77883000  0.66518400  0.66668500  1
  C  C76  1  0.22169400  0.88818100  0.99824100  1
  C  C77  1  0.55558000  0.88812800  0.00075600  1
  C  C78  1  0.88728500  0.88680200  0.99944200  1
  C  C79  1  0.22386300  0.22343700  0.99783700  1
  C  C80  1  0.44631900  0.33346400  0.33424700  1
