# generated using pymatgen
data_CuNiC2
_symmetry_space_group_name_H-M   'P 1'
_cell_length_a   6.26676365
_cell_length_b   6.26582949
_cell_length_c   6.26676293
_cell_angle_alpha   32.43932837
_cell_angle_beta   32.39628952
_cell_angle_gamma   32.43934035
_symmetry_Int_Tables_number   1
_chemical_formula_structural   CuNiC2
_chemical_formula_sum   'Cu1 Ni1 C2'
_cell_volume   62.90089340
_cell_formula_units_Z   1
loop_
 _symmetry_equiv_pos_site_id
 _symmetry_equiv_pos_as_xyz
  1  'x, y, z'
loop_
 _atom_site_type_symbol
 _atom_site_label
 _atom_site_symmetry_multiplicity
 _atom_site_fract_x
 _atom_site_fract_y
 _atom_site_fract_z
 _atom_site_occupancy
  Ni  Ni0  1  0.16864300  0.16256200  0.16864300  1
  Cu  Cu1  1  0.00089500  0.00070100  0.00089500  1
  C  C2  1  0.59454200  0.59371100  0.59454200  1
  C  C3  1  0.40556300  0.40374100  0.40556300  1
