# generated using pymatgen
data_Cu5Ni7C66
_symmetry_space_group_name_H-M   'P 1'
_cell_length_a   18.39001756
_cell_length_b   9.22105912
_cell_length_c   22.73331977
_cell_angle_alpha   90.05196870
_cell_angle_beta   87.67735993
_cell_angle_gamma   119.88466249
_symmetry_Int_Tables_number   1
_chemical_formula_structural   Cu5Ni7C66
_chemical_formula_sum   'Cu15 Ni21 C198'
_cell_volume   3338.83869415
_cell_formula_units_Z   3
loop_
 _symmetry_equiv_pos_site_id
 _symmetry_equiv_pos_as_xyz
  1  'x, y, z'
loop_
 _atom_site_type_symbol
 _atom_site_label
 _atom_site_symmetry_multiplicity
 _atom_site_fract_x
 _atom_site_fract_y
 _atom_site_fract_z
 _atom_site_occupancy
  C  C0  1  0.18447603  0.36735378  0.24018393  1
  C  C1  1  0.68508859  0.36888354  0.24081997  1
  C  C2  1  0.99233321  0.63821704  0.25454448  1
  C  C3  1  0.49385732  0.63838474  0.25398648  1
  C  C4  1  0.49255443  0.34325992  0.75969987  1
  C  C5  1  0.18458666  0.00288234  0.74322468  1
  C  C6  1  0.68166036  0.00233952  0.74333383  1
  C  C7  1  0.65699515  0.34206344  0.58153464  1
  C  C8  1  0.01578920  0.70048064  0.57706402  1
  C  C9  1  0.82690481  0.96725365  0.59031872  1
  C  C10  1  0.49135656  0.67587249  0.91681587  1
  C  C11  1  0.99263228  0.67576535  0.91542625  1
  C  C12  1  0.84961197  0.03495158  0.91051818  1
  C  C13  1  0.15593173  0.30383987  0.92324520  1
  C  C14  1  0.49107962  0.30867919  0.41472978  1
  C  C15  1  0.98598372  0.30056299  0.41462024  1
  C  C16  1  0.34596617  0.66215880  0.40871832  1
  C  C17  1  0.84887341  0.66706238  0.41022353  1
  C  C18  1  0.02606851  0.01458780  0.50065707  1
  C  C19  1  0.51799056  0.98772277  0.49977468  1
  C  C20  1  0.01173236  0.01419841  0.00556225  1
  C  C21  1  0.51553300  0.04218418  0.99968021  1
  C  C22  1  0.34347221  0.33361447  0.83446787  1
  C  C23  1  0.84831932  0.34524546  0.82885430  1
  C  C24  1  0.33760785  0.32418764  0.33040142  1
  C  C25  1  0.83626154  0.32173636  0.33477668  1
  C  C26  1  0.17908141  0.66349180  0.16383901  1
  C  C27  1  0.67902288  0.66515903  0.16442993  1
  C  C28  1  0.17810017  0.67486840  0.67245268  1
  C  C29  1  0.67669346  0.68298302  0.66845915  1
  C  C30  1  0.00132269  0.99482887  0.35131367  1
  C  C31  1  0.50192675  0.99791831  0.35050082  1
  C  C32  1  0.99844794  0.00291365  0.84790501  1
  C  C33  1  0.49422670  0.00375351  0.85502380  1
  C  C34  1  0.33416905  0.33320859  0.68413403  1
  C  C35  1  0.83678116  0.33667425  0.68691886  1
  C  C36  1  0.33548792  0.33932000  0.18163835  1
  C  C37  1  0.83548657  0.33815634  0.18231314  1
  C  C38  1  0.16152108  0.65360300  0.02019411  1
  C  C39  1  0.66010418  0.65010513  0.02189961  1
  C  C40  1  0.16674555  0.67505988  0.51908889  1
  C  C41  1  0.65922950  0.67263504  0.51911846  1
  C  C42  1  0.99252626  0.96576066  0.64967643  1
  C  C43  1  0.49540800  0.96703107  0.65049281  1
  C  C44  1  0.99638816  0.02384109  0.14926940  1
  C  C45  1  0.49607183  0.02108440  0.14909323  1
  C  C46  1  0.32253599  0.30263330  0.97721862  1
  C  C47  1  0.81959910  0.31500524  0.97668399  1
  C  C48  1  0.32069000  0.32774066  0.47623258  1
  C  C49  1  0.82372043  0.35440039  0.47965509  1
  C  C50  1  0.16017289  0.62985723  0.31267607  1
  C  C51  1  0.65956956  0.63155151  0.31344044  1
  C  C52  1  0.15816137  0.68870233  0.81189653  1
  C  C53  1  0.65970063  0.69100785  0.81317379  1
  Ni  Ni54  1  0.35016085  0.71463137  0.25161248  1
  Ni  Ni55  1  0.85047416  0.71512731  0.25147009  1
  Ni  Ni56  1  0.00020571  0.30035483  0.25427026  1
  Ni  Ni57  1  0.50054915  0.30120026  0.25375079  1
  Ni  Ni58  1  0.00084842  0.69844625  0.75407433  1
  Ni  Ni59  1  0.50039623  0.69955472  0.75522660  1
  Ni  Ni60  1  0.34988745  0.98587003  0.74903033  1
  Ni  Ni61  1  0.84660398  0.98216162  0.75317392  1
  Ni  Ni62  1  0.18107828  0.04383242  0.58836093  1
  Ni  Ni63  1  0.68389259  0.04958777  0.58770126  1
  Ni  Ni64  1  0.83413064  0.63534788  0.58272714  1
  Ni  Ni65  1  0.18115918  0.31846056  0.08761679  1
  Ni  Ni66  1  0.68010386  0.31736499  0.08943473  1
  Ni  Ni67  1  0.01700583  0.37901616  0.91674247  1
  Ni  Ni68  1  0.51483206  0.37879550  0.91738346  1
  Ni  Ni69  1  0.16743754  0.96491430  0.91671512  1
  Ni  Ni70  1  0.66682588  0.96505851  0.91904482  1
  Ni  Ni71  1  0.16622916  0.36773315  0.41785312  1
  Ni  Ni72  1  0.66633690  0.36710228  0.42046045  1
  Ni  Ni73  1  0.01570289  0.65302220  0.41926323  1
  Ni  Ni74  1  0.51299708  0.65321212  0.41580335  1
  Cu  Cu75  1  0.14505029  0.98554806  0.24541751  1
  Cu  Cu76  1  0.64506327  0.98537164  0.24523501  1
  Cu  Cu77  1  0.14434199  0.30618323  0.74756296  1
  Cu  Cu78  1  0.64143826  0.29713884  0.74538045  1
  Cu  Cu79  1  0.47882019  0.31211866  0.58035241  1
  Cu  Cu80  1  0.97975678  0.31779065  0.57848479  1
  Cu  Cu81  1  0.34116119  0.63692388  0.57926585  1
  Cu  Cu82  1  0.48026846  0.65131033  0.08190703  1
  Cu  Cu83  1  0.97976200  0.64799205  0.08073266  1
  Cu  Cu84  1  0.33995438  0.04365451  0.08108320  1
  Cu  Cu85  1  0.84031519  0.04371910  0.07990730  1
  Cu  Cu86  1  0.30935004  0.64632209  0.91647983  1
  Cu  Cu87  1  0.81114486  0.64964350  0.91720418  1
  Cu  Cu88  1  0.31194435  0.97494396  0.41519176  1
  Cu  Cu89  1  0.81013578  0.96841134  0.41560369  1
  C  C90  1  0.11158499  0.01618137  0.30170267  1
  C  C91  1  0.61177539  0.01610077  0.30151239  1
  C  C92  1  0.40222693  0.77647479  0.31035768  1
  C  C93  1  0.90371316  0.77525929  0.30975858  1
  C  C94  1  0.49127436  0.20552927  0.31431970  1
  C  C95  1  0.99227732  0.20440839  0.31439894  1
  C  C96  1  0.11192671  0.21809720  0.80576762  1
  C  C97  1  0.60188363  0.19495464  0.79931540  1
  C  C98  1  0.49272373  0.78256940  0.81429875  1
  C  C99  1  0.99720026  0.78365575  0.81417604  1
  C  C100  1  0.41268217  0.04258959  0.80158125  1
  C  C101  1  0.89368410  0.00784181  0.81319053  1
  C  C102  1  0.40681451  0.96795294  0.69064949  1
  C  C103  1  0.90498076  0.97231552  0.69457538  1
  C  C104  1  0.09149971  0.20500648  0.70015598  1
  C  C105  1  0.59236161  0.20775598  0.69301389  1
  C  C106  1  0.01040987  0.82359774  0.69499819  1
  C  C107  1  0.51117054  0.82630802  0.69602082  1
  C  C108  1  0.40898417  0.84645029  0.19582471  1
  C  C109  1  0.90950299  0.84791835  0.19566968  1
  C  C110  1  0.01268320  0.19741289  0.19623030  1
  C  C111  1  0.51181595  0.19513729  0.19624038  1
  C  C112  1  0.09202297  0.97595760  0.19686938  1
  C  C113  1  0.59167055  0.97526792  0.19688558  1
  C  C114  1  0.43872523  0.32691503  0.63594593  1
  C  C115  1  0.93829147  0.33959478  0.63176950  1
  C  C116  1  0.23058899  0.12290134  0.64621901  1
  C  C117  1  0.73269928  0.12113074  0.64679505  1
  C  C118  1  0.32970889  0.53577940  0.63191106  1
  C  C119  1  0.81858585  0.50807873  0.63476038  1
  C  C120  1  0.44106615  0.55534760  0.13811550  1
  C  C121  1  0.93994527  0.55357668  0.13684812  1
  C  C122  1  0.32871415  0.11826757  0.13503227  1
  C  C123  1  0.82978801  0.12309426  0.13267457  1
  C  C124  1  0.22679144  0.32671625  0.14693106  1
  C  C125  1  0.72601821  0.32422687  0.14817213  1
  C  C126  1  0.23918824  0.30100562  0.02912938  1
  C  C127  1  0.74090427  0.30414270  0.03103167  1
  C  C128  1  0.43395718  0.55586767  0.03105218  1
  C  C129  1  0.93324351  0.55256605  0.02952188  1
  C  C130  1  0.34793817  0.14894730  0.02829129  1
  C  C131  1  0.84819424  0.14304730  0.02548201  1
  C  C132  1  0.24184299  0.17494383  0.52949514  1
  C  C133  1  0.74133475  0.19028917  0.53109143  1
  C  C134  1  0.34750290  0.55121037  0.52460486  1
  C  C135  1  0.84754358  0.54645958  0.51986594  1
  C  C136  1  0.43385131  0.31547989  0.52872050  1
  C  C137  1  0.93321922  0.31023378  0.52571350  1
  C  C138  1  0.27325859  0.66687619  0.97224520  1
  C  C139  1  0.77393298  0.67272752  0.97179574  1
  C  C140  1  0.07969692  0.44947449  0.96962693  1
  C  C141  1  0.56980938  0.46718374  0.97205458  1
  C  C142  1  0.15162669  0.84179080  0.97025322  1
  C  C143  1  0.66624709  0.85496758  0.97225574  1
  C  C144  1  0.27514456  0.88027906  0.47058055  1
  C  C145  1  0.77527739  0.87827700  0.47250227  1
  C  C146  1  0.16315506  0.47372670  0.47141404  1
  C  C147  1  0.66045194  0.45752861  0.47860412  1
  C  C148  1  0.06418246  0.67637457  0.47873140  1
  C  C149  1  0.56739803  0.68161713  0.47136601  1
  C  C150  1  0.07291059  0.63383280  0.36127931  1
  C  C151  1  0.56583090  0.62988646  0.35614778  1
  C  C152  1  0.26273322  0.89165284  0.36424095  1
  C  C153  1  0.75947200  0.87494367  0.36611021  1
  C  C154  1  0.18161392  0.48560170  0.35573254  1
  C  C155  1  0.67712068  0.49011093  0.36022885  1
  C  C156  1  0.07070259  0.51597596  0.85951820  1
  C  C157  1  0.56602845  0.50823641  0.85699591  1
  C  C158  1  0.17773374  0.87633675  0.85386866  1
  C  C159  1  0.68193536  0.87628239  0.85638938  1
  C  C160  1  0.26101916  0.63722197  0.86566180  1
  C  C161  1  0.76314418  0.63396801  0.86536773  1
  C  C162  1  0.99404461  0.80220522  0.41322024  1
  C  C163  1  0.48893639  0.79962953  0.41149846  1
  C  C164  1  0.39795278  0.99856846  0.41104057  1
  C  C165  1  0.89612695  0.98718438  0.41115665  1
  C  C166  1  0.08456246  0.18582517  0.41585379  1
  C  C167  1  0.58448869  0.18485279  0.41586088  1
  C  C168  1  0.99666858  0.18708981  0.90981522  1
  C  C169  1  0.49496812  0.18942333  0.91323910  1
  C  C170  1  0.09228983  0.00927433  0.91377753  1
  C  C171  1  0.58488316  0.98295072  0.91593048  1
  C  C172  1  0.39754864  0.78398813  0.91278828  1
  C  C173  1  0.89856158  0.79670946  0.91289666  1
  C  C174  1  0.48532783  0.15787608  0.58162310  1
  C  C175  1  0.98195719  0.15992527  0.58309588  1
  C  C176  1  0.08746485  0.03197720  0.59166882  1
  C  C177  1  0.59051092  0.04114529  0.59157986  1
  C  C178  1  0.42222062  0.80068320  0.58267313  1
  C  C179  1  0.92470980  0.81546975  0.58989796  1
  C  C180  1  0.48233872  0.81361052  0.08440438  1
  C  C181  1  0.98242660  0.81086520  0.08262852  1
  C  C182  1  0.42066553  0.03992781  0.08396337  1
  C  C183  1  0.92122435  0.03961545  0.08395734  1
  C  C184  1  0.08631162  0.14265826  0.09246335  1
  C  C185  1  0.58587895  0.14217564  0.09262770  1
  C  C186  1  0.33119977  0.14080690  0.74136593  1
  C  C187  1  0.82435929  0.13037461  0.74585484  1
  C  C188  1  0.23038738  0.32703878  0.74210292  1
  C  C189  1  0.72699999  0.32150947  0.74271164  1
  C  C190  1  0.42882153  0.50712721  0.74736180  1
  C  C191  1  0.92467897  0.51258026  0.74886944  1
  C  C192  1  0.33157484  0.52256059  0.24293171  1
  C  C193  1  0.83246897  0.52396923  0.24200967  1
  C  C194  1  0.42802543  0.34907122  0.24651046  1
  C  C195  1  0.92786524  0.34837785  0.24715044  1
  C  C196  1  0.23219473  0.12766337  0.24014575  1
  C  C197  1  0.73225112  0.12695763  0.23991901  1
  C  C198  1  0.31092176  0.48290381  0.91952139  1
  C  C199  1  0.82132652  0.49669866  0.92254807  1
  C  C200  1  0.42260908  0.38003044  0.92673129  1
  C  C201  1  0.92525498  0.37527269  0.92693396  1
  C  C202  1  0.25723942  0.15012928  0.92356146  1
  C  C203  1  0.75761980  0.15278933  0.92371524  1
  C  C204  1  0.32141748  0.14673247  0.42010781  1
  C  C205  1  0.82071248  0.13892703  0.41778957  1
  C  C206  1  0.25664004  0.36176000  0.42305394  1
  C  C207  1  0.75800371  0.36753095  0.42009335  1
  C  C208  1  0.42110882  0.46983726  0.42417606  1
  C  C209  1  0.92385395  0.47024661  0.42272716  1
  C  C210  1  0.16922150  0.47983859  0.08270057  1
  C  C211  1  0.66911771  0.47903139  0.08451829  1
  C  C212  1  0.06588403  0.67256852  0.08027069  1
  C  C213  1  0.56722835  0.67856766  0.08169749  1
  C  C214  1  0.26874622  0.87273456  0.07693438  1
  C  C215  1  0.76950379  0.87114991  0.07786933  1
  C  C216  1  0.16227970  0.85246909  0.58217516  1
  C  C217  1  0.67629229  0.86933444  0.57947751  1
  C  C218  1  0.27025639  0.66881939  0.57717792  1
  C  C219  1  0.75776956  0.67379092  0.57986983  1
  C  C220  1  0.06567108  0.46618708  0.57740512  1
  C  C221  1  0.56629771  0.45886992  0.58092931  1
  C  C222  1  0.14453142  0.82403171  0.24920741  1
  C  C223  1  0.64499822  0.82424423  0.24881213  1
  C  C224  1  0.25645969  0.70369442  0.25894256  1
  C  C225  1  0.75647690  0.70216713  0.25940415  1
  C  C226  1  0.09344603  0.48292604  0.25449833  1
  C  C227  1  0.59418234  0.48221060  0.25412559  1
  C  C228  1  0.15088797  0.47237210  0.74907102  1
  C  C229  1  0.64267980  0.45873326  0.74815671  1
  C  C230  1  0.09503361  0.70697182  0.75186819  1
  C  C231  1  0.59439776  0.70657834  0.75336550  1
  C  C232  1  0.25812877  0.81172010  0.75799583  1
  C  C233  1  0.75432861  0.80040913  0.75820375  1
