# generated using pymatgen
data_Cu2Ni2C37
_symmetry_space_group_name_H-M   'P 1'
_cell_length_a   19.01632706
_cell_length_b   9.49114970
_cell_length_c   22.93393038
_cell_angle_alpha   89.99895344
_cell_angle_beta   89.80848034
_cell_angle_gamma   119.95391260
_symmetry_Int_Tables_number   1
_chemical_formula_structural   Cu2Ni2C37
_chemical_formula_sum   'Cu12 Ni12 C222'
_cell_volume   3586.35135794
_cell_formula_units_Z   6
loop_
 _symmetry_equiv_pos_site_id
 _symmetry_equiv_pos_as_xyz
  1  'x, y, z'
loop_
 _atom_site_type_symbol
 _atom_site_label
 _atom_site_symmetry_multiplicity
 _atom_site_fract_x
 _atom_site_fract_y
 _atom_site_fract_z
 _atom_site_occupancy
  C  C0  1  0.82508899  0.01871115  0.25742311  1
  C  C1  1  0.17410138  0.34932973  0.25545098  1
  C  C2  1  0.69528781  0.36869078  0.25163117  1
  C  C3  1  0.99865698  0.62998702  0.24215537  1
  C  C4  1  0.49772243  0.65082073  0.24553048  1
  C  C5  1  0.32342807  0.63060521  0.75202470  1
  C  C6  1  0.99583350  0.34327389  0.73353830  1
  C  C7  1  0.50180478  0.37166767  0.73820534  1
  C  C8  1  0.19284834  0.01959879  0.74509233  1
  C  C9  1  0.68062912  0.00483790  0.74590137  1
  C  C10  1  0.14134377  0.30788268  0.57950811  1
  C  C11  1  0.65704770  0.32777872  0.58213267  1
  C  C12  1  0.33587382  0.99369340  0.58892422  1
  C  C13  1  0.83359325  0.97417338  0.58494520  1
  C  C14  1  0.14927553  0.98650281  0.07962231  1
  C  C15  1  0.64472632  0.97524490  0.07652875  1
  C  C16  1  0.33428467  0.67972094  0.08331702  1
  C  C17  1  0.83642879  0.68039739  0.09045087  1
  C  C18  1  0.47911545  0.67638367  0.91704819  1
  C  C19  1  0.97728851  0.68183064  0.93078890  1
  C  C20  1  0.33999047  0.01703230  0.90474908  1
  C  C21  1  0.83935982  0.01623275  0.90594274  1
  C  C22  1  0.17564416  0.29360042  0.91069932  1
  C  C23  1  0.66989086  0.28488777  0.90813234  1
  C  C24  1  0.48343715  0.28322695  0.43557370  1
  C  C25  1  0.97736562  0.27744444  0.42336559  1
  C  C26  1  0.16738593  0.05448079  0.41281014  1
  C  C27  1  0.67801989  0.05766285  0.41957509  1
  C  C28  1  0.34217792  0.66594044  0.41064590  1
  C  C29  1  0.84176188  0.66598418  0.42300736  1
  C  C30  1  0.99448994  0.99130272  0.50437728  1
  C  C31  1  0.51070255  0.01606300  0.50654852  1
  C  C32  1  0.00505123  0.99729916  0.00356645  1
  C  C33  1  0.50632443  0.99562250  0.99765253  1
  C  C34  1  0.32964040  0.33656371  0.82306917  1
  C  C35  1  0.81320808  0.32491774  0.82479826  1
  C  C36  1  0.31197731  0.29524745  0.33414895  1
  C  C37  1  0.82741049  0.31919803  0.33244976  1
  C  C38  1  0.15108288  0.64496752  0.16695133  1
  C  C39  1  0.66221599  0.65608375  0.16600202  1
  C  C40  1  0.16008183  0.66741148  0.66362118  1
  C  C41  1  0.66028552  0.66132278  0.66300971  1
  Ni  Ni42  1  0.00146519  0.00781123  0.34721766  1
  Ni  Ni43  1  0.50001595  0.00636662  0.34862942  1
  Ni  Ni44  1  0.99863757  0.99516422  0.84533475  1
  Ni  Ni45  1  0.50195377  0.99521237  0.84433662  1
  Ni  Ni46  1  0.33691474  0.33174735  0.67546867  1
  Ni  Ni47  1  0.83677541  0.34215468  0.17641448  1
  Ni  Ni48  1  0.33176409  0.33853025  0.99019163  1
  Ni  Ni49  1  0.82441249  0.33586614  0.98747374  1
  Ni  Ni50  1  0.32572176  0.31536865  0.48810063  1
  Ni  Ni51  1  0.83262481  0.33693370  0.49479990  1
  Ni  Ni52  1  0.67523363  0.67626384  0.31680592  1
  Ni  Ni53  1  0.17314768  0.67041921  0.81365271  1
  Cu  Cu54  1  0.99546928  -0.00010409  0.65015817  1
  Cu  Cu55  1  0.50999168  0.01414034  0.65690217  1
  Cu  Cu56  1  0.00882482  0.00607641  0.15612939  1
  Cu  Cu57  1  0.50026236  0.99274292  0.15211761  1
  Cu  Cu58  1  0.82902532  0.32761302  0.67524174  1
  Cu  Cu59  1  0.33053716  0.34398482  0.18025065  1
  Cu  Cu60  1  0.16818835  0.66994479  0.01932708  1
  Cu  Cu61  1  0.66437528  0.66353822  0.01926916  1
  Cu  Cu62  1  0.16382981  0.66453033  0.51898702  1
  Cu  Cu63  1  0.67367670  0.66571070  0.52152927  1
  Cu  Cu64  1  0.17614430  0.67079762  0.30870609  1
  Cu  Cu65  1  0.67701663  0.68468871  0.80776867  1
  C  C66  1  0.15848361  0.00426040  0.25046842  1
  C  C67  1  0.64902068  0.99503749  0.25060733  1
  C  C68  1  0.35032528  0.69256327  0.25028454  1
  C  C69  1  0.85063989  0.70262618  0.24793251  1
  C  C70  1  0.00289488  0.30618527  0.25436436  1
  C  C71  1  0.14793242  0.29867228  0.75070775  1
  C  C72  1  0.65920881  0.31460584  0.75192791  1
  C  C73  1  0.50281358  0.69922043  0.75533567  1
  C  C74  1  0.35015426  0.99983687  0.74897909  1
  C  C75  1  0.85087973  0.01808149  0.75205177  1
  C  C76  1  0.49314162  0.32385052  0.58260530  1
  C  C77  1  0.98877343  0.33592357  0.58460659  1
  C  C78  1  0.16936934  0.00880751  0.58501000  1
  C  C79  1  0.67668070  0.01787315  0.58215965  1
  C  C80  1  0.83674630  0.64357489  0.57860965  1
  C  C81  1  0.48835863  0.64254610  0.08419634  1
  C  C82  1  0.99415351  0.66211368  0.08267064  1
  C  C83  1  0.17763460  0.33712213  0.08237714  1
  C  C84  1  0.66749422  0.32750679  0.08490215  1
  C  C85  1  0.31968485  0.67354243  0.92133713  1
  C  C86  1  0.80821263  0.66567041  0.91708804  1
  C  C87  1  0.16645034  0.96401707  0.91634048  1
  C  C88  1  0.66788431  0.95592526  0.91727088  1
  C  C89  1  0.30792401  0.95221274  0.41711558  1
  C  C90  1  0.81955870  0.97162306  0.42049839  1
  C  C91  1  0.16861429  0.38066149  0.41666873  1
  C  C92  1  0.66669184  0.36662894  0.41518182  1
  C  C93  1  0.49098172  0.29548128  0.24415672  1
  C  C94  1  0.99142905  0.68604352  0.74534247  1
  C  C95  1  0.33297062  0.65945384  0.58204841  1
  C  C96  1  0.33363660  0.02442975  0.08307140  1
  C  C97  1  0.83314058  0.00774485  0.08175299  1
  C  C98  1  0.02103403  0.37340771  0.92215116  1
  C  C99  1  0.52735017  0.38893487  0.91470506  1
  C  C100  1  0.02764048  0.66286204  0.41340727  1
  C  C101  1  0.52013749  0.66632098  0.42051094  1
  C  C102  1  0.13315700  0.06163562  0.31028900  1
  C  C103  1  0.61348742  0.01542978  0.31334216  1
  C  C104  1  0.40284373  0.75422861  0.31005256  1
  C  C105  1  0.89445700  0.77983756  0.31005422  1
  C  C106  1  0.48138105  0.22216702  0.30258930  1
  C  C107  1  0.98805679  0.21789121  0.31765019  1
  C  C108  1  0.11539734  0.21701670  0.81595087  1
  C  C109  1  0.63031056  0.21023778  0.81260704  1
  C  C110  1  0.48690322  0.75355787  0.81934845  1
  C  C111  1  0.98402486  0.74085013  0.80471045  1
  C  C112  1  0.39049739  0.00620906  0.81261203  1
  C  C113  1  0.89973042  0.05158581  0.81385742  1
  C  C114  1  0.41042885  0.99939778  0.69656369  1
  C  C115  1  0.90547102  0.00027449  0.70029985  1
  C  C116  1  0.08731864  0.16393243  0.70198547  1
  C  C117  1  0.59266872  0.20562545  0.70007577  1
  C  C118  1  0.99396059  0.80146933  0.70122051  1
  C  C119  1  0.51331658  0.84200899  0.70838072  1
  C  C120  1  0.40137971  0.81342634  0.19585702  1
  C  C121  1  0.90827973  0.81978198  0.19330621  1
  C  C122  1  0.01379305  0.18743316  0.20582758  1
  C  C123  1  0.49311188  0.18576490  0.19900744  1
  C  C124  1  0.09233752  0.97965986  0.19815925  1
  C  C125  1  0.58818423  0.00521958  0.19939616  1
  C  C126  1  0.45527345  0.35305679  0.64165388  1
  C  C127  1  0.93516143  0.35374121  0.63813201  1
  C  C128  1  0.23406415  0.08646034  0.63872177  1
  C  C129  1  0.74700856  0.12944675  0.63249659  1
  C  C130  1  0.31811013  0.55626148  0.63388421  1
  C  C131  1  0.82088732  0.49121200  0.62262989  1
  C  C132  1  0.43363506  0.51307351  0.13658320  1
  C  C133  1  0.95661154  0.55756784  0.14170067  1
  C  C134  1  0.32331787  0.12644889  0.12751106  1
  C  C135  1  0.81825628  0.08039331  0.13369622  1
  C  C136  1  0.24967333  0.36340031  0.13111623  1
  C  C137  1  0.73074486  0.37408227  0.13901096  1
  C  C138  1  0.20734286  0.28983044  0.02229004  1
  C  C139  1  0.70434981  0.27206078  0.02957879  1
  C  C140  1  0.43799294  0.58272132  0.02364459  1
  C  C141  1  0.93256465  0.57509409  0.02703737  1
  C  C142  1  0.34953449  0.10191583  0.02524730  1
  C  C143  1  0.84241444  0.10346858  0.02878428  1
  C  C144  1  0.20739058  0.13570373  0.52913593  1
  C  C145  1  0.70498206  0.12657061  0.52261848  1
  C  C146  1  0.34289653  0.58297949  0.52902462  1
  C  C147  1  0.85633307  0.60055372  0.51439054  1
  C  C148  1  0.42944761  0.28186300  0.52785172  1
  C  C149  1  0.93942718  0.29751607  0.52383584  1
  C  C150  1  0.26156019  0.66853288  0.97735204  1
  C  C151  1  0.75627072  0.66136854  0.97599675  1
  C  C152  1  0.07448540  0.47826246  0.97084141  1
  C  C153  1  0.57221460  0.48816959  0.96684718  1
  C  C154  1  0.16851490  0.84538067  0.96986915  1
  C  C155  1  0.66706575  0.85388099  0.97670679  1
  C  C156  1  0.25584408  0.85198319  0.47556122  1
  C  C157  1  0.75973985  0.85316387  0.47386459  1
  C  C158  1  0.16873669  0.48412329  0.47513552  1
  C  C159  1  0.66882669  0.49155694  0.46694248  1
  C  C160  1  0.07289384  0.65481190  0.46542242  1
  C  C161  1  0.57352898  0.66737423  0.46768290  1
  C  C162  1  0.07063995  0.66207901  0.35932751  1
  C  C163  1  0.55121714  0.65305702  0.36255616  1
  C  C164  1  0.25526980  0.84787971  0.35997220  1
  C  C165  1  0.77384781  0.89853002  0.35769959  1
  C  C166  1  0.16968476  0.48524117  0.35822146  1
  C  C167  1  0.66267628  0.43896326  0.35079251  1
  C  C168  1  0.05347100  0.45493467  0.86593053  1
  C  C169  1  0.56859590  0.47674102  0.86066661  1
  C  C170  1  0.16659383  0.88440592  0.85315940  1
  C  C171  1  0.66921749  0.85159956  0.85993219  1
  C  C172  1  0.27092242  0.65249614  0.86036393  1
  C  C173  1  0.75494318  0.66370637  0.86054292  1
  C  C174  1  0.02542996  0.81664435  0.41802509  1
  C  C175  1  0.51507481  0.81774521  0.42473649  1
  C  C176  1  0.39742194  0.96523615  0.41877135  1
  C  C177  1  0.90554362  0.96962065  0.42534965  1
  C  C178  1  0.08978511  0.19757581  0.42142570  1
  C  C179  1  0.58226028  0.18907691  0.42498643  1
  C  C180  1  0.01836053  0.21465044  0.92582946  1
  C  C181  1  0.52528948  0.23094443  0.91934992  1
  C  C182  1  0.08277639  0.97469825  0.92414158  1
  C  C183  1  0.58854558  0.98031510  0.92100876  1
  C  C184  1  0.40541968  0.84680689  0.92534664  1
  C  C185  1  0.89820216  0.83106321  0.91866507  1
  C  C186  1  0.50392414  0.16091174  0.58940662  1
  C  C187  1  0.99878065  0.17362725  0.59719183  1
  C  C188  1  0.08126271  0.99621530  0.59625263  1
  C  C189  1  0.58844758  0.99751362  0.59955355  1
  C  C190  1  0.40515162  0.82438472  0.58936615  1
  C  C191  1  0.90701512  0.82613404  0.59776073  1
  C  C192  1  0.49556142  0.82402935  0.09605806  1
  C  C193  1  0.00401265  0.84636187  0.08795138  1
  C  C194  1  0.39985918  0.99066808  0.09742925  1
  C  C195  1  0.90552074  0.98748442  0.08842162  1
  C  C196  1  0.08987136  0.17997741  0.09844360  1
  C  C197  1  0.57656422  0.16611776  0.09490704  1
  C  C198  1  0.33970229  0.16089583  0.74733180  1
  C  C199  1  0.83867406  0.17689391  0.74022481  1
  C  C200  1  0.24165114  0.33614301  0.74500012  1
  C  C201  1  0.74694152  0.32965889  0.73498759  1
  C  C202  1  0.42300363  0.52346113  0.74312104  1
  C  C203  1  0.92081732  0.52027684  0.73700571  1
  C  C204  1  0.33886121  0.50710744  0.23871975  1
  C  C205  1  0.83968466  0.52021875  0.24616866  1
  C  C206  1  0.42034293  0.32049027  0.23502637  1
  C  C207  1  0.92330031  0.32301492  0.24281748  1
  C  C208  1  0.24763862  0.16078289  0.23133767  1
  C  C209  1  0.74166581  0.14544345  0.24415065  1
  C  C210  1  0.33271434  0.51458442  0.92226561  1
  C  C211  1  0.81783560  0.50197535  0.91479288  1
  C  C212  1  0.44366156  0.36283751  0.91584352  1
  C  C213  1  0.93854931  0.35015517  0.92879135  1
  C  C214  1  0.25075886  0.14186927  0.91922069  1
  C  C215  1  0.75259754  0.13450754  0.91453272  1
  C  C216  1  0.31708528  0.13457109  0.41442505  1
  C  C217  1  0.83179844  0.15513730  0.42301083  1
  C  C218  1  0.25355504  0.37227713  0.41388002  1
  C  C219  1  0.74946940  0.35333232  0.41688003  1
  C  C220  1  0.43728665  0.52251824  0.42618354  1
  C  C221  1  0.94525919  0.51994215  0.41325137  1
  C  C222  1  0.17727955  0.51079823  0.08049650  1
  C  C223  1  0.66017591  0.49111924  0.07395880  1
  C  C224  1  0.08708636  0.68930433  0.07392305  1
  C  C225  1  0.58249433  0.67840808  0.08063870  1
  C  C226  1  0.25573382  0.86207216  0.08225956  1
  C  C227  1  0.75940205  0.83906044  0.07717633  1
  C  C228  1  0.16078444  0.82965277  0.57379552  1
  C  C229  1  0.67510172  0.84340070  0.57874833  1
  C  C230  1  0.25926507  0.67980539  0.57716435  1
  C  C231  1  0.75085536  0.65107933  0.57892157  1
  C  C232  1  0.08313587  0.49035588  0.58045575  1
  C  C233  1  0.58373397  0.48174148  0.57161912  1
  C  C234  1  0.15616935  0.82904855  0.25506801  1
  C  C235  1  0.64108647  0.81623276  0.24218552  1
  C  C236  1  0.25783502  0.66446063  0.25326813  1
  C  C237  1  0.76165841  0.69160898  0.24090419  1
  C  C238  1  0.08623025  0.48772682  0.25282461  1
  C  C239  1  0.56663728  0.45530750  0.24003245  1
  C  C240  1  0.14151075  0.46388319  0.74143894  1
  C  C241  1  0.65791346  0.48664459  0.75547152  1
  C  C242  1  0.06747215  0.67797322  0.74043812  1
  C  C243  1  0.58604177  0.68420937  0.75330939  1
  C  C244  1  0.26153211  0.83314286  0.73995362  1
  C  C245  1  0.75867855  0.85563328  0.75398783  1
