# generated using pymatgen
data_Cu2Ni5C32
_symmetry_space_group_name_H-M   'P 1'
_cell_length_a   18.57872184
_cell_length_b   9.26583217
_cell_length_c   23.32969310
_cell_angle_alpha   90.02889897
_cell_angle_beta   89.21100791
_cell_angle_gamma   119.70584342
_symmetry_Int_Tables_number   1
_chemical_formula_structural   Cu2Ni5C32
_chemical_formula_sum   'Cu12 Ni30 C192'
_cell_volume   3487.92331404
_cell_formula_units_Z   6
loop_
 _symmetry_equiv_pos_site_id
 _symmetry_equiv_pos_as_xyz
  1  'x, y, z'
loop_
 _atom_site_type_symbol
 _atom_site_label
 _atom_site_symmetry_multiplicity
 _atom_site_fract_x
 _atom_site_fract_y
 _atom_site_fract_z
 _atom_site_occupancy
  Ni  Ni0  1  0.18576007  0.37585120  0.23802537  1
  Ni  Ni1  1  0.68596973  0.37694028  0.23822502  1
  Ni  Ni2  1  0.98942344  0.62667857  0.25692769  1
  Ni  Ni3  1  0.49067399  0.62678350  0.25676932  1
  Ni  Ni4  1  0.49020493  0.34882088  0.76241588  1
  Ni  Ni5  1  0.18584234  0.99682072  0.74279604  1
  Ni  Ni6  1  0.68424791  0.99597532  0.74232057  1
  Ni  Ni7  1  0.66291284  0.34519181  0.57841595  1
  Ni  Ni8  1  0.01783331  0.70882059  0.57667702  1
  Ni  Ni9  1  0.82325069  0.95633087  0.59421077  1
  Ni  Ni10  1  0.49639978  0.67724378  0.91084900  1
  Ni  Ni11  1  0.99832678  0.67711835  0.90990960  1
  Ni  Ni12  1  0.85105549  0.04059997  0.90445138  1
  Ni  Ni13  1  0.15413471  0.29197755  0.92591452  1
  Ni  Ni14  1  0.49617817  0.31925478  0.40950525  1
  Ni  Ni15  1  0.99265011  0.31290064  0.40982098  1
  Ni  Ni16  1  0.34853995  0.65921169  0.40396463  1
  Ni  Ni17  1  0.85062874  0.66341492  0.40889187  1
  Ni  Ni18  1  0.02928395  0.00937949  0.49706427  1
  Ni  Ni19  1  0.52457420  0.99008952  0.49448679  1
  Ni  Ni20  1  0.01864789  0.02808267  0.00107405  1
  Ni  Ni21  1  0.52408392  0.05718849  0.99366963  1
  Ni  Ni22  1  0.34550026  0.32417631  0.83279924  1
  Ni  Ni23  1  0.85121524  0.33973333  0.82335039  1
  Ni  Ni24  1  0.34050103  0.33821239  0.32738879  1
  Ni  Ni25  1  0.83899930  0.33641160  0.33090450  1
  Ni  Ni26  1  0.17923397  0.64999889  0.16108587  1
  Ni  Ni27  1  0.67885145  0.65099715  0.16149141  1
  Ni  Ni28  1  0.17834610  0.69288657  0.67106198  1
  Ni  Ni29  1  0.67851363  0.69576953  0.66649512  1
  Cu  Cu30  1  0.00138772  0.99798983  0.35110918  1
  Cu  Cu31  1  0.50177369  0.00015044  0.34997653  1
  Cu  Cu32  1  0.99731922  0.99933454  0.84702028  1
  Cu  Cu33  1  0.49562609  0.00183043  0.85345566  1
  Cu  Cu34  1  0.33300194  0.33084278  0.68420071  1
  Cu  Cu35  1  0.83637139  0.33973784  0.68611561  1
  Cu  Cu36  1  0.33385580  0.33701686  0.18190398  1
  Cu  Cu37  1  0.83364533  0.33653500  0.18221447  1
  Cu  Cu38  1  0.16155485  0.65578614  0.01875202  1
  Cu  Cu39  1  0.65989298  0.65014578  0.01998493  1
  Cu  Cu40  1  0.16520776  0.67324405  0.51761016  1
  Cu  Cu41  1  0.65970533  0.67074339  0.51833686  1
  C  C42  1  0.99615454  0.98373272  0.65091738  1
  C  C43  1  0.49661709  0.97771478  0.65064653  1
  C  C44  1  0.99869482  0.01535639  0.14878322  1
  C  C45  1  0.49847027  0.01366257  0.14893697  1
  C  C46  1  0.32758818  0.31755848  0.98040337  1
  C  C47  1  0.82324982  0.32261645  0.98090497  1
  C  C48  1  0.32430641  0.32514434  0.48087418  1
  C  C49  1  0.82711613  0.34364600  0.48139076  1
  C  C50  1  0.16485931  0.65164220  0.31469208  1
  C  C51  1  0.66375053  0.65212870  0.31525386  1
  C  C52  1  0.16237255  0.67855314  0.81437039  1
  C  C53  1  0.66513745  0.67793814  0.81536022  1
  C  C54  1  0.35048340  0.70671991  0.25146787  1
  C  C55  1  0.85083933  0.70753428  0.25134155  1
  C  C56  1  0.00049328  0.30177079  0.25460318  1
  C  C57  1  0.50046918  0.30227210  0.25433081  1
  C  C58  1  0.00115967  0.69735872  0.75362460  1
  C  C59  1  0.50081271  0.69723257  0.75540982  1
  C  C60  1  0.35065492  0.99406030  0.74861472  1
  C  C61  1  0.84600310  0.99236525  0.75182442  1
  C  C62  1  0.18062444  0.03350004  0.58851571  1
  C  C63  1  0.68334285  0.04301525  0.58782600  1
  C  C64  1  0.83390783  0.63602988  0.58252853  1
  C  C65  1  0.18094405  0.32713143  0.08640696  1
  C  C66  1  0.68007968  0.32644382  0.08931026  1
  C  C67  1  0.01666856  0.37126375  0.91758683  1
  C  C68  1  0.51457429  0.37103668  0.91628698  1
  C  C69  1  0.16674105  0.96685726  0.91692289  1
  C  C70  1  0.66699709  0.96285026  0.91901792  1
  C  C71  1  0.16664293  0.36936790  0.41808827  1
  C  C72  1  0.66614857  0.36726210  0.42024460  1
  C  C73  1  0.01439946  0.65889690  0.41857288  1
  C  C74  1  0.51228705  0.65894893  0.41577513  1
  C  C75  1  0.14587102  0.99195244  0.24725318  1
  C  C76  1  0.64621204  0.99175485  0.24708329  1
  C  C77  1  0.14665719  0.30288370  0.74898229  1
  C  C78  1  0.64276748  0.29417618  0.74712274  1
  C  C79  1  0.47943103  0.31968629  0.58212253  1
  C  C80  1  0.97961786  0.32508551  0.57987736  1
  C  C81  1  0.33752934  0.63385846  0.58087538  1
  C  C82  1  0.48018581  0.64042385  0.08301025  1
  C  C83  1  0.98014285  0.63996452  0.08220761  1
  C  C84  1  0.33637875  0.03837653  0.08292144  1
  C  C85  1  0.83667905  0.03940334  0.08105903  1
  C  C86  1  0.31070040  0.65506731  0.91701329  1
  C  C87  1  0.81237109  0.65886559  0.91718816  1
  C  C88  1  0.31305434  0.96763932  0.41562916  1
  C  C89  1  0.81223784  0.96549420  0.41674301  1
  C  C90  1  0.11009699  0.02277332  0.29994593  1
  C  C91  1  0.61057317  0.02313583  0.29984374  1
  C  C92  1  0.40249882  0.77534398  0.31027771  1
  C  C93  1  0.90396003  0.77620945  0.30975182  1
  C  C94  1  0.49156680  0.20751763  0.31424592  1
  C  C95  1  0.99247544  0.20658247  0.31420044  1
  C  C96  1  0.11095771  0.20773651  0.80355195  1
  C  C97  1  0.60283105  0.18988835  0.79797687  1
  C  C98  1  0.49296775  0.77994527  0.81390492  1
  C  C99  1  0.99772623  0.78414480  0.81299200  1
  C  C100  1  0.41299053  0.04188019  0.80147199  1
  C  C101  1  0.89480845  0.01116573  0.81090652  1
  C  C102  1  0.40233486  0.98083563  0.69131285  1
  C  C103  1  0.90133882  0.99058584  0.69459122  1
  C  C104  1  0.09236521  0.20947987  0.70053482  1
  C  C105  1  0.59220561  0.21100199  0.69482250  1
  C  C106  1  0.01138397  0.82186629  0.69778838  1
  C  C107  1  0.51263204  0.82354767  0.69955603  1
  C  C108  1  0.40765752  0.82711222  0.19758241  1
  C  C109  1  0.90784389  0.82872985  0.19714199  1
  C  C110  1  0.01415304  0.20013868  0.19997035  1
  C  C111  1  0.51332561  0.19843772  0.20028722  1
  C  C112  1  0.09203310  0.97276765  0.19755502  1
  C  C113  1  0.59207907  0.97223880  0.19762883  1
  C  C114  1  0.43910934  0.33759367  0.63436010  1
  C  C115  1  0.93837721  0.34850325  0.63057942  1
  C  C116  1  0.22912822  0.11729241  0.64662320  1
  C  C117  1  0.73296924  0.11792063  0.64661621  1
  C  C118  1  0.32886782  0.53378718  0.63179947  1
  C  C119  1  0.81979096  0.50999984  0.63384223  1
  C  C120  1  0.44035038  0.54205934  0.13622838  1
  C  C121  1  0.94016877  0.54253041  0.13531489  1
  C  C122  1  0.32833222  0.11894338  0.13513086  1
  C  C123  1  0.82938145  0.12430154  0.13250274  1
  C  C124  1  0.22734929  0.33142107  0.14564659  1
  C  C125  1  0.72543695  0.33124221  0.14897768  1
  C  C126  1  0.23615950  0.31657228  0.02993934  1
  C  C127  1  0.73814182  0.31754309  0.03442663  1
  C  C128  1  0.43070552  0.54761811  0.03230817  1
  C  C129  1  0.93097681  0.54830725  0.03121333  1
  C  C130  1  0.34539524  0.14436147  0.03161139  1
  C  C131  1  0.84554961  0.14212780  0.02873879  1
  C  C132  1  0.23826622  0.15312638  0.53241923  1
  C  C133  1  0.73752940  0.17215305  0.53313390  1
  C  C134  1  0.34506788  0.54759696  0.52802647  1
  C  C135  1  0.84902721  0.55100645  0.52280856  1
  C  C136  1  0.43148223  0.31446698  0.53033116  1
  C  C137  1  0.93036436  0.30810858  0.52758070  1
  C  C138  1  0.27345334  0.67764798  0.96974600  1
  C  C139  1  0.77383177  0.68096714  0.96925379  1
  C  C140  1  0.07938482  0.44672232  0.97070196  1
  C  C141  1  0.57156026  0.46447489  0.97007963  1
  C  C142  1  0.15377661  0.84488747  0.96952875  1
  C  C143  1  0.66297784  0.85017917  0.97191998  1
  C  C144  1  0.27493182  0.87003983  0.46818594  1
  C  C145  1  0.77531287  0.87114731  0.47016540  1
  C  C146  1  0.16073075  0.47247004  0.47115586  1
  C  C147  1  0.65925502  0.45550788  0.47797390  1
  C  C148  1  0.06476903  0.68058614  0.47718056  1
  C  C149  1  0.56959311  0.68523194  0.46976029  1
  C  C150  1  0.06853308  0.64832770  0.36184975  1
  C  C151  1  0.56079670  0.64277768  0.35661263  1
  C  C152  1  0.26193244  0.88686345  0.36493865  1
  C  C153  1  0.75970374  0.87822938  0.36670740  1
  C  C154  1  0.18231345  0.48630233  0.35904254  1
  C  C155  1  0.67737749  0.48977430  0.36352451  1
  C  C156  1  0.06656933  0.49558293  0.86161545  1
  C  C157  1  0.56162604  0.48552301  0.85681186  1
  C  C158  1  0.17709634  0.87928481  0.85711078  1
  C  C159  1  0.68349926  0.87776193  0.85950268  1
  C  C160  1  0.25965838  0.63638398  0.86624253  1
  C  C161  1  0.76207164  0.63685319  0.86590829  1
  C  C162  1  0.99132393  0.80663070  0.41478656  1
  C  C163  1  0.48817168  0.80561131  0.41365138  1
  C  C164  1  0.39664113  0.98566954  0.41023948  1
  C  C165  1  0.89538563  0.97962623  0.41076387  1
  C  C166  1  0.08349001  0.19025051  0.41497166  1
  C  C167  1  0.58274941  0.18824754  0.41483543  1
  C  C168  1  0.99655903  0.17899763  0.91179713  1
  C  C169  1  0.49530526  0.18133518  0.91420642  1
  C  C170  1  0.08691258  0.99717141  0.91430177  1
  C  C171  1  0.58351543  0.97511904  0.91494733  1
  C  C172  1  0.39658522  0.79189880  0.91177497  1
  C  C173  1  0.89679984  0.80741792  0.91182443  1
  C  C174  1  0.48611673  0.16647685  0.58436083  1
  C  C175  1  0.98397466  0.16962867  0.58555674  1
  C  C176  1  0.08847640  0.02193144  0.58764016  1
  C  C177  1  0.59318895  0.04154853  0.58898422  1
  C  C178  1  0.41605894  0.79779952  0.58354710  1
  C  C179  1  0.91956024  0.81843547  0.59010191  1
  C  C180  1  0.48330882  0.80358498  0.08634736  1
  C  C181  1  0.98399402  0.80418485  0.08505174  1
  C  C182  1  0.41419895  0.02833332  0.08571196  1
  C  C183  1  0.91514345  0.03038385  0.08437354  1
  C  C184  1  0.08864020  0.15294818  0.08746113  1
  C  C185  1  0.58822611  0.15360403  0.08877722  1
  C  C186  1  0.33245725  0.15073356  0.74391399  1
  C  C187  1  0.82423477  0.14253382  0.74865537  1
  C  C188  1  0.22934163  0.31678960  0.74271461  1
  C  C189  1  0.72630954  0.31461893  0.74242656  1
  C  C190  1  0.42626905  0.50789173  0.74673245  1
  C  C191  1  0.92249930  0.51480473  0.74856805  1
  C  C192  1  0.33325935  0.51423776  0.24537039  1
  C  C193  1  0.83447496  0.51591886  0.24479644  1
  C  C194  1  0.42516801  0.34153318  0.24631773  1
  C  C195  1  0.92518294  0.34086833  0.24650574  1
  C  C196  1  0.23008290  0.13553091  0.24081183  1
  C  C197  1  0.73048640  0.13480153  0.24067197  1
  C  C198  1  0.31373625  0.49497634  0.92163923  1
  C  C199  1  0.82436881  0.51058145  0.92269829  1
  C  C200  1  0.42666053  0.38156147  0.92312525  1
  C  C201  1  0.92773830  0.37222875  0.92611570  1
  C  C202  1  0.25047924  0.15494738  0.92279887  1
  C  C203  1  0.75437922  0.14747312  0.92427825  1
  C  C204  1  0.32411709  0.13858657  0.42094874  1
  C  C205  1  0.82403094  0.13619795  0.42001324  1
  C  C206  1  0.25387684  0.35986547  0.42355677  1
  C  C207  1  0.75438332  0.36149292  0.41993615  1
  C  C208  1  0.42400069  0.47538058  0.42232871  1
  C  C209  1  0.92673170  0.47475226  0.41982950  1
  C  C210  1  0.17150296  0.49201519  0.08360134  1
  C  C211  1  0.67102225  0.49092294  0.08567125  1
  C  C212  1  0.06460095  0.66319710  0.07969552  1
  C  C213  1  0.56485130  0.66503035  0.08092385  1
  C  C214  1  0.26371542  0.87250385  0.07847286  1
  C  C215  1  0.76469588  0.87317765  0.07818594  1
  C  C216  1  0.16220777  0.84112679  0.58453542  1
  C  C217  1  0.67600791  0.86221755  0.58071602  1
  C  C218  1  0.26524008  0.65806880  0.57746007  1
  C  C219  1  0.75477742  0.66503567  0.57919730  1
  C  C220  1  0.06340752  0.47261748  0.57645557  1
  C  C221  1  0.56507397  0.46486492  0.58015504  1
  C  C222  1  0.14816187  0.83490831  0.25255881  1
  C  C223  1  0.64860850  0.83495309  0.25235028  1
  C  C224  1  0.25839528  0.69438683  0.25452305  1
  C  C225  1  0.75836502  0.69347818  0.25532530  1
  C  C226  1  0.08890719  0.48626780  0.25501280  1
  C  C227  1  0.58934015  0.48552520  0.25483858  1
  C  C228  1  0.15523129  0.46943884  0.75215720  1
  C  C229  1  0.64606036  0.45736425  0.75154769  1
  C  C230  1  0.09127859  0.69774671  0.75213953  1
  C  C231  1  0.59014490  0.69344316  0.75449533  1
  C  C232  1  0.25982188  0.82346982  0.75485704  1
  C  C233  1  0.75622978  0.81349339  0.75260523  1
