# generated using pymatgen
data_Cu2Ni3C4
_symmetry_space_group_name_H-M   'P 1'
_cell_length_a   12.38891161
_cell_length_b   12.38891161
_cell_length_c   12.38891161
_cell_angle_alpha   117.68390353
_cell_angle_beta   117.68390353
_cell_angle_gamma   94.06070892
_symmetry_Int_Tables_number   1
_chemical_formula_structural   Cu2Ni3C4
_chemical_formula_sum   'Cu8 Ni12 C16'
_cell_volume   1387.87302712
_cell_formula_units_Z   4
loop_
 _symmetry_equiv_pos_site_id
 _symmetry_equiv_pos_as_xyz
  1  'x, y, z'
loop_
 _atom_site_type_symbol
 _atom_site_label
 _atom_site_symmetry_multiplicity
 _atom_site_fract_x
 _atom_site_fract_y
 _atom_site_fract_z
 _atom_site_occupancy
  C  C0  1  0.77392400  0.90853700  0.12911600  1
  C  C1  1  0.98569700  0.95703400  0.22314300  1
  C  C2  1  0.73389200  0.76255500  0.77685700  1
  C  C3  1  0.51255500  0.98389200  0.27685700  1
  C  C4  1  0.23744500  0.01430300  0.97133700  1
  C  C5  1  0.04296600  0.26610800  0.02866300  1
  C  C6  1  0.01610800  0.29296600  0.52866300  1
  C  C7  1  0.76430300  0.48744500  0.47133700  1
  C  C8  1  0.70703400  0.23569700  0.72314300  1
  C  C9  1  0.77942100  0.64480800  0.87088400  1
  C  C10  1  0.65853700  0.02392400  0.62911600  1
  C  C11  1  0.09146300  0.22057900  0.86538800  1
  C  C12  1  0.39480800  0.02942100  0.37088400  1
  C  C13  1  0.35519200  0.22607600  0.13461200  1
  C  C14  1  0.97607600  0.60519200  0.63461200  1
  C  C15  1  0.97057900  0.34146300  0.36538800  1
  Ni  Ni16  1  0.43783300  0.93783300  0.50000000  1
  Ni  Ni17  1  0.74157200  0.94956400  0.95628400  1
  Ni  Ni18  1  0.31216700  0.31216700  0.00000000  1
  Ni  Ni19  1  0.69956400  0.99157200  0.45628400  1
  Ni  Ni20  1  0.05043600  0.00672000  0.79200700  1
  Ni  Ni21  1  0.21471200  0.25842800  0.20799300  1
  Ni  Ni22  1  0.00842800  0.46471200  0.70799300  1
  Ni  Ni23  1  0.75672000  0.30043600  0.29200700  1
  Ni  Ni24  1  0.53528800  0.24328000  0.54371600  1
  Ni  Ni25  1  0.68783300  0.68783300  0.00000000  1
  Ni  Ni26  1  0.06216700  0.56216700  0.50000000  1
  Ni  Ni27  1  0.99328000  0.78528800  0.04371600  1
  Cu  Cu28  1  0.65732100  0.29646400  0.91310800  1
  Cu  Cu29  1  0.70353600  0.61664400  0.36085700  1
  Cu  Cu30  1  0.25578800  0.34267900  0.63914300  1
  Cu  Cu31  1  0.09267900  0.50578800  0.13914300  1
  Cu  Cu32  1  0.36664400  0.95353600  0.86085700  1
  Cu  Cu33  1  0.38335600  0.74421200  0.08689200  1
  Cu  Cu34  1  0.49421200  0.63335600  0.58689200  1
  Cu  Cu35  1  0.04646400  0.90732100  0.41310800  1
