# generated using pymatgen
data_Cu2Ni8C5
_symmetry_space_group_name_H-M   'P 1'
_cell_length_a   5.98728700
_cell_length_b   10.77168600
_cell_length_c   15.29826700
_cell_angle_alpha   90.00000000
_cell_angle_beta   90.00000000
_cell_angle_gamma   90.00000000
_symmetry_Int_Tables_number   1
_chemical_formula_structural   Cu2Ni8C5
_chemical_formula_sum   'Cu16 Ni64 C40'
_cell_volume   986.63381933
_cell_formula_units_Z   8
loop_
 _symmetry_equiv_pos_site_id
 _symmetry_equiv_pos_as_xyz
  1  'x, y, z'
loop_
 _atom_site_type_symbol
 _atom_site_label
 _atom_site_symmetry_multiplicity
 _atom_site_fract_x
 _atom_site_fract_y
 _atom_site_fract_z
 _atom_site_occupancy
  C  C0  1  0.25935800  0.41818500  0.50056600  1
  C  C1  1  0.25630800  0.08016800  0.24970500  1
  C  C2  1  0.75630800  0.58016800  0.25029500  1
  C  C3  1  0.24369200  0.08016800  0.74970500  1
  C  C4  1  0.75935800  0.91818500  0.99943400  1
  C  C5  1  0.24064200  0.41818500  0.00056600  1
  C  C6  1  0.74064200  0.91818500  0.49943400  1
  C  C7  1  0.74369200  0.58016800  0.75029500  1
  Ni  Ni8  1  0.85194200  0.18115700  0.69998400  1
  Ni  Ni9  1  0.14805800  0.68115700  0.30001600  1
  Ni  Ni10  1  0.64805800  0.18115700  0.19998400  1
  Ni  Ni11  1  0.35194200  0.68115700  0.80001600  1
  Ni  Ni12  1  0.57916900  0.17290000  0.66576300  1
  Ni  Ni13  1  0.42083100  0.67290000  0.33423700  1
  Ni  Ni14  1  0.92083100  0.17290000  0.16576300  1
  Ni  Ni15  1  0.07916900  0.67290000  0.83423700  1
  Ni  Ni16  1  0.78361600  0.14710200  0.59308300  1
  Ni  Ni17  1  0.21638400  0.64710200  0.40691700  1
  Ni  Ni18  1  0.71638400  0.14710200  0.09308300  1
  Ni  Ni19  1  0.28361600  0.64710200  0.90691700  1
  Ni  Ni20  1  0.74050800  0.29108500  0.63325900  1
  Ni  Ni21  1  0.25949200  0.79108500  0.36674100  1
  Ni  Ni22  1  0.75949200  0.29108500  0.13325900  1
  Ni  Ni23  1  0.24050800  0.79108500  0.86674100  1
  Ni  Ni24  1  0.90176700  0.92548400  0.78133900  1
  Ni  Ni25  1  0.09823300  0.42548400  0.21866100  1
  Ni  Ni26  1  0.59823300  0.92548400  0.28133900  1
  Ni  Ni27  1  0.40176700  0.42548400  0.71866100  1
  Ni  Ni28  1  0.63200600  0.97581900  0.79338700  1
  Ni  Ni29  1  0.36799400  0.47581900  0.20661300  1
  Ni  Ni30  1  0.86799400  0.97581900  0.29338700  1
  Ni  Ni31  1  0.13200600  0.47581900  0.70661300  1
  Ni  Ni32  1  0.70686500  0.82899700  0.82111600  1
  Ni  Ni33  1  0.29313500  0.32899700  0.17888400  1
  Ni  Ni34  1  0.79313500  0.82899700  0.32111600  1
  Ni  Ni35  1  0.20686500  0.32899700  0.67888400  1
  Ni  Ni36  1  0.70187700  0.87151000  0.71413800  1
  Ni  Ni37  1  0.78135200  0.67777500  0.06487200  1
  Ni  Ni38  1  0.29812300  0.37151000  0.28586200  1
  Ni  Ni39  1  0.20187700  0.37151000  0.78586200  1
  Ni  Ni40  1  0.90199400  0.31976200  0.91334300  1
  Ni  Ni41  1  0.09800600  0.81976200  0.08665700  1
  Ni  Ni42  1  0.59800600  0.31976200  0.41334300  1
  Ni  Ni43  1  0.40199400  0.81976200  0.58665700  1
  Ni  Ni44  1  0.63126500  0.32195700  0.95084600  1
  Ni  Ni45  1  0.36873500  0.82195700  0.04915400  1
  Ni  Ni46  1  0.86873500  0.32195700  0.45084600  1
  Ni  Ni47  1  0.13126500  0.82195700  0.54915400  1
  Ni  Ni48  1  0.69745100  0.35526400  0.84326400  1
  Ni  Ni49  1  0.30254900  0.85526400  0.15673600  1
  Ni  Ni50  1  0.80254900  0.35526400  0.34326400  1
  Ni  Ni51  1  0.19745100  0.85526400  0.65673600  1
  Ni  Ni52  1  0.71850900  0.20944100  0.88193100  1
  Ni  Ni53  1  0.28149100  0.70944100  0.11806900  1
  Ni  Ni54  1  0.78149100  0.20944100  0.38193100  1
  Ni  Ni55  1  0.21850900  0.70944100  0.61806900  1
  Ni  Ni56  1  0.85785500  0.52756900  0.04481000  1
  Ni  Ni57  1  0.14214500  0.02756900  0.95519000  1
  Ni  Ni58  1  0.64214500  0.52756900  0.54481000  1
  Ni  Ni59  1  0.35785500  0.02756900  0.45519000  1
  Ni  Ni60  1  0.58725000  0.57502100  0.03286000  1
  Ni  Ni61  1  0.41275000  0.07502100  0.96714000  1
  Ni  Ni62  1  0.91275000  0.57502100  0.53286000  1
  Ni  Ni63  1  0.08725000  0.07502100  0.46714000  1
  Ni  Ni64  1  0.27876400  0.12205600  0.53930900  1
  Ni  Ni65  1  0.72123600  0.62205600  0.46069100  1
  Ni  Ni66  1  0.22123600  0.12205600  0.03930900  1
  Ni  Ni67  1  0.77876400  0.62205600  0.96069100  1
  Ni  Ni68  1  0.28135200  0.17777500  0.43512800  1
  Ni  Ni69  1  0.71864800  0.67777500  0.56487200  1
  Ni  Ni70  1  0.21864800  0.17777500  0.93512800  1
  Ni  Ni71  1  0.79812300  0.87151000  0.21413800  1
  Cu  Cu72  1  0.75332900  0.60088100  0.02630400  1
  Cu  Cu73  1  0.26394200  0.80141700  0.10184700  1
  Cu  Cu74  1  0.76394200  0.30141700  0.39815300  1
  Cu  Cu75  1  0.23439700  0.40018000  0.72235600  1
  Cu  Cu76  1  0.73605800  0.30141700  0.89815300  1
  Cu  Cu77  1  0.24667100  0.10088100  0.97369600  1
  Cu  Cu78  1  0.74667100  0.60088100  0.52630400  1
  Cu  Cu79  1  0.25332900  0.10088100  0.47369600  1
  Cu  Cu80  1  0.76560300  0.90018000  0.27764400  1
  Cu  Cu81  1  0.26560300  0.40018000  0.22235600  1
  Cu  Cu82  1  0.73439700  0.90018000  0.77764400  1
  Cu  Cu83  1  0.24079400  0.69835600  0.85132100  1
  Cu  Cu84  1  0.75920600  0.19835600  0.14867900  1
  Cu  Cu85  1  0.25920600  0.69835600  0.35132100  1
  Cu  Cu86  1  0.23605800  0.80141700  0.60184700  1
  Cu  Cu87  1  0.74079400  0.19835600  0.64867900  1
  C  C88  1  0.46128900  0.10222500  0.80448400  1
  C  C89  1  0.31194600  0.93687300  0.24973100  1
  C  C90  1  0.81194600  0.43687300  0.25026900  1
  C  C91  1  0.18805400  0.93687300  0.74973100  1
  C  C92  1  0.68805400  0.43687300  0.75026900  1
  C  C93  1  0.20576900  0.12772800  0.15390800  1
  C  C94  1  0.70576900  0.62772800  0.34609200  1
  C  C95  1  0.29423100  0.12772800  0.65390800  1
  C  C96  1  0.97582200  0.89805000  0.94423100  1
  C  C97  1  0.02417800  0.39805000  0.05576900  1
  C  C98  1  0.52417800  0.89805000  0.44423100  1
  C  C99  1  0.47582200  0.39805000  0.55576900  1
  C  C100  1  0.54991800  0.84938500  0.96257300  1
  C  C101  1  0.45008200  0.34938500  0.03742700  1
  C  C102  1  0.95008200  0.84938500  0.46257300  1
  C  C103  1  0.04991800  0.34938500  0.53742700  1
  C  C104  1  0.70375500  0.06123600  0.00187000  1
  C  C105  1  0.29624500  0.56123600  0.99813000  1
  C  C106  1  0.79624500  0.06123600  0.50187000  1
  C  C107  1  0.20375500  0.56123600  0.49813000  1
  C  C108  1  0.80887500  0.86422000  0.09406300  1
  C  C109  1  0.19112500  0.36422000  0.90593700  1
  C  C110  1  0.69112500  0.86422000  0.59406300  1
  C  C111  1  0.30887500  0.36422000  0.40593700  1
  C  C112  1  0.53871100  0.60222500  0.19551600  1
  C  C113  1  0.03871100  0.10222500  0.30448400  1
  C  C114  1  0.96128900  0.60222500  0.69551600  1
  C  C115  1  0.03486800  0.15099900  0.78424000  1
  C  C116  1  0.96513200  0.65099900  0.21576000  1
  C  C117  1  0.46513200  0.15099900  0.28424000  1
  C  C118  1  0.53486800  0.65099900  0.71576000  1
  C  C119  1  0.79423100  0.62772800  0.84609200  1
