# generated using pymatgen
data_Cu6NiC12
_symmetry_space_group_name_H-M   'P 1'
_cell_length_a   4.91706968
_cell_length_b   7.52448581
_cell_length_c   5.55829293
_cell_angle_alpha   96.05004486
_cell_angle_beta   93.60600469
_cell_angle_gamma   87.39349101
_symmetry_Int_Tables_number   1
_chemical_formula_structural   Cu6NiC12
_chemical_formula_sum   'Cu6 Ni1 C12'
_cell_volume   203.94134729
_cell_formula_units_Z   1
loop_
 _symmetry_equiv_pos_site_id
 _symmetry_equiv_pos_as_xyz
  1  'x, y, z'
loop_
 _atom_site_type_symbol
 _atom_site_label
 _atom_site_symmetry_multiplicity
 _atom_site_fract_x
 _atom_site_fract_y
 _atom_site_fract_z
 _atom_site_occupancy
  Ni  Ni0  1  0.00681600  0.83512700  0.33932400  1
  Cu  Cu1  1  0.50399200  0.00361800  0.48605700  1
  Cu  Cu2  1  0.51916200  0.66144600  0.15071500  1
  Cu  Cu3  1  0.49870300  0.32644900  0.83176600  1
  Cu  Cu4  1  0.98037900  0.64411400  0.71267500  1
  Cu  Cu5  1  0.99281000  0.31802500  0.32971100  1
  Cu  Cu6  1  0.00919700  0.01219800  0.95715900  1
  C  C7  1  0.81164600  0.42223300  0.63725600  1
  C  C8  1  0.83768900  0.77298200  0.99159700  1
  C  C9  1  0.84642800  0.08545700  0.27488300  1
  C  C10  1  0.68572800  0.09422000  0.78796100  1
  C  C11  1  0.67840000  0.75903300  0.46999700  1
  C  C12  1  0.68605500  0.42291700  0.13447100  1
  C  C13  1  0.31376300  0.55733000  0.86840500  1
  C  C14  1  0.31382400  0.23411200  0.52231400  1
  C  C15  1  0.32276000  0.89832700  0.18037800  1
  C  C16  1  0.18263600  0.23272000  0.02161800  1
  C  C17  1  0.15711500  0.87928000  0.68308500  1
  C  C18  1  0.15289400  0.57255300  0.37063000  1
