# generated using pymatgen
data_Cu7(NiC)5
_symmetry_space_group_name_H-M   'P 1'
_cell_length_a   5.21203844
_cell_length_b   5.54263525
_cell_length_c   9.07572962
_cell_angle_alpha   74.43407454
_cell_angle_beta   90.52137306
_cell_angle_gamma   59.96920112
_symmetry_Int_Tables_number   1
_chemical_formula_structural   Cu7(NiC)5
_chemical_formula_sum   'Cu7 Ni5 C5'
_cell_volume   215.40534913
_cell_formula_units_Z   1
loop_
 _symmetry_equiv_pos_site_id
 _symmetry_equiv_pos_as_xyz
  1  'x, y, z'
loop_
 _atom_site_type_symbol
 _atom_site_label
 _atom_site_symmetry_multiplicity
 _atom_site_fract_x
 _atom_site_fract_y
 _atom_site_fract_z
 _atom_site_occupancy
  C  C0  1  0.19255500  0.59798400  0.40345800  1
  C  C1  1  0.72706400  0.52342600  0.24911400  1
  C  C2  1  0.45565000  0.96245000  0.50556300  1
  C  C3  1  0.29427700  0.47941300  0.77419400  1
  C  C4  1  0.03202800  0.00302100  0.00118800  1
  Ni  Ni5  1  0.47280800  0.75098400  0.37331600  1
  Ni  Ni6  1  0.44336200  0.74085400  0.08074600  1
  Ni  Ni7  1  0.40244400  0.76151100  0.66890400  1
  Ni  Ni8  1  0.58962900  0.25554000  0.91639300  1
  Ni  Ni9  1  0.07219500  0.28965700  0.40720200  1
  Cu  Cu10  1  0.91740300  0.75312500  0.55203500  1
  Cu  Cu11  1  0.93144300  0.77315700  0.19363500  1
  Cu  Cu12  1  0.98312200  0.26022400  0.12241400  1
  Cu  Cu13  1  0.56103300  0.26618400  0.33319600  1
  Cu  Cu14  1  0.44641200  0.27959800  0.61200900  1
  Cu  Cu15  1  0.02507600  0.75632700  0.87430600  1
  Cu  Cu16  1  0.07850000  0.27154300  0.81803900  1
