# generated using pymatgen
data_CuNiC5
_symmetry_space_group_name_H-M   'P 1'
_cell_length_a   16.45767800
_cell_length_b   8.56084400
_cell_length_c   17.05865621
_cell_angle_alpha   80.34027861
_cell_angle_beta   90.00000000
_cell_angle_gamma   90.00000000
_symmetry_Int_Tables_number   1
_chemical_formula_structural   CuNiC5
_chemical_formula_sum   'Cu16 Ni16 C80'
_cell_volume   2369.34510741
_cell_formula_units_Z   16
loop_
 _symmetry_equiv_pos_site_id
 _symmetry_equiv_pos_as_xyz
  1  'x, y, z'
loop_
 _atom_site_type_symbol
 _atom_site_label
 _atom_site_symmetry_multiplicity
 _atom_site_fract_x
 _atom_site_fract_y
 _atom_site_fract_z
 _atom_site_occupancy
  Ni  Ni0  1  0.21923400  0.13694100  0.27485000  1
  Ni  Ni1  1  0.71923400  0.86305900  0.22515000  1
  Ni  Ni2  1  0.78076600  0.86305900  0.72515000  1
  Ni  Ni3  1  0.28076600  0.13694100  0.77485000  1
  Ni  Ni4  1  0.24015800  0.02240500  0.03335100  1
  Ni  Ni5  1  0.74015800  0.97759500  0.46664900  1
  Ni  Ni6  1  0.75984200  0.97759500  0.96664900  1
  Ni  Ni7  1  0.25984200  0.02240500  0.53335100  1
  Ni  Ni8  1  0.99483300  0.91253400  0.26896700  1
  Ni  Ni9  1  0.49483300  0.08746600  0.23103300  1
  Ni  Ni10  1  0.00516700  0.08746600  0.73103300  1
  Ni  Ni11  1  0.50516700  0.91253400  0.76896700  1
  Ni  Ni12  1  0.28605500  0.58605600  0.30280500  1
  Ni  Ni13  1  0.78605500  0.41394400  0.19719500  1
  Ni  Ni14  1  0.71394500  0.41394400  0.69719500  1
  Ni  Ni15  1  0.21394500  0.58605600  0.80280500  1
  Cu  Cu16  1  0.50764700  0.73003100  0.52000200  1
  Cu  Cu17  1  0.00764700  0.26996900  0.97999800  1
  Cu  Cu18  1  0.49235300  0.26996900  0.47999800  1
  Cu  Cu19  1  0.99235300  0.73003100  0.02000200  1
  Cu  Cu20  1  0.58459000  0.49816200  0.40565500  1
  Cu  Cu21  1  0.08459000  0.50183800  0.09434500  1
  Cu  Cu22  1  0.41541000  0.50183800  0.59434500  1
  Cu  Cu23  1  0.91541000  0.49816200  0.90565500  1
  Cu  Cu24  1  0.51890600  0.65213100  0.08553800  1
  Cu  Cu25  1  0.01890600  0.34786900  0.41446200  1
  Cu  Cu26  1  0.48109400  0.34786900  0.91446200  1
  Cu  Cu27  1  0.98109400  0.65213100  0.58553800  1
  Cu  Cu28  1  0.38414500  0.56970900  0.02193200  1
  Cu  Cu29  1  0.88414500  0.43029100  0.47806800  1
  Cu  Cu30  1  0.61585500  0.43029100  0.97806800  1
  Cu  Cu31  1  0.11585500  0.56970900  0.52193200  1
  C  C32  1  0.17429500  0.28013100  0.18259300  1
  C  C33  1  0.67429500  0.71986900  0.31740700  1
  C  C34  1  0.82570500  0.71986900  0.81740700  1
  C  C35  1  0.32570500  0.28013100  0.68259300  1
  C  C36  1  0.24970800  0.99524400  0.64749900  1
  C  C37  1  0.74970800  0.00475600  0.85250100  1
  C  C38  1  0.75029200  0.00475600  0.35250100  1
  C  C39  1  0.25029200  0.99524400  0.14749900  1
  C  C40  1  0.28082800  0.80523000  0.31166600  1
  C  C41  1  0.78082800  0.19477000  0.18833400  1
  C  C42  1  0.71917200  0.19477000  0.68833400  1
  C  C43  1  0.21917200  0.80523000  0.81166600  1
  C  C44  1  0.24294200  0.24544500  0.52474600  1
  C  C45  1  0.74294200  0.75455500  0.97525400  1
  C  C46  1  0.75705800  0.75455500  0.47525400  1
  C  C47  1  0.25705800  0.24544500  0.02474600  1
  C  C48  1  0.37598800  0.05556400  0.54452700  1
  C  C49  1  0.87598800  0.94443600  0.95547300  1
  C  C50  1  0.62401200  0.94443600  0.45547300  1
  C  C51  1  0.12401200  0.05556400  0.04452700  1
  C  C52  1  0.13974800  0.22408000  0.34203800  1
  C  C53  1  0.63974800  0.77592000  0.15796200  1
  C  C54  1  0.86025200  0.77592000  0.65796200  1
  C  C55  1  0.36025200  0.22408000  0.84203800  1
  C  C56  1  0.28956200  0.35379600  0.29663000  1
  C  C57  1  0.78956200  0.64620400  0.20337000  1
  C  C58  1  0.71043800  0.64620400  0.70337000  1
  C  C59  1  0.21043800  0.35379600  0.79663000  1
  C  C60  1  0.11300700  0.97423600  0.26072000  1
  C  C61  1  0.61300700  0.02576400  0.23928000  1
  C  C62  1  0.88699300  0.02576400  0.73928000  1
  C  C63  1  0.38699300  0.97423600  0.76072000  1
  C  C64  1  0.27671100  0.04987300  0.41908100  1
  C  C65  1  0.77671100  0.95012700  0.08091900  1
  C  C66  1  0.72328900  0.95012700  0.58091900  1
  C  C67  1  0.22328900  0.04987300  0.91908100  1
  C  C68  1  0.14667700  0.98695100  0.52045500  1
  C  C69  1  0.64667700  0.01304900  0.97954500  1
  C  C70  1  0.85332300  0.01304900  0.47954500  1
  C  C71  1  0.35332300  0.98695100  0.02045500  1
  C  C72  1  0.28068100  0.80032500  0.54057000  1
  C  C73  1  0.78068100  0.19967500  0.95943000  1
  C  C74  1  0.71931900  0.19967500  0.45943000  1
  C  C75  1  0.21931900  0.80032500  0.04057000  1
  C  C76  1  0.97489700  0.10093600  0.31170700  1
  C  C77  1  0.47489700  0.89906400  0.18829300  1
  C  C78  1  0.02510300  0.89906400  0.68829300  1
  C  C79  1  0.52510300  0.10093600  0.81170700  1
  C  C80  1  0.01824200  0.79897600  0.37256100  1
  C  C81  1  0.51824200  0.20102400  0.12743900  1
  C  C82  1  0.98175800  0.20102400  0.62743900  1
  C  C83  1  0.48175800  0.79897600  0.87256100  1
  C  C84  1  0.02184700  0.72940200  0.22427400  1
  C  C85  1  0.52184700  0.27059800  0.27572600  1
  C  C86  1  0.97815300  0.27059800  0.77572600  1
  C  C87  1  0.47815300  0.72940200  0.72427400  1
  C  C88  1  0.37867300  0.55262400  0.37076300  1
  C  C89  1  0.87867300  0.44737600  0.12923700  1
  C  C90  1  0.62132700  0.44737600  0.62923700  1
  C  C91  1  0.12132700  0.55262400  0.87076300  1
  C  C92  1  0.97981800  0.02781900  0.16405600  1
  C  C93  1  0.47981800  0.97218100  0.33594400  1
  C  C94  1  0.02018200  0.97218100  0.83594400  1
  C  C95  1  0.52018200  0.02781900  0.66405600  1
  C  C96  1  0.38245900  0.14829200  0.22140100  1
  C  C97  1  0.88245900  0.85170800  0.27859900  1
  C  C98  1  0.61754100  0.85170800  0.77859900  1
  C  C99  1  0.11754100  0.14829200  0.72140100  1
  C  C100  1  0.69194100  0.40012100  0.26318400  1
  C  C101  1  0.19194100  0.59987900  0.23681600  1
  C  C102  1  0.30805900  0.59987900  0.73681600  1
  C  C103  1  0.80805900  0.40012100  0.76318400  1
  C  C104  1  0.71787600  0.47102000  0.10518400  1
  C  C105  1  0.21787600  0.52898000  0.39481600  1
  C  C106  1  0.28212400  0.52898000  0.89481600  1
  C  C107  1  0.78212400  0.47102000  0.60518400  1
  C  C108  1  0.85450200  0.38036900  0.28845300  1
  C  C109  1  0.35450200  0.61963100  0.21154700  1
  C  C110  1  0.14549800  0.61963100  0.71154700  1
  C  C111  1  0.64549800  0.38036900  0.78845300  1
