# generated using pymatgen
data_Cu2Ni2C31
_symmetry_space_group_name_H-M   'P 1'
_cell_length_a   17.45828331
_cell_length_b   8.74367398
_cell_length_c   22.81039088
_cell_angle_alpha   90.03151504
_cell_angle_beta   89.91148616
_cell_angle_gamma   120.08747607
_symmetry_Int_Tables_number   1
_chemical_formula_structural   Cu2Ni2C31
_chemical_formula_sum   'Cu12 Ni12 C186'
_cell_volume   3012.83139089
_cell_formula_units_Z   6
loop_
 _symmetry_equiv_pos_site_id
 _symmetry_equiv_pos_as_xyz
  1  'x, y, z'
loop_
 _atom_site_type_symbol
 _atom_site_label
 _atom_site_symmetry_multiplicity
 _atom_site_fract_x
 _atom_site_fract_y
 _atom_site_fract_z
 _atom_site_occupancy
  C  C0  1  0.99772144  0.98758835  0.49392752  1
  C  C1  1  0.49894602  0.00587106  0.99943727  1
  C  C2  1  0.33287087  0.32767559  0.83653535  1
  C  C3  1  0.83918209  0.34113949  0.83262528  1
  C  C4  1  0.33665621  0.33114258  0.33063324  1
  C  C5  1  0.83915371  0.34154560  0.33873833  1
  Ni  Ni6  1  0.99869420  0.98678552  0.35580101  1
  Ni  Ni7  1  0.00539324  0.00357442  0.85444810  1
  Ni  Ni8  1  0.33027187  0.32987483  0.68191834  1
  Ni  Ni9  1  0.83612451  0.33860229  0.67967129  1
  Ni  Ni10  1  0.33752261  0.32737350  0.18630013  1
  Ni  Ni11  1  0.83525397  0.33614872  0.18377034  1
  Ni  Ni12  1  0.33554392  0.32781153  0.97973758  1
  Ni  Ni13  1  0.83878226  0.33983011  0.98368501  1
  Ni  Ni14  1  0.33597725  0.33613363  0.48429952  1
  Ni  Ni15  1  0.83773875  0.34228455  0.48008819  1
  Ni  Ni16  1  0.66839477  0.66994193  0.52230422  1
  Ni  Ni17  1  0.16103793  0.66278495  0.81164046  1
  C  C18  1  0.49781697  0.29517126  0.25092433  1
  C  C19  1  0.51826429  0.37669790  0.91652323  1
  C  C20  1  0.01590636  0.66528178  0.41747559  1
  Cu  Cu21  1  0.50096744  0.00818310  0.35390067  1
  Cu  Cu22  1  0.49693041  0.00519873  0.85291117  1
  Cu  Cu23  1  0.99931755  0.99592971  0.65040986  1
  Cu  Cu24  1  0.50079143  0.00360885  0.64252663  1
  Cu  Cu25  1  0.00116382  0.00153183  0.14823916  1
  Cu  Cu26  1  0.50017302  0.00677479  0.15030124  1
  Cu  Cu27  1  0.16457191  0.66497768  0.01758563  1
  Cu  Cu28  1  0.66511685  0.65763699  0.02046314  1
  Cu  Cu29  1  0.16238784  0.66593334  0.51921721  1
  Cu  Cu30  1  0.16005773  0.66248111  0.31445088  1
  Cu  Cu31  1  0.66640371  0.66042751  0.31390316  1
  Cu  Cu32  1  0.66651902  0.66314154  0.81416047  1
  C  C33  1  0.14634863  0.00299731  0.25091223  1
  C  C34  1  0.64873318  0.00241805  0.25022179  1
  C  C35  1  0.35150118  0.70448294  0.25163917  1
  C  C36  1  0.85512724  0.70665563  0.25041648  1
  C  C37  1  0.99860706  0.28838969  0.25131610  1
  C  C38  1  0.14753400  0.29354844  0.75130309  1
  C  C39  1  0.64803558  0.29155421  0.74951334  1
  C  C40  1  0.99863104  0.70462004  0.75199112  1
  C  C41  1  0.49975944  0.70919222  0.74998685  1
  C  C42  1  0.35208454  -0.00085978  0.74848764  1
  C  C43  1  0.85353463  0.00261736  0.75249172  1
  C  C44  1  0.47882050  0.33869188  0.58353541  1
  C  C45  1  0.97904494  0.33013850  0.58391120  1
  C  C46  1  0.18848449  0.04314265  0.58317913  1
  C  C47  1  0.69058954  0.04382596  0.58318212  1
  C  C48  1  0.33159132  0.62248186  0.58276022  1
  C  C49  1  0.83200991  0.62413366  0.58379446  1
  C  C50  1  0.47887282  0.62762420  0.08377478  1
  C  C51  1  0.97884353  0.62521469  0.08386799  1
  C  C52  1  0.33192629  0.03861873  0.08240807  1
  C  C53  1  0.83298605  0.04174602  0.08328643  1
  C  C54  1  0.18952833  0.33455257  0.08336626  1
  C  C55  1  0.68944710  0.33174086  0.08305130  1
  C  C56  1  0.31039071  0.66173214  0.91519723  1
  C  C57  1  0.81542950  0.66827445  0.91685439  1
  C  C58  1  0.01920451  0.37231308  0.91523378  1
  C  C59  1  0.16609881  0.95783784  0.91485926  1
  C  C60  1  0.66863908  0.96253024  0.91652161  1
  C  C61  1  0.31334771  0.96066011  0.41695175  1
  C  C62  1  0.81075100  0.95631668  0.41730197  1
  C  C63  1  0.16904881  0.37455393  0.41654585  1
  C  C64  1  0.66768500  0.37494505  0.41856258  1
  C  C65  1  0.51956898  0.66678272  0.41704793  1
  C  C66  1  0.10485216  0.02929378  0.30211192  1
  C  C67  1  0.60760825  0.03101882  0.30351324  1
  C  C68  1  0.40869006  0.78425898  0.30440622  1
  C  C69  1  0.90988125  0.78807296  0.30155987  1
  C  C70  1  0.47911782  0.16763779  0.30833993  1
  C  C71  1  0.98614432  0.18038072  0.30265482  1
  C  C72  1  0.10595162  0.17811198  0.80214567  1
  C  C73  1  0.60756048  0.17972790  0.80344356  1
  C  C74  1  0.48528602  0.79010668  0.80473602  1
  C  C75  1  0.98228988  0.78822630  0.80259133  1
  C  C76  1  0.41065208  0.03645445  0.80230632  1
  C  C77  1  0.90740723  0.02682939  0.80425518  1
  C  C78  1  0.39561083  0.96716586  0.69650934  1
  C  C79  1  0.88883890  0.96416793  0.69751659  1
  C  C80  1  0.09112469  0.21506185  0.69571707  1
  C  C81  1  0.58975812  0.21230337  0.69769108  1
  C  C82  1  0.01596910  0.81510336  0.69615477  1
  C  C83  1  0.51564415  0.82324747  0.69770175  1
  C  C84  1  0.39000272  0.81534845  0.19768468  1
  C  C85  1  0.89224693  0.81697475  0.19490738  1
  C  C86  1  0.01553819  0.21386931  0.19553237  1
  C  C87  1  0.52134508  0.21395765  0.19261583  1
  C  C88  1  0.09009182  0.96248397  0.19573350  1
  C  C89  1  0.59147836  0.96270255  0.19680411  1
  C  C90  1  0.43899391  0.36227641  0.63744528  1
  C  C91  1  0.94241170  0.36010584  0.63759510  1
  C  C92  1  0.23942189  0.11896829  0.63683621  1
  C  C93  1  0.74049593  0.12074219  0.63792751  1
  C  C94  1  0.31691311  0.51935236  0.63642051  1
  C  C95  1  0.82037763  0.52396639  0.63823324  1
  C  C96  1  0.44164226  0.52450333  0.13665599  1
  C  C97  1  0.94147196  0.51838250  0.13639475  1
  C  C98  1  0.31751757  0.11102675  0.13570934  1
  C  C99  1  0.81664893  0.11478398  0.13624340  1
  C  C100  1  0.24158311  0.36502094  0.13659128  1
  C  C101  1  0.73974934  0.35672082  0.13644576  1
  C  C102  1  0.22653730  0.30312993  0.03029435  1
  C  C103  1  0.72728379  0.30408646  0.02933709  1
  C  C104  1  0.42687728  0.55710295  0.03030499  1
  C  C105  1  0.92609553  0.55256372  0.03059863  1
  C  C106  1  0.34888524  0.14554183  0.02970839  1
  C  C107  1  0.84814158  0.14665929  0.03001959  1
  C  C108  1  0.22509850  0.14878172  0.53014244  1
  C  C109  1  0.72729930  0.15594108  0.53143482  1
  C  C110  1  0.34812056  0.54978089  0.52997620  1
  C  C111  1  0.85152207  0.55199826  0.53193847  1
  C  C112  1  0.42261451  0.29772159  0.53125235  1
  C  C113  1  0.92680652  0.29745279  0.53127906  1
  C  C114  1  0.27597461  0.70344565  0.97033442  1
  C  C115  1  0.77489684  0.70305972  0.96997699  1
  C  C116  1  0.07472839  0.44949974  0.97106673  1
  C  C117  1  0.58220081  0.45549558  0.97438039  1
  C  C118  1  0.14994644  0.84813753  0.97119739  1
  C  C119  1  0.65173838  0.85171544  0.96975041  1
  C  C120  1  0.27520026  0.84879576  0.47009259  1
  C  C121  1  0.76947489  0.84211696  0.46845011  1
  C  C122  1  0.15473893  0.45618034  0.47066056  1
  C  C123  1  0.65016638  0.45525481  0.46909285  1
  C  C124  1  0.08252667  0.70937133  0.47460544  1
  C  C125  1  0.57449640  0.70028583  0.46868117  1
  C  C126  1  0.05886211  0.62273259  0.35865747  1
  C  C127  1  0.55854533  0.63796956  0.36199919  1
  C  C128  1  0.26012656  0.88161614  0.36246330  1
  C  C129  1  0.75503618  0.87667628  0.36079689  1
  C  C130  1  0.18783793  0.48948288  0.36265696  1
  C  C131  1  0.68289487  0.48079788  0.36283623  1
  C  C132  1  0.06062150  0.48832240  0.86467561  1
  C  C133  1  0.56234324  0.49572310  0.85705514  1
  C  C134  1  0.18305175  0.87483611  0.86427525  1
  C  C135  1  0.68402884  0.88567591  0.86230558  1
  C  C136  1  0.25893718  0.64332483  0.86281981  1
  C  C137  1  0.75724930  0.63183882  0.86314721  1
  C  C138  1  0.01358587  0.84599123  0.41336099  1
  C  C139  1  0.51149145  0.83008890  0.40799286  1
  C  C140  1  0.40049613  0.96943311  0.41168204  1
  C  C141  1  0.89846828  0.97458900  0.40915307  1
  C  C142  1  0.08759722  0.20586256  0.41005672  1
  C  C143  1  0.58531142  0.19625089  0.41143298  1
  C  C144  1  0.01134727  0.19898477  0.90940035  1
  C  C145  1  0.51407505  0.18191010  0.91212247  1
  C  C146  1  0.08560812  0.96911150  0.90970138  1
  C  C147  1  0.58488412  0.96931711  0.90978673  1
  C  C148  1  0.40257292  0.82670980  0.91149314  1
  C  C149  1  0.90058711  0.82683914  0.90860793  1
  C  C150  1  0.48640201  0.17164241  0.58994142  1
  C  C151  1  0.98994043  0.16754664  0.59040000  1
  C  C152  1  0.09644875  0.02111639  0.58889442  1
  C  C153  1  0.59772211  0.02540445  0.59002453  1
  C  C154  1  0.41223904  0.80437263  0.58976055  1
  C  C155  1  0.91684764  0.81078895  0.58985561  1
  C  C156  1  0.49051494  0.81428052  0.08997285  1
  C  C157  1  0.98958550  0.80659680  0.09072635  1
  C  C158  1  0.41265926  0.01377729  0.08714189  1
  C  C159  1  0.91270428  0.01916073  0.09045412  1
  C  C160  1  0.09714226  0.17420415  0.09027688  1
  C  C161  1  0.59729366  0.16822915  0.08644442  1
  C  C162  1  0.34731155  0.16090580  0.74260285  1
  C  C163  1  0.84187908  0.15609448  0.74448337  1
  C  C164  1  0.23527703  0.30781662  0.74279842  1
  C  C165  1  0.73503361  0.30890169  0.74414145  1
  C  C166  1  0.42137120  0.53454974  0.74458980  1
  C  C167  1  0.91827935  0.52886321  0.74373027  1
  C  C168  1  0.34091223  0.53010584  0.24429840  1
  C  C169  1  0.84435937  0.52992201  0.24202013  1
  C  C170  1  0.41091302  0.31156011  0.24616157  1
  C  C171  1  0.92087093  0.30975363  0.24298081  1
  C  C172  1  0.23295281  0.16052564  0.24228678  1
  C  C173  1  0.73494238  0.16192986  0.24302996  1
  C  C174  1  0.31983780  0.50758395  0.92319484  1
  C  C175  1  0.81923518  0.50495138  0.92343434  1
  C  C176  1  0.42277468  0.35686759  0.92049638  1
  C  C177  1  0.93143384  0.35887084  0.92360602  1
  C  C178  1  0.24490927  0.13290410  0.92326339  1
  C  C179  1  0.74596798  0.13834169  0.92277052  1
  C  C180  1  0.32227083  0.13544705  0.42295918  1
  C  C181  1  0.81553141  0.12783751  0.42122561  1
  C  C182  1  0.24884973  0.35956614  0.42305402  1
  C  C183  1  0.74402801  0.35157048  0.42249202  1
  C  C184  1  0.43053732  0.50981752  0.42182114  1
  C  C185  1  0.92238646  0.48585542  0.42133207  1
  C  C186  1  0.17729921  0.49389748  0.07580745  1
  C  C187  1  0.67960203  0.49282960  0.07898921  1
  C  C188  1  0.06958856  0.64662291  0.07687535  1
  C  C189  1  0.57103080  0.65494516  0.07761811  1
  C  C190  1  0.25224447  0.85619850  0.07566076  1
  C  C191  1  0.75234927  0.85920595  0.07560963  1
  C  C192  1  0.18010162  0.86434987  0.57859295  1
  C  C193  1  0.67636486  0.86505187  0.57640953  1
  C  C194  1  0.25255319  0.64664411  0.57557191  1
  C  C195  1  0.75568383  0.64872717  0.57704422  1
  C  C196  1  0.07078957  0.48775815  0.57906940  1
  C  C197  1  0.56746452  0.49024689  0.57592988  1
  C  C198  1  0.15610798  0.84176463  0.25470897  1
  C  C199  1  0.65621144  0.84295006  0.25754597  1
  C  C200  1  0.26444136  0.69640725  0.25894949  1
  C  C201  1  0.76728593  0.69535395  0.25545191  1
  C  C202  1  0.08220082  0.46579988  0.25375236  1
  C  C203  1  0.58847744  0.48492101  0.25820854  1
  C  C204  1  0.15504975  0.46688031  0.75732913  1
  C  C205  1  0.65448244  0.46711473  0.75556513  1
  C  C206  1  0.07870312  0.69196120  0.75707681  1
  C  C207  1  0.58257351  0.70175690  0.75608879  1
  C  C208  1  0.26751021  0.83961705  0.75696582  1
  C  C209  1  0.76274338  0.83554634  0.75763186  1
