# generated using pymatgen
data_Cu2NiC10
_symmetry_space_group_name_H-M   'P 1'
_cell_length_a   3.97177540
_cell_length_b   7.51214436
_cell_length_c   7.40817167
_cell_angle_alpha   66.82111876
_cell_angle_beta   90.00096647
_cell_angle_gamma   74.70717278
_symmetry_Int_Tables_number   1
_chemical_formula_structural   Cu2NiC10
_chemical_formula_sum   'Cu2 Ni1 C10'
_cell_volume   194.64925091
_cell_formula_units_Z   1
loop_
 _symmetry_equiv_pos_site_id
 _symmetry_equiv_pos_as_xyz
  1  'x, y, z'
loop_
 _atom_site_type_symbol
 _atom_site_label
 _atom_site_symmetry_multiplicity
 _atom_site_fract_x
 _atom_site_fract_y
 _atom_site_fract_z
 _atom_site_occupancy
  C  C0  1  0.18273848  0.64370844  0.76532657  1
  C  C1  1  0.82145542  0.36563346  0.19949234  1
  Ni  Ni2  1  0.30704129  0.39415858  0.50706393  1
  Cu  Cu3  1  0.09851110  0.80566424  0.15934770  1
  Cu  Cu4  1  0.91449563  0.17726322  0.84968857  1
  C  C5  1  0.05121471  0.90934819  0.83384316  1
  C  C6  1  0.16234497  0.68415062  0.46448311  1
  C  C7  1  0.75338725  0.50193415  0.86240879  1
  C  C8  1  0.62288889  0.76383042  0.14494652  1
  C  C9  1  0.37794618  0.25291109  0.81253155  1
  C  C10  1  0.26490233  0.47888989  0.20147399  1
  C  C11  1  0.85408777  0.29996269  0.52712666  1
  C  C12  1  0.96247998  0.08609201  0.15724810  1
