# generated using pymatgen
data_Cu(NiC16)2
_symmetry_space_group_name_H-M   'P 1'
_cell_length_a   8.73434597
_cell_length_b   8.75762654
_cell_length_c   23.76694764
_cell_angle_alpha   89.88647312
_cell_angle_beta   90.18432474
_cell_angle_gamma   119.68692141
_symmetry_Int_Tables_number   1
_chemical_formula_structural   Cu(NiC16)2
_chemical_formula_sum   'Cu3 Ni6 C96'
_cell_volume   1579.35602683
_cell_formula_units_Z   3
loop_
 _symmetry_equiv_pos_site_id
 _symmetry_equiv_pos_as_xyz
  1  'x, y, z'
loop_
 _atom_site_type_symbol
 _atom_site_label
 _atom_site_symmetry_multiplicity
 _atom_site_fract_x
 _atom_site_fract_y
 _atom_site_fract_z
 _atom_site_occupancy
  C  C0  1  0.99964440  0.98791078  0.99636408  1
  C  C1  1  0.65586652  0.33140195  0.83095812  1
  C  C2  1  0.67712159  0.33183079  0.34618173  1
  C  C3  1  0.00065830  0.98807769  0.84210726  1
  C  C4  1  0.99977501  0.00852641  0.16477773  1
  C  C5  1  0.67518047  0.33434802  0.19891520  1
  C  C6  1  0.65728736  0.33704437  0.97732634  1
  C  C7  1  0.34007193  0.67185414  0.01747063  1
  C  C8  1  0.33969569  0.67437485  0.80012559  1
  Ni  Ni9  1  0.99539814  0.00394032  0.35752984  1
  Ni  Ni10  1  0.00172160  0.00184328  0.64043295  1
  Ni  Ni11  1  0.66537856  0.33237542  0.66765600  1
  Ni  Ni12  1  0.66492320  0.33398535  0.48844495  1
  Ni  Ni13  1  0.33561981  0.66730080  0.51476798  1
  Ni  Ni14  1  0.32800339  0.65996777  0.32843622  1
  Cu  Cu15  1  0.02113028  0.30950654  0.27066421  1
  Cu  Cu16  1  0.64467099  0.67021674  0.91140669  1
  Cu  Cu17  1  0.33094948  0.97426575  0.91117472  1
  C  C18  1  0.28398606  0.97606841  0.27160686  1
  C  C19  1  0.68969456  0.71348426  0.27130822  1
  C  C20  1  0.30915806  0.27750429  0.73029490  1
  C  C21  1  0.96693018  0.68789815  0.72889644  1
  C  C22  1  0.72576102  0.03452185  0.73015570  1
  C  C23  1  0.95545970  0.33543925  0.57761986  1
  C  C24  1  0.38000561  0.04397598  0.57776133  1
  C  C25  1  0.66291574  0.61966620  0.57766328  1
  C  C26  1  0.97205487  0.64727140  0.08722268  1
  C  C27  1  0.67627290  0.03042558  0.08650610  1
  C  C28  1  0.35134718  0.32484588  0.08914726  1
  C  C29  1  0.02813400  0.35821213  0.91116408  1
  C  C30  1  0.61754464  0.95337120  0.42155542  1
  C  C31  1  0.33958301  0.38296049  0.42238744  1
  C  C32  1  0.04551022  0.66389828  0.42240868  1
  C  C33  1  0.17631772  0.99748080  0.31567432  1
  C  C34  1  0.82303616  0.81497623  0.31516488  1
  C  C35  1  0.99263461  0.16894098  0.31510567  1
  C  C36  1  0.25673246  0.18906072  0.78573345  1
  C  C37  1  0.92918690  0.73764820  0.78456931  1
  C  C38  1  0.81421828  0.06874826  0.78563063  1
  C  C39  1  0.83105628  0.01111589  0.68562502  1
  C  C40  1  0.18146058  0.17099700  0.68565375  1
  C  C41  1  0.99139726  0.81977749  0.68535195  1
  C  C42  1  0.74731197  0.79361907  0.21510257  1
  C  C43  1  0.04279757  0.25060510  0.21145363  1
  C  C44  1  0.20146403  0.94944051  0.21542814  1
  C  C45  1  0.87570296  0.37896229  0.62616703  1
  C  C46  1  0.50307891  0.12273953  0.62653305  1
  C  C47  1  0.61696643  0.49566850  0.62607732  1
  C  C48  1  0.86268602  0.55278921  0.13728026  1
  C  C49  1  0.69254207  0.13843477  0.13698444  1
  C  C50  1  0.44598725  0.31071360  0.13934901  1
  C  C51  1  0.44057295  0.32302815  0.03653779  1
  C  C52  1  0.88128746  0.55835011  0.03438994  1
  C  C53  1  0.67615765  0.12087372  0.03401601  1
  C  C54  1  0.45779696  0.16934777  0.52887497  1
  C  C55  1  0.71006576  0.54114556  0.52881594  1
  C  C56  1  0.82952448  0.28860457  0.52857170  1
  C  C57  1  0.54885792  0.64601808  0.96784533  1
  C  C58  1  0.10599038  0.44821377  0.96504353  1
  C  C59  1  0.33722961  0.88875360  0.96711190  1
  C  C60  1  0.53941955  0.83640358  0.47173202  1
  C  C61  1  0.30055706  0.46309570  0.47205329  1
  C  C62  1  0.16436752  0.70129382  0.47237068  1
  C  C63  1  0.12463651  0.62207458  0.37344497  1
  C  C64  1  0.49580312  0.87438183  0.37281083  1
  C  C65  1  0.38487395  0.50506424  0.37362281  1
  C  C66  1  0.13784958  0.45205220  0.86180821  1
  C  C67  1  0.30368062  0.85930301  0.85859547  1
  C  C68  1  0.54399422  0.68247432  0.85960155  1
  C  C69  1  0.02289523  0.81747830  0.41058982  1
  C  C70  1  0.79357835  0.97360042  0.40962032  1
  C  C71  1  0.18649563  0.20847043  0.41031208  1
  C  C72  1  0.00857394  0.18223494  0.91516716  1
  C  C73  1  0.17578480  0.00919746  0.91603733  1
  C  C74  1  0.82287764  0.83949708  0.91631999  1
  C  C75  1  0.97856362  0.18174109  0.59083683  1
  C  C76  1  0.20341938  0.02118158  0.59090402  1
  C  C77  1  0.81560006  0.79461593  0.59097680  1
  C  C78  1  0.99474315  0.82565055  0.08576593  1
  C  C79  1  0.83087602  0.00472026  0.08408328  1
  C  C80  1  0.17387260  0.16839006  0.08616642  1
  C  C81  1  0.70775498  0.19117359  0.71813431  1
  C  C82  1  0.48416112  0.29510715  0.71837384  1
  C  C83  1  0.81002626  0.51605007  0.71624901  1
  C  C84  1  0.66737040  0.53427056  0.27110984  1
  C  C85  1  0.85339990  0.32830235  0.27092486  1
  C  C86  1  0.45920051  0.13793846  0.27106663  1
  C  C87  1  0.67302868  0.51256545  0.90189918  1
  C  C88  1  0.85459839  0.34466426  0.90329420  1
  C  C89  1  0.50289699  0.14880090  0.90328772  1
  C  C90  1  0.63583189  0.13158959  0.43232424  1
  C  C91  1  0.50072226  0.36467030  0.43386608  1
  C  C92  1  0.86823218  0.50290061  0.43308946  1
  C  C93  1  0.34029765  0.48543168  0.09354053  1
  C  C94  1  0.14213408  0.65397865  0.09232510  1
  C  C95  1  0.51433378  0.86097212  0.09260404  1
  C  C96  1  0.36466513  0.87140483  0.56419181  1
  C  C97  1  0.50581704  0.63697391  0.56373866  1
  C  C98  1  0.12835198  0.49137872  0.56427066  1
  C  C99  1  0.30203028  0.82081685  0.28304646  1
  C  C100  1  0.52178941  0.70754583  0.28298607  1
  C  C101  1  0.18552801  0.48446964  0.28339758  1
  C  C102  1  0.32152236  0.45029325  0.73236560  1
  C  C103  1  0.12598121  0.67227421  0.73136405  1
  C  C104  1  0.55168185  0.87580383  0.73186626  1
