# generated using pymatgen
data_Cu8NiC16
_symmetry_space_group_name_H-M   'P 1'
_cell_length_a   9.82660899
_cell_length_b   9.72715982
_cell_length_c   3.09038195
_cell_angle_alpha   90.29533167
_cell_angle_beta   90.22918956
_cell_angle_gamma   89.01047256
_symmetry_Int_Tables_number   1
_chemical_formula_structural   Cu8NiC16
_chemical_formula_sum   'Cu8 Ni1 C16'
_cell_volume   295.34391054
_cell_formula_units_Z   1
loop_
 _symmetry_equiv_pos_site_id
 _symmetry_equiv_pos_as_xyz
  1  'x, y, z'
loop_
 _atom_site_type_symbol
 _atom_site_label
 _atom_site_symmetry_multiplicity
 _atom_site_fract_x
 _atom_site_fract_y
 _atom_site_fract_z
 _atom_site_occupancy
  Ni  Ni0  1  0.25591600  0.50716300  0.47896000  1
  Cu  Cu1  1  0.99789600  0.99020300  0.99925200  1
  Cu  Cu2  1  0.99136000  0.49849100  0.98071500  1
  Cu  Cu3  1  0.20233800  0.22034900  0.50896200  1
  Cu  Cu4  1  0.22563200  0.77439400  0.49647700  1
  Cu  Cu5  1  0.55631500  0.49855900  0.97955100  1
  Cu  Cu6  1  0.50368600  0.00787100  0.99995200  1
  Cu  Cu7  1  0.76403900  0.27047800  0.47873000  1
  Cu  Cu8  1  0.76058100  0.73002700  0.48677000  1
  C  C9  1  0.09737400  0.38838900  0.48322000  1
  C  C10  1  0.06567500  0.89825600  0.49860600  1
  C  C11  1  0.13436000  0.13296700  0.00399500  1
  C  C12  1  0.18294600  0.62364300  0.98300400  1
  C  C13  1  0.60391000  0.39204900  0.47857500  1
  C  C14  1  0.66838300  0.65142300  0.98362000  1
  C  C15  1  0.85111700  0.34932800  0.98149200  1
  C  C16  1  0.91351700  0.60302300  0.48275500  1
  C  C17  1  0.33491300  0.37516700  0.96673600  1
  C  C18  1  0.34896600  0.86737100  0.00898400  1
  C  C19  1  0.38835400  0.12309600  0.50079100  1
  C  C20  1  0.43398100  0.59356300  0.47991200  1
  C  C21  1  0.60445500  0.89844800  0.49717500  1
  C  C22  1  0.65859700  0.15288100  0.98680400  1
  C  C23  1  0.83323800  0.85607700  0.99231200  1
  C  C24  1  0.88634500  0.09678300  0.49181800  1
