# generated using pymatgen
data_Cu2NiC10
_symmetry_space_group_name_H-M   'P 1'
_cell_length_a   5.12343528
_cell_length_b   3.88697456
_cell_length_c   10.48111630
_cell_angle_alpha   100.68605803
_cell_angle_beta   104.14712548
_cell_angle_gamma   90.00000270
_symmetry_Int_Tables_number   1
_chemical_formula_structural   Cu2NiC10
_chemical_formula_sum   'Cu2 Ni1 C10'
_cell_volume   198.66236958
_cell_formula_units_Z   1
loop_
 _symmetry_equiv_pos_site_id
 _symmetry_equiv_pos_as_xyz
  1  'x, y, z'
loop_
 _atom_site_type_symbol
 _atom_site_label
 _atom_site_symmetry_multiplicity
 _atom_site_fract_x
 _atom_site_fract_y
 _atom_site_fract_z
 _atom_site_occupancy
  C  C0  1  0.32236539  0.32236539  0.64473077  1
  C  C1  1  0.50000000  0.50000000  0.00000000  1
  C  C2  1  0.67763461  0.67763461  0.35526923  1
  Ni  Ni3  1  0.00000000  0.50000000  0.00000000  1
  Cu  Cu4  1  0.11074662  0.11074662  0.22149324  1
  Cu  Cu5  1  0.88925338  0.88925338  0.77850676  1
  C  C6  1  0.90307218  0.40307218  0.80614335  1
  C  C7  1  0.79825793  0.79825793  0.59651587  1
  C  C8  1  0.00000000  0.00000000  0.00000000  1
  C  C9  1  0.59637723  0.09637723  0.19275547  1
  C  C10  1  0.09692782  0.59692782  0.19385665  1
  C  C11  1  0.40362277  0.90362277  0.80724453  1
  C  C12  1  0.20174207  0.20174207  0.40348413  1
