# generated using pymatgen
data_CuNiC9
_symmetry_space_group_name_H-M   'P 1'
_cell_length_a   5.73628467
_cell_length_b   6.42859487
_cell_length_c   6.32258455
_cell_angle_alpha   53.49666441
_cell_angle_beta   71.18343235
_cell_angle_gamma   64.52304101
_symmetry_Int_Tables_number   1
_chemical_formula_structural   CuNiC9
_chemical_formula_sum   'Cu1 Ni1 C9'
_cell_volume   168.47399805
_cell_formula_units_Z   1
loop_
 _symmetry_equiv_pos_site_id
 _symmetry_equiv_pos_as_xyz
  1  'x, y, z'
loop_
 _atom_site_type_symbol
 _atom_site_label
 _atom_site_symmetry_multiplicity
 _atom_site_fract_x
 _atom_site_fract_y
 _atom_site_fract_z
 _atom_site_occupancy
  C  C0  1  0.77002629  0.81706585  0.81188312  1
  C  C1  1  0.33145028  0.16134098  0.20765379  1
  Ni  Ni2  1  0.89150927  0.48155958  0.51918709  1
  Cu  Cu3  1  0.36701349  0.49193658  0.55047098  1
  C  C4  1  0.01443289  0.98578738  0.01471912  1
  C  C5  1  0.40450608  0.75795107  0.18815981  1
  C  C6  1  0.75749465  0.90316563  0.39034586  1
  C  C7  1  0.06949802  0.40423266  0.80246584  1
  C  C8  1  0.64350446  0.27335880  0.78626300  1
  C  C9  1  0.02506075  0.57784525  0.15775678  1
  C  C10  1  0.15407481  0.03861322  0.63061861  1
