# generated using pymatgen
data_Cu6NiC12
_symmetry_space_group_name_H-M   'P 1'
_cell_length_a   5.17930608
_cell_length_b   7.92747917
_cell_length_c   5.75268356
_cell_angle_alpha   96.74719046
_cell_angle_beta   98.47832940
_cell_angle_gamma   83.77752387
_symmetry_Int_Tables_number   1
_chemical_formula_structural   Cu6NiC12
_chemical_formula_sum   'Cu6 Ni1 C12'
_cell_volume   230.99998062
_cell_formula_units_Z   1
loop_
 _symmetry_equiv_pos_site_id
 _symmetry_equiv_pos_as_xyz
  1  'x, y, z'
loop_
 _atom_site_type_symbol
 _atom_site_label
 _atom_site_symmetry_multiplicity
 _atom_site_fract_x
 _atom_site_fract_y
 _atom_site_fract_z
 _atom_site_occupancy
  Ni  Ni0  1  0.01357800  0.49206800  0.00698800  1
  Cu  Cu1  1  0.53138400  0.00997900  0.49238600  1
  Cu  Cu2  1  0.54795300  0.67988400  0.12158000  1
  Cu  Cu3  1  0.49173400  0.32022500  0.83252300  1
  Cu  Cu4  1  0.00200400  0.68137200  0.64423600  1
  Cu  Cu5  1  0.95991400  0.29558100  0.36526600  1
  Cu  Cu6  1  0.96481800  0.98955400  0.00104500  1
  C  C7  1  0.85277900  0.73705500  0.94412500  1
  C  C8  1  0.81584100  0.08361900  0.27333300  1
  C  C9  1  0.70133700  0.10318300  0.79018000  1
  C  C10  1  0.70232600  0.78093600  0.45231800  1
  C  C11  1  0.70226400  0.41845300  0.12913500  1
  C  C12  1  0.30199600  0.55315100  0.85069600  1
  C  C13  1  0.30811400  0.22323000  0.53194600  1
  C  C14  1  0.82669900  0.42814900  0.66578800  1
  C  C15  1  0.29989700  0.91063600  0.20702600  1
  C  C16  1  0.13482000  0.54525700  0.35646000  1
  C  C17  1  0.17474900  0.25327400  0.03378200  1
  C  C18  1  0.18168200  0.91105800  0.74166600  1
