# generated using pymatgen
data_Cu3Ni4C71
_symmetry_space_group_name_H-M   'P 1'
_cell_length_a   17.66119047
_cell_length_b   8.86977036
_cell_length_c   22.13752439
_cell_angle_alpha   89.75362978
_cell_angle_beta   87.81138198
_cell_angle_gamma   120.16962610
_symmetry_Int_Tables_number   1
_chemical_formula_structural   Cu3Ni4C71
_chemical_formula_sum   'Cu9 Ni12 C213'
_cell_volume   2994.81233857
_cell_formula_units_Z   3
loop_
 _symmetry_equiv_pos_site_id
 _symmetry_equiv_pos_as_xyz
  1  'x, y, z'
loop_
 _atom_site_type_symbol
 _atom_site_label
 _atom_site_symmetry_multiplicity
 _atom_site_fract_x
 _atom_site_fract_y
 _atom_site_fract_z
 _atom_site_occupancy
  C  C0  1  0.18792626  0.37067521  0.24636855  1
  C  C1  1  0.68799517  0.37294123  0.24646168  1
  C  C2  1  0.99198796  0.63609727  0.25335237  1
  C  C3  1  0.49408965  0.63163784  0.25755644  1
  C  C4  1  0.32249184  0.64619305  0.74549331  1
  C  C5  1  0.81996717  0.64104220  0.74555173  1
  C  C6  1  0.99380159  0.35342290  0.75157536  1
  C  C7  1  0.18770672  0.00342247  0.74347155  1
  C  C8  1  0.68800567  0.00578739  0.74413987  1
  C  C9  1  0.52013620  0.70337751  0.57676008  1
  C  C10  1  0.32684178  0.96829796  0.58751753  1
  C  C11  1  0.82627493  0.96387253  0.58600577  1
  C  C12  1  0.15283276  0.97600699  0.08026511  1
  C  C13  1  0.65261008  0.97577515  0.08002327  1
  C  C14  1  0.32897411  0.69046632  0.08963726  1
  C  C15  1  0.82862280  0.69038307  0.08981157  1
  C  C16  1  0.66087050  0.01835090  0.42271457  1
  C  C17  1  0.35475281  0.66988455  0.41188853  1
  C  C18  1  0.01232960  0.00248061  0.49887463  1
  C  C19  1  0.50789406  0.01140722  0.49803560  1
  C  C20  1  0.00601066  0.02102663  0.99776101  1
  C  C21  1  0.50641464  0.02231261  0.99742264  1
  C  C22  1  0.34302672  0.32257877  0.83217969  1
  C  C23  1  0.83291963  0.32092485  0.83471546  1
  C  C24  1  0.33581206  0.32848663  0.33391257  1
  C  C25  1  0.83796260  0.34528359  0.33233923  1
  C  C26  1  0.17015198  0.65706972  0.16564695  1
  C  C27  1  0.67030587  0.65729229  0.16651259  1
  C  C28  1  0.16486500  0.67604051  0.66031570  1
  C  C29  1  0.66315553  0.65977617  0.66319021  1
  C  C30  1  0.99302636  0.98566249  0.34921888  1
  C  C31  1  0.49556804  0.98261591  0.34957100  1
  C  C32  1  0.99425002  0.00207198  0.85019918  1
  C  C33  1  0.49484119  0.00407761  0.84997497  1
  C  C34  1  0.33056115  0.30486236  0.68101673  1
  C  C35  1  0.82946010  0.31350856  0.67917298  1
  C  C36  1  0.32954947  0.34553442  0.18217823  1
  C  C37  1  0.82915269  0.34722112  0.18168262  1
  C  C38  1  0.16163417  0.64302753  0.01682574  1
  C  C39  1  0.66141876  0.64265976  0.01646448  1
  C  C40  1  0.16011563  0.67720933  0.51842669  1
  C  C41  1  0.66408666  0.67549809  0.51429554  1
  Ni  Ni42  1  0.00102273  0.99719283  0.64741059  1
  Ni  Ni43  1  0.50367521  0.01081060  0.65110855  1
  Ni  Ni44  1  0.99663572  0.01371440  0.15229324  1
  Ni  Ni45  1  0.49747027  0.01286234  0.15169269  1
  Ni  Ni46  1  0.32776386  0.32699347  0.98422652  1
  Ni  Ni47  1  0.82700305  0.32622959  0.98428206  1
  Ni  Ni48  1  0.33168419  0.32835145  0.48205542  1
  Ni  Ni49  1  0.83042367  0.33576055  0.48652711  1
  Ni  Ni50  1  0.17548971  0.67796328  0.31766261  1
  Ni  Ni51  1  0.67230189  0.67243914  0.32079363  1
  Ni  Ni52  1  0.17680337  0.68057920  0.82142196  1
  Ni  Ni53  1  0.66927773  0.67244229  0.81878345  1
  Cu  Cu54  1  0.35223878  0.70902188  0.25035916  1
  Cu  Cu55  1  0.85227011  0.71146822  0.25104386  1
  Cu  Cu56  1  0.35551354  0.00358002  0.75194856  1
  Cu  Cu57  1  0.85440160  0.99941080  0.75057277  1
  Cu  Cu58  1  0.18274136  0.04038246  0.58422970  1
  Cu  Cu59  1  0.68242655  0.03771271  0.58535551  1
  Cu  Cu60  1  0.18144982  0.32822729  0.08596707  1
  Cu  Cu61  1  0.68100568  0.32858501  0.08563421  1
  Cu  Cu62  1  0.51757822  0.65859009  0.41797294  1
  C  C63  1  0.14706899  0.99551651  0.25121463  1
  C  C64  1  0.64860099  0.99790770  0.24936692  1
  C  C65  1  0.99953357  0.29542342  0.25193167  1
  C  C66  1  0.49930620  0.29147494  0.25117114  1
  C  C67  1  0.14555687  0.29564847  0.75178415  1
  C  C68  1  0.64521376  0.29774360  0.75194277  1
  C  C69  1  0.00144421  0.70803188  0.75188750  1
  C  C70  1  0.50175871  0.70552779  0.75178005  1
  C  C71  1  0.48182038  0.33217086  0.58257351  1
  C  C72  1  0.98057889  0.33419904  0.58269511  1
  C  C73  1  0.33287363  0.62444200  0.58414636  1
  C  C74  1  0.83476041  0.62604977  0.58363388  1
  C  C75  1  0.47996239  0.62445579  0.08140712  1
  C  C76  1  0.97990129  0.62428077  0.08129016  1
  C  C77  1  0.33627407  0.04924296  0.08225578  1
  C  C78  1  0.83644046  0.04990266  0.08220935  1
  C  C79  1  0.31594819  0.66150503  0.91781505  1
  C  C80  1  0.81506885  0.66158841  0.91695517  1
  C  C81  1  0.01750753  0.37665715  0.91680796  1
  C  C82  1  0.51736967  0.37646228  0.91753198  1
  C  C83  1  0.16799843  0.96403256  0.91809152  1
  C  C84  1  0.66798001  0.96265469  0.91764736  1
  C  C85  1  0.31192682  0.96302257  0.41689450  1
  C  C86  1  0.81784093  0.96986892  0.41813752  1
  C  C87  1  0.16351803  0.37304689  0.41684519  1
  C  C88  1  0.67082155  0.37680865  0.41743052  1
  C  C89  1  0.01758322  0.65952819  0.41685296  1
  C  C90  1  0.10730787  0.03307787  0.30413364  1
  C  C91  1  0.60958783  0.03134463  0.30434392  1
  C  C92  1  0.40854551  0.78597223  0.30893430  1
  C  C93  1  0.91770324  0.79234804  0.30466621  1
  C  C94  1  0.48962954  0.18874038  0.30551294  1
  C  C95  1  0.98899893  0.19262596  0.30619566  1
  C  C96  1  0.10900930  0.18117092  0.80601016  1
  C  C97  1  0.60793808  0.18303387  0.80578068  1
  C  C98  1  0.48866690  0.78725751  0.80537418  1
  C  C99  1  0.98748617  0.78497309  0.80646406  1
  C  C100  1  0.40888051  0.02006189  0.80940732  1
  C  C101  1  0.91692633  0.04156189  0.80561113  1
  C  C102  1  0.39757065  0.95920034  0.68948818  1
  C  C103  1  0.89720241  0.95570099  0.68867308  1
  C  C104  1  0.09122835  0.21810972  0.69862561  1
  C  C105  1  0.59463793  0.22026967  0.69737069  1
  C  C106  1  0.02094327  0.82212367  0.69713059  1
  C  C107  1  0.52145742  0.81868988  0.69566884  1
  C  C108  1  0.39859805  0.82777593  0.18707839  1
  C  C109  1  0.89638944  0.82822063  0.18623232  1
  C  C110  1  0.02128422  0.22283728  0.19668818  1
  C  C111  1  0.51825772  0.21677917  0.19550720  1
  C  C112  1  0.09440330  0.96560957  0.19609394  1
  C  C113  1  0.59415440  0.97274733  0.19571572  1
  C  C114  1  0.44450107  0.37084914  0.63721529  1
  C  C115  1  0.94531598  0.36427389  0.64043278  1
  C  C116  1  0.23705025  0.10787844  0.64526181  1
  C  C117  1  0.73915669  0.11327167  0.64424268  1
  C  C118  1  0.32490262  0.52645315  0.64034602  1
  C  C119  1  0.82550095  0.52898176  0.64056445  1
  C  C120  1  0.44444960  0.52326641  0.13847559  1
  C  C121  1  0.94462061  0.52350387  0.13851890  1
  C  C122  1  0.32377492  0.12924374  0.13643570  1
  C  C123  1  0.82417925  0.13006131  0.13634374  1
  C  C124  1  0.23829990  0.36641145  0.14514072  1
  C  C125  1  0.73803221  0.36709737  0.14470440  1
  C  C126  1  0.22720114  0.28056835  0.02753808  1
  C  C127  1  0.72676032  0.28049634  0.02723116  1
  C  C128  1  0.42385472  0.53561319  0.02956900  1
  C  C129  1  0.92384537  0.53477425  0.02951908  1
  C  C130  1  0.35183715  0.15663440  0.02592309  1
  C  C131  1  0.85210971  0.15744073  0.02574906  1
  C  C132  1  0.23443587  0.16932548  0.52498380  1
  C  C133  1  0.72870216  0.15730858  0.52278633  1
  C  C134  1  0.34933852  0.54522695  0.52938780  1
  C  C135  1  0.85029570  0.54342571  0.52952704  1
  C  C136  1  0.42716482  0.30380448  0.52973368  1
  C  C137  1  0.92273993  0.30974253  0.53149526  1
  C  C138  1  0.27269475  0.68561724  0.97170833  1
  C  C139  1  0.77265786  0.68497502  0.97146000  1
  C  C140  1  0.06835554  0.46108107  0.96881327  1
  C  C141  1  0.56680014  0.45708034  0.97065650  1
  C  C142  1  0.15670011  0.85785639  0.97253871  1
  C  C143  1  0.65697124  0.85775061  0.97238151  1
  C  C144  1  0.27234895  0.85041232  0.47168234  1
  C  C145  1  0.77894374  0.86775615  0.47488660  1
  C  C146  1  0.15321345  0.45916156  0.46983740  1
  C  C147  1  0.66047290  0.46088901  0.47084218  1
  C  C148  1  0.06895213  0.67675417  0.46853602  1
  C  C149  1  0.57478960  0.69772287  0.47659346  1
  C  C150  1  0.05924073  0.63539888  0.35890389  1
  C  C151  1  0.56700972  0.63579454  0.35587117  1
  C  C152  1  0.25782617  0.87883027  0.36319141  1
  C  C153  1  0.76057565  0.88479796  0.36611681  1
  C  C154  1  0.17883822  0.48338906  0.35921877  1
  C  C155  1  0.68432626  0.47950288  0.35996547  1
  C  C156  1  0.06137532  0.48633603  0.85906972  1
  C  C157  1  0.56142820  0.48870504  0.86110965  1
  C  C158  1  0.17948099  0.87986308  0.86131459  1
  C  C159  1  0.68035863  0.87933940  0.86115982  1
  C  C160  1  0.26270705  0.63544834  0.86240021  1
  C  C161  1  0.76255773  0.63761976  0.86179692  1
  C  C162  1  0.00874894  0.81523206  0.41210183  1
  C  C163  1  0.50721768  0.83323637  0.41324475  1
  C  C164  1  0.40028220  0.98521560  0.40999944  1
  C  C165  1  0.90614307  0.99529303  0.41063138  1
  C  C166  1  0.08703471  0.19793165  0.41113551  1
  C  C167  1  0.59387567  0.19931790  0.41301564  1
  C  C168  1  0.00879998  0.20337305  0.91232104  1
  C  C169  1  0.50880876  0.20353215  0.91228186  1
  C  C170  1  0.09073029  0.98449899  0.91276234  1
  C  C171  1  0.59105989  0.98403660  0.91228566  1
  C  C172  1  0.40426394  0.81445264  0.91173195  1
  C  C173  1  0.90368586  0.81549699  0.91105105  1
  C  C174  1  0.48343262  0.16548940  0.58929213  1
  C  C175  1  0.98099008  0.16602168  0.58647248  1
  C  C176  1  0.08520428  0.02543632  0.59041030  1
  C  C177  1  0.58275868  0.01487263  0.59196188  1
  C  C178  1  0.41321496  0.80385214  0.58468931  1
  C  C179  1  0.91299571  0.80581191  0.58385391  1
  C  C180  1  0.48431755  0.79744449  0.08409421  1
  C  C181  1  0.98428793  0.79705554  0.08396250  1
  C  C182  1  0.41297311  0.02188052  0.08426875  1
  C  C183  1  0.91347139  0.02331971  0.08410684  1
  C  C184  1  0.08471568  0.14237696  0.09326090  1
  C  C185  1  0.58464348  0.14266686  0.09237634  1
  C  C186  1  0.33730551  0.16440490  0.74780439  1
  C  C187  1  0.84062569  0.16803238  0.74572582  1
  C  C188  1  0.23684553  0.33332918  0.74327475  1
  C  C189  1  0.73667008  0.33076449  0.74437821  1
  C  C190  1  0.42209839  0.53502664  0.74504624  1
  C  C191  1  0.92176144  0.53411502  0.74554308  1
  C  C192  1  0.34164175  0.51388386  0.24655977  1
  C  C193  1  0.84030979  0.51515409  0.24612725  1
  C  C194  1  0.42171250  0.31040274  0.24504062  1
  C  C195  1  0.92203554  0.31324723  0.24468992  1
  C  C196  1  0.23695158  0.14280710  0.24342575  1
  C  C197  1  0.73768972  0.14895278  0.24248983  1
  C  C198  1  0.32195182  0.49908560  0.92204894  1
  C  C199  1  0.82197562  0.49957889  0.92137159  1
  C  C200  1  0.42816324  0.36100055  0.92210466  1
  C  C201  1  0.92849898  0.36149195  0.92123554  1
  C  C202  1  0.25080658  0.13779652  0.91899438  1
  C  C203  1  0.75098116  0.13721567  0.91875910  1
  C  C204  1  0.31763580  0.13451165  0.42073022  1
  C  C205  1  0.82202876  0.14406128  0.42115631  1
  C  C206  1  0.24653062  0.36563056  0.41797124  1
  C  C207  1  0.75156763  0.35742810  0.41940731  1
  C  C208  1  0.41661841  0.48376577  0.42420238  1
  C  C209  1  0.92804859  0.49587567  0.42266153  1
  C  C210  1  0.17598843  0.50435304  0.07785428  1
  C  C211  1  0.67598683  0.50520671  0.07779435  1
  C  C212  1  0.07114151  0.66047687  0.07384963  1
  C  C213  1  0.57122714  0.66118656  0.07384515  1
  C  C214  1  0.25561934  0.87415296  0.07767371  1
  C  C215  1  0.75597417  0.87491132  0.07751851  1
  C  C216  1  0.17569944  0.84962757  0.57760988  1
  C  C217  1  0.67241778  0.84352370  0.58061690  1
  C  C218  1  0.25528274  0.64422899  0.57962067  1
  C  C219  1  0.75578393  0.64165594  0.57855658  1
  C  C220  1  0.06981940  0.48030417  0.57439070  1
  C  C221  1  0.57165924  0.47985734  0.57529271  1
  C  C222  1  0.14795552  0.82728290  0.25881906  1
  C  C223  1  0.65123529  0.83314586  0.25454032  1
  C  C224  1  0.25186564  0.68378929  0.25551208  1
  C  C225  1  0.75211446  0.68643574  0.25922647  1
  C  C226  1  0.07904780  0.47615006  0.25447289  1
  C  C227  1  0.57945823  0.47018419  0.25220495  1
  C  C228  1  0.14889179  0.46848602  0.75919799  1
  C  C229  1  0.65212456  0.47249508  0.75851807  1
  C  C230  1  0.07944465  0.68340926  0.75581599  1
  C  C231  1  0.58216767  0.68851035  0.75629976  1
  C  C232  1  0.25420716  0.81600756  0.75712090  1
  C  C233  1  0.75500352  0.81683374  0.75819622  1
