# generated using pymatgen
data_CuNi2C7
_symmetry_space_group_name_H-M   'P 1'
_cell_length_a   6.01122416
_cell_length_b   6.00111700
_cell_length_c   8.48648586
_cell_angle_alpha   90.00000000
_cell_angle_beta   90.01897811
_cell_angle_gamma   90.00000000
_symmetry_Int_Tables_number   1
_chemical_formula_structural   CuNi2C7
_chemical_formula_sum   'Cu2 Ni4 C14'
_cell_volume   306.14197904
_cell_formula_units_Z   2
loop_
 _symmetry_equiv_pos_site_id
 _symmetry_equiv_pos_as_xyz
  1  'x, y, z'
loop_
 _atom_site_type_symbol
 _atom_site_label
 _atom_site_symmetry_multiplicity
 _atom_site_fract_x
 _atom_site_fract_y
 _atom_site_fract_z
 _atom_site_occupancy
  Ni  Ni0  1  0.50022300  0.50043500  0.24979000  1
  Ni  Ni1  1  0.99977700  0.00043500  0.25021000  1
  Ni  Ni2  1  0.00022300  0.99956500  0.74979000  1
  Ni  Ni3  1  0.49977700  0.49956500  0.75021000  1
  Cu  Cu4  1  0.50000000  0.00000000  0.50000000  1
  Cu  Cu5  1  0.00000000  0.50000000  0.00000000  1
  C  C6  1  0.50000000  0.00000000  0.00000000  1
  C  C7  1  0.00000000  0.50000000  0.50000000  1
  C  C8  1  0.97928500  0.50012600  0.73352600  1
  C  C9  1  0.52071500  0.00012600  0.76647400  1
  C  C10  1  0.02071500  0.49987400  0.26647400  1
  C  C11  1  0.47928500  0.99987400  0.23352600  1
  C  C12  1  0.76832600  0.73556300  0.48954600  1
  C  C13  1  0.73167400  0.23556300  0.01045400  1
  C  C14  1  0.23167400  0.26443700  0.51045400  1
  C  C15  1  0.26832600  0.76443700  0.98954600  1
  C  C16  1  0.26488500  0.23208000  0.98949400  1
  C  C17  1  0.23511500  0.73208000  0.51050600  1
  C  C18  1  0.73511500  0.76792000  0.01050600  1
  C  C19  1  0.76488500  0.26792000  0.48949400  1
