# generated using pymatgen
data_Cu2Ni2C33
_symmetry_space_group_name_H-M   'P 1'
_cell_length_a   8.59872337
_cell_length_b   8.57211106
_cell_length_c   22.18556709
_cell_angle_alpha   90.25473233
_cell_angle_beta   89.85582774
_cell_angle_gamma   120.13301458
_symmetry_Int_Tables_number   1
_chemical_formula_structural   Cu2Ni2C33
_chemical_formula_sum   'Cu6 Ni6 C99'
_cell_volume   1414.27854064
_cell_formula_units_Z   3
loop_
 _symmetry_equiv_pos_site_id
 _symmetry_equiv_pos_as_xyz
  1  'x, y, z'
loop_
 _atom_site_type_symbol
 _atom_site_label
 _atom_site_symmetry_multiplicity
 _atom_site_fract_x
 _atom_site_fract_y
 _atom_site_fract_z
 _atom_site_occupancy
  C  C0  1  0.00082977  0.36292409  0.75166137  1
  C  C1  1  0.66794785  0.97207398  0.58316262  1
  C  C2  1  0.02967708  0.33384489  0.08323946  1
  C  C3  1  0.00636292  0.99433931  0.50282532  1
  C  C4  1  0.00577791  0.99367276  0.00237276  1
  C  C5  1  0.65608082  0.32716144  0.83348415  1
  C  C6  1  0.67841274  0.33842510  0.33268901  1
  C  C7  1  0.34438624  0.67162025  0.16731771  1
  C  C8  1  0.33389155  0.66652116  0.66642521  1
  Ni  Ni9  1  0.00387661  0.99908500  0.64850611  1
  Ni  Ni10  1  0.99005880  0.99707830  0.14772201  1
  Ni  Ni11  1  0.32919128  0.67005957  0.01962637  1
  Ni  Ni12  1  0.32895971  0.67135465  0.51954576  1
  Ni  Ni13  1  0.33220013  0.66515861  0.31250317  1
  Ni  Ni14  1  0.33168807  0.67444216  0.81159031  1
  Cu  Cu15  1  0.98699057  0.99100276  0.35423535  1
  Cu  Cu16  1  0.00659880  0.00363880  0.85413466  1
  Cu  Cu17  1  0.66333982  0.33534594  0.68332641  1
  Cu  Cu18  1  0.67064449  0.33717689  0.18381674  1
  Cu  Cu19  1  0.66634544  0.32858681  0.98070125  1
  Cu  Cu20  1  0.67331976  0.33405112  0.48030945  1
  C  C21  1  0.70224382  0.71109005  0.24865433  1
  C  C22  1  0.00812250  0.29469100  0.24903833  1
  C  C23  1  0.29072217  0.29467436  0.74943938  1
  C  C24  1  0.00567245  0.71646992  0.74895050  1
  C  C25  1  0.70455975  0.98961556  0.74871546  1
  C  C26  1  0.97460767  0.33614833  0.58417676  1
  C  C27  1  0.36255818  0.03454750  0.58203483  1
  C  C28  1  0.66526617  0.63331687  0.58200942  1
  C  C29  1  0.96772907  0.63951110  0.08228261  1
  C  C30  1  0.66185311  0.02740888  0.08369930  1
  C  C31  1  0.36693839  0.33281987  0.08305288  1
  C  C32  1  0.05417312  0.38869132  0.91641947  1
  C  C33  1  0.33296756  0.94426457  0.91668455  1
  C  C34  1  0.60790284  0.94385025  0.41689201  1
  C  C35  1  0.05759898  0.66790767  0.41557205  1
  C  C36  1  0.28607929  0.99504301  0.24932234  1
  C  C37  1  0.61149021  0.66628517  0.91652901  1
  C  C38  1  0.33375352  0.38634788  0.41634449  1
  C  C39  1  0.21610967  0.03280923  0.30561186  1
  C  C40  1  0.81726278  0.77650886  0.30695156  1
  C  C41  1  0.97115731  0.18061770  0.30682396  1
  C  C42  1  0.22114232  0.18372523  0.80776505  1
  C  C43  1  0.96077688  0.78260162  0.80766593  1
  C  C44  1  0.82750732  0.04081487  0.80533359  1
  C  C45  1  0.79296325  0.96711093  0.69175564  1
  C  C46  1  0.16622952  0.20479033  0.69539312  1
  C  C47  1  0.03053902  0.83199643  0.69427933  1
  C  C48  1  0.79783370  0.82886005  0.19440177  1
  C  C49  1  0.03208814  0.20539927  0.19230645  1
  C  C50  1  0.17575397  0.97172321  0.19628705  1
  C  C51  1  0.89744291  0.37823139  0.64183546  1
  C  C52  1  0.49413868  0.10919516  0.63715892  1
  C  C53  1  0.62010431  0.51295119  0.63835516  1
  C  C54  1  0.89358504  0.50720939  0.13699070  1
  C  C55  1  0.61793590  0.10682976  0.13981755  1
  C  C56  1  0.48799648  0.37631501  0.13918111  1
  C  C57  1  0.44482592  0.28950649  0.02667121  1
  C  C58  1  0.84398368  0.55913100  0.02642403  1
  C  C59  1  0.72004900  0.16012221  0.02911770  1
  C  C60  1  0.44427293  0.15757996  0.52626877  1
  C  C61  1  0.70911510  0.55470981  0.52597971  1
  C  C62  1  0.83960328  0.28042020  0.53032818  1
  C  C63  1  0.53055254  0.68688594  0.97167021  1
  C  C64  1  0.16085112  0.47211665  0.97421456  1
  C  C65  1  0.31453673  0.83902410  0.97354881  1
  C  C66  1  0.52778902  0.84012836  0.47533021  1
  C  C67  1  0.31126164  0.46729452  0.47131221  1
  C  C68  1  0.16140057  0.68712364  0.47298255  1
  C  C69  1  0.14145732  0.64270623  0.35847716  1
  C  C70  1  0.50121568  0.85394169  0.36017668  1
  C  C71  1  0.35539854  0.48813332  0.36112741  1
  C  C72  1  0.14041869  0.49257775  0.85820930  1
  C  C73  1  0.35785056  0.86082842  0.85928039  1
  C  C74  1  0.50962322  0.64483383  0.86130803  1
  C  C75  1  0.04038046  0.84194580  0.41349445  1
  C  C76  1  0.80272727  0.97091601  0.41601274  1
  C  C77  1  0.17095964  0.20157324  0.41332566  1
  C  C78  1  0.02767412  0.19410631  0.91512606  1
  C  C79  1  0.16073998  0.96269439  0.91520185  1
  C  C80  1  0.79524415  0.83016363  0.91439279  1
  C  C81  1  0.98361239  0.16363669  0.59375930  1
  C  C82  1  0.18128657  0.01853523  0.59347773  1
  C  C83  1  0.83196147  0.82060503  0.59208858  1
  C  C84  1  0.98526996  0.82174193  0.09480310  1
  C  C85  1  0.83392390  0.01788319  0.09345632  1
  C  C86  1  0.17915448  0.16674852  0.09329274  1
  C  C87  1  0.68969085  0.16435465  0.74380279  1
  C  C88  1  0.47928775  0.31572371  0.74427587  1
  C  C89  1  0.84057801  0.51999504  0.74418443  1
  C  C90  1  0.67773725  0.51813753  0.24408496  1
  C  C91  1  0.83539844  0.31110414  0.24479889  1
  C  C92  1  0.46959459  0.15729119  0.24492303  1
  C  C93  1  0.63235711  0.50292813  0.91903522  1
  C  C94  1  0.86379435  0.37113903  0.91889025  1
  C  C95  1  0.50215817  0.13907550  0.91891648  1
  C  C96  1  0.62780988  0.13598957  0.41871480  1
  C  C97  1  0.49681382  0.36658724  0.41912532  1
  C  C98  1  0.86250769  0.49933690  0.41839102  1
  C  C99  1  0.34446352  0.49861463  0.07353706  1
  C  C100  1  0.15008615  0.65034316  0.07312793  1
  C  C101  1  0.49787319  0.84435386  0.07240448  1
  C  C102  1  0.35087099  0.85085983  0.57351590  1
  C  C103  1  0.50021106  0.65572164  0.57269814  1
  C  C104  1  0.15541611  0.50207459  0.57244339  1
  C  C105  1  0.30234036  0.83249500  0.25556450  1
  C  C106  1  0.51843754  0.69737640  0.25758623  1
  C  C107  1  0.17608823  0.48182343  0.25725134  1
  C  C108  1  0.30485061  0.48068523  0.75760191  1
  C  C109  1  0.17128425  0.69214189  0.75600099  1
  C  C110  1  0.52045781  0.82296309  0.75800549  1
