# generated using pymatgen
data_Cu5(Ni2C13)2
_symmetry_space_group_name_H-M   'P 1'
_cell_length_a   8.34147181
_cell_length_b   8.35473108
_cell_length_c   21.69523914
_cell_angle_alpha   90.24661242
_cell_angle_beta   89.52327099
_cell_angle_gamma   120.11304463
_symmetry_Int_Tables_number   1
_chemical_formula_structural   Cu5(Ni2C13)2
_chemical_formula_sum   'Cu15 Ni12 C78'
_cell_volume   1307.85428252
_cell_formula_units_Z   3
loop_
 _symmetry_equiv_pos_site_id
 _symmetry_equiv_pos_as_xyz
  1  'x, y, z'
loop_
 _atom_site_type_symbol
 _atom_site_label
 _atom_site_symmetry_multiplicity
 _atom_site_fract_x
 _atom_site_fract_y
 _atom_site_fract_z
 _atom_site_occupancy
  C  C0  1  0.66935878  0.33628246  0.83418062  1
  C  C1  1  0.66672986  0.33363402  0.33177951  1
  C  C2  1  0.33362471  0.66712839  0.16708390  1
  Ni  Ni3  1  0.00044954  0.00041425  0.35465194  1
  Ni  Ni4  1  0.99251187  0.00016083  0.85429975  1
  Ni  Ni5  1  0.00732538  0.99943172  0.64885597  1
  Ni  Ni6  1  0.99966552  0.00039399  0.14440204  1
  Ni  Ni7  1  0.66176771  0.32574367  0.68880739  1
  Ni  Ni8  1  0.66676699  0.33274063  0.18676653  1
  Ni  Ni9  1  0.67435434  0.34148243  0.98301197  1
  Ni  Ni10  1  0.65778440  0.32770638  0.47652861  1
  Ni  Ni11  1  0.33579635  0.65983231  0.02241962  1
  Ni  Ni12  1  0.33330984  0.67448623  0.51681517  1
  Ni  Ni13  1  0.33269950  0.66620974  0.31229486  1
  Ni  Ni14  1  0.33111327  0.65882012  0.81080314  1
  Cu  Cu15  1  0.28575894  0.99973372  0.24976464  1
  Cu  Cu16  1  0.71444686  0.71386696  0.25001240  1
  Cu  Cu17  1  0.99952598  0.28564968  0.25002411  1
  Cu  Cu18  1  0.28490594  0.28595040  0.75051920  1
  Cu  Cu19  1  0.00166464  0.71191233  0.75052567  1
  Cu  Cu20  1  0.71132802  0.99672636  0.74942163  1
  Cu  Cu21  1  0.37708061  0.04303411  0.58327038  1
  Cu  Cu22  1  0.95634152  0.62440279  0.08401740  1
  Cu  Cu23  1  0.66816394  0.04646892  0.08293978  1
  Cu  Cu24  1  0.37918440  0.32978133  0.08376523  1
  Cu  Cu25  1  0.62074819  0.66621913  0.91645175  1
  Cu  Cu26  1  0.04607155  0.37836342  0.91684867  1
  Cu  Cu27  1  0.62301610  0.95267000  0.41581802  1
  Cu  Cu28  1  0.32933354  0.37969300  0.41682801  1
  Cu  Cu29  1  0.04443734  0.66848033  0.41655059  1
  C  C30  1  0.95684073  0.33284234  0.58306064  1
  C  C31  1  0.66619615  0.62340582  0.58341908  1
  C  C32  1  0.33170295  0.95477517  0.91658149  1
  C  C33  1  0.20697455  0.03930202  0.30859236  1
  C  C34  1  0.83215580  0.79322746  0.30830440  1
  C  C35  1  0.96063865  0.16772307  0.30843459  1
  C  C36  1  0.20533008  0.16237044  0.80788747  1
  C  C37  1  0.95820204  0.79311129  0.80785650  1
  C  C38  1  0.83390787  0.04288339  0.80680441  1
  C  C39  1  0.79484877  0.96102055  0.69068796  1
  C  C40  1  0.16767552  0.20731547  0.69190230  1
  C  C41  1  0.03888969  0.82928092  0.69176797  1
  C  C42  1  0.79395925  0.83292613  0.19191867  1
  C  C43  1  0.03949294  0.20632111  0.19179286  1
  C  C44  1  0.16710219  0.96092576  0.19204504  1
  C  C45  1  0.87767935  0.37311082  0.63925986  1
  C  C46  1  0.50145462  0.12826979  0.64057454  1
  C  C47  1  0.63006575  0.50610075  0.63931300  1
  C  C48  1  0.87531228  0.49902869  0.14102363  1
  C  C49  1  0.62411574  0.12580073  0.14084550  1
  C  C50  1  0.50245260  0.37454721  0.14099311  1
  C  C51  1  0.46126228  0.29436475  0.02457079  1
  C  C52  1  0.83849494  0.54531484  0.02537704  1
  C  C53  1  0.70428388  0.16545305  0.02444921  1
  C  C54  1  0.46266110  0.16909495  0.52628948  1
  C  C55  1  0.70697110  0.54424756  0.52790167  1
  C  C56  1  0.83939420  0.29687322  0.52798202  1
  C  C57  1  0.53876980  0.70655708  0.97418263  1
  C  C58  1  0.16575620  0.46324082  0.97427707  1
  C  C59  1  0.29668554  0.84081782  0.97232380  1
  C  C60  1  0.54320864  0.83589328  0.47512514  1
  C  C61  1  0.29543114  0.46284283  0.47631098  1
  C  C62  1  0.16176821  0.70511414  0.47532686  1
  C  C63  1  0.12459896  0.62318178  0.35945568  1
  C  C64  1  0.49774215  0.87313730  0.35932061  1
  C  C65  1  0.37484184  0.50312629  0.35956653  1
  C  C66  1  0.12575270  0.50182630  0.85885973  1
  C  C67  1  0.37171555  0.87755776  0.86028018  1
  C  C68  1  0.49948029  0.62725353  0.85859911  1
  C  C69  1  0.02489318  0.83770866  0.40839781  1
  C  C70  1  0.81296051  0.97347834  0.40822353  1
  C  C71  1  0.16106773  0.18900096  0.40900002  1
  C  C72  1  0.02942699  0.18882613  0.90775798  1
  C  C73  1  0.16592366  0.97214063  0.90919138  1
  C  C74  1  0.81286752  0.83776526  0.90794488  1
  C  C75  1  0.97145874  0.16535506  0.59093482  1
  C  C76  1  0.18594373  0.02609284  0.59212508  1
  C  C77  1  0.83300824  0.80778432  0.59077520  1
  C  C78  1  0.97447880  0.81295048  0.09215121  1
  C  C79  1  0.83797076  0.02676950  0.09141993  1
  C  C80  1  0.18872862  0.16026017  0.09156993  1
  C  C81  1  0.69496804  0.17271116  0.74202673  1
  C  C82  1  0.47953233  0.30692796  0.74246833  1
  C  C83  1  0.82634219  0.51876591  0.74105089  1
  C  C84  1  0.69347886  0.52028221  0.24287551  1
  C  C85  1  0.82670117  0.30632987  0.24299972  1
  C  C86  1  0.47963593  0.17335708  0.24299403  1
  C  C87  1  0.63825182  0.49128404  0.92384194  1
  C  C88  1  0.85092185  0.35690848  0.92384539  1
  C  C89  1  0.49978066  0.14027871  0.92253711  1
  C  C90  1  0.64113927  0.14597497  0.42427390  1
  C  C91  1  0.50632350  0.36359761  0.42425416  1
  C  C92  1  0.85174267  0.49176755  0.42617151  1
  C  C93  1  0.36133362  0.50489468  0.07691914  1
  C  C94  1  0.14890629  0.64207430  0.07504519  1
  C  C95  1  0.49166324  0.85411783  0.07499383  1
  C  C96  1  0.35909656  0.85216375  0.57451893  1
  C  C97  1  0.49892232  0.63817324  0.57622628  1
  C  C98  1  0.14130250  0.49922694  0.57617573  1
  C  C99  1  0.30630113  0.82688016  0.25730563  1
  C  C100  1  0.52056417  0.69370107  0.25730918  1
  C  C101  1  0.17331794  0.47931875  0.25720136  1
  C  C102  1  0.30576493  0.47639356  0.75770117  1
  C  C103  1  0.17271293  0.69403408  0.75934368  1
  C  C104  1  0.52015290  0.82843089  0.75903943  1
