# generated using pymatgen
data_Cu2NiC33
_symmetry_space_group_name_H-M   'P 1'
_cell_length_a   8.74097970
_cell_length_b   8.75149430
_cell_length_c   22.67443585
_cell_angle_alpha   90.04805189
_cell_angle_beta   89.93860964
_cell_angle_gamma   119.95488522
_symmetry_Int_Tables_number   1
_chemical_formula_structural   Cu2NiC33
_chemical_formula_sum   'Cu6 Ni3 C99'
_cell_volume   1502.81812977
_cell_formula_units_Z   3
loop_
 _symmetry_equiv_pos_site_id
 _symmetry_equiv_pos_as_xyz
  1  'x, y, z'
loop_
 _atom_site_type_symbol
 _atom_site_label
 _atom_site_symmetry_multiplicity
 _atom_site_fract_x
 _atom_site_fract_y
 _atom_site_fract_z
 _atom_site_occupancy
  C  C0  1  0.99792462  0.00037339  0.49436520  1
  C  C1  1  0.00100203  0.00066543  0.00059254  1
  C  C2  1  0.66765696  0.33354559  0.83156543  1
  C  C3  1  0.66621045  0.33297980  0.32786395  1
  C  C4  1  0.33346003  0.66451766  0.16546054  1
  C  C5  1  0.33072624  0.66476346  0.66675014  1
  C  C6  1  0.00064396  0.00012016  0.85593145  1
  C  C7  1  0.99944072  0.00184852  0.64470291  1
  C  C8  1  0.00212707  0.00240347  0.14622737  1
  C  C9  1  0.66202692  0.33171124  0.97831469  1
  C  C10  1  0.66970237  0.32953088  0.47754425  1
  C  C11  1  0.33341968  0.66375601  0.02167821  1
  C  C12  1  0.33516073  0.66684586  0.51995016  1
  C  C13  1  0.33643678  0.67066150  0.31046971  1
  C  C14  1  0.33292301  0.66653443  0.81314974  1
  Ni  Ni15  1  0.99502788  0.00005832  0.35158059  1
  Ni  Ni16  1  0.67100904  0.33547881  0.68571956  1
  Ni  Ni17  1  0.66442251  0.33498623  0.18570321  1
  Cu  Cu18  1  0.95188277  0.33638075  0.58605611  1
  Cu  Cu19  1  0.38375565  0.33466671  0.08664411  1
  Cu  Cu20  1  0.61980343  0.66576579  0.91674657  1
  Cu  Cu21  1  0.04500827  0.38039647  0.91683005  1
  Cu  Cu22  1  0.33477298  0.95311520  0.91733760  1
  Cu  Cu23  1  0.63157033  0.95514175  0.41505871  1
  C  C24  1  0.29012062  0.00759085  0.25207122  1
  C  C25  1  0.71707677  0.70785030  0.25134659  1
  C  C26  1  0.99172873  0.28513356  0.25127561  1
  C  C27  1  0.29520623  0.28889666  0.74902198  1
  C  C28  1  0.99420561  0.70581672  0.74918558  1
  C  C29  1  0.71056656  0.00508501  0.74948754  1
  C  C30  1  0.38387755  0.04926730  0.58484335  1
  C  C31  1  0.66544500  0.61538089  0.58488038  1
  C  C32  1  0.95043027  0.61666528  0.08559701  1
  C  C33  1  0.66562174  0.04911012  0.08555777  1
  C  C34  1  0.32860743  0.37405526  0.41531109  1
  C  C35  1  0.04676630  0.67301320  0.41540268  1
  C  C36  1  0.20244800  0.03041512  0.30656829  1
  C  C37  1  0.82615699  0.79444066  0.30597375  1
  C  C38  1  0.96763879  0.17499076  0.30566014  1
  C  C39  1  0.20218470  0.17424060  0.80358401  1
  C  C40  1  0.97436276  0.80067743  0.80383004  1
  C  C41  1  0.82631194  0.02690103  0.80377760  1
  C  C42  1  0.80173995  0.97337772  0.69453673  1
  C  C43  1  0.17213166  0.19761343  0.69423839  1
  C  C44  1  0.02646775  0.82710446  0.69433992  1
  C  C45  1  0.79813465  0.82754044  0.19536608  1
  C  C46  1  0.02782158  0.19941896  0.19521687  1
  C  C47  1  0.17014678  0.97116946  0.19573640  1
  C  C48  1  0.86879147  0.37033010  0.64311856  1
  C  C49  1  0.49294220  0.12650926  0.63988750  1
  C  C50  1  0.62956101  0.50560317  0.63998046  1
  C  C51  1  0.87461223  0.50608910  0.14027197  1
  C  C52  1  0.63605542  0.12847366  0.14036918  1
  C  C53  1  0.50079488  0.36865086  0.14353072  1
  C  C54  1  0.46777782  0.30128088  0.02639619  1
  C  C55  1  0.83971377  0.53597384  0.02900327  1
  C  C56  1  0.69952575  0.16092192  0.02892143  1
  C  C57  1  0.46365727  0.16292162  0.52870326  1
  C  C58  1  0.69584088  0.53512427  0.52866857  1
  C  C59  1  0.83163347  0.30245050  0.52628519  1
  C  C60  1  0.53317567  0.70153214  0.97437022  1
  C  C61  1  0.16845792  0.46766986  0.97424765  1
  C  C62  1  0.29899837  0.83248468  0.97485889  1
  C  C63  1  0.52884389  0.83415947  0.47349495  1
  C  C64  1  0.30463750  0.46662419  0.47139783  1
  C  C65  1  0.16073675  0.69219656  0.47139968  1
  C  C66  1  0.13021388  0.63368284  0.36136183  1
  C  C67  1  0.49690634  0.86045362  0.35909894  1
  C  C68  1  0.36160321  0.49571079  0.36139569  1
  C  C69  1  0.13574665  0.50126947  0.85789147  1
  C  C70  1  0.36569546  0.86391837  0.85796297  1
  C  C71  1  0.49858875  0.63359534  0.85787463  1
  C  C72  1  0.03009917  0.83524150  0.40983107  1
  C  C73  1  0.82245100  0.97721058  0.40947402  1
  C  C74  1  0.16927263  0.19306448  0.40971175  1
  C  C75  1  0.02621329  0.18731492  0.90684862  1
  C  C76  1  0.16255515  0.97563914  0.90689965  1
  C  C77  1  0.81351179  0.83906683  0.90698412  1
  C  C78  1  0.97571966  0.16021750  0.59197229  1
  C  C79  1  0.19390674  0.02364218  0.59156676  1
  C  C80  1  0.83174761  0.80402870  0.59195593  1
  C  C81  1  0.97106817  0.80491298  0.09206010  1
  C  C82  1  0.83047145  0.02332312  0.09191233  1
  C  C83  1  0.18294781  0.15900751  0.09220090  1
  C  C84  1  0.69062438  0.16650737  0.74350043  1
  C  C85  1  0.47601845  0.30680075  0.74197175  1
  C  C86  1  0.83010871  0.52601099  0.74418041  1
  C  C87  1  0.69219769  0.52450735  0.24395732  1
  C  C88  1  0.83314690  0.30979502  0.24191433  1
  C  C89  1  0.47480605  0.16251983  0.24383513  1
  C  C90  1  0.64376854  0.49577228  0.92438176  1
  C  C91  1  0.85277263  0.35823554  0.92476751  1
  C  C92  1  0.50748810  0.14610806  0.92382656  1
  C  C93  1  0.63801049  0.14646301  0.42425570  1
  C  C94  1  0.50037920  0.36498107  0.42507051  1
  C  C95  1  0.86161856  0.50405726  0.42485277  1
  C  C96  1  0.35471211  0.50462189  0.07700491  1
  C  C97  1  0.13961869  0.64566613  0.07663990  1
  C  C98  1  0.50265204  0.86246824  0.07666989  1
  C  C99  1  0.35768304  0.86139714  0.57470593  1
  C  C100  1  0.50437897  0.64406176  0.57520423  1
  C  C101  1  0.15016503  0.50456268  0.57437868  1
  C  C102  1  0.30188465  0.83186012  0.25767662  1
  C  C103  1  0.52717973  0.69169872  0.25790490  1
  C  C104  1  0.16489237  0.47157495  0.25764013  1
  C  C105  1  0.30626971  0.47119767  0.75474007  1
  C  C106  1  0.16546397  0.69353792  0.75510661  1
  C  C107  1  0.52837214  0.83329565  0.75485353  1
