# generated using pymatgen
data_Cu3NiC30
_symmetry_space_group_name_H-M   'P 1'
_cell_length_a   8.90949697
_cell_length_b   8.92474270
_cell_length_c   22.96224909
_cell_angle_alpha   89.81078401
_cell_angle_beta   89.47047845
_cell_angle_gamma   119.96777231
_symmetry_Int_Tables_number   1
_chemical_formula_structural   Cu3NiC30
_chemical_formula_sum   'Cu9 Ni3 C90'
_cell_volume   1581.60560553
_cell_formula_units_Z   3
loop_
 _symmetry_equiv_pos_site_id
 _symmetry_equiv_pos_as_xyz
  1  'x, y, z'
loop_
 _atom_site_type_symbol
 _atom_site_label
 _atom_site_symmetry_multiplicity
 _atom_site_fract_x
 _atom_site_fract_y
 _atom_site_fract_z
 _atom_site_occupancy
  C  C0  1  0.00833278  0.98734383  0.85737237  1
  C  C1  1  0.01227814  0.01447959  0.64731254  1
  C  C2  1  0.99732945  0.99542773  0.13919089  1
  C  C3  1  0.67822329  0.33930303  0.97445377  1
  C  C4  1  0.66772604  0.32208126  0.47563948  1
  C  C5  1  0.34337901  0.68719919  0.02141344  1
  C  C6  1  0.33604632  0.65540457  0.52251926  1
  C  C7  1  0.34337854  0.66902033  0.31251033  1
  C  C8  1  0.34041601  0.67108368  0.80824057  1
  Ni  Ni9  1  0.00245351  0.00771826  0.35920094  1
  Ni  Ni10  1  0.67716428  0.34561483  0.69311046  1
  Ni  Ni11  1  0.67157219  0.32856113  0.18281732  1
  Cu  Cu12  1  0.28806090  0.28814090  0.75228958  1
  Cu  Cu13  1  0.00471359  0.71465690  0.74943729  1
  Cu  Cu14  1  0.94979175  0.32962042  0.58416204  1
  Cu  Cu15  1  0.95409267  0.61382555  0.08295513  1
  Cu  Cu16  1  0.66566418  0.05071478  0.08354018  1
  Cu  Cu17  1  0.61671464  0.66624642  0.91520337  1
  Cu  Cu18  1  0.34141185  0.95726866  0.91525748  1
  Cu  Cu19  1  0.61642220  0.94878252  0.41672977  1
  Cu  Cu20  1  0.34042820  0.38031278  0.41704807  1
  C  C21  1  0.28653565  0.99806776  0.25017018  1
  C  C22  1  0.71297880  0.71190679  0.24990556  1
  C  C23  1  0.00356863  0.29202578  0.25012421  1
  C  C24  1  0.71750394  0.99677792  0.75138609  1
  C  C25  1  0.37682198  0.04196055  0.58229011  1
  C  C26  1  0.67038278  0.62510844  0.58220116  1
  C  C27  1  0.37730421  0.33614531  0.08283174  1
  C  C28  1  0.05110734  0.38112645  0.91597302  1
  C  C29  1  0.04945631  0.66291574  0.41728350  1
  C  C30  1  0.20613731  0.02017673  0.30304342  1
  C  C31  1  0.81615983  0.78749075  0.30166910  1
  C  C32  1  0.97541657  0.18568175  0.30216531  1
  C  C33  1  0.17789274  0.16733898  0.80772049  1
  C  C34  1  0.98208672  0.81582743  0.80659430  1
  C  C35  1  0.82138182  0.01867312  0.80293449  1
  C  C36  1  0.79807286  0.96838988  0.69722774  1
  C  C37  1  0.15984863  0.19696648  0.69350939  1
  C  C38  1  0.03000716  0.84163202  0.69215698  1
  C  C39  1  0.79752097  0.82665894  0.19744588  1
  C  C40  1  0.03468012  0.21089884  0.19782927  1
  C  C41  1  0.17562120  0.97258858  0.19811478  1
  C  C42  1  0.86987431  0.36739647  0.63986751  1
  C  C43  1  0.48050925  0.11038482  0.63394984  1
  C  C44  1  0.62282759  0.51703251  0.63416835  1
  C  C45  1  0.88394558  0.51916940  0.14389259  1
  C  C46  1  0.61640903  0.10667876  0.14303126  1
  C  C47  1  0.47620551  0.37076344  0.13634101  1
  C  C48  1  0.45429280  0.29766086  0.03210363  1
  C  C49  1  0.82759671  0.52688213  0.02712848  1
  C  C50  1  0.69949530  0.17447686  0.02729303  1
  C  C51  1  0.46078342  0.15838550  0.52970859  1
  C  C52  1  0.69496825  0.54143066  0.53016321  1
  C  C53  1  0.82870366  0.30781892  0.52588283  1
  C  C54  1  0.51733195  0.68460680  0.97261326  1
  C  C55  1  0.15380231  0.45706604  0.96858841  1
  C  C56  1  0.30459426  0.83347030  0.97304080  1
  C  C57  1  0.51011334  0.83357406  0.47298010  1
  C  C58  1  0.31339683  0.48166729  0.47237856  1
  C  C59  1  0.15577755  0.68652718  0.46910886  1
  C  C60  1  0.12815253  0.63063442  0.36373986  1
  C  C61  1  0.48837211  0.85798955  0.35879680  1
  C  C62  1  0.36512834  0.50937907  0.35936943  1
  C  C63  1  0.12759802  0.49217151  0.86386713  1
  C  C64  1  0.36672171  0.85975609  0.86008955  1
  C  C65  1  0.49377023  0.63549744  0.85931451  1
  C  C66  1  0.03005113  0.81240772  0.40977359  1
  C  C67  1  0.79715728  0.96134223  0.40914228  1
  C  C68  1  0.17880226  0.19575908  0.41007679  1
  C  C69  1  0.02237681  0.20592542  0.90783743  1
  C  C70  1  0.16973666  0.97768856  0.90787423  1
  C  C71  1  0.80400935  0.84023104  0.90495711  1
  C  C72  1  0.97257586  0.15832650  0.59269476  1
  C  C73  1  0.20198110  0.02680059  0.58875144  1
  C  C74  1  0.82195871  0.79873493  0.58939089  1
  C  C75  1  0.98325549  0.81533120  0.09572676  1
  C  C76  1  0.84076627  0.02883427  0.09649423  1
  C  C77  1  0.20029398  0.17418441  0.09383446  1
  C  C78  1  0.69150560  0.14313295  0.74471560  1
  C  C79  1  0.46431887  0.29233107  0.74078799  1
  C  C80  1  0.83663985  0.53197547  0.74812263  1
  C  C81  1  0.67770218  0.53578703  0.24117664  1
  C  C82  1  0.85457816  0.31695393  0.24429785  1
  C  C83  1  0.45945978  0.14926263  0.24290001  1
  C  C84  1  0.64175157  0.49919589  0.92942074  1
  C  C85  1  0.87496026  0.36606061  0.92373589  1
  C  C86  1  0.50672055  0.14633106  0.92999969  1
  C  C87  1  0.62994096  0.13920799  0.42710828  1
  C  C88  1  0.51882642  0.37883470  0.43121492  1
  C  C89  1  0.87521473  0.50421582  0.42548023  1
  C  C90  1  0.34318436  0.47811361  0.07137618  1
  C  C91  1  0.14283995  0.63770643  0.06833253  1
  C  C92  1  0.50883175  0.85359456  0.07063472  1
  C  C93  1  0.34877400  0.86695200  0.56955587  1
  C  C94  1  0.51463072  0.65021855  0.57134353  1
  C  C95  1  0.14270586  0.49808198  0.56850817  1
  C  C96  1  0.29910192  0.83588560  0.25774061  1
  C  C97  1  0.53739406  0.70376462  0.25715600  1
  C  C98  1  0.16459065  0.46817701  0.25853554  1
  C  C99  1  0.29990209  0.47519325  0.76243979  1
  C  C100  1  0.18196909  0.70796193  0.76192686  1
  C  C101  1  0.54503593  0.83391071  0.75653715  1
