# generated using pymatgen
data_Cu3Ni3C29
_symmetry_space_group_name_H-M   'P 1'
_cell_length_a   9.08495395
_cell_length_b   9.09066683
_cell_length_c   23.72060782
_cell_angle_alpha   90.22663616
_cell_angle_beta   90.01083410
_cell_angle_gamma   120.07721351
_symmetry_Int_Tables_number   1
_chemical_formula_structural   Cu3Ni3C29
_chemical_formula_sum   'Cu9 Ni9 C87'
_cell_volume   1695.24206498
_cell_formula_units_Z   3
loop_
 _symmetry_equiv_pos_site_id
 _symmetry_equiv_pos_as_xyz
  1  'x, y, z'
loop_
 _atom_site_type_symbol
 _atom_site_label
 _atom_site_symmetry_multiplicity
 _atom_site_fract_x
 _atom_site_fract_y
 _atom_site_fract_z
 _atom_site_occupancy
  C  C0  1  0.67715280  0.33485943  0.83389580  1
  C  C1  1  0.66333384  0.33948682  0.33111798  1
  C  C2  1  0.34332440  0.67375071  0.16877415  1
  C  C3  1  0.67206949  0.33317467  0.68762917  1
  C  C4  1  0.65320779  0.32779027  0.18602417  1
  C  C5  1  0.66583371  0.32424375  0.98461867  1
  C  C6  1  0.66493451  0.33649972  0.48000319  1
  C  C7  1  0.33520035  0.66623592  0.31194808  1
  C  C8  1  0.32628266  0.66725804  0.80882414  1
  C  C9  1  0.00932275  0.99209165  0.35500318  1
  C  C10  1  0.99177152  0.00101869  0.85593441  1
  C  C11  1  0.99341405  0.99009337  0.64879532  1
  C  C12  1  0.99708181  0.99822008  0.14536663  1
  C  C13  1  0.33221359  0.65632743  0.02037911  1
  C  C14  1  0.32329225  0.65848634  0.51548871  1
  Ni  Ni15  1  0.28488774  0.99892208  0.24917809  1
  Ni  Ni16  1  0.71708231  0.71580551  0.24998657  1
  Ni  Ni17  1  0.99692184  0.71625498  0.75150059  1
  Ni  Ni18  1  0.71561969  0.00064989  0.75062548  1
  Ni  Ni19  1  0.66483937  0.03397886  0.08388830  1
  Ni  Ni20  1  0.36849692  0.33104282  0.08336149  1
  Ni  Ni21  1  0.04328546  0.37675600  0.91545969  1
  Ni  Ni22  1  0.32923070  0.37298878  0.41532891  1
  Ni  Ni23  1  0.04287387  0.66628635  0.41565635  1
  Cu  Cu24  1  0.99816796  0.28345362  0.25033182  1
  Cu  Cu25  1  0.28440824  0.28213848  0.75033362  1
  Cu  Cu26  1  0.96394530  0.33204512  0.58327235  1
  Cu  Cu27  1  0.36947270  0.03543295  0.58341741  1
  Cu  Cu28  1  0.66385694  0.62930474  0.58347614  1
  Cu  Cu29  1  0.96448231  0.62988095  0.08363375  1
  Cu  Cu30  1  0.62396735  0.66632934  0.91596076  1
  Cu  Cu31  1  0.33010829  0.95639389  0.91615386  1
  Cu  Cu32  1  0.62707388  0.95644351  0.41689873  1
  C  C33  1  0.19579797  0.01996551  0.30288525  1
  C  C34  1  0.82583822  0.80994569  0.30329386  1
  C  C35  1  0.97954132  0.18215824  0.30128727  1
  C  C36  1  0.20262387  0.17737254  0.80096274  1
  C  C37  1  0.97766189  0.80979373  0.80318917  1
  C  C38  1  0.83081678  0.02539250  0.80277977  1
  C  C39  1  0.80976539  0.98482503  0.69747809  1
  C  C40  1  0.18088070  0.19895853  0.69873750  1
  C  C41  1  0.01639922  0.82534777  0.69762464  1
  C  C42  1  0.80752736  0.82531522  0.19730717  1
  C  C43  1  0.01916068  0.20167532  0.19887905  1
  C  C44  1  0.17503102  0.98249670  0.19718478  1
  C  C45  1  0.88884908  0.36491373  0.63329049  1
  C  C46  1  0.47638446  0.11346653  0.63360426  1
  C  C47  1  0.63552766  0.52420783  0.63352050  1
  C  C48  1  0.89183690  0.52429726  0.13368426  1
  C  C49  1  0.63159886  0.11186344  0.13595964  1
  C  C50  1  0.48148981  0.37244317  0.13535406  1
  C  C51  1  0.44684647  0.30506822  0.03026356  1
  C  C52  1  0.86160196  0.55602681  0.03276192  1
  C  C53  1  0.69727943  0.14185718  0.03118831  1
  C  C54  1  0.44549814  0.14225662  0.53369416  1
  C  C55  1  0.69795654  0.55542567  0.53373615  1
  C  C56  1  0.85762246  0.30158541  0.53344370  1
  C  C57  1  0.54427804  0.69353676  0.96710215  1
  C  C58  1  0.15678069  0.46558403  0.96865808  1
  C  C59  1  0.30755998  0.85190662  0.96691559  1
  C  C60  1  0.54122856  0.84945438  0.46795122  1
  C  C61  1  0.30926698  0.46659984  0.46927986  1
  C  C62  1  0.15700049  0.69188454  0.46952679  1
  C  C63  1  0.12512728  0.64015506  0.36431059  1
  C  C64  1  0.52106509  0.88152456  0.36672217  1
  C  C65  1  0.36123432  0.48547032  0.36469273  1
  C  C66  1  0.12842963  0.48436351  0.86368282  1
  C  C67  1  0.35884271  0.87936200  0.86584774  1
  C  C68  1  0.52116396  0.64290670  0.86559702  1
  C  C69  1  0.02764153  0.82764507  0.40925225  1
  C  C70  1  0.79505534  0.97289385  0.40959899  1
  C  C71  1  0.16707597  0.19850823  0.40769127  1
  C  C72  1  0.02872657  0.19916686  0.90625968  1
  C  C73  1  0.17638643  0.97240666  0.90754729  1
  C  C74  1  0.79494076  0.82235392  0.90886506  1
  C  C75  1  0.98619065  0.18341803  0.59418459  1
  C  C76  1  0.19882206  0.01669136  0.59412245  1
  C  C77  1  0.81711760  0.80101045  0.59353866  1
  C  C78  1  0.98515405  0.80048473  0.09243610  1
  C  C79  1  0.82068896  0.01220480  0.09521203  1
  C  C80  1  0.19076166  0.17779976  0.09533303  1
  C  C81  1  0.69980080  0.16072203  0.74510490  1
  C  C82  1  0.45430510  0.29942349  0.74442825  1
  C  C83  1  0.83643886  0.54054271  0.74503565  1
  C  C84  1  0.70308269  0.54057295  0.24643197  1
  C  C85  1  0.84722707  0.30293067  0.24521316  1
  C  C86  1  0.46184324  0.15927923  0.24745766  1
  C  C87  1  0.64765203  0.51956359  0.92333991  1
  C  C88  1  0.86476230  0.35195956  0.92280889  1
  C  C89  1  0.47925183  0.12864923  0.92241420  1
  C  C90  1  0.64626758  0.12661639  0.42523415  1
  C  C91  1  0.48332836  0.34963940  0.42509373  1
  C  C92  1  0.86596123  0.51215665  0.42510561  1
  C  C93  1  0.34707443  0.49218693  0.07331312  1
  C  C94  1  0.13860925  0.65185285  0.07440117  1
  C  C95  1  0.50506686  0.85333916  0.07185640  1
  C  C96  1  0.35022563  0.86504550  0.57272706  1
  C  C97  1  0.51558542  0.65223728  0.57272597  1
  C  C98  1  0.13510905  0.48510718  0.57323196  1
  C  C99  1  0.30043448  0.83927075  0.25351747  1
  C  C100  1  0.53994465  0.69813189  0.25335563  1
  C  C101  1  0.15208202  0.45400633  0.25381578  1
  C  C102  1  0.30215439  0.44996731  0.75572145  1
  C  C103  1  0.15442896  0.70051771  0.75539969  1
  C  C104  1  0.54479886  0.84197881  0.75689419  1
