# generated using pymatgen
data_CuNiC16
_symmetry_space_group_name_H-M   'P 1'
_cell_length_a   8.85931742
_cell_length_b   8.85941020
_cell_length_c   23.10616714
_cell_angle_alpha   89.93189288
_cell_angle_beta   90.00000000
_cell_angle_gamma   119.99965359
_symmetry_Int_Tables_number   1
_chemical_formula_structural   CuNiC16
_chemical_formula_sum   'Cu6 Ni6 C96'
_cell_volume   1570.59684854
_cell_formula_units_Z   6
loop_
 _symmetry_equiv_pos_site_id
 _symmetry_equiv_pos_as_xyz
  1  'x, y, z'
loop_
 _atom_site_type_symbol
 _atom_site_label
 _atom_site_symmetry_multiplicity
 _atom_site_fract_x
 _atom_site_fract_y
 _atom_site_fract_z
 _atom_site_occupancy
  C  C0  1  0.00209078  0.00325487  0.49896153  1
  C  C1  1  0.00116409  0.00325487  0.99896153  1
  C  C2  1  0.66910413  0.33595227  0.83237449  1
  C  C3  1  0.66684914  0.33595227  0.33237449  1
  C  C4  1  0.33419501  0.66556582  0.16555164  1
  C  C5  1  0.33136981  0.66556582  0.66555164  1
  Ni  Ni6  1  0.00000279  0.99820563  0.35359696  1
  Ni  Ni7  1  0.99820283  0.99820563  0.85359696  1
  Ni  Ni8  1  0.67318307  0.33657752  0.68699557  1
  Ni  Ni9  1  0.66339545  0.33657752  0.18699557  1
  Ni  Ni10  1  0.33153832  0.66060147  0.02032704  1
  Ni  Ni11  1  0.32906215  0.66060147  0.52032704  1
  Cu  Cu12  1  0.00130964  0.99986261  0.64587586  1
  Cu  Cu13  1  0.99855297  0.99986261  0.14587586  1
  Cu  Cu14  1  0.66433300  0.33197160  0.97919340  1
  Cu  Cu15  1  0.66763959  0.33197160  0.47919340  1
  Cu  Cu16  1  0.33878547  0.66310257  0.31247620  1
  Cu  Cu17  1  0.32431610  0.66310257  0.81247620  1
  C  C18  1  0.71237638  0.71024746  0.25048830  1
  C  C19  1  0.99787107  0.71024746  0.75048830  1
  C  C20  1  0.95740406  0.33343076  0.58367405  1
  C  C21  1  0.37602770  0.33343076  0.08367405  1
  C  C22  1  0.04143006  0.37405045  0.91770776  1
  C  C23  1  0.33261940  0.37405045  0.41770776  1
  C  C24  1  0.28744787  0.99831137  0.25023836  1
  C  C25  1  -0.00013021  0.28790983  0.25031310  1
  C  C26  1  0.28804004  0.28790983  0.75031310  1
  C  C27  1  0.71086350  0.99831137  0.75023836  1
  C  C28  1  0.37930948  0.04598981  0.58379992  1
  C  C29  1  0.66711134  0.62150204  0.58353265  1
  C  C30  1  0.95439171  0.62150204  0.08353265  1
  C  C31  1  0.66668133  0.04598981  0.08379992  1
  C  C32  1  0.62054458  0.66643770  0.91663230  1
  C  C33  1  0.33352935  0.95440098  0.91700402  1
  C  C34  1  0.62087063  0.95440098  0.41700402  1
  C  C35  1  0.04589212  0.66643770  0.41663230  1
  C  C36  1  0.20611088  0.02956152  0.30381299  1
  C  C37  1  0.82728460  0.79981375  0.30683884  1
  C  C38  1  0.97413426  0.17781769  0.30402148  1
  C  C39  1  0.20368344  0.17781769  0.80402148  1
  C  C40  1  0.97252915  0.79981375  0.80683884  1
  C  C41  1  0.82345064  0.02956152  0.80381299  1
  C  C42  1  0.80036176  0.97202011  0.69567882  1
  C  C43  1  0.17159276  0.20307545  0.69555111  1
  C  C44  1  0.03026416  0.83542292  0.69303095  1
  C  C45  1  0.80515876  0.83542292  0.19303095  1
  C  C46  1  0.03148269  0.20307545  0.19555111  1
  C  C47  1  0.17165835  0.97202011  0.19567882  1
  C  C48  1  0.86606021  0.36091120  0.63950300  1
  C  C49  1  0.48760673  0.12912422  0.63769358  1
  C  C50  1  0.63654988  0.50986235  0.63736942  1
  C  C51  1  0.87331347  0.50986235  0.13736942  1
  C  C52  1  0.64151849  0.12912422  0.13769358  1
  C  C53  1  0.49485199  0.36091120  0.13950300  1
  C  C54  1  0.47175084  0.30319975  0.02642380  1
  C  C55  1  0.83866592  0.53449605  0.02909488  1
  C  C56  1  0.69743564  0.16209211  0.02884052  1
  C  C57  1  0.46465748  0.16209211  0.52884052  1
  C  C58  1  0.69583114  0.53449605  0.52909488  1
  C  C59  1  0.83144991  0.30319975  0.52642380  1
  C  C60  1  0.53945725  0.69590831  0.97078542  1
  C  C61  1  0.16185995  0.46738800  0.97291954  1
  C  C62  1  0.30733542  0.84564873  0.97101587  1
  C  C63  1  0.53831231  0.84564873  0.47101587  1
  C  C64  1  0.30552705  0.46738800  0.47291954  1
  C  C65  1  0.15645006  0.69590831  0.47078542  1
  C  C66  1  0.13135147  0.63751818  0.36221896  1
  C  C67  1  0.50477579  0.86900102  0.36223167  1
  C  C68  1  0.36339115  0.50196072  0.35998263  1
  C  C69  1  0.13856857  0.50196072  0.85998263  1
  C  C70  1  0.36422423  0.86900102  0.86223167  1
  C  C71  1  0.50616571  0.63751818  0.86221896  1
  C  C72  1  0.02176160  0.82539942  0.40972333  1
  C  C73  1  0.80306226  0.97787859  0.40906353  1
  C  C74  1  0.16472406  0.18439175  0.40953257  1
  C  C75  1  0.01966769  0.18439175  0.90953257  1
  C  C76  1  0.17481633  0.97787859  0.90906353  1
  C  C77  1  0.80363782  0.82539942  0.90972333  1
  C  C78  1  0.97451109  0.15751746  0.59179246  1
  C  C79  1  0.19543919  0.02866658  0.59052573  1
  C  C80  1  0.83346091  0.80481843  0.59077577  1
  C  C81  1  0.97135752  0.80481843  0.09077577  1
  C  C82  1  0.83322739  0.02866658  0.09052573  1
  C  C83  1  0.18300637  0.15751746  0.09179246  1
  C  C84  1  0.68591049  0.15673268  0.74243424  1
  C  C85  1  0.46885336  0.30848677  0.74220974  1
  C  C86  1  0.83059664  0.51817322  0.74377891  1
  C  C87  1  0.68757758  0.51817322  0.24377891  1
  C  C88  1  0.83963440  0.30848677  0.24220974  1
  C  C89  1  0.47082319  0.15673268  0.24243424  1
  C  C90  1  0.63920532  0.50091736  0.92449677  1
  C  C91  1  0.84976430  0.35969975  0.92507248  1
  C  C92  1  0.50002652  0.13834098  0.92365429  1
  C  C93  1  0.63831546  0.13834098  0.42365429  1
  C  C94  1  0.50993645  0.35969975  0.42507248  1
  C  C95  1  0.86171303  0.50091736  0.42449677  1
  C  C96  1  0.35535835  0.50344654  0.07716260  1
  C  C97  1  0.13828431  0.64832666  0.07580973  1
  C  C98  1  0.50726852  0.86487728  0.07547457  1
  C  C99  1  0.35760776  0.86487728  0.57547457  1
  C  C100  1  0.51004136  0.64832666  0.57580973  1
  C  C101  1  0.14808719  0.50344654  0.57716260  1
  C  C102  1  0.30302317  0.83233601  0.25742824  1
  C  C103  1  0.51802526  0.69518813  0.25777214  1
  C  C104  1  0.16447166  0.47260552  0.25753629  1
  C  C105  1  0.30813286  0.47260552  0.75753629  1
  C  C106  1  0.17716187  0.69518813  0.75777214  1
  C  C107  1  0.52931184  0.83233601  0.75742824  1
