# generated using pymatgen
data_Cu3NiC13
_symmetry_space_group_name_H-M   'P 1'
_cell_length_a   8.75108827
_cell_length_b   8.75108799
_cell_length_c   22.62019653
_cell_angle_alpha   90.00000000
_cell_angle_beta   90.00000000
_cell_angle_gamma   120.00000103
_symmetry_Int_Tables_number   1
_chemical_formula_structural   Cu3NiC13
_chemical_formula_sum   'Cu18 Ni6 C78'
_cell_volume   1500.20675295
_cell_formula_units_Z   6
loop_
 _symmetry_equiv_pos_site_id
 _symmetry_equiv_pos_as_xyz
  1  'x, y, z'
loop_
 _atom_site_type_symbol
 _atom_site_label
 _atom_site_symmetry_multiplicity
 _atom_site_fract_x
 _atom_site_fract_y
 _atom_site_fract_z
 _atom_site_occupancy
  C  C0  1  -0.00000000  -0.00000000  0.64245929  1
  C  C1  1  -0.00000000  0.00000000  0.14245929  1
  C  C2  1  0.66666700  0.33333300  0.97579229  1
  C  C3  1  0.66666700  0.33333300  0.47579229  1
  C  C4  1  0.33333300  0.66666700  0.30912629  1
  C  C5  1  0.33333300  0.66666700  0.80912629  1
  Ni  Ni6  1  -0.00000000  0.00000000  0.35426724  1
  Ni  Ni7  1  -0.00000000  -0.00000000  0.85426724  1
  Ni  Ni8  1  0.66666700  0.33333300  0.68760024  1
  Ni  Ni9  1  0.66666700  0.33333300  0.18760024  1
  Ni  Ni10  1  0.33333300  0.66666700  0.02093424  1
  Ni  Ni11  1  0.33333300  0.66666700  0.52093424  1
  Cu  Cu12  1  0.28855323  0.00281854  0.24969984  1
  Cu  Cu13  1  0.71426531  0.71144677  0.24969984  1
  Cu  Cu14  1  0.99718146  0.28573469  0.24969984  1
  Cu  Cu15  1  0.28855323  0.28573469  0.74969984  1
  Cu  Cu16  1  0.99718146  0.71144677  0.74969984  1
  Cu  Cu17  1  0.71426531  0.00281854  0.74969984  1
  Cu  Cu18  1  0.95522023  0.33615154  0.58303284  1
  Cu  Cu19  1  0.38093231  0.04477977  0.58303284  1
  Cu  Cu20  1  0.66384846  0.61906769  0.58303284  1
  Cu  Cu21  1  0.95522023  0.61906769  0.08303284  1
  Cu  Cu22  1  0.66384846  0.04477977  0.08303284  1
  Cu  Cu23  1  0.38093231  0.33615154  0.08303284  1
  Cu  Cu24  1  0.62188623  0.66948554  0.91636684  1
  Cu  Cu25  1  0.04759831  0.37811377  0.91636684  1
  Cu  Cu26  1  0.33051446  0.95240169  0.91636684  1
  Cu  Cu27  1  0.62188623  0.95240169  0.41636684  1
  Cu  Cu28  1  0.33051446  0.37811377  0.41636684  1
  Cu  Cu29  1  0.04759831  0.66948554  0.41636684  1
  C  C30  1  0.20957360  0.03388033  0.30532854  1
  C  C31  1  0.82430673  0.79042640  0.30532854  1
  C  C32  1  0.96611967  0.17569327  0.30532854  1
  C  C33  1  0.20957360  0.17569327  0.80532854  1
  C  C34  1  0.96611967  0.79042640  0.80532854  1
  C  C35  1  0.82430673  0.03388033  0.80532854  1
  C  C36  1  0.79978543  0.96787144  0.69489883  1
  C  C37  1  0.16808601  0.20021457  0.69489883  1
  C  C38  1  0.03212856  0.83191399  0.69489883  1
  C  C39  1  0.79978543  0.83191399  0.19489883  1
  C  C40  1  0.03212856  0.20021457  0.19489883  1
  C  C41  1  0.16808601  0.96787144  0.19489883  1
  C  C42  1  0.87624060  0.36721333  0.63866154  1
  C  C43  1  0.49097373  0.12375940  0.63866154  1
  C  C44  1  0.63278667  0.50902627  0.63866154  1
  C  C45  1  0.87624060  0.50902627  0.13866154  1
  C  C46  1  0.63278667  0.12375940  0.13866154  1
  C  C47  1  0.49097373  0.36721333  0.13866154  1
  C  C48  1  0.46645243  0.30120444  0.02823183  1
  C  C49  1  0.83475301  0.53354757  0.02823183  1
  C  C50  1  0.69879556  0.16524699  0.02823183  1
  C  C51  1  0.46645243  0.16524699  0.52823183  1
  C  C52  1  0.69879556  0.53354757  0.52823183  1
  C  C53  1  0.83475301  0.30120444  0.52823183  1
  C  C54  1  0.54290660  0.70054733  0.97199554  1
  C  C55  1  0.15763973  0.45709340  0.97199554  1
  C  C56  1  0.29945267  0.84236027  0.97199554  1
  C  C57  1  0.54290660  0.84236027  0.47199554  1
  C  C58  1  0.29945267  0.45709340  0.47199554  1
  C  C59  1  0.15763973  0.70054733  0.47199554  1
  C  C60  1  0.13311843  0.63453844  0.36156583  1
  C  C61  1  0.50141901  0.86688157  0.36156583  1
  C  C62  1  0.36546156  0.49858099  0.36156583  1
  C  C63  1  0.13311843  0.49858099  0.86156583  1
  C  C64  1  0.36546156  0.86688157  0.86156583  1
  C  C65  1  0.50141901  0.63453844  0.86156583  1
  C  C66  1  0.02200586  0.82696588  0.40816539  1
  C  C67  1  0.80496002  0.97799414  0.40816539  1
  C  C68  1  0.17303412  0.19503998  0.40816539  1
  C  C69  1  0.02200586  0.19503998  0.90816539  1
  C  C70  1  0.17303412  0.97799414  0.90816539  1
  C  C71  1  0.80496002  0.82696588  0.90816539  1
  C  C72  1  0.97203594  0.16807588  0.59299856  1
  C  C73  1  0.19603994  0.02796406  0.59299856  1
  C  C74  1  0.83192412  0.80396006  0.59299856  1
  C  C75  1  0.97203594  0.80396006  0.09299856  1
  C  C76  1  0.83192412  0.02796406  0.09299856  1
  C  C77  1  0.19603994  0.16807588  0.09299856  1
  C  C78  1  0.68867286  0.16029888  0.74149839  1
  C  C79  1  0.47162702  0.31132714  0.74149839  1
  C  C80  1  0.83970112  0.52837298  0.74149839  1
  C  C81  1  0.68867286  0.52837298  0.24149839  1
  C  C82  1  0.83970112  0.31132714  0.24149839  1
  C  C83  1  0.47162702  0.16029888  0.24149839  1
  C  C84  1  0.63870294  0.50140888  0.92633156  1
  C  C85  1  0.86270694  0.36129706  0.92633156  1
  C  C86  1  0.49859112  0.13729306  0.92633156  1
  C  C87  1  0.63870294  0.13729306  0.42633156  1
  C  C88  1  0.49859112  0.36129706  0.42633156  1
  C  C89  1  0.86270694  0.50140888  0.42633156  1
  C  C90  1  0.35533886  0.49363288  0.07483239  1
  C  C91  1  0.13829302  0.64466114  0.07483239  1
  C  C92  1  0.50636712  0.86170698  0.07483239  1
  C  C93  1  0.35533886  0.86170698  0.57483239  1
  C  C94  1  0.50636712  0.64466114  0.57483239  1
  C  C95  1  0.13829302  0.49363288  0.57483239  1
  C  C96  1  0.30536894  0.83474288  0.25966556  1
  C  C97  1  0.52937294  0.69463106  0.25966556  1
  C  C98  1  0.16525712  0.47062706  0.25966556  1
  C  C99  1  0.30536894  0.47062706  0.75966556  1
  C  C100  1  0.16525712  0.69463106  0.75966556  1
  C  C101  1  0.52937294  0.83474288  0.75966556  1
