# generated using pymatgen
data_Cu(NiC4)2
_symmetry_space_group_name_H-M   'P 1'
_cell_length_a   6.83835763
_cell_length_b   6.09146902
_cell_length_c   6.83835706
_cell_angle_alpha   63.55171839
_cell_angle_beta   51.15462063
_cell_angle_gamma   63.55171756
_symmetry_Int_Tables_number   1
_chemical_formula_structural   Cu(NiC4)2
_chemical_formula_sum   'Cu1 Ni2 C8'
_cell_volume   192.92482481
_cell_formula_units_Z   1
loop_
 _symmetry_equiv_pos_site_id
 _symmetry_equiv_pos_as_xyz
  1  'x, y, z'
loop_
 _atom_site_type_symbol
 _atom_site_label
 _atom_site_symmetry_multiplicity
 _atom_site_fract_x
 _atom_site_fract_y
 _atom_site_fract_z
 _atom_site_occupancy
  Ni  Ni0  1  0.34293984  0.15706016  0.34293984  1
  Ni  Ni1  1  0.73002183  0.76997817  0.73002183  1
  Cu  Cu2  1  0.56767475  0.43232525  0.56767475  1
  C  C3  1  0.03324111  0.46675889  0.03324111  1
  C  C4  1  -0.00250038  0.00250038  -0.00250038  1
  C  C5  1  0.15883034  0.84116966  0.15883034  1
  C  C6  1  0.19653546  0.30240563  0.74847426  1
  C  C7  1  0.19653546  0.75258464  0.74847426  1
  C  C8  1  0.74847426  0.30240563  0.19653546  1
  C  C9  1  0.74847426  0.75258464  0.19653546  1
  C  C10  1  0.79018805  0.20981195  0.79018805  1
