# generated using pymatgen
data_Cu(NiC7)5
_symmetry_space_group_name_H-M   'P 1'
_cell_length_a   8.99723293
_cell_length_b   8.97497421
_cell_length_c   22.08793971
_cell_angle_alpha   89.68318855
_cell_angle_beta   90.24762371
_cell_angle_gamma   119.94236232
_symmetry_Int_Tables_number   1
_chemical_formula_structural   Cu(NiC7)5
_chemical_formula_sum   'Cu3 Ni15 C105'
_cell_volume   1545.51281898
_cell_formula_units_Z   3
loop_
 _symmetry_equiv_pos_site_id
 _symmetry_equiv_pos_as_xyz
  1  'x, y, z'
loop_
 _atom_site_type_symbol
 _atom_site_label
 _atom_site_symmetry_multiplicity
 _atom_site_fract_x
 _atom_site_fract_y
 _atom_site_fract_z
 _atom_site_occupancy
  C  C0  1  0.62416702  0.99924921  0.25145654  1
  C  C1  1  0.36465614  0.35731844  0.25305416  1
  C  C2  1  0.00908080  0.64273650  0.25071594  1
  C  C3  1  0.64508512  0.63570807  0.74733049  1
  C  C4  1  0.99263966  0.35543847  0.74781592  1
  C  C5  1  0.29682027  0.33999871  0.58726386  1
  C  C6  1  0.02712105  0.69562373  0.58785209  1
  C  C7  1  0.67519481  0.96449100  0.58556234  1
  C  C8  1  0.29643331  0.96280925  0.08265915  1
  C  C9  1  0.66506948  0.70138890  0.07903573  1
  C  C10  1  0.03562450  0.33372918  0.07953268  1
  C  C11  1  0.97288900  0.67698009  0.91039444  1
  C  C12  1  0.32503145  0.29648773  0.91003646  1
  C  C13  1  0.32405663  0.02182033  0.41159471  1
  C  C14  1  0.69629823  0.67401498  0.41737753  1
  C  C15  1  0.99344132  0.01167000  0.49705788  1
  C  C16  1  0.98933913  0.00058037  0.99488266  1
  C  C17  1  0.65519443  0.30997774  0.82652670  1
  C  C18  1  0.66876366  0.32586470  0.33447553  1
  C  C19  1  0.33207933  0.67312814  0.16309015  1
  C  C20  1  0.33360645  0.66981946  0.66781133  1
  C  C21  1  0.00744693  0.00863837  0.35413908  1
  C  C22  1  0.99639890  0.00180168  0.84860992  1
  C  C23  1  0.99539849  0.00013110  0.65595473  1
  C  C24  1  0.00616220  0.99846932  0.14721503  1
  C  C25  1  0.66703965  0.33470595  0.68754793  1
  C  C26  1  0.66025619  0.32706701  0.18067216  1
  C  C27  1  0.33523954  0.66837122  0.01652579  1
  C  C28  1  0.33085259  0.65928667  0.51342726  1
  C  C29  1  0.33079337  0.67034942  0.32324280  1
  C  C30  1  0.66689190  0.32837657  0.98229857  1
  C  C31  1  0.67720488  0.33730757  0.48178858  1
  C  C32  1  0.33583852  0.67401237  0.81620922  1
  Ni  Ni33  1  0.29640701  0.99921437  0.25007153  1
  Ni  Ni34  1  0.29715295  0.29538032  0.75132392  1
  Ni  Ni35  1  0.00239317  0.70662260  0.75046023  1
  Ni  Ni36  1  0.70387626  0.00018859  0.74927515  1
  Ni  Ni37  1  0.96359057  0.33340253  0.58587299  1
  Ni  Ni38  1  0.66647250  0.62967816  0.58425324  1
  Ni  Ni39  1  0.96053792  0.62698007  0.08548173  1
  Ni  Ni40  1  0.66769148  0.03578536  0.08649044  1
  Ni  Ni41  1  0.37073591  0.33504425  0.08489171  1
  Ni  Ni42  1  0.63087129  0.66898198  0.91948313  1
  Ni  Ni43  1  0.03789345  0.37062180  0.91895899  1
  Ni  Ni44  1  0.33320035  0.96238903  0.91977233  1
  Ni  Ni45  1  0.63039584  0.96327025  0.41722049  1
  Ni  Ni46  1  0.33315394  0.36962240  0.41735744  1
  Ni  Ni47  1  0.03746372  0.66706874  0.41635372  1
  Cu  Cu48  1  0.70562798  0.70588391  0.25001931  1
  Cu  Cu49  1  0.00026312  0.29344783  0.24920635  1
  Cu  Cu50  1  0.37372650  0.04042640  0.58348477  1
  C  C51  1  0.21062834  0.02583959  0.30616085  1
  C  C52  1  0.81020260  0.78890733  0.30460686  1
  C  C53  1  0.97293226  0.18161854  0.30210562  1
  C  C54  1  0.21254583  0.19436494  0.80907245  1
  C  C55  1  0.97970734  0.79037602  0.80728916  1
  C  C56  1  0.81885685  0.02576765  0.80372013  1
  C  C57  1  0.77336392  0.96258019  0.69071650  1
  C  C58  1  0.18628686  0.21908357  0.69389186  1
  C  C59  1  0.02766274  0.81074036  0.69194946  1
  C  C60  1  0.78580420  0.81199763  0.19523604  1
  C  C61  1  0.02242202  0.21523178  0.19338191  1
  C  C62  1  0.18590490  0.97252697  0.19294749  1
  C  C63  1  0.87577781  0.36064786  0.64022055  1
  C  C64  1  0.48757009  0.12823655  0.63436884  1
  C  C65  1  0.63702711  0.51010960  0.63783639  1
  C  C66  1  0.87405139  0.51250153  0.14111242  1
  C  C67  1  0.63785729  0.11806744  0.14257234  1
  C  C68  1  0.48519736  0.36495105  0.14057061  1
  C  C69  1  0.45240983  0.29917814  0.02729842  1
  C  C70  1  0.84543301  0.54573463  0.02706778  1
  C  C71  1  0.70746190  0.15796670  0.02997056  1
  C  C72  1  0.44602237  0.14451168  0.52549012  1
  C  C73  1  0.69759737  0.54876822  0.52464618  1
  C  C74  1  0.84217171  0.29038605  0.52837525  1
  C  C75  1  0.54388305  0.68524796  0.97610576  1
  C  C76  1  0.14663780  0.45777611  0.97519362  1
  C  C77  1  0.30993103  0.85580459  0.97675941  1
  C  C78  1  0.54536888  0.85502572  0.47421018  1
  C  C79  1  0.31751023  0.45408652  0.47489305  1
  C  C80  1  0.14589770  0.69221313  0.47328973  1
  C  C81  1  0.11483768  0.63996394  0.35839713  1
  C  C82  1  0.51924178  0.88677052  0.35971629  1
  C  C83  1  0.36831881  0.48209867  0.35989973  1
  C  C84  1  0.11760116  0.48868400  0.86119514  1
  C  C85  1  0.36588450  0.88150239  0.86288235  1
  C  C86  1  0.51331106  0.62969564  0.86172174  1
  C  C87  1  0.01145145  0.82515751  0.41132222  1
  C  C88  1  0.80848333  0.98122041  0.41034069  1
  C  C89  1  0.18154957  0.18579635  0.41214481  1
  C  C90  1  0.02206572  0.19500662  0.91155803  1
  C  C91  1  0.17448618  0.98319911  0.91240368  1
  C  C92  1  0.81202225  0.81958508  0.91207368  1
  C  C93  1  0.98590059  0.17295030  0.58905922  1
  C  C94  1  0.20100171  0.02294280  0.58826808  1
  C  C95  1  0.83168083  0.80813174  0.58714077  1
  C  C96  1  0.97573972  0.80598996  0.08844696  1
  C  C97  1  0.82925076  0.01742910  0.09064339  1
  C  C98  1  0.19109535  0.17301702  0.08858115  1
  C  C99  1  0.68283399  0.15921404  0.74317231  1
  C  C100  1  0.48150531  0.32885174  0.74550672  1
  C  C101  1  0.84263200  0.52346067  0.74628258  1
  C  C102  1  0.69067403  0.53220110  0.24563601  1
  C  C103  1  0.84673705  0.31685981  0.24538191  1
  C  C104  1  0.47935946  0.16353833  0.24593221  1
  C  C105  1  0.64254030  0.49668632  0.92158501  1
  C  C106  1  0.85858725  0.36306636  0.92154204  1
  C  C107  1  0.49543168  0.14909625  0.92174181  1
  C  C108  1  0.63927704  0.14438817  0.42176201  1
  C  C109  1  0.50321406  0.35207624  0.42121815  1
  C  C110  1  0.85005566  0.50485858  0.41980823  1
  C  C111  1  0.35343307  0.49679292  0.07798391  1
  C  C112  1  0.13935280  0.64440066  0.07907951  1
  C  C113  1  0.50549570  0.85819572  0.07849837  1
  C  C114  1  0.35643569  0.86754248  0.57744632  1
  C  C115  1  0.50585163  0.64996843  0.57766607  1
  C  C116  1  0.14010538  0.49867813  0.57736132  1
  C  C117  1  0.31664177  0.83576923  0.25470061  1
  C  C118  1  0.52979265  0.68338218  0.25437705  1
  C  C119  1  0.15782806  0.46642858  0.25493606  1
  C  C120  1  0.31207184  0.48256668  0.75512102  1
  C  C121  1  0.16374916  0.67922504  0.75444919  1
  C  C122  1  0.52281324  0.82866832  0.75548814  1
