# generated using pymatgen
data_Cu12NiC24
_symmetry_space_group_name_H-M   'P 1'
_cell_length_a   4.86421591
_cell_length_b   5.78510489
_cell_length_c   15.20152091
_cell_angle_alpha   88.00471229
_cell_angle_beta   87.44472956
_cell_angle_gamma   89.26652101
_symmetry_Int_Tables_number   1
_chemical_formula_structural   Cu12NiC24
_chemical_formula_sum   'Cu12 Ni1 C24'
_cell_volume   427.05923382
_cell_formula_units_Z   1
loop_
 _symmetry_equiv_pos_site_id
 _symmetry_equiv_pos_as_xyz
  1  'x, y, z'
loop_
 _atom_site_type_symbol
 _atom_site_label
 _atom_site_symmetry_multiplicity
 _atom_site_fract_x
 _atom_site_fract_y
 _atom_site_fract_z
 _atom_site_occupancy
  Ni  Ni0  1  0.47857400  0.89955000  0.57731200  1
  Cu  Cu1  1  0.97567100  0.13561200  0.40747700  1
  Cu  Cu2  1  0.99252100  0.83483500  0.23876600  1
  Cu  Cu3  1  0.02224800  0.17431500  0.08046100  1
  Cu  Cu4  1  0.07311600  0.19926400  0.74703200  1
  Cu  Cu5  1  0.00829500  0.63331100  0.58090700  1
  Cu  Cu6  1  0.03764500  0.88057000  0.91642100  1
  Cu  Cu7  1  0.52005200  0.37385700  0.59581800  1
  Cu  Cu8  1  0.51362100  0.35089200  0.92506300  1
  Cu  Cu9  1  0.46986400  0.33007700  0.25073400  1
  Cu  Cu10  1  0.50221300  0.63871100  0.09328900  1
  Cu  Cu11  1  0.45965900  0.62107700  0.41322000  1
  Cu  Cu12  1  0.51697900  0.67609300  0.76127600  1
  C  C13  1  0.20022400  0.08890100  0.29731600  1
  C  C14  1  0.30216100  0.14506600  0.64784800  1
  C  C15  1  0.22391700  0.13363300  0.97076500  1
  C  C16  1  0.22060400  0.88279000  0.13271500  1
  C  C17  1  0.20011600  0.83343400  0.48541900  1
  C  C18  1  0.24074300  0.92353800  0.80763600  1
  C  C19  1  0.27515600  0.39811700  0.14321000  1
  C  C20  1  0.32110000  0.63072200  0.64970300  1
  C  C21  1  0.33447800  0.41995900  0.81582800  1
  C  C22  1  0.72913000  0.39092900  0.02850600  1
  C  C23  1  0.69534900  0.61396400  0.19668200  1
  C  C24  1  0.65640500  0.36190100  0.36019000  1
  C  C25  1  0.67823300  0.61897800  0.51977900  1
  C  C26  1  0.83507800  0.42334100  0.67830300  1
  C  C27  1  0.20392400  0.58906200  0.31824200  1
  C  C28  1  0.20411300  0.36473100  0.49003000  1
  C  C29  1  0.29639200  0.63420700  0.98073900  1
  C  C30  1  0.77441100  0.65238900  0.86469800  1
  C  C31  1  0.76372900  0.12077700  0.18262400  1
  C  C32  1  0.71942200  0.13091800  0.52287600  1
  C  C33  1  0.74293400  0.86407300  0.35086600  1
  C  C34  1  0.76658500  0.87723400  0.02245200  1
  C  C35  1  0.79970300  0.16243000  0.84865400  1
  C  C36  1  0.75952500  0.88359600  0.68047200  1
