# generated using pymatgen
data_Cu2Ni2C5
_symmetry_space_group_name_H-M   'P 1'
_cell_length_a   3.70305458
_cell_length_b   5.84716554
_cell_length_c   5.84716554
_cell_angle_alpha   92.98257667
_cell_angle_beta   100.29935342
_cell_angle_gamma   100.29935342
_symmetry_Int_Tables_number   1
_chemical_formula_structural   Cu2Ni2C5
_chemical_formula_sum   'Cu2 Ni2 C5'
_cell_volume   122.09565357
_cell_formula_units_Z   1
loop_
 _symmetry_equiv_pos_site_id
 _symmetry_equiv_pos_as_xyz
  1  'x, y, z'
loop_
 _atom_site_type_symbol
 _atom_site_label
 _atom_site_symmetry_multiplicity
 _atom_site_fract_x
 _atom_site_fract_y
 _atom_site_fract_z
 _atom_site_occupancy
  C  C0  1  0.00000000  0.00000000  0.00000000  1
  C  C1  1  0.14887500  0.77994100  0.40096400  1
  C  C2  1  0.85112500  0.59903600  0.22005900  1
  C  C3  1  0.85112500  0.22005900  0.59903600  1
  C  C4  1  0.14887500  0.40096400  0.77994100  1
  Ni  Ni5  1  0.61749400  0.22676100  0.22676100  1
  Ni  Ni6  1  0.38250600  0.77323900  0.77323900  1
  Cu  Cu7  1  0.00000000  0.75890300  0.24109700  1
  Cu  Cu8  1  0.00000000  0.24109700  0.75890300  1
