# generated using pymatgen
data_Cu3NiC16
_symmetry_space_group_name_H-M   'P 1'
_cell_length_a   6.66901447
_cell_length_b   6.98531189
_cell_length_c   6.98560324
_cell_angle_alpha   111.26758031
_cell_angle_beta   110.95211433
_cell_angle_gamma   108.05773235
_symmetry_Int_Tables_number   1
_chemical_formula_structural   Cu3NiC16
_chemical_formula_sum   'Cu3 Ni1 C16'
_cell_volume   244.40869763
_cell_formula_units_Z   1
loop_
 _symmetry_equiv_pos_site_id
 _symmetry_equiv_pos_as_xyz
  1  'x, y, z'
loop_
 _atom_site_type_symbol
 _atom_site_label
 _atom_site_symmetry_multiplicity
 _atom_site_fract_x
 _atom_site_fract_y
 _atom_site_fract_z
 _atom_site_occupancy
  Ni  Ni0  1  0.41345900  0.54562600  0.86781200  1
  Cu  Cu1  1  0.57447300  0.43789700  0.13659200  1
  Cu  Cu2  1  0.00434000  0.51185000  0.49247100  1
  Cu  Cu3  1  0.49595700  0.00635300  0.48959500  1
  C  C4  1  0.49435400  0.50614100  0.49065200  1
  C  C5  1  0.99090600  0.51041300  0.98493000  1
  C  C6  1  0.99083100  0.00599600  0.48046900  1
  C  C7  1  0.49432900  0.00368200  0.98825100  1
  C  C8  1  0.81794700  0.33917200  0.13121600  1
  C  C9  1  0.17968100  0.67652600  0.84930500  1
  C  C10  1  0.81792500  0.68670800  0.47875200  1
  C  C11  1  0.32373100  0.51116400  0.17288900  1
  C  C12  1  0.49389600  0.19003200  0.30387700  1
  C  C13  1  0.13593200  0.83282800  0.30311100  1
  C  C14  1  0.67787400  0.87506900  0.16225100  1
  C  C15  1  0.48520500  0.81416800  0.67103800  1
  C  C16  1  0.17969600  0.33036900  0.50313800  1
  C  C17  1  0.67787600  0.51561900  0.80279700  1
  C  C18  1  0.85787600  0.17956200  0.67830600  1
  C  C19  1  0.32371000  0.15082600  0.81254700  1
