# generated using pymatgen
data_Cu3(NiC15)2
_symmetry_space_group_name_H-M   'P 1'
_cell_length_a   8.46057499
_cell_length_b   8.47047468
_cell_length_c   21.99339475
_cell_angle_alpha   90.09764760
_cell_angle_beta   89.89444535
_cell_angle_gamma   120.06738361
_symmetry_Int_Tables_number   1
_chemical_formula_structural   Cu3(NiC15)2
_chemical_formula_sum   'Cu9 Ni6 C90'
_cell_volume   1364.06268073
_cell_formula_units_Z   3
loop_
 _symmetry_equiv_pos_site_id
 _symmetry_equiv_pos_as_xyz
  1  'x, y, z'
loop_
 _atom_site_type_symbol
 _atom_site_label
 _atom_site_symmetry_multiplicity
 _atom_site_fract_x
 _atom_site_fract_y
 _atom_site_fract_z
 _atom_site_occupancy
  C  C0  1  0.67177981  0.33394629  0.83350370  1
  C  C1  1  0.66492102  0.33636398  0.33198446  1
  C  C2  1  0.33915201  0.67068984  0.16880907  1
  C  C3  1  0.00992882  0.99200730  0.35498614  1
  C  C4  1  0.99126382  0.00148446  0.85525444  1
  C  C5  1  0.99260741  0.98819564  0.64810728  1
  C  C6  1  0.99610069  0.99799950  0.14380484  1
  C  C7  1  0.33276609  0.65671938  0.02366523  1
  C  C8  1  0.32333197  0.65880986  0.51812745  1
  Ni  Ni9  1  0.67184981  0.33349371  0.68793057  1
  Ni  Ni10  1  0.65280170  0.32787413  0.18712745  1
  Ni  Ni11  1  0.66756164  0.32508283  0.98247498  1
  Ni  Ni12  1  0.66536837  0.33720158  0.47795776  1
  Ni  Ni13  1  0.33418851  0.66527087  0.31290272  1
  Ni  Ni14  1  0.32527808  0.66728634  0.81073293  1
  Cu  Cu15  1  0.29401618  0.99730804  0.24910812  1
  Cu  Cu16  1  0.70603694  0.70528721  0.24998628  1
  Cu  Cu17  1  -0.00057520  0.70512925  0.75115882  1
  Cu  Cu18  1  0.70119722  0.99721576  0.75025209  1
  Cu  Cu19  1  0.66632318  0.05291501  0.08393684  1
  Cu  Cu20  1  0.38579232  0.32851319  0.08290992  1
  Cu  Cu21  1  0.04266210  0.38408746  0.91534009  1
  Cu  Cu22  1  0.33735687  0.38007972  0.41449081  1
  Cu  Cu23  1  0.04206186  0.65825216  0.41495374  1
  C  C24  1  0.99864566  0.29211562  0.25027171  1
  C  C25  1  0.29298042  0.29341889  0.74983850  1
  C  C26  1  0.94830407  0.33119007  0.58305991  1
  C  C27  1  0.38506252  0.05143336  0.58339801  1
  C  C28  1  0.66444465  0.61455409  0.58350375  1
  C  C29  1  0.94720055  0.61481044  0.08356875  1
  C  C30  1  0.61763073  0.66007504  0.91586598  1
  C  C31  1  0.33631448  0.95631019  0.91620559  1
  C  C32  1  0.62111116  0.95737527  0.41640783  1
  C  C33  1  0.20570073  0.03377388  0.30640663  1
  C  C34  1  0.82915485  0.79867696  0.30651186  1
  C  C35  1  0.96533765  0.17867695  0.30477790  1
  C  C36  1  0.21353132  0.17594525  0.80412599  1
  C  C37  1  0.96509994  0.79834766  0.80592410  1
  C  C38  1  0.83127446  0.03706361  0.80575371  1
  C  C39  1  0.79828131  0.96887354  0.69389319  1
  C  C40  1  0.17765538  0.21074241  0.69504489  1
  C  C41  1  0.03176882  0.83003999  0.69363958  1
  C  C42  1  0.79601520  0.82909281  0.19353523  1
  C  C43  1  0.03372720  0.21254124  0.19518725  1
  C  C44  1  0.17067071  0.96679978  0.19370299  1
  C  C45  1  0.86846633  0.36545883  0.63787049  1
  C  C46  1  0.49773580  0.13437848  0.63836681  1
  C  C47  1  0.63490280  0.50278775  0.63837407  1
  C  C48  1  0.87117147  0.50358764  0.13827675  1
  C  C49  1  0.63347350  0.13526573  0.14073254  1
  C  C50  1  0.50241103  0.37184432  0.13962733  1
  C  C51  1  0.47030859  0.30445335  0.02495083  1
  C  C52  1  0.83965801  0.53667840  0.02783742  1
  C  C53  1  0.70007110  0.16474481  0.02620062  1
  C  C54  1  0.46715547  0.16453755  0.52871096  1
  C  C55  1  0.69936137  0.53552049  0.52904838  1
  C  C56  1  0.83597801  0.30116241  0.52855418  1
  C  C57  1  0.54139596  0.69785973  0.97093533  1
  C  C58  1  0.16406137  0.46871264  0.97256833  1
  C  C59  1  0.30399069  0.84409358  0.97083358  1
  C  C60  1  0.53933507  0.84320005  0.47199318  1
  C  C61  1  0.30538404  0.46938625  0.47315099  1
  C  C62  1  0.16355998  0.69710019  0.47337340  1
  C  C63  1  0.13295749  0.63044062  0.36001331  1
  C  C64  1  0.50565780  0.87722375  0.36244273  1
  C  C65  1  0.37127025  0.50321345  0.36017958  1
  C  C66  1  0.13517666  0.50162109  0.85945053  1
  C  C67  1  0.37027667  0.87508796  0.86163881  1
  C  C68  1  0.50548537  0.63197012  0.86143599  1
  C  C69  1  0.02392053  0.82977987  0.40918831  1
  C  C70  1  0.80137967  0.97672198  0.40940261  1
  C  C71  1  0.16416672  0.19376607  0.40769253  1
  C  C72  1  0.02644673  0.19379180  0.90628251  1
  C  C73  1  0.17287764  0.97472355  0.90782253  1
  C  C74  1  0.80088564  0.82551620  0.90906507  1
  C  C75  1  0.97242029  0.17187725  0.59111277  1
  C  C76  1  0.20175635  0.03170162  0.59133975  1
  C  C77  1  0.82955703  0.79942130  0.59072176  1
  C  C78  1  0.97090925  0.79861471  0.08933613  1
  C  C79  1  0.83264517  0.02569675  0.09296069  1
  C  C80  1  0.19245389  0.16629983  0.09216565  1
  C  C81  1  0.68835212  0.16934525  0.74017105  1
  C  C82  1  0.47409319  0.30902561  0.74091433  1
  C  C83  1  0.82642500  0.52054329  0.74006400  1
  C  C84  1  0.69514213  0.52048151  0.24132291  1
  C  C85  1  0.83586684  0.31098917  0.24187854  1
  C  C86  1  0.48101446  0.16982515  0.24288204  1
  C  C87  1  0.64008846  0.49986926  0.92384429  1
  C  C88  1  0.85222811  0.36018472  0.92501418  1
  C  C89  1  0.49916026  0.14091855  0.92303093  1
  C  C90  1  0.63850400  0.13937243  0.42574541  1
  C  C91  1  0.50361348  0.35747137  0.42642455  1
  C  C92  1  0.85391756  0.49159928  0.42651719  1
  C  C93  1  0.36011100  0.50062698  0.07530340  1
  C  C94  1  0.13445612  0.63915956  0.07711083  1
  C  C95  1  0.49669073  0.85772190  0.07474579  1
  C  C96  1  0.36425741  0.86876930  0.57600712  1
  C  C97  1  0.50595709  0.63968628  0.57622816  1
  C  C98  1  0.13250678  0.49563717  0.57636287  1
  C  C99  1  0.30788740  0.82626212  0.25933733  1
  C  C100  1  0.51907004  0.69005572  0.25892764  1
  C  C101  1  0.16458261  0.47339589  0.25720278  1
  C  C102  1  0.31061011  0.47253769  0.75893666  1
  C  C103  1  0.16892123  0.69155753  0.75957637  1
  C  C104  1  0.52086411  0.82698663  0.76199907  1
