# generated using pymatgen
data_Cu3Ni2C15
_symmetry_space_group_name_H-M   'P 1'
_cell_length_a   15.14903750
_cell_length_b   8.75510475
_cell_length_c   8.75519441
_cell_angle_alpha   90.00000000
_cell_angle_beta   124.86214606
_cell_angle_gamma   90.00000000
_symmetry_Int_Tables_number   1
_chemical_formula_structural   Cu3Ni2C15
_chemical_formula_sum   'Cu12 Ni8 C60'
_cell_volume   952.81039531
_cell_formula_units_Z   4
loop_
 _symmetry_equiv_pos_site_id
 _symmetry_equiv_pos_as_xyz
  1  'x, y, z'
loop_
 _atom_site_type_symbol
 _atom_site_label
 _atom_site_symmetry_multiplicity
 _atom_site_fract_x
 _atom_site_fract_y
 _atom_site_fract_z
 _atom_site_occupancy
  C  C0  1  0.24657657  0.77166975  0.99824677  1
  C  C1  1  0.74657657  0.72833025  0.49824677  1
  C  C2  1  0.74657657  0.27166975  0.99824677  1
  C  C3  1  0.24657657  0.22833025  0.49824677  1
  C  C4  1  0.50168224  0.11088400  0.74887247  1
  C  C5  1  0.50168224  0.88911600  0.24887247  1
  C  C6  1  0.00168224  0.61088400  0.74887247  1
  C  C7  1  0.00168224  0.38911600  0.24887247  1
  C  C8  1  0.81090543  0.93603470  0.21755294  1
  C  C9  1  0.81090543  0.06396530  0.71755294  1
  C  C10  1  0.31090543  0.43603470  0.21755294  1
  C  C11  1  0.31090543  0.56396530  0.71755294  1
  Ni  Ni12  1  0.10281392  0.75785453  0.55538334  1
  Ni  Ni13  1  0.89793588  0.74941212  0.94217583  1
  Ni  Ni14  1  0.89793588  0.25058788  0.44217583  1
  Ni  Ni15  1  0.10281392  0.24214547  0.05538334  1
  Ni  Ni16  1  0.60281392  0.25785453  0.55538334  1
  Ni  Ni17  1  0.39793588  0.24941212  0.94217583  1
  Ni  Ni18  1  0.39793588  0.75058788  0.44217583  1
  Ni  Ni19  1  0.60281392  0.74214547  0.05538334  1
  Cu  Cu20  1  0.00141046  0.95573826  0.74677760  1
  Cu  Cu21  1  0.00141046  0.04426174  0.24677760  1
  Cu  Cu22  1  0.50141046  0.45573826  0.74677760  1
  Cu  Cu23  1  0.50141046  0.54426174  0.24677760  1
  Cu  Cu24  1  0.35516775  0.89593239  0.75462388  1
  Cu  Cu25  1  0.64788307  0.89299181  0.74527059  1
  Cu  Cu26  1  0.64788307  0.10700819  0.24527059  1
  Cu  Cu27  1  0.35516775  0.10406761  0.25462388  1
  Cu  Cu28  1  0.85516775  0.39593239  0.75462388  1
  Cu  Cu29  1  0.14788307  0.39299181  0.74527059  1
  Cu  Cu30  1  0.14788307  0.60700819  0.24527059  1
  Cu  Cu31  1  0.85516775  0.60406761  0.25462388  1
  C  C32  1  0.15597127  0.57126726  0.73983389  1
  C  C33  1  0.84985338  0.57196858  0.76098756  1
  C  C34  1  0.84985338  0.42803142  0.26098756  1
  C  C35  1  0.15597127  0.42873274  0.23983389  1
  C  C36  1  0.65597127  0.07126726  0.73983389  1
  C  C37  1  0.34985338  0.07196858  0.76098756  1
  C  C38  1  0.34985338  0.92803142  0.26098756  1
  C  C39  1  0.65597127  0.92873274  0.23983389  1
  C  C40  1  0.42820130  0.55135182  0.56758027  1
  C  C41  1  0.56768004  0.55614679  0.92059672  1
  C  C42  1  0.56768004  0.44385321  0.42059672  1
  C  C43  1  0.42820130  0.44864818  0.06758027  1
  C  C44  1  0.92820130  0.05135182  0.56758027  1
  C  C45  1  0.06768004  0.05614679  0.92059672  1
  C  C46  1  0.06768004  0.94385321  0.42059672  1
  C  C47  1  0.92820130  0.94864818  0.06758027  1
  C  C48  1  0.25849158  0.81783241  0.73924797  1
  C  C49  1  0.74581486  0.82536651  0.75683926  1
  C  C50  1  0.74581486  0.17463349  0.25683926  1
  C  C51  1  0.25849158  0.18216759  0.23924797  1
  C  C52  1  0.75849158  0.31783241  0.73924797  1
  C  C53  1  0.24581486  0.32536651  0.75683926  1
  C  C54  1  0.24581486  0.67463349  0.25683926  1
  C  C55  1  0.75849158  0.68216759  0.23924797  1
  C  C56  1  0.35888753  0.85906810  0.58632220  1
  C  C57  1  0.64819337  0.86290245  0.92062591  1
  C  C58  1  0.64819337  0.13709755  0.42062591  1
  C  C59  1  0.35888753  0.14093190  0.08632220  1
  C  C60  1  0.85888753  0.35906810  0.58632220  1
  C  C61  1  0.14819337  0.36290245  0.92062591  1
  C  C62  1  0.14819337  0.63709755  0.42062591  1
  C  C63  1  0.85888753  0.64093190  0.08632220  1
  C  C64  1  0.45699053  0.83221144  0.93680729  1
  C  C65  1  0.54512741  0.83255746  0.56609643  1
  C  C66  1  0.54512741  0.16744254  0.06609643  1
  C  C67  1  0.45699053  0.16778856  0.43680729  1
  C  C68  1  0.95699053  0.33221144  0.93680729  1
  C  C69  1  0.04512741  0.33255746  0.56609643  1
  C  C70  1  0.04512741  0.66744254  0.06609643  1
  C  C71  1  0.95699053  0.66778856  0.43680729  1
  C  C72  1  0.08007494  0.84770138  0.74017336  1
  C  C73  1  0.92033845  0.85177325  0.75598572  1
  C  C74  1  0.92033845  0.14822675  0.25598572  1
  C  C75  1  0.08007494  0.15229862  0.24017336  1
  C  C76  1  0.58007494  0.34770138  0.74017336  1
  C  C77  1  0.42033845  0.35177325  0.75598572  1
  C  C78  1  0.42033845  0.64822675  0.25598572  1
  C  C79  1  0.58007494  0.65229862  0.24017336  1
