# generated using pymatgen
data_Cu2NiC16
_symmetry_space_group_name_H-M   'P 1'
_cell_length_a   9.13215821
_cell_length_b   5.77570078
_cell_length_c   5.91134860
_cell_angle_alpha   76.10108342
_cell_angle_beta   59.40128150
_cell_angle_gamma   58.41384296
_symmetry_Int_Tables_number   1
_chemical_formula_structural   Cu2NiC16
_chemical_formula_sum   'Cu2 Ni1 C16'
_cell_volume   228.46861211
_cell_formula_units_Z   1
loop_
 _symmetry_equiv_pos_site_id
 _symmetry_equiv_pos_as_xyz
  1  'x, y, z'
loop_
 _atom_site_type_symbol
 _atom_site_label
 _atom_site_symmetry_multiplicity
 _atom_site_fract_x
 _atom_site_fract_y
 _atom_site_fract_z
 _atom_site_occupancy
  Ni  Ni0  1  0.99029900  0.98122200  0.50615400  1
  C  C1  1  0.03852300  0.99434000  0.95691100  1
  C  C2  1  0.34771700  0.00963100  0.01422100  1
  C  C3  1  0.62490600  0.03443900  0.04121400  1
  C  C4  1  0.81538400  0.57038900  0.47103600  1
  Cu  Cu5  1  0.18361300  0.45087400  0.50817300  1
  Cu  Cu6  1  0.50705600  0.49469000  0.49851600  1
  C  C7  1  0.46915100  0.28173700  0.32085100  1
  C  C8  1  0.17828700  0.77860600  0.16834400  1
  C  C9  1  0.16522600  0.20892600  0.81457400  1
  C  C10  1  0.82647300  0.27346100  0.33082300  1
  C  C11  1  0.87733000  0.71514300  0.66097600  1
  C  C12  1  0.51979600  0.76850800  0.19049100  1
  C  C13  1  0.49639500  0.21937700  0.80502200  1
  C  C14  1  0.12221300  0.25600400  0.32768200  1
  C  C15  1  0.18628900  0.73880200  0.67164900  1
  C  C16  1  0.82848100  0.19618100  0.83919700  1
  C  C17  1  0.84489000  0.79718100  0.18133000  1
  C  C18  1  0.54225500  0.72007200  0.69284000  1
