# generated using pymatgen
data_CuNiC7
_symmetry_space_group_name_H-M   'P 1'
_cell_length_a   2.93513288
_cell_length_b   6.40738647
_cell_length_c   6.40738425
_cell_angle_alpha   53.61057917
_cell_angle_beta   90.00000000
_cell_angle_gamma   90.00000000
_symmetry_Int_Tables_number   1
_chemical_formula_structural   CuNiC7
_chemical_formula_sum   'Cu1 Ni1 C7'
_cell_volume   97.00344211
_cell_formula_units_Z   1
loop_
 _symmetry_equiv_pos_site_id
 _symmetry_equiv_pos_as_xyz
  1  'x, y, z'
loop_
 _atom_site_type_symbol
 _atom_site_label
 _atom_site_symmetry_multiplicity
 _atom_site_fract_x
 _atom_site_fract_y
 _atom_site_fract_z
 _atom_site_occupancy
  Ni  Ni0  1  0.50000000  0.10524987  0.10524987  1
  Cu  Cu1  1  -0.00000000  0.56439344  0.56439344  1
  C  C2  1  0.50000000  0.55099688  0.03723101  1
  C  C3  1  0.50000000  0.03723101  0.55099688  1
  C  C4  1  -0.00000000  0.94587280  0.94587280  1
  C  C5  1  -0.00000000  0.74539524  0.74539524  1
  C  C6  1  0.50000000  0.72614018  0.21455261  1
  C  C7  1  0.50000000  0.21455261  0.72614018  1
  C  C8  1  -0.00000000  0.23516796  0.23516797  1
