# generated using pymatgen
data_Cu(NiC)2
_symmetry_space_group_name_H-M   'P 1'
_cell_length_a   3.28326300
_cell_length_b   3.28321277
_cell_length_c   36.17756637
_cell_angle_alpha   89.98550332
_cell_angle_beta   90.00000000
_cell_angle_gamma   120.00047585
_symmetry_Int_Tables_number   1
_chemical_formula_structural   Cu(NiC)2
_chemical_formula_sum   'Cu2 Ni4 C4'
_cell_volume   337.73228672
_cell_formula_units_Z   2
loop_
 _symmetry_equiv_pos_site_id
 _symmetry_equiv_pos_as_xyz
  1  'x, y, z'
loop_
 _atom_site_type_symbol
 _atom_site_label
 _atom_site_symmetry_multiplicity
 _atom_site_fract_x
 _atom_site_fract_y
 _atom_site_fract_z
 _atom_site_occupancy
  C  C0  1  0.66680100  0.33360000  0.45582100  1
  C  C1  1  0.33332800  0.66665700  0.11552100  1
  C  C2  1  0.33331600  0.66663200  0.58392100  1
  C  C3  1  0.66660300  0.33320400  0.33757800  1
  Ni  Ni4  1  0.66675500  0.33351000  0.06889000  1
  Ni  Ni5  1  0.66666600  0.33333200  0.53703700  1
  Ni  Ni6  1  0.66657000  0.33314000  0.16215200  1
  Ni  Ni7  1  0.66661800  0.33323500  0.63060500  1
  Cu  Cu8  1  0.33322600  0.66645400  0.38003800  1
  Cu  Cu9  1  0.33338400  0.66677100  0.29547500  1
