# generated using pymatgen
data_CuNi3C38
_symmetry_space_group_name_H-M   'P 1'
_cell_length_a   8.93507721
_cell_length_b   8.93507692
_cell_length_c   21.77590856
_cell_angle_alpha   90.00000000
_cell_angle_beta   90.00000000
_cell_angle_gamma   120.00000111
_symmetry_Int_Tables_number   1
_chemical_formula_structural   CuNi3C38
_chemical_formula_sum   'Cu3 Ni9 C114'
_cell_volume   1505.57888818
_cell_formula_units_Z   3
loop_
 _symmetry_equiv_pos_site_id
 _symmetry_equiv_pos_as_xyz
  1  'x, y, z'
loop_
 _atom_site_type_symbol
 _atom_site_label
 _atom_site_symmetry_multiplicity
 _atom_site_fract_x
 _atom_site_fract_y
 _atom_site_fract_z
 _atom_site_occupancy
  C  C0  1  0.63580550  0.99992553  0.25293706  1
  C  C1  1  0.36412003  0.36419450  0.25293706  1
  C  C2  1  0.00007447  0.63587997  0.25293706  1
  C  C3  1  0.64473554  0.63674783  0.74359263  1
  C  C4  1  0.99201228  0.35526446  0.74359263  1
  C  C5  1  0.36325217  0.00798772  0.74359263  1
  C  C6  1  0.29561506  0.33409290  0.58069848  1
  C  C7  1  0.03847884  0.70438494  0.58069848  1
  C  C8  1  0.66590710  0.96152116  0.58069848  1
  C  C9  1  0.29556657  0.96215046  0.09128449  1
  C  C10  1  0.66658489  0.70443343  0.09128449  1
  C  C11  1  0.03784954  0.33341511  0.09128449  1
  C  C12  1  0.96942166  0.67390703  0.91577477  1
  C  C13  1  0.70448436  0.03057834  0.91577477  1
  C  C14  1  0.32609297  0.29551564  0.91577477  1
  C  C15  1  0.97842350  0.30335984  0.40966860  1
  C  C16  1  0.32493534  0.02157650  0.40966860  1
  C  C17  1  0.69664016  0.67506466  0.40966860  1
  C  C18  1  0.00000000  0.00000000  0.49722889  1
  C  C19  1  0.00000000  0.00000000  0.00318640  1
  C  C20  1  0.66666700  0.33333300  0.83009845  1
  C  C21  1  0.66666700  0.33333300  0.32871075  1
  C  C22  1  0.33333300  0.66666700  0.17306271  1
  C  C23  1  0.33333300  0.66666700  0.66054669  1
  Ni  Ni24  1  0.00000000  0.00000000  0.34830172  1
  Ni  Ni25  1  0.00000000  0.00000000  0.84945742  1
  Ni  Ni26  1  0.00000000  0.00000000  0.64875847  1
  Ni  Ni27  1  0.00000000  0.00000000  0.15272612  1
  Ni  Ni28  1  0.66666700  0.33333300  0.68386091  1
  Ni  Ni29  1  0.66666700  0.33333300  0.18644877  1
  Ni  Ni30  1  0.33333300  0.66666700  0.01935591  1
  Ni  Ni31  1  0.33333300  0.66666700  0.51536584  1
  Ni  Ni32  1  0.33333300  0.66666700  0.31759853  1
  Cu  Cu33  1  0.66666700  0.33333300  0.98557504  1
  Cu  Cu34  1  0.66666700  0.33333300  0.48275276  1
  Cu  Cu35  1  0.33333300  0.66666700  0.81642156  1
  C  C36  1  0.29609869  0.99853063  0.24960731  1
  C  C37  1  0.70243194  0.70390131  0.24960731  1
  C  C38  1  0.00146937  0.29756806  0.24960731  1
  C  C39  1  0.29523967  0.30176498  0.75305390  1
  C  C40  1  0.00652531  0.70476033  0.75305390  1
  C  C41  1  0.69823502  0.99347469  0.75305390  1
  C  C42  1  0.95653274  0.33351371  0.58378625  1
  C  C43  1  0.37698197  0.04346726  0.58378625  1
  C  C44  1  0.66648629  0.62301803  0.58378625  1
  C  C45  1  0.95621272  0.62263081  0.08214350  1
  C  C46  1  0.66641909  0.04378728  0.08214350  1
  C  C47  1  0.37736919  0.33358091  0.08214350  1
  C  C48  1  0.62319757  0.66272118  0.91805835  1
  C  C49  1  0.03952261  0.37680243  0.91805835  1
  C  C50  1  0.33727882  0.96047739  0.91805835  1
  C  C51  1  0.63006317  0.96918338  0.41992730  1
  C  C52  1  0.33911921  0.36993683  0.41992730  1
  C  C53  1  0.03081662  0.66088079  0.41992730  1
  C  C54  1  0.21083427  0.02398859  0.30668048  1
  C  C55  1  0.81315432  0.78916573  0.30668048  1
  C  C56  1  0.97601141  0.18684568  0.30668048  1
  C  C57  1  0.21384861  0.19393422  0.81034196  1
  C  C58  1  0.98008561  0.78615139  0.81034196  1
  C  C59  1  0.80606578  0.01991439  0.81034196  1
  C  C60  1  0.77342157  0.95676440  0.69593369  1
  C  C61  1  0.18334284  0.22657843  0.69593369  1
  C  C62  1  0.04323560  0.81665716  0.69593369  1
  C  C63  1  0.78375468  0.81220857  0.19095307  1
  C  C64  1  0.02845389  0.21624532  0.19095307  1
  C  C65  1  0.18779143  0.97154611  0.19095307  1
  C  C66  1  0.87595158  0.35974924  0.64162556  1
  C  C67  1  0.48379866  0.12404842  0.64162556  1
  C  C68  1  0.64025076  0.51620134  0.64162556  1
  C  C69  1  0.87020383  0.50968017  0.13652011  1
  C  C70  1  0.63947734  0.12979617  0.13652011  1
  C  C71  1  0.49031983  0.36052266  0.13652011  1
  C  C72  1  0.46272651  0.30029847  0.02090201  1
  C  C73  1  0.83757296  0.53727349  0.02090201  1
  C  C74  1  0.69970153  0.16242704  0.02090201  1
  C  C75  1  0.46668883  0.16281520  0.52624590  1
  C  C76  1  0.69612737  0.53331117  0.52624590  1
  C  C77  1  0.83718480  0.30387263  0.52624590  1
  C  C78  1  0.54050806  0.69061799  0.97349613  1
  C  C79  1  0.15010893  0.45949194  0.97349613  1
  C  C80  1  0.30938201  0.84989107  0.97349613  1
  C  C81  1  0.54876842  0.86058578  0.47713136  1
  C  C82  1  0.31181636  0.45123158  0.47713136  1
  C  C83  1  0.13941422  0.68818364  0.47713136  1
  C  C84  1  0.10699647  0.62432008  0.36296719  1
  C  C85  1  0.51732261  0.89300353  0.36296719  1
  C  C86  1  0.37567992  0.48267739  0.36296719  1
  C  C87  1  0.12312917  0.49585004  0.85920295  1
  C  C88  1  0.37271987  0.87687083  0.85920295  1
  C  C89  1  0.50414996  0.62728013  0.85920295  1
  C  C90  1  0.00334713  0.81797290  0.41407850  1
  C  C91  1  0.81462577  0.99665287  0.41407850  1
  C  C92  1  0.18202710  0.18537423  0.41407850  1
  C  C93  1  0.01387771  0.19440865  0.91025082  1
  C  C94  1  0.18053094  0.98612229  0.91025082  1
  C  C95  1  0.80559135  0.81946906  0.91025082  1
  C  C96  1  0.97119677  0.16741875  0.58572639  1
  C  C97  1  0.19622198  0.02880323  0.58572639  1
  C  C98  1  0.83258125  0.80377802  0.58572639  1
  C  C99  1  0.97173817  0.80249325  0.08199218  1
  C  C100  1  0.83075508  0.02826183  0.08199218  1
  C  C101  1  0.19750675  0.16924492  0.08199218  1
  C  C102  1  0.67070056  0.15050855  0.74777659  1
  C  C103  1  0.47980899  0.32929944  0.74777659  1
  C  C104  1  0.84949145  0.52019101  0.74777659  1
  C  C105  1  0.68341142  0.52154187  0.24554822  1
  C  C106  1  0.83813144  0.31658858  0.24554822  1
  C  C107  1  0.47845813  0.16186856  0.24554822  1
  C  C108  1  0.63745967  0.49099905  0.92017922  1
  C  C109  1  0.85354038  0.36254033  0.92017922  1
  C  C110  1  0.50900095  0.14645962  0.92017922  1
  C  C111  1  0.64656813  0.15731541  0.42556393  1
  C  C112  1  0.51074828  0.35343187  0.42556393  1
  C  C113  1  0.84268459  0.48925172  0.42556393  1
  C  C114  1  0.35971531  0.49571711  0.07506419  1
  C  C115  1  0.13600080  0.64028469  0.07506419  1
  C  C116  1  0.50428289  0.86399920  0.07506419  1
  C  C117  1  0.35702441  0.86201923  0.57765465  1
  C  C118  1  0.50499382  0.64297559  0.57765465  1
  C  C119  1  0.13798077  0.49500618  0.57765465  1
  C  C120  1  0.31488176  0.83487606  0.25465796  1
  C  C121  1  0.51999330  0.68511824  0.25465796  1
  C  C122  1  0.16512394  0.48000670  0.25465796  1
  C  C123  1  0.31117247  0.49011868  0.75915535  1
  C  C124  1  0.17894521  0.68882753  0.75915535  1
  C  C125  1  0.50988132  0.82105479  0.75915535  1
