# generated using pymatgen
data_CuNiC15
_symmetry_space_group_name_H-M   'P 1'
_cell_length_a   8.78218990
_cell_length_b   8.79989544
_cell_length_c   22.88832415
_cell_angle_alpha   89.86108600
_cell_angle_beta   90.00000000
_cell_angle_gamma   119.93346530
_symmetry_Int_Tables_number   1
_chemical_formula_structural   CuNiC15
_chemical_formula_sum   'Cu6 Ni6 C90'
_cell_volume   1532.90077807
_cell_formula_units_Z   6
loop_
 _symmetry_equiv_pos_site_id
 _symmetry_equiv_pos_as_xyz
  1  'x, y, z'
loop_
 _atom_site_type_symbol
 _atom_site_label
 _atom_site_symmetry_multiplicity
 _atom_site_fract_x
 _atom_site_fract_y
 _atom_site_fract_z
 _atom_site_occupancy
  C  C0  1  0.00016106  0.00034491  0.35663346  1
  C  C1  1  0.00018385  0.00034491  0.85663346  1
  C  C2  1  0.68136008  0.34246136  0.69039355  1
  C  C3  1  0.66110229  0.34246136  0.19039355  1
  C  C4  1  0.32715852  0.65092548  0.02309241  1
  C  C5  1  0.32376596  0.65092548  0.52309241  1
  Ni  Ni6  1  0.00120907  0.00189831  0.64773191  1
  Ni  Ni7  1  0.00068925  0.00189831  0.14773191  1
  Ni  Ni8  1  0.66560336  0.33200138  0.98133364  1
  Ni  Ni9  1  0.66639901  0.33200138  0.48133364  1
  Ni  Ni10  1  0.34253072  0.66259217  0.31432185  1
  Ni  Ni11  1  0.32006045  0.66259217  0.81432185  1
  Cu  Cu12  1  0.71379389  0.71776468  0.25063759  1
  Cu  Cu13  1  0.00397079  0.71776468  0.75063759  1
  Cu  Cu14  1  0.95105455  0.32596355  0.58390430  1
  Cu  Cu15  1  0.37491000  0.32596355  0.08390430  1
  Cu  Cu16  1  0.03824453  0.37571227  0.91790678  1
  Cu  Cu17  1  0.33746674  0.37571227  0.41790678  1
  C  C18  1  0.28905632  0.99332168  0.25141785  1
  C  C19  1  0.00213362  0.29338807  0.25051155  1
  C  C20  1  0.29125445  0.29338807  0.75051155  1
  C  C21  1  0.70426536  0.99332168  0.75141785  1
  C  C22  1  0.37535972  0.04357343  0.58438069  1
  C  C23  1  0.67055966  0.62622152  0.58413316  1
  C  C24  1  0.95566286  0.62622152  0.08413316  1
  C  C25  1  0.66821472  0.04357343  0.08438069  1
  C  C26  1  0.61963353  0.66332893  0.91658212  1
  C  C27  1  0.33805283  0.95820294  0.91781309  1
  C  C28  1  0.62014910  0.95820294  0.41781309  1
  C  C29  1  0.04369440  0.66332893  0.41658212  1
  C  C30  1  0.20689350  0.02435483  0.30226590  1
  C  C31  1  0.82869032  0.80643969  0.30371388  1
  C  C32  1  0.97649509  0.18332897  0.30195004  1
  C  C33  1  0.20683388  0.18332897  0.80195004  1
  C  C34  1  0.97774937  0.80643969  0.80371388  1
  C  C35  1  0.81746132  0.02435483  0.80226590  1
  C  C36  1  0.77883510  0.95887288  0.69729629  1
  C  C37  1  0.17844543  0.22116825  0.69696698  1
  C  C38  1  0.03993349  0.83139556  0.69393499  1
  C  C39  1  0.79146208  0.83139556  0.19393499  1
  C  C40  1  0.04272282  0.22116825  0.19696698  1
  C  C41  1  0.18003778  0.95887288  0.19729629  1
  C  C42  1  0.86259763  0.35352077  0.63676152  1
  C  C43  1  0.48415054  0.12822875  0.63558949  1
  C  C44  1  0.63949394  0.51392179  0.63517463  1
  C  C45  1  0.87442884  0.51392179  0.13517463  1
  C  C46  1  0.64407921  0.12822875  0.13558949  1
  C  C47  1  0.49092414  0.35352077  0.13676152  1
  C  C48  1  0.45271559  0.28951801  0.02745181  1
  C  C49  1  0.84550580  0.55180482  0.03022796  1
  C  C50  1  0.70662432  0.15503198  0.03020828  1
  C  C51  1  0.44840866  0.15503198  0.53020828  1
  C  C52  1  0.70630002  0.55180482  0.53022796  1
  C  C53  1  0.83680343  0.28951801  0.52745181  1
  C  C54  1  0.53797234  0.69217482  0.96802581  1
  C  C55  1  0.15592660  0.46469737  0.97050092  1
  C  C56  1  0.31244876  0.84866967  0.96902262  1
  C  C57  1  0.53621991  0.84866967  0.46902262  1
  C  C58  1  0.30876977  0.46469737  0.47050092  1
  C  C59  1  0.15420148  0.69217482  0.46802581  1
  C  C60  1  0.12063217  0.63096081  0.36259642  1
  C  C61  1  0.50947522  0.88579197  0.36369037  1
  C  C62  1  0.37764097  0.49196545  0.36177731  1
  C  C63  1  0.11432347  0.49196545  0.86177731  1
  C  C64  1  0.37631575  0.88579197  0.86369037  1
  C  C65  1  0.51032765  0.63096081  0.86259642  1
  C  C66  1  0.02410794  0.81755601  0.40825486  1
  C  C67  1  0.79333135  0.97587068  0.40877729  1
  C  C68  1  0.17720998  0.19686035  0.40652928  1
  C  C69  1  0.01965037  0.19686035  0.90652928  1
  C  C70  1  0.18253933  0.97587068  0.90877729  1
  C  C71  1  0.79344807  0.81755601  0.90825486  1
  C  C72  1  0.97185677  0.16148294  0.59226781  1
  C  C73  1  0.19727439  0.02573795  0.59020392  1
  C  C74  1  0.83012802  0.80210138  0.59080556  1
  C  C75  1  0.97197337  0.80210138  0.09080556  1
  C  C76  1  0.82846356  0.02573795  0.09020392  1
  C  C77  1  0.18962617  0.16148294  0.09226781  1
  C  C78  1  0.68190276  0.14547907  0.74236967  1
  C  C79  1  0.46185197  0.30807571  0.74081346  1
  C  C80  1  0.84266461  0.53771775  0.74117499  1
  C  C81  1  0.69505414  0.53771775  0.24117499  1
  C  C82  1  0.84622474  0.30807571  0.24081346  1
  C  C83  1  0.46357731  0.14547907  0.24236967  1
  C  C84  1  0.63733618  0.50427456  0.92351022  1
  C  C85  1  0.85392374  0.35779446  0.92644733  1
  C  C86  1  0.49625469  0.13597519  0.92352252  1
  C  C87  1  0.63972149  0.13597519  0.42352252  1
  C  C88  1  0.50387172  0.35779446  0.42644733  1
  C  C89  1  0.86693937  0.50427456  0.42351022  1
  C  C90  1  0.35751142  0.48793376  0.07429981  1
  C  C91  1  0.13026316  0.64789304  0.07519160  1
  C  C92  1  0.51334489  0.87180182  0.07449397  1
  C  C93  1  0.35845592  0.87180182  0.57449397  1
  C  C94  1  0.51762888  0.64789304  0.57519160  1
  C  C95  1  0.13042134  0.48793376  0.57429981  1
  C  C96  1  0.30355768  0.83272051  0.25936923  1
  C  C97  1  0.52844153  0.69926242  0.25647998  1
  C  C98  1  0.15913228  0.47191530  0.25753935  1
  C  C99  1  0.31278201  0.47191530  0.75753935  1
  C  C100  1  0.17081989  0.69926242  0.75647998  1
  C  C101  1  0.52916183  0.83272051  0.75936923  1
