# generated using pymatgen
data_Cu11Ni9C91
_symmetry_space_group_name_H-M   'P 1'
_cell_length_a   9.23898874
_cell_length_b   9.24306960
_cell_length_c   23.93880891
_cell_angle_alpha   89.89147278
_cell_angle_beta   90.14907351
_cell_angle_gamma   120.01689520
_symmetry_Int_Tables_number   1
_chemical_formula_structural   Cu11Ni9C91
_chemical_formula_sum   'Cu11 Ni9 C91'
_cell_volume   1770.10201472
_cell_formula_units_Z   1
loop_
 _symmetry_equiv_pos_site_id
 _symmetry_equiv_pos_as_xyz
  1  'x, y, z'
loop_
 _atom_site_type_symbol
 _atom_site_label
 _atom_site_symmetry_multiplicity
 _atom_site_fract_x
 _atom_site_fract_y
 _atom_site_fract_z
 _atom_site_occupancy
  Ni  Ni0  1  0.35645048  0.35566389  0.25756990  1
  Ni  Ni1  1  0.30744052  0.97556391  0.09292877  1
  Ni  Ni2  1  0.97775655  0.30789534  0.42311009  1
  Ni  Ni3  1  0.99831854  0.97420472  0.50522210  1
  Ni  Ni4  1  0.97715398  0.99913212  0.01089661  1
  Ni  Ni5  1  0.66623105  0.33265616  0.82897142  1
  Ni  Ni6  1  0.66857575  0.33496694  0.34069259  1
  Ni  Ni7  1  0.33359398  0.66678485  0.17527198  1
  Ni  Ni8  1  0.33317754  0.66609665  0.64409979  1
  Cu  Cu9  1  0.99216524  0.98264836  0.34990598  1
  Cu  Cu10  1  0.00175317  0.99981335  0.85010697  1
  Cu  Cu11  1  0.00026366  0.00240483  0.65004820  1
  Cu  Cu12  1  0.98156682  0.99278024  0.15238381  1
  Cu  Cu13  1  0.66688974  0.33286724  0.67941899  1
  Cu  Cu14  1  0.68587471  0.34275166  0.18339891  1
  Cu  Cu15  1  0.67279592  0.34153335  0.97884816  1
  Cu  Cu16  1  0.65513761  0.33252529  0.48810804  1
  Cu  Cu17  1  0.33242690  0.65480144  0.01933809  1
  Cu  Cu18  1  0.34254876  0.67455159  0.51509596  1
  Cu  Cu19  1  0.34116074  0.68558666  0.31981837  1
  C  C20  1  0.33349778  0.66717727  0.81578848  1
  C  C21  1  0.30339065  0.00296974  0.24427641  1
  C  C22  1  0.68515849  0.68720132  0.24930671  1
  C  C23  1  0.00675964  0.30527865  0.25331628  1
  C  C24  1  0.30692373  0.31369861  0.75547984  1
  C  C25  1  0.00590343  0.69408916  0.75541369  1
  C  C26  1  0.68884337  0.99518173  0.75545775  1
  C  C27  1  0.97291763  0.33260652  0.58190017  1
  C  C28  1  0.35796504  0.02533842  0.58610247  1
  C  C29  1  0.66731165  0.64077818  0.58589124  1
  C  C30  1  0.97367327  0.64435962  0.08036347  1
  C  C31  1  0.66458746  0.03601146  0.07991859  1
  C  C32  1  0.36599403  0.32564023  0.08436893  1
  C  C33  1  0.62073860  0.66216846  0.91275989  1
  C  C34  1  0.04009160  0.37778537  0.91220628  1
  C  C35  1  0.33830927  0.95611088  0.91454926  1
  C  C36  1  0.64617791  0.98144056  0.41692623  1
  C  C37  1  0.33106672  0.36373761  0.41174050  1
  C  C38  1  0.02746221  0.65961666  0.41740377  1
  C  C39  1  0.20468806  0.01230028  0.29131672  1
  C  C40  1  0.77910679  0.77549493  0.29945706  1
  C  C41  1  0.99724000  0.21518134  0.30563696  1
  C  C42  1  0.22537331  0.21063653  0.80469074  1
  C  C43  1  0.98474930  0.77550987  0.80461233  1
  C  C44  1  0.79249225  0.01557202  0.80444275  1
  C  C45  1  0.74845857  0.95587277  0.70460562  1
  C  C46  1  0.20692050  0.25268104  0.70472338  1
  C  C47  1  0.04411537  0.79350160  0.70466280  1
  C  C48  1  0.77069793  0.77755535  0.19788444  1
  C  C49  1  0.01560136  0.21117157  0.20425567  1
  C  C50  1  0.21680746  0.99008395  0.19004324  1
  C  C51  1  0.87882148  0.33977933  0.63101659  1
  C  C52  1  0.45052759  0.11280998  0.63746280  1
  C  C53  1  0.66166551  0.54773007  0.63715362  1
  C  C54  1  0.88890738  0.55193453  0.13116274  1
  C  C55  1  0.65664170  0.12347813  0.13041151  1
  C  C56  1  0.45445526  0.33417767  0.13701317  1
  C  C57  1  0.46089654  0.31839749  0.03536410  1
  C  C58  1  0.88177509  0.55627363  0.02937684  1
  C  C59  1  0.67603606  0.13119719  0.02871337  1
  C  C60  1  0.44544450  0.11971266  0.53550494  1
  C  C61  1  0.67290298  0.55324377  0.53510394  1
  C  C62  1  0.88517912  0.32552979  0.52884488  1
  C  C63  1  0.54009782  0.67078858  0.96391904  1
  C  C64  1  0.12992154  0.45852358  0.96335868  1
  C  C65  1  0.33013598  0.86905645  0.96649428  1
  C  C66  1  0.55763240  0.88602929  0.46681264  1
  C  C67  1  0.31996741  0.46169684  0.45869823  1
  C  C68  1  0.12477957  0.66971856  0.46757011  1
  C  C69  1  0.11390031  0.65106144  0.36623476  1
  C  C70  1  0.55485419  0.89790688  0.36530431  1
  C  C71  1  0.34362338  0.45045457  0.35759198  1
  C  C72  1  0.14740536  0.48608229  0.86245780  1
  C  C73  1  0.34095492  0.84639813  0.86541672  1
  C  C74  1  0.51192151  0.65972240  0.86294507  1
  C  C75  1  0.00197983  0.80572754  0.41559147  1
  C  C76  1  0.81852840  0.00349294  0.41638033  1
  C  C77  1  0.17252873  0.19832050  0.41202709  1
  C  C78  1  0.02149332  0.21113627  0.90701247  1
  C  C79  1  0.18880304  0.97126038  0.90757197  1
  C  C80  1  0.78676168  0.81082521  0.90730803  1
  C  C81  1  0.98931993  0.18060339  0.58590853  1
  C  C82  1  0.18786113  0.00615994  0.58744772  1
  C  C83  1  0.81880900  0.81016776  0.58742863  1
  C  C84  1  0.99464304  0.81655282  0.08070731  1
  C  C85  1  0.80974564  0.00821621  0.08212700  1
  C  C86  1  0.19903093  0.16699742  0.08378784  1
  C  C87  1  0.65713845  0.13556655  0.75048754  1
  C  C88  1  0.47974132  0.34780420  0.75059221  1
  C  C89  1  0.86749182  0.52112610  0.75048724  1
  C  C90  1  0.66128593  0.51425608  0.24945221  1
  C  C91  1  0.86080289  0.33011493  0.24948150  1
  C  C92  1  0.46804181  0.16184111  0.24514296  1
  C  C93  1  0.62720073  0.50627090  0.90843499  1
  C  C94  1  0.87792273  0.37178948  0.90764726  1
  C  C95  1  0.49320493  0.11868023  0.90939836  1
  C  C96  1  0.66987869  0.15440060  0.41799576  1
  C  C97  1  0.47712077  0.33911334  0.41698126  1
  C  C98  1  0.86176669  0.50093492  0.41885276  1
  C  C99  1  0.34044613  0.47141424  0.08115234  1
  C  C100  1  0.14791154  0.67069280  0.08036010  1
  C  C101  1  0.50546264  0.87069485  0.07893488  1
  C  C102  1  0.34081067  0.85660847  0.58432248  1
  C  C103  1  0.51613387  0.65893124  0.58406652  1
  C  C104  1  0.14248288  0.48344502  0.58163837  1
  C  C105  1  0.32865013  0.85718922  0.24901640  1
  C  C106  1  0.51258634  0.66477224  0.24949318  1
  C  C107  1  0.16542804  0.47122620  0.25273580  1
  C  C108  1  0.32271935  0.48885910  0.76681393  1
  C  C109  1  0.16559842  0.67844532  0.76718881  1
  C  C110  1  0.51261592  0.83737891  0.76735622  1
