# generated using pymatgen
data_Cu4NiC12
_symmetry_space_group_name_H-M   'P 1'
_cell_length_a   8.07651031
_cell_length_b   5.15309626
_cell_length_c   7.49410572
_cell_angle_alpha   88.56716972
_cell_angle_beta   111.52546189
_cell_angle_gamma   89.95353277
_symmetry_Int_Tables_number   1
_chemical_formula_structural   Cu4NiC12
_chemical_formula_sum   'Cu4 Ni1 C12'
_cell_volume   290.03659540
_cell_formula_units_Z   1
loop_
 _symmetry_equiv_pos_site_id
 _symmetry_equiv_pos_as_xyz
  1  'x, y, z'
loop_
 _atom_site_type_symbol
 _atom_site_label
 _atom_site_symmetry_multiplicity
 _atom_site_fract_x
 _atom_site_fract_y
 _atom_site_fract_z
 _atom_site_occupancy
  Ni  Ni0  1  0.50000000  0.50000000  0.50000000  1
  Cu  Cu1  1  0.31575500  0.07336200  0.65729100  1
  Cu  Cu2  1  0.27014100  0.40279400  0.11573900  1
  Cu  Cu3  1  0.72985900  0.59720600  0.88426100  1
  Cu  Cu4  1  0.68424500  0.92663800  0.34270900  1
  C  C5  1  0.03458900  0.62378200  0.99300600  1
  C  C6  1  0.06356700  0.90914500  0.52743400  1
  C  C7  1  0.93643300  0.09085500  0.47256600  1
  C  C8  1  0.96541100  0.37621800  0.00699400  1
  C  C9  1  0.30120100  0.20792200  0.90127000  1
  C  C10  1  0.27309400  0.31318600  0.40393600  1
  C  C11  1  0.44548100  0.71739700  0.69359700  1
  C  C12  1  0.42053700  0.74648600  0.27804900  1
  C  C13  1  0.57946300  0.25351400  0.72195100  1
  C  C14  1  0.55451900  0.28260300  0.30640300  1
  C  C15  1  0.72690600  0.68681400  0.59606400  1
  C  C16  1  0.69879900  0.79207800  0.09873100  1
