# generated using pymatgen
data_Cu2NiC12
_symmetry_space_group_name_H-M   'P 1'
_cell_length_a   7.54079885
_cell_length_b   7.51914246
_cell_length_c   7.51914246
_cell_angle_alpha   60.13783825
_cell_angle_beta   59.90467902
_cell_angle_gamma   59.90467902
_symmetry_Int_Tables_number   1
_chemical_formula_structural   Cu2NiC12
_chemical_formula_sum   'Cu2 Ni1 C12'
_cell_volume   301.34279678
_cell_formula_units_Z   1
loop_
 _symmetry_equiv_pos_site_id
 _symmetry_equiv_pos_as_xyz
  1  'x, y, z'
loop_
 _atom_site_type_symbol
 _atom_site_label
 _atom_site_symmetry_multiplicity
 _atom_site_fract_x
 _atom_site_fract_y
 _atom_site_fract_z
 _atom_site_occupancy
  Ni  Ni0  1  0.87368100  0.87631900  0.87631900  1
  C  C1  1  0.01587200  0.01631800  0.45193700  1
  C  C2  1  0.01587200  0.45193700  0.01631800  1
  C  C3  1  0.45038900  0.01615300  0.01615300  1
  C  C4  1  0.01730500  0.01615300  0.01615300  1
  Cu  Cu5  1  0.37534600  0.37465400  0.37465400  1
  Cu  Cu6  1  0.62407300  0.62592700  0.62592700  1
  C  C7  1  0.24362000  0.24376100  0.76900100  1
  C  C8  1  0.24362000  0.76900100  0.24376100  1
  C  C9  1  0.76989600  0.24344200  0.24344200  1
  C  C10  1  0.24322100  0.24344200  0.24344200  1
  C  C11  1  0.75168200  0.75146400  0.24517200  1
  C  C12  1  0.75168200  0.24517200  0.75146400  1
  C  C13  1  0.24278300  0.75294400  0.75294400  1
  C  C14  1  0.75132800  0.75294400  0.75294400  1
