# generated using pymatgen
data_Cu2Ni2C7
_symmetry_space_group_name_H-M   'P 1'
_cell_length_a   8.46762100
_cell_length_b   6.69384000
_cell_length_c   9.58176091
_cell_angle_alpha   79.67083872
_cell_angle_beta   90.00000000
_cell_angle_gamma   90.00000000
_symmetry_Int_Tables_number   1
_chemical_formula_structural   Cu2Ni2C7
_chemical_formula_sum   'Cu8 Ni8 C28'
_cell_volume   534.30125833
_cell_formula_units_Z   4
loop_
 _symmetry_equiv_pos_site_id
 _symmetry_equiv_pos_as_xyz
  1  'x, y, z'
loop_
 _atom_site_type_symbol
 _atom_site_label
 _atom_site_symmetry_multiplicity
 _atom_site_fract_x
 _atom_site_fract_y
 _atom_site_fract_z
 _atom_site_occupancy
  Ni  Ni0  1  0.25862700  0.63919300  0.03100100  1
  Ni  Ni1  1  0.75862700  0.36080700  0.46899900  1
  Ni  Ni2  1  0.74137300  0.36080700  0.96899900  1
  Ni  Ni3  1  0.24137300  0.63919300  0.53100100  1
  Ni  Ni4  1  0.51854700  0.80591900  0.31362000  1
  Ni  Ni5  1  0.01854700  0.19408100  0.18638000  1
  Ni  Ni6  1  0.48145300  0.19408100  0.68638000  1
  Ni  Ni7  1  0.98145300  0.80591900  0.81362000  1
  Cu  Cu8  1  0.62132600  0.85380700  0.96339900  1
  Cu  Cu9  1  0.12132600  0.14619300  0.53660100  1
  Cu  Cu10  1  0.37867400  0.14619300  0.03660100  1
  Cu  Cu11  1  0.87867400  0.85380700  0.46339900  1
  Cu  Cu12  1  0.88731200  0.69415800  0.18024000  1
  Cu  Cu13  1  0.38731200  0.30584200  0.31976000  1
  Cu  Cu14  1  0.11268800  0.30584200  0.81976000  1
  Cu  Cu15  1  0.61268800  0.69415800  0.68024000  1
  C  C16  1  0.63138100  0.39345800  0.62357700  1
  C  C17  1  0.13138100  0.60654200  0.87642300  1
  C  C18  1  0.36861900  0.60654200  0.37642300  1
  C  C19  1  0.86861900  0.39345800  0.12357700  1
  C  C20  1  0.62851500  0.57208200  0.89603200  1
  C  C21  1  0.12851500  0.42791800  0.60396800  1
  C  C22  1  0.37148500  0.42791800  0.10396800  1
  C  C23  1  0.87148500  0.57208200  0.39603200  1
  C  C24  1  0.86877600  0.82823600  0.96002000  1
  C  C25  1  0.36877600  0.17176400  0.53998000  1
  C  C26  1  0.13122400  0.17176400  0.03998000  1
  C  C27  1  0.63122400  0.82823600  0.46002000  1
  C  C28  1  0.85850900  0.74616900  0.68168200  1
  C  C29  1  0.35850900  0.25383100  0.81831800  1
  C  C30  1  0.14149100  0.25383100  0.31831800  1
  C  C31  1  0.64149100  0.74616900  0.18168200  1
  C  C32  1  0.87695900  0.32060200  0.84869900  1
  C  C33  1  0.37695900  0.67939800  0.65130100  1
  C  C34  1  0.12304100  0.67939800  0.15130100  1
  C  C35  1  0.62304100  0.32060200  0.34869900  1
  C  C36  1  0.58237900  0.97054000  0.74747200  1
  C  C37  1  0.08237900  0.02946000  0.75252800  1
  C  C38  1  0.41762100  0.02946000  0.25252800  1
  C  C39  1  0.91762100  0.97054000  0.24747200  1
  C  C40  1  0.87895800  0.14678800  0.50562500  1
  C  C41  1  0.37895800  0.85321200  0.99437500  1
  C  C42  1  0.12104200  0.85321200  0.49437500  1
  C  C43  1  0.62104200  0.14678800  0.00562500  1
