# generated using pymatgen
data_CuNiC18
_symmetry_space_group_name_H-M   'P 1'
_cell_length_a   8.98510866
_cell_length_b   9.02370919
_cell_length_c   22.11025670
_cell_angle_alpha   89.77994547
_cell_angle_beta   90.00000000
_cell_angle_gamma   119.85859612
_symmetry_Int_Tables_number   1
_chemical_formula_structural   CuNiC18
_chemical_formula_sum   'Cu6 Ni6 C108'
_cell_volume   1554.69655934
_cell_formula_units_Z   6
loop_
 _symmetry_equiv_pos_site_id
 _symmetry_equiv_pos_as_xyz
  1  'x, y, z'
loop_
 _atom_site_type_symbol
 _atom_site_label
 _atom_site_symmetry_multiplicity
 _atom_site_fract_x
 _atom_site_fract_y
 _atom_site_fract_z
 _atom_site_occupancy
  C  C0  1  0.99575300  0.00639186  0.49022849  1
  C  C1  1  0.01063886  0.00639186  0.99022849  1
  C  C2  1  0.67144851  0.32704225  0.82412270  1
  C  C3  1  0.65559474  0.32704225  0.32412270  1
  C  C4  1  0.34814332  0.65570249  0.15694837  1
  C  C5  1  0.30755818  0.65570249  0.65694837  1
  C  C6  1  0.65270758  0.01800060  0.24509155  1
  C  C7  1  0.98922060  0.62580785  0.23928745  1
  C  C8  1  0.63658725  0.62580785  0.73928745  1
  C  C9  1  0.36529302  0.01800060  0.74509155  1
  C  C10  1  0.31813511  0.35449718  0.58102947  1
  C  C11  1  0.64696756  0.95423166  0.57423902  1
  C  C12  1  0.30726510  0.95423166  0.07423902  1
  C  C13  1  0.03636307  0.35449718  0.08102947  1
  C  C14  1  0.98150185  0.68525836  0.91487776  1
  C  C15  1  0.69935442  0.01985459  0.90763201  1
  C  C16  1  0.32049917  0.01985459  0.40763201  1
  C  C17  1  0.70375551  0.68525836  0.41487776  1
  Ni  Ni18  1  0.00230352  0.00679361  0.35233602  1
  Ni  Ni19  1  0.00449009  0.00679361  0.85233602  1
  Ni  Ni20  1  0.67284683  0.33254362  0.68582176  1
  Ni  Ni21  1  0.65969779  0.33254362  0.18582176  1
  Ni  Ni22  1  0.33328798  0.66833058  0.01892693  1
  Ni  Ni23  1  0.33504160  0.66833058  0.51892693  1
  Cu  Cu24  1  0.99453021  0.99715593  0.64664842  1
  Cu  Cu25  1  0.00262572  0.99715593  0.14664842  1
  Cu  Cu26  1  0.66272941  0.33593919  0.97979858  1
  Cu  Cu27  1  0.67321078  0.33593919  0.47979858  1
  Cu  Cu28  1  0.33255501  0.66694502  0.31325362  1
  Cu  Cu29  1  0.33438901  0.66694502  0.81325362  1
  C  C30  1  0.29762137  0.00312691  0.25540574  1
  C  C31  1  0.70550554  0.00312691  0.75540574  1
  C  C32  1  0.66734297  0.62638534  0.58737157  1
  C  C33  1  0.95904337  0.62638534  0.08737157  1
  C  C34  1  0.33255039  0.96462057  0.91996602  1
  C  C35  1  0.63206919  0.96462057  0.41996602  1
  C  C36  1  0.70715213  0.70760488  0.25387092  1
  C  C37  1  0.00577856  0.29229852  0.25038797  1
  C  C38  1  0.28651997  0.29229852  0.75038797  1
  C  C39  1  0.00045275  0.70760488  0.75387092  1
  C  C40  1  0.95861442  0.33337313  0.58617878  1
  C  C41  1  0.37103966  0.04258843  0.58560821  1
  C  C42  1  0.67154977  0.04258843  0.08560821  1
  C  C43  1  0.37475971  0.33337313  0.08617878  1
  C  C44  1  0.61848343  0.66031085  0.91835711  1
  C  C45  1  0.04052997  0.37504373  0.92176339  1
  C  C46  1  0.33451276  0.37504373  0.42176339  1
  C  C47  1  0.04182642  0.66031085  0.41835711  1
  C  C48  1  0.20405876  0.00818187  0.31530483  1
  C  C49  1  0.80585643  0.78990257  0.31123923  1
  C  C50  1  0.97689777  0.17385595  0.30249138  1
  C  C51  1  0.19695818  0.17385595  0.80249138  1
  C  C52  1  0.98404614  0.78990257  0.81123923  1
  C  C53  1  0.80412311  0.00818187  0.81530483  1
  C  C54  1  0.81219709  0.97823626  0.69554426  1
  C  C55  1  0.18375482  0.20840732  0.68947391  1
  C  C56  1  0.03239179  0.83614928  0.69813505  1
  C  C57  1  0.80375749  0.83614928  0.19813505  1
  C  C58  1  0.02465250  0.20840732  0.18947391  1
  C  C59  1  0.16603916  0.97823626  0.19554426  1
  C  C60  1  0.87028628  0.34382749  0.64203853  1
  C  C61  1  0.47536136  0.12416722  0.64203114  1
  C  C62  1  0.64609620  0.51426951  0.64567962  1
  C  C63  1  0.86817432  0.51426951  0.14567962  1
  C  C64  1  0.64880686  0.12416722  0.14203114  1
  C  C65  1  0.47354221  0.34382749  0.14203853  1
  C  C66  1  0.46573318  0.30425224  0.02844376  1
  C  C67  1  0.83611590  0.52562140  0.02600463  1
  C  C68  1  0.69163672  0.16254094  0.02861461  1
  C  C69  1  0.47090523  0.16254094  0.52861461  1
  C  C70  1  0.68950650  0.52562140  0.52600463  1
  C  C71  1  0.83852007  0.30425224  0.52844376  1
  C  C72  1  0.52486395  0.67943374  0.97076729  1
  C  C73  1  0.13201824  0.45577340  0.97996770  1
  C  C74  1  0.31317408  0.85519156  0.97907327  1
  C  C75  1  0.54201648  0.85519156  0.47907327  1
  C  C76  1  0.32375416  0.45577340  0.47996770  1
  C  C77  1  0.15456880  0.67943374  0.47076729  1
  C  C78  1  0.12540602  0.63766207  0.35766207  1
  C  C79  1  0.49576050  0.85636844  0.36035169  1
  C  C80  1  0.35354965  0.49556775  0.36608685  1
  C  C81  1  0.14201710  0.49556775  0.86608685  1
  C  C82  1  0.36060694  0.85636844  0.86035169  1
  C  C83  1  0.51225505  0.63766207  0.85766207  1
  C  C84  1  0.00930666  0.81121046  0.41327313  1
  C  C85  1  0.81787032  0.98658301  0.41039254  1
  C  C86  1  0.19014811  0.19198722  0.41415835  1
  C  C87  1  0.00183911  0.19198722  0.91415835  1
  C  C88  1  0.16871269  0.98658301  0.91039254  1
  C  C89  1  0.80190380  0.81121046  0.91327313  1
  C  C90  1  0.96542595  0.15880791  0.58708676  1
  C  C91  1  0.19710968  0.04556851  0.58680559  1
  C  C92  1  0.84748870  0.82058735  0.58984058  1
  C  C93  1  0.97309866  0.82058735  0.08984058  1
  C  C94  1  0.84845883  0.04556851  0.08680559  1
  C  C95  1  0.19338196  0.15880791  0.08708676  1
  C  C96  1  0.66147247  0.15244857  0.74641662  1
  C  C97  1  0.47091072  0.32579524  0.74547784  1
  C  C98  1  0.84689556  0.53261301  0.74444696  1
  C  C99  1  0.68571846  0.53261301  0.24444696  1
  C  C100  1  0.85488552  0.32579524  0.24547784  1
  C  C101  1  0.49097710  0.15244857  0.24641662  1
  C  C102  1  0.63372052  0.49300028  0.92183875  1
  C  C103  1  0.86096506  0.37366178  0.92032147  1
  C  C104  1  0.51990586  0.14963857  0.92123617  1
  C  C105  1  0.62973371  0.14963857  0.42123617  1
  C  C106  1  0.51269772  0.37366178  0.42032147  1
  C  C107  1  0.85928076  0.49300028  0.42183875  1
  C  C108  1  0.34015549  0.47910472  0.07723609  1
  C  C109  1  0.15220342  0.65832402  0.08162808  1
  C  C110  1  0.52285327  0.86248592  0.07723883  1
  C  C111  1  0.33963164  0.86248592  0.57723883  1
  C  C112  1  0.50611960  0.65832402  0.58162808  1
  C  C113  1  0.13894823  0.47910472  0.57723609  1
  C  C114  1  0.29826612  0.81287486  0.25417339  1
  C  C115  1  0.52722830  0.70007530  0.25492831  1
  C  C116  1  0.17591732  0.47067707  0.25543886  1
  C  C117  1  0.29475875  0.47067707  0.75543886  1
  C  C118  1  0.17284600  0.70007530  0.75492831  1
  C  C119  1  0.51460774  0.81287486  0.75417339  1
