# generated using pymatgen
data_Cu(NiC6)11
_symmetry_space_group_name_H-M   'P 1'
_cell_length_a   18.12651946
_cell_length_b   9.07430607
_cell_length_c   22.54940378
_cell_angle_alpha   90.10890709
_cell_angle_beta   89.92175563
_cell_angle_gamma   120.06051613
_symmetry_Int_Tables_number   1
_chemical_formula_structural   Cu(NiC6)11
_chemical_formula_sum   'Cu3 Ni33 C198'
_cell_volume   3210.16643905
_cell_formula_units_Z   3
loop_
 _symmetry_equiv_pos_site_id
 _symmetry_equiv_pos_as_xyz
  1  'x, y, z'
loop_
 _atom_site_type_symbol
 _atom_site_label
 _atom_site_symmetry_multiplicity
 _atom_site_fract_x
 _atom_site_fract_y
 _atom_site_fract_z
 _atom_site_occupancy
  C  C0  1  0.31275292  0.97955528  0.25564298  1
  C  C1  1  0.18504686  0.38973375  0.25719273  1
  C  C2  1  0.68020782  0.38399455  0.25328182  1
  C  C3  1  0.50710185  0.63620339  0.26016705  1
  C  C4  1  0.31051203  0.63871026  0.75801158  1
  C  C5  1  0.00571615  0.38994318  0.75620311  1
  C  C6  1  0.18458616  0.97755842  0.75554715  1
  C  C7  1  0.64965180  0.33254553  0.58404166  1
  C  C8  1  0.64232751  0.96719107  0.08737861  1
  C  C9  1  0.34028479  0.72090538  0.08972044  1
  C  C10  1  0.51889008  0.31605287  0.08980737  1
  C  C11  1  0.98861906  0.66080728  0.91393255  1
  C  C12  1  0.34530692  0.02856008  0.91549974  1
  C  C13  1  0.66570811  0.29719622  0.91568468  1
  C  C14  1  0.48756252  0.31646586  0.41457843  1
  C  C15  1  0.99015706  0.32133006  0.41445236  1
  C  C16  1  0.34157992  0.66050516  0.41509560  1
  C  C17  1  0.84289506  0.65766957  0.41418331  1
  C  C18  1  0.00991527  0.00647103  0.50121895  1
  C  C19  1  0.50120992  0.98862602  0.50248107  1
  C  C20  1  0.00590902  0.01610448  0.00218466  1
  C  C21  1  0.49846274  0.99125946  0.00657269  1
  C  C22  1  0.33931728  0.34527612  0.83693366  1
  C  C23  1  0.82899434  0.32177863  0.83118175  1
  C  C24  1  0.32907233  0.32566778  0.33650545  1
  C  C25  1  0.83352774  0.32335834  0.33303708  1
  C  C26  1  0.15735479  0.65603145  0.17251336  1
  C  C27  1  0.67551900  0.67041856  0.17482016  1
  C  C28  1  0.16719972  0.67755947  0.66673098  1
  C  C29  1  0.66805209  0.67616645  0.66683885  1
  C  C30  1  0.99326919  0.99511692  0.35690115  1
  C  C31  1  0.49449932  0.99702352  0.35522584  1
  C  C32  1  0.99378529  0.99309477  0.85800004  1
  C  C33  1  0.49828461  0.99478177  0.85533470  1
  C  C34  1  0.99353078  0.98665603  0.64082726  1
  C  C35  1  0.49846485  0.99441700  0.64535929  1
  C  C36  1  0.99375502  0.99938020  0.14234891  1
  C  C37  1  0.34099132  0.33546536  0.68435908  1
  C  C38  1  0.83057233  0.33192293  0.68947851  1
  C  C39  1  0.33787480  0.33845217  0.18509402  1
  C  C40  1  0.84073376  0.34588475  0.18707722  1
  C  C41  1  0.33062014  0.33860846  0.97912560  1
  C  C42  1  0.83514532  0.32793359  0.97881764  1
  C  C43  1  0.33086412  0.32935282  0.48112322  1
  C  C44  1  0.83360908  0.33001312  0.48048016  1
  C  C45  1  0.16412572  0.66498507  0.02031007  1
  C  C46  1  0.66942862  0.66667267  0.02201861  1
  C  C47  1  0.16487898  0.66564374  0.52175528  1
  C  C48  1  0.66658732  0.67231225  0.51946596  1
  C  C49  1  0.66526705  0.66407264  0.80979590  1
  C  C50  1  0.49448882  0.00479720  0.14606793  1
  C  C51  1  0.16457168  0.65414150  0.31975340  1
  C  C52  1  0.66961436  0.66148739  0.31924880  1
  C  C53  1  0.16806643  0.67843685  0.82164294  1
  Ni  Ni54  1  0.35246819  0.70727532  0.24618549  1
  Ni  Ni55  1  0.85285935  0.70818983  0.24956512  1
  Ni  Ni56  1  0.99917364  0.29129449  0.24966339  1
  Ni  Ni57  1  0.50146967  0.29521750  0.24665770  1
  Ni  Ni58  1  0.64344550  0.28707625  0.74996377  1
  Ni  Ni59  1  0.99973226  0.71008146  0.74934192  1
  Ni  Ni60  1  0.50002419  0.70959106  0.74971713  1
  Ni  Ni61  1  0.35458877  0.00241983  0.75034050  1
  Ni  Ni62  1  0.85490402  0.99896895  0.74958896  1
  Ni  Ni63  1  0.48150066  0.33232147  0.58054304  1
  Ni  Ni64  1  0.97889787  0.33609164  0.58566005  1
  Ni  Ni65  1  0.18806944  0.04118248  0.58545028  1
  Ni  Ni66  1  0.68916426  0.04057343  0.58466597  1
  Ni  Ni67  1  0.33169083  0.62251123  0.58400862  1
  Ni  Ni68  1  0.83171997  0.61928395  0.58248647  1
  Ni  Ni69  1  0.48109089  0.62786549  0.08231049  1
  Ni  Ni70  1  0.97971110  0.62627079  0.08105725  1
  Ni  Ni71  1  0.33066750  0.04080735  0.08090220  1
  Ni  Ni72  1  0.83149126  0.04465519  0.08485141  1
  Ni  Ni73  1  0.18727585  0.33289258  0.08464082  1
  Ni  Ni74  1  0.69023193  0.33541401  0.08389390  1
  Ni  Ni75  1  0.30908321  0.66398808  0.91360694  1
  Ni  Ni76  1  0.80922736  0.66329919  0.91574446  1
  Ni  Ni77  1  0.02413616  0.37813996  0.91302617  1
  Ni  Ni78  1  0.52103097  0.37992655  0.91658248  1
  Ni  Ni79  1  0.16751498  0.96119901  0.91438679  1
  Ni  Ni80  1  0.66631773  0.95129508  0.91668168  1
  Ni  Ni81  1  0.30577046  0.95493552  0.41306005  1
  Ni  Ni82  1  0.80692137  0.95580324  0.41388837  1
  Ni  Ni83  1  0.16696868  0.37413467  0.41505443  1
  Ni  Ni84  1  0.66750412  0.37291826  0.41514091  1
  Ni  Ni85  1  0.02431957  0.66829841  0.41488837  1
  Ni  Ni86  1  0.52169443  0.66840496  0.41363344  1
  Cu  Cu87  1  0.14205298  -0.00032603  0.24861192  1
  Cu  Cu88  1  0.64649606  0.00575541  0.24872377  1
  Cu  Cu89  1  0.14259906  0.28204417  0.74893255  1
  C  C90  1  0.10138374  0.02372169  0.30249527  1
  C  C91  1  0.60045771  0.02656888  0.30120631  1
  C  C92  1  0.41565439  0.80123518  0.30651310  1
  C  C93  1  0.91221514  0.80139267  0.30954074  1
  C  C94  1  0.48718161  0.16755052  0.30593673  1
  C  C95  1  0.98856922  0.16993555  0.30894536  1
  C  C96  1  0.10308331  0.17900383  0.80312033  1
  C  C97  1  0.59717431  0.17024084  0.80916368  1
  C  C98  1  0.48401146  0.80442021  0.80679698  1
  C  C99  1  0.99035272  0.80906705  0.80901656  1
  C  C100  1  0.41281953  0.02743661  0.81010092  1
  C  C101  1  0.91834590  0.02818556  0.80712201  1
  C  C102  1  0.40981432  0.98835719  0.69417570  1
  C  C103  1  0.90505222  0.97956340  0.69222533  1
  C  C104  1  0.09178690  0.19872708  0.69597567  1
  C  C105  1  0.58777108  0.19688920  0.69003121  1
  C  C106  1  0.01008174  0.83755619  0.69375838  1
  C  C107  1  0.51166249  0.82818377  0.69177615  1
  C  C108  1  0.39826743  0.81380175  0.18784477  1
  C  C109  1  0.91065149  0.82783651  0.19352405  1
  C  C110  1  0.00712004  0.18031825  0.19362584  1
  C  C111  1  0.51807483  0.21536441  0.18825540  1
  C  C112  1  0.09315809  0.98830322  0.19471118  1
  C  C113  1  0.59848674  0.98424044  0.19326029  1
  C  C114  1  0.43228052  0.35798740  0.63938224  1
  C  C115  1  0.93156465  0.35988679  0.64404714  1
  C  C116  1  0.24784949  0.13825389  0.64455225  1
  C  C117  1  0.74874826  0.13638569  0.64274525  1
  C  C118  1  0.32154438  0.50353453  0.64306283  1
  C  C119  1  0.81810923  0.49574784  0.63943021  1
  C  C120  1  0.43451292  0.50307466  0.14242624  1
  C  C121  1  0.93173800  0.50233517  0.13932455  1
  C  C122  1  0.32003516  0.13796189  0.14136033  1
  C  C123  1  0.81669986  0.13932128  0.14116593  1
  C  C124  1  0.24912261  0.36297271  0.14348797  1
  C  C125  1  0.74915426  0.36018211  0.14299274  1
  C  C126  1  0.23570236  0.30935745  0.02743278  1
  C  C127  1  0.74112784  0.31720430  0.02551434  1
  C  C128  1  0.41685467  0.52158090  0.02819579  1
  C  C129  1  0.92114869  0.53602008  0.02211404  1
  C  C130  1  0.34176867  0.16311204  0.02443675  1
  C  C131  1  0.84541027  0.16332177  0.02620309  1
  C  C132  1  0.23809550  0.16522779  0.52892665  1
  C  C133  1  0.73745674  0.16743240  0.52836212  1
  C  C134  1  0.34577269  0.52999978  0.52599227  1
  C  C135  1  0.84617124  0.53383299  0.52338922  1
  C  C136  1  0.42307079  0.31048566  0.52313532  1
  C  C137  1  0.92036997  0.30718044  0.52638395  1
  C  C138  1  0.26418857  0.69895674  0.97196536  1
  C  C139  1  0.76474070  0.69237912  0.97463330  1
  C  C140  1  0.08405674  0.47327313  0.97133592  1
  C  C141  1  0.58278107  0.47022165  0.97518062  1
  C  C142  1  0.14921185  0.82766656  0.96994482  1
  C  C143  1  0.65418246  0.83876316  0.97696087  1
  C  C144  1  0.26264462  0.82707736  0.47002339  1
  C  C145  1  0.76500539  0.83075631  0.47280333  1
  C  C146  1  0.14888362  0.46938467  0.47109214  1
  C  C147  1  0.64987980  0.46392827  0.47361194  1
  C  C148  1  0.08328408  0.69637894  0.47443941  1
  C  C149  1  0.58376652  0.69197262  0.47151872  1
  C  C150  1  0.05806743  0.61132778  0.35907813  1
  C  C151  1  0.55441115  0.61958109  0.35513964  1
  C  C152  1  0.25825698  0.88737341  0.35123551  1
  C  C153  1  0.75319737  0.87700165  0.35574341  1
  C  C154  1  0.19413000  0.48453771  0.35534270  1
  C  C155  1  0.69206437  0.48527068  0.35602701  1
  C  C156  1  0.05576552  0.49104923  0.85365118  1
  C  C157  1  0.57011520  0.49942847  0.85942825  1
  C  C158  1  0.19174341  0.90064277  0.85404145  1
  C  C159  1  0.67952092  0.85684197  0.85953686  1
  C  C160  1  0.25811725  0.63221945  0.85242415  1
  C  C161  1  0.74823046  0.63256751  0.85920139  1
  C  C162  1  0.01004619  0.83506317  0.40961768  1
  C  C163  1  0.50926989  0.83676712  0.41045937  1
  C  C164  1  0.40454034  0.97316181  0.40964973  1
  C  C165  1  0.90475430  0.97286644  0.41171216  1
  C  C166  1  0.07948670  0.18564415  0.40996039  1
  C  C167  1  0.57883681  0.18580289  0.40923096  1
  C  C168  1  0.01353963  0.18694460  0.90911254  1
  C  C169  1  0.51479684  0.19205934  0.91157923  1
  C  C170  1  0.07947018  0.97278952  0.91031312  1
  C  C171  1  0.58324332  0.97878569  0.91040209  1
  C  C172  1  0.40440276  0.84295939  0.91130890  1
  C  C173  1  0.90577564  0.83144808  0.91119447  1
  C  C174  1  0.49254370  0.16557500  0.58712497  1
  C  C175  1  0.98988069  0.16726101  0.59268921  1
  C  C176  1  0.09490077  0.02751912  0.59151466  1
  C  C177  1  0.59670476  0.03153543  0.58861272  1
  C  C178  1  0.41772352  0.81081591  0.59028032  1
  C  C179  1  0.91672084  0.80970582  0.58788728  1
  C  C180  1  0.49176902  0.81259584  0.08555862  1
  C  C181  1  0.98986326  0.81370254  0.08997850  1
  C  C182  1  0.41516902  0.02488811  0.08163778  1
  C  C183  1  0.91555532  0.02262742  0.08903349  1
  C  C184  1  0.09401323  0.16330546  0.09163175  1
  C  C185  1  0.59774992  0.16675120  0.08335473  1
  C  C186  1  0.34381819  0.17409882  0.74504761  1
  C  C187  1  0.85179894  0.17631074  0.74598194  1
  C  C188  1  0.23007340  0.29826402  0.74608496  1
  C  C189  1  0.73817281  0.30474548  0.74504464  1
  C  C190  1  0.40960624  0.52462034  0.74503113  1
  C  C191  1  0.91285747  0.52206458  0.74526940  1
  C  C192  1  0.34610384  0.51403411  0.24612067  1
  C  C193  1  0.84563463  0.51700600  0.24522891  1
  C  C194  1  0.40727281  0.29370824  0.24614229  1
  C  C195  1  0.90991867  0.29748944  0.24386470  1
  C  C196  1  0.22876712  0.16446610  0.24627231  1
  C  C197  1  0.73070113  0.16825939  0.24814333  1
  C  C198  1  0.32528726  0.50396068  0.92513420  1
  C  C199  1  0.82110053  0.49596243  0.92053744  1
  C  C200  1  0.42447933  0.34743221  0.92172922  1
  C  C201  1  0.92856344  0.35668049  0.92519175  1
  C  C202  1  0.25029585  0.14952533  0.92618741  1
  C  C203  1  0.74928445  0.14664885  0.92230375  1
  C  C204  1  0.32938105  0.15370257  0.42432135  1
  C  C205  1  0.83057555  0.15377116  0.42441633  1
  C  C206  1  0.25005023  0.34941291  0.42754019  1
  C  C207  1  0.75056173  0.34923583  0.42717379  1
  C  C208  1  0.42454058  0.50402057  0.42569754  1
  C  C209  1  0.92600688  0.50366132  0.42624073  1
  C  C210  1  0.18436486  0.50912024  0.07734065  1
  C  C211  1  0.68092544  0.50693259  0.07763332  1
  C  C212  1  0.07198939  0.63796622  0.07637932  1
  C  C213  1  0.57242375  0.63180174  0.07860761  1
  C  C214  1  0.24540067  0.85156612  0.07673120  1
  C  C215  1  0.74453707  0.85991021  0.07861499  1
  C  C216  1  0.18062051  0.85654205  0.57787084  1
  C  C217  1  0.67939564  0.85315488  0.57671028  1
  C  C218  1  0.24721710  0.63958832  0.57717881  1
  C  C219  1  0.74527191  0.63160185  0.57729476  1
  C  C220  1  0.07285977  0.50536677  0.57787302  1
  C  C221  1  0.57578277  0.50115706  0.57820922  1
  C  C222  1  0.15541999  0.85524132  0.25096441  1
  C  C223  1  0.65608924  0.85506800  0.25565327  1
  C  C224  1  0.25947687  0.68724388  0.25206328  1
  C  C225  1  0.75952154  0.68278125  0.24873172  1
  C  C226  1  0.08445346  0.47140918  0.25015109  1
  C  C227  1  0.57949416  0.48748900  0.25348651  1
  C  C228  1  0.15306911  0.45369433  0.75203515  1
  C  C229  1  0.65326861  0.47618829  0.75632987  1
  C  C230  1  0.08340825  0.69048587  0.74937211  1
  C  C231  1  0.58277655  0.68681967  0.75541314  1
  C  C232  1  0.26288666  0.83132845  0.74854296  1
  C  C233  1  0.76172413  0.82958805  0.75620958  1
