# generated using pymatgen
data_Cu2NiC17
_symmetry_space_group_name_H-M   'P 1'
_cell_length_a   9.05745087
_cell_length_b   9.05745056
_cell_length_c   22.35722117
_cell_angle_alpha   88.41857076
_cell_angle_beta   91.58142922
_cell_angle_gamma   119.18755620
_symmetry_Int_Tables_number   1
_chemical_formula_structural   Cu2NiC17
_chemical_formula_sum   'Cu12 Ni6 C102'
_cell_volume   1600.42565683
_cell_formula_units_Z   6
loop_
 _symmetry_equiv_pos_site_id
 _symmetry_equiv_pos_as_xyz
  1  'x, y, z'
loop_
 _atom_site_type_symbol
 _atom_site_label
 _atom_site_symmetry_multiplicity
 _atom_site_fract_x
 _atom_site_fract_y
 _atom_site_fract_z
 _atom_site_occupancy
  C  C0  1  0.66156294  0.01849837  0.25254813  1
  C  C1  1  0.97097715  0.61173836  0.24593945  1
  C  C2  1  0.98150163  0.33843706  0.75254813  1
  C  C3  1  0.38826164  0.02902285  0.74593945  1
  C  C4  1  0.32822994  0.35183137  0.58588113  1
  C  C5  1  0.63764415  0.94507136  0.57927245  1
  C  C6  1  0.64816863  0.67177006  0.08588113  1
  C  C7  1  0.05492864  0.36235585  0.07927245  1
  C  C8  1  0.99489594  0.68516537  0.91921513  1
  C  C9  1  0.30431015  0.27840536  0.91260645  1
  C  C10  1  0.31483463  0.00510406  0.41921513  1
  C  C11  1  0.72159464  0.69568985  0.41260645  1
  C  C12  1  0.98757459  0.97875029  0.49096196  1
  C  C13  1  0.02124971  0.01242541  0.99096196  1
  C  C14  1  0.65424159  0.31208329  0.82429496  1
  C  C15  1  0.68791671  0.34575841  0.32429496  1
  C  C16  1  0.32090759  0.64541729  0.15762896  1
  C  C17  1  0.35458271  0.67909241  0.65762896  1
  C  C18  1  0.99436476  0.99822846  0.64632277  1
  C  C19  1  0.00177154  0.00563524  0.14632277  1
  C  C20  1  0.66103176  0.33156146  0.97965577  1
  C  C21  1  0.66843854  0.33896824  0.47965577  1
  C  C22  1  0.32769776  0.66489546  0.31298977  1
  C  C23  1  0.33510454  0.67230224  0.81298977  1
  Ni  Ni24  1  0.96520113  0.98666525  0.35059210  1
  Ni  Ni25  1  0.01333475  0.03479887  0.85059210  1
  Ni  Ni26  1  0.63186813  0.31999825  0.68392510  1
  Ni  Ni27  1  0.68000175  0.36813187  0.18392510  1
  Ni  Ni28  1  0.29853413  0.65333225  0.01725910  1
  Ni  Ni29  1  0.34666775  0.70146587  0.51725910  1
  Cu  Cu30  1  0.70082086  0.70318555  0.25257497  1
  Cu  Cu31  1  0.00111613  0.29268227  0.25108204  1
  Cu  Cu32  1  0.29681445  0.29917914  0.75257497  1
  Cu  Cu33  1  0.70731773  0.99888387  0.75108204  1
  Cu  Cu34  1  0.36748786  0.03651855  0.58590797  1
  Cu  Cu35  1  0.66778313  0.62601527  0.58441504  1
  Cu  Cu36  1  0.96348145  0.63251214  0.08590797  1
  Cu  Cu37  1  0.37398473  0.33221687  0.08441504  1
  Cu  Cu38  1  0.03415386  0.36985255  0.91924197  1
  Cu  Cu39  1  0.33444913  0.95934927  0.91774904  1
  Cu  Cu40  1  0.63014745  0.96584614  0.41924197  1
  Cu  Cu41  1  0.04065073  0.66555087  0.41774904  1
  C  C42  1  0.29127543  0.99825518  0.25227427  1
  C  C43  1  0.00174482  0.70872457  0.75227427  1
  C  C44  1  0.95794243  0.33158818  0.58560727  1
  C  C45  1  0.66841182  0.04205757  0.08560727  1
  C  C46  1  0.62460843  0.66492218  0.91894127  1
  C  C47  1  0.33507782  0.37539157  0.41894127  1
  C  C48  1  0.22029662  0.01815410  0.30684658  1
  C  C49  1  0.81587579  0.77648286  0.31147811  1
  C  C50  1  0.98338460  0.17724865  0.30750993  1
  C  C51  1  0.22351714  0.18412421  0.81147811  1
  C  C52  1  0.98184590  0.77970338  0.80684658  1
  C  C53  1  0.82275135  0.01661540  0.80750993  1
  C  C54  1  0.80211027  0.97266164  0.69013234  1
  C  C55  1  0.16312818  0.19528986  0.69311167  1
  C  C56  1  0.02569314  0.82591289  0.69863836  1
  C  C57  1  0.80471014  0.83687182  0.19311167  1
  C  C58  1  0.02733836  0.19788973  0.19013234  1
  C  C59  1  0.17408711  0.97430686  0.19863836  1
  C  C60  1  0.88696362  0.35148710  0.64017958  1
  C  C61  1  0.48254279  0.10981586  0.64481111  1
  C  C62  1  0.65005160  0.51058165  0.64084293  1
  C  C63  1  0.89018414  0.51745721  0.14481111  1
  C  C64  1  0.64851290  0.11303638  0.14017958  1
  C  C65  1  0.48941835  0.34994840  0.14084293  1
  C  C66  1  0.46877727  0.30599464  0.02346534  1
  C  C67  1  0.82979518  0.52862286  0.02644467  1
  C  C68  1  0.69236014  0.15924589  0.03197136  1
  C  C69  1  0.47137714  0.17020482  0.52644467  1
  C  C70  1  0.69400536  0.53122273  0.52346534  1
  C  C71  1  0.84075411  0.30763986  0.53197136  1
  C  C72  1  0.55362962  0.68482110  0.97351358  1
  C  C73  1  0.14920879  0.44314986  0.97814511  1
  C  C74  1  0.31671760  0.84391565  0.97417693  1
  C  C75  1  0.55685014  0.85079121  0.47814511  1
  C  C76  1  0.31517890  0.44637038  0.47351358  1
  C  C77  1  0.15608435  0.68328240  0.47417693  1
  C  C78  1  0.13544327  0.63932864  0.35679934  1
  C  C79  1  0.49646118  0.86195686  0.35977867  1
  C  C80  1  0.35902614  0.49257989  0.36530536  1
  C  C81  1  0.13804314  0.50353882  0.85977867  1
  C  C82  1  0.36067136  0.86455673  0.85679934  1
  C  C83  1  0.50742011  0.64097386  0.86530536  1
  C  C84  1  0.02455432  0.83631858  0.41061353  1
  C  C85  1  0.81709875  0.99161677  0.41412567  1
  C  C86  1  0.20345122  0.20311443  0.40901334  1
  C  C87  1  0.00838323  0.18290125  0.91412567  1
  C  C88  1  0.16368142  0.97544568  0.91061353  1
  C  C89  1  0.79688557  0.79654878  0.90901334  1
  C  C90  1  0.95731586  0.16084932  0.58626796  1
  C  C91  1  0.18383393  0.04078349  0.59022640  1
  C  C92  1  0.83822686  0.82142619  0.58974041  1
  C  C93  1  0.95921651  0.81616607  0.09022640  1
  C  C94  1  0.83915068  0.04268414  0.08626796  1
  C  C95  1  0.17857381  0.16177314  0.08974041  1
  C  C96  1  0.69122132  0.16965158  0.74394653  1
  C  C97  1  0.48376575  0.32494977  0.74745867  1
  C  C98  1  0.87011822  0.53644743  0.74234634  1
  C  C99  1  0.67505023  0.51623425  0.24745867  1
  C  C100  1  0.83034842  0.30877868  0.24394653  1
  C  C101  1  0.46355257  0.12988178  0.24234634  1
  C  C102  1  0.62398286  0.49418232  0.91960096  1
  C  C103  1  0.85050093  0.37411649  0.92355940  1
  C  C104  1  0.50489386  0.15475919  0.92307341  1
  C  C105  1  0.62588351  0.14949907  0.42355940  1
  C  C106  1  0.50581768  0.37601714  0.41960096  1
  C  C107  1  0.84524081  0.49510614  0.42307341  1
  C  C108  1  0.35788732  0.50298558  0.07728053  1
  C  C109  1  0.15043175  0.65828377  0.08079267  1
  C  C110  1  0.53678422  0.86978143  0.07568034  1
  C  C111  1  0.34171623  0.84956825  0.58079267  1
  C  C112  1  0.49701442  0.64211268  0.57728053  1
  C  C113  1  0.13021857  0.46321578  0.57568034  1
  C  C114  1  0.29064886  0.82751632  0.25293496  1
  C  C115  1  0.51716693  0.70745049  0.25689340  1
  C  C116  1  0.17155986  0.48809319  0.25640741  1
  C  C117  1  0.29254951  0.48283307  0.75689340  1
  C  C118  1  0.17248368  0.70935114  0.75293496  1
  C  C119  1  0.51190681  0.82844014  0.75640741  1
