# generated using pymatgen
data_Cu2Ni2C31
_symmetry_space_group_name_H-M   'P 1'
_cell_length_a   16.77504884
_cell_length_b   8.40978999
_cell_length_c   21.82139618
_cell_angle_alpha   89.70079307
_cell_angle_beta   89.62694209
_cell_angle_gamma   120.19536720
_symmetry_Int_Tables_number   1
_chemical_formula_structural   Cu2Ni2C31
_chemical_formula_sum   'Cu12 Ni12 C186'
_cell_volume   2660.56315184
_cell_formula_units_Z   6
loop_
 _symmetry_equiv_pos_site_id
 _symmetry_equiv_pos_as_xyz
  1  'x, y, z'
loop_
 _atom_site_type_symbol
 _atom_site_label
 _atom_site_symmetry_multiplicity
 _atom_site_fract_x
 _atom_site_fract_y
 _atom_site_fract_z
 _atom_site_occupancy
  C  C0  1  0.99660255  0.00468718  0.50073998  1
  C  C1  1  0.49750951  0.99018210  0.00288943  1
  C  C2  1  0.32987968  0.32544452  0.83665270  1
  C  C3  1  0.83032754  0.33220733  0.83201367  1
  C  C4  1  0.33213643  0.33005305  0.33116096  1
  C  C5  1  0.82553603  0.32800982  0.33453697  1
  Ni  Ni6  1  0.00290799  0.00151506  0.34912521  1
  Ni  Ni7  1  0.50421363  0.00589139  0.85116310  1
  Ni  Ni8  1  0.99765743  0.00511644  0.64466662  1
  Ni  Ni9  1  0.50114985  0.98266807  0.14687786  1
  Ni  Ni10  1  0.33094537  0.33233478  0.98100655  1
  Ni  Ni11  1  0.83695614  0.34040303  0.98367141  1
  Ni  Ni12  1  0.33822995  0.33219311  0.48028517  1
  Ni  Ni13  1  0.83126665  0.32741874  0.47865502  1
  Ni  Ni14  1  0.16693798  0.67364404  0.30727465  1
  Ni  Ni15  1  0.66756290  0.66315797  0.31022692  1
  Ni  Ni16  1  0.16885876  0.67938936  0.81500601  1
  Ni  Ni17  1  0.66547521  0.65714181  0.80888213  1
  C  C18  1  0.14659785  0.00300566  0.25118184  1
  C  C19  1  0.64600044  0.99203599  0.24720705  1
  C  C20  1  0.64701770  0.29151534  0.75098235  1
  C  C21  1  0.47863156  0.33326763  0.58078574  1
  C  C22  1  0.97406882  0.32998988  0.58159718  1
  C  C23  1  0.47259114  0.61963608  0.08114458  1
  C  C24  1  0.97469935  0.61892670  0.08318022  1
  C  C25  1  0.17110617  0.96205892  0.91557108  1
  C  C26  1  0.66995438  0.38103887  0.41422109  1
  Cu  Cu27  1  0.51652684  0.02340104  0.35323208  1
  Cu  Cu28  1  0.00375016  0.99663173  0.85741358  1
  Cu  Cu29  1  0.50780467  0.02749693  0.64376555  1
  Cu  Cu30  1  0.00563843  0.98503619  0.14508993  1
  Cu  Cu31  1  0.33969359  0.34023940  0.68224566  1
  Cu  Cu32  1  0.83140907  0.33464518  0.68257325  1
  Cu  Cu33  1  0.33477108  0.33227162  0.18565769  1
  Cu  Cu34  1  0.83403116  0.33181629  0.18714194  1
  Cu  Cu35  1  0.15993945  0.67867806  0.02464357  1
  Cu  Cu36  1  0.66165665  0.66457164  0.02524306  1
  Cu  Cu37  1  0.16143658  0.65838767  0.52095382  1
  Cu  Cu38  1  0.65919693  0.64430826  0.51913529  1
  C  C39  1  0.35659784  0.71592889  0.25175107  1
  C  C40  1  0.85597190  0.71499816  0.25043384  1
  C  C41  1  0.00166046  0.28683934  0.25049390  1
  C  C42  1  0.50091106  0.28643172  0.24845515  1
  C  C43  1  0.14479340  0.29371818  0.74902064  1
  C  C44  1  0.00242255  0.71550692  0.74907339  1
  C  C45  1  0.49997716  0.71413292  0.75033182  1
  C  C46  1  0.35403776  0.99467638  0.75009098  1
  C  C47  1  0.85697426  0.99749824  0.75163044  1
  C  C48  1  0.18917002  0.04530317  0.58228464  1
  C  C49  1  0.68845621  0.03901034  0.58176650  1
  C  C50  1  0.33454665  0.62500889  0.58217366  1
  C  C51  1  0.83396672  0.62522804  0.58227243  1
  C  C52  1  0.33493894  0.04428220  0.08297046  1
  C  C53  1  0.83487969  0.04413144  0.08237905  1
  C  C54  1  0.18816184  0.33692231  0.08200030  1
  C  C55  1  0.68853403  0.33303267  0.08146027  1
  C  C56  1  0.31140542  0.66945056  0.91537589  1
  C  C57  1  0.80821177  0.66444241  0.91654434  1
  C  C58  1  0.02108400  0.37645217  0.91542984  1
  C  C59  1  0.52317485  0.37817426  0.91582224  1
  C  C60  1  0.66738293  0.95525153  0.91565849  1
  C  C61  1  0.30939939  0.95152178  0.41620026  1
  C  C62  1  0.81205883  0.95371483  0.41593552  1
  C  C63  1  0.16728463  0.37812043  0.41579360  1
  C  C64  1  0.02314289  0.66824279  0.41531794  1
  C  C65  1  0.52052912  0.66616116  0.41575599  1
  C  C66  1  0.10325303  0.04804990  0.31008452  1
  C  C67  1  0.60764749  0.04657658  0.30895681  1
  C  C68  1  0.41411639  0.79477536  0.30770144  1
  C  C69  1  0.91414252  0.79657835  0.30510504  1
  C  C70  1  0.47667619  0.16677888  0.30566567  1
  C  C71  1  0.98079690  0.16823488  0.30583674  1
  C  C72  1  0.10663237  0.17660324  0.80548256  1
  C  C73  1  0.60273538  0.15761722  0.80967069  1
  C  C74  1  0.47955136  0.79009138  0.80529025  1
  C  C75  1  0.98049485  0.79172174  0.80542787  1
  C  C76  1  0.41200100  0.03130608  0.80476844  1
  C  C77  1  0.91667420  0.03649217  0.80782622  1
  C  C78  1  0.39357572  0.96150176  0.69403786  1
  C  C79  1  0.89808961  0.96368538  0.69720952  1
  C  C80  1  0.08805570  0.20684335  0.69520985  1
  C  C81  1  0.58480548  0.20300240  0.69010368  1
  C  C82  1  0.01680334  0.83210811  0.69487642  1
  C  C83  1  0.51434994  0.82058493  0.69341841  1
  C  C84  1  0.39412261  0.82866158  0.19600332  1
  C  C85  1  0.89490854  0.83043413  0.19378748  1
  C  C86  1  0.01594873  0.20863022  0.19377100  1
  C  C87  1  0.51248263  0.20075277  0.19367721  1
  C  C88  1  0.08503196  0.96684631  0.18996351  1
  C  C89  1  0.58380381  0.97143998  0.18989528  1
  C  C90  1  0.43797537  0.37595560  0.64470347  1
  C  C91  1  0.93198578  0.37242317  0.64486761  1
  C  C92  1  0.24498493  0.12218441  0.63942097  1
  C  C93  1  0.74326935  0.11514048  0.63927330  1
  C  C94  1  0.30996352  0.50407126  0.63966568  1
  C  C95  1  0.81223669  0.51005792  0.63952447  1
  C  C96  1  0.43146217  0.49061776  0.14370446  1
  C  C97  1  0.92985705  0.48904091  0.14501443  1
  C  C98  1  0.31168913  0.11509758  0.13875104  1
  C  C99  1  0.81121216  0.11479778  0.13772888  1
  C  C100  1  0.24355957  0.37132250  0.13842911  1
  C  C101  1  0.74457217  0.36978189  0.13699152  1
  C  C102  1  0.22719043  0.29559050  0.02837490  1
  C  C103  1  0.72803824  0.29473648  0.02631017  1
  C  C104  1  0.41226347  0.52318348  0.02197034  1
  C  C105  1  0.91380865  0.52996929  0.02375183  1
  C  C106  1  0.34979019  0.15649693  0.02781143  1
  C  C107  1  0.84782856  0.15542144  0.02670015  1
  C  C108  1  0.22792259  0.16383930  0.52749043  1
  C  C109  1  0.72788088  0.16155332  0.52897526  1
  C  C110  1  0.34785638  0.53844759  0.52794815  1
  C  C111  1  0.85119916  0.54390447  0.52867710  1
  C  C112  1  0.41189103  0.29619982  0.52468223  1
  C  C113  1  0.91147422  0.29954800  0.52326669  1
  C  C114  1  0.27270310  0.70304465  0.97184436  1
  C  C115  1  0.76979349  0.70064522  0.97323400  1
  C  C116  1  0.07772630  0.44856880  0.97060375  1
  C  C117  1  0.58238680  0.45289733  0.97173178  1
  C  C118  1  0.14792137  0.82958054  0.97601362  1
  C  C119  1  0.65059198  0.84118340  0.97251509  1
  C  C120  1  0.26896946  0.83677519  0.47468466  1
  C  C121  1  0.77356303  0.84366138  0.47411526  1
  C  C122  1  0.14993393  0.45655983  0.47317090  1
  C  C123  1  0.64864126  0.46250971  0.47674397  1
  C  C124  1  0.08172318  0.71186079  0.47228908  1
  C  C125  1  0.57744920  0.70711531  0.47228107  1
  C  C126  1  0.06664107  0.63471764  0.36248456  1
  C  C127  1  0.56121564  0.63043651  0.36225915  1
  C  C128  1  0.24993612  0.86535420  0.36322539  1
  C  C129  1  0.75521600  0.87259198  0.36223414  1
  C  C130  1  0.18333666  0.49464298  0.36190202  1
  C  C131  1  0.68512805  0.50869199  0.35570046  1
  C  C132  1  0.06279124  0.49021524  0.85981775  1
  C  C133  1  0.56627455  0.49787956  0.86197488  1
  C  C134  1  0.18597521  0.87044701  0.85570959  1
  C  C135  1  0.68321656  0.87230892  0.86120523  1
  C  C136  1  0.25358522  0.63522575  0.86043232  1
  C  C137  1  0.75185479  0.63719913  0.86238757  1
  C  C138  1  0.01251376  0.83235541  0.40924276  1
  C  C139  1  0.50666393  0.82571446  0.40927920  1
  C  C140  1  0.39973361  0.96903916  0.40954115  1
  C  C141  1  0.90565526  0.97279576  0.40860919  1
  C  C142  1  0.08300021  0.19547107  0.41137110  1
  C  C143  1  0.57365663  0.18019353  0.41143519  1
  C  C144  1  0.00857101  0.18918659  0.90747537  1
  C  C145  1  0.51234413  0.19237595  0.90899903  1
  C  C146  1  0.07709223  0.97669838  0.90791976  1
  C  C147  1  0.58293106  0.96883128  0.91082215  1
  C  C148  1  0.40468964  0.83816054  0.90661565  1
  C  C149  1  0.90058479  0.83181459  0.90945104  1
  C  C150  1  0.48262444  0.14510053  0.58872748  1
  C  C151  1  0.98826043  0.15533547  0.59257640  1
  C  C152  1  0.09647794  0.02030547  0.59181290  1
  C  C153  1  0.59445584  0.01263905  0.59023413  1
  C  C154  1  0.41846707  0.80099862  0.59238882  1
  C  C155  1  0.91926264  0.80466017  0.59227539  1
  C  C156  1  0.48382464  0.82002907  0.08861640  1
  C  C157  1  0.98272967  0.81872410  0.08967020  1
  C  C158  1  0.41864750  0.03327317  0.09194563  1
  C  C159  1  0.91846942  0.03416134  0.09113632  1
  C  C160  1  0.09400108  0.17613856  0.08995416  1
  C  C161  1  0.59498690  0.17602604  0.08859217  1
  C  C162  1  0.34345029  0.16337474  0.74444943  1
  C  C163  1  0.84953263  0.16440150  0.74549014  1
  C  C164  1  0.23925218  0.31068781  0.74235850  1
  C  C165  1  0.74985302  0.30821090  0.74003674  1
  C  C166  1  0.41319627  0.52425872  0.74563256  1
  C  C167  1  0.91827131  0.53169009  0.74470392  1
  C  C168  1  0.34828387  0.53201964  0.24530544  1
  C  C169  1  0.84977868  0.53266299  0.24463866  1
  C  C170  1  0.41677727  0.30532356  0.24497254  1
  C  C171  1  0.91816553  0.30626795  0.24587531  1
  C  C172  1  0.24911436  0.19074174  0.24004993  1
  C  C173  1  0.74894332  0.18647665  0.23997340  1
  C  C174  1  0.32161509  0.50669472  0.92138931  1
  C  C175  1  0.81697949  0.49831974  0.92268065  1
  C  C176  1  0.43274134  0.36128477  0.92303425  1
  C  C177  1  0.92783630  0.35582703  0.92233443  1
  C  C178  1  0.25899054  0.16325664  0.92616122  1
  C  C179  1  0.75011253  0.14045866  0.92381169  1
  C  C180  1  0.31539070  0.13375160  0.42330823  1
  C  C181  1  0.82250725  0.13753214  0.42286665  1
  C  C182  1  0.25014890  0.36014904  0.42478878  1
  C  C183  1  0.75847007  0.35669341  0.42602036  1
  C  C184  1  0.42703611  0.49878482  0.42394697  1
  C  C185  1  0.93284234  0.50330472  0.42364092  1
  C  C186  1  0.18262276  0.50537692  0.07269624  1
  C  C187  1  0.68472869  0.50521241  0.07330641  1
  C  C188  1  0.07474876  0.63139466  0.07945859  1
  C  C189  1  0.57579220  0.64000934  0.07493616  1
  C  C190  1  0.25436088  0.85574379  0.07657103  1
  C  C191  1  0.75302131  0.85663580  0.07435039  1
  C  C192  1  0.18301801  0.86531565  0.57474548  1
  C  C193  1  0.68247259  0.86049257  0.57368324  1
  C  C194  1  0.25318692  0.64823422  0.57533520  1
  C  C195  1  0.75482771  0.65357212  0.57645376  1
  C  C196  1  0.07791443  0.51472643  0.57439389  1
  C  C197  1  0.57811903  0.52074008  0.57754149  1
  C  C198  1  0.15705685  0.82737527  0.26038691  1
  C  C199  1  0.65791488  0.82219518  0.26271264  1
  C  C200  1  0.26420659  0.68910069  0.26132631  1
  C  C201  1  0.76555652  0.69424274  0.25676373  1
  C  C202  1  0.08385275  0.46621605  0.26009387  1
  C  C203  1  0.58223687  0.46606301  0.25698867  1
  C  C204  1  0.15364844  0.47357425  0.75910780  1
  C  C205  1  0.65776312  0.48832188  0.76040808  1
  C  C206  1  0.08335783  0.69570387  0.75733878  1
  C  C207  1  0.58148722  0.69685364  0.75966363  1
  C  C208  1  0.26340836  0.82891595  0.75710404  1
  C  C209  1  0.76556052  0.83770331  0.76121641  1
