# generated using pymatgen
data_CuNi11C7
_symmetry_space_group_name_H-M   'P 1'
_cell_length_a   4.79150020
_cell_length_b   4.85316660
_cell_length_c   8.85855025
_cell_angle_alpha   89.94185580
_cell_angle_beta   90.07199713
_cell_angle_gamma   91.65435880
_symmetry_Int_Tables_number   1
_chemical_formula_structural   CuNi11C7
_chemical_formula_sum   'Cu1 Ni11 C7'
_cell_volume   205.91014781
_cell_formula_units_Z   1
loop_
 _symmetry_equiv_pos_site_id
 _symmetry_equiv_pos_as_xyz
  1  'x, y, z'
loop_
 _atom_site_type_symbol
 _atom_site_label
 _atom_site_symmetry_multiplicity
 _atom_site_fract_x
 _atom_site_fract_y
 _atom_site_fract_z
 _atom_site_occupancy
  C  C0  1  0.50870400  0.02233200  0.82900200  1
  C  C1  1  0.00787800  0.98112400  0.01694300  1
  C  C2  1  0.00615600  0.99443000  0.32890400  1
  C  C3  1  0.00609900  0.98408200  0.64125600  1
  C  C4  1  0.51159500  0.49115600  0.16580500  1
  C  C5  1  0.44524900  0.52783900  0.82890200  1
  C  C6  1  0.50734700  0.49595000  0.49210300  1
  Ni  Ni7  1  0.18791400  0.78864600  0.17035500  1
  Ni  Ni8  1  0.18546600  0.78941800  0.48890500  1
  Ni  Ni9  1  0.15370300  0.80749600  0.82845400  1
  Ni  Ni10  1  0.33922100  0.27931300  0.98522800  1
  Ni  Ni11  1  0.31810800  0.28818900  0.32942000  1
  Ni  Ni12  1  0.33808900  0.28076700  0.67236800  1
  Ni  Ni13  1  0.65188300  0.73191700  0.98258700  1
  Ni  Ni14  1  0.69855200  0.69745400  0.32896700  1
  Ni  Ni15  1  0.65090800  0.73324100  0.67508100  1
  Ni  Ni16  1  0.82560900  0.19348500  0.16506600  1
  Ni  Ni17  1  0.82475000  0.19410500  0.49262100  1
  Cu  Cu18  1  0.84665700  0.23294600  0.82803200  1
