# generated using pymatgen
data_Cu24Ni6C7
_symmetry_space_group_name_H-M   'P 1'
_cell_length_a   8.64551262
_cell_length_b   8.64736923
_cell_length_c   22.29148364
_cell_angle_alpha   90.02608138
_cell_angle_beta   89.96014563
_cell_angle_gamma   120.08873686
_symmetry_Int_Tables_number   1
_chemical_formula_structural   Cu24Ni6C7
_chemical_formula_sum   'Cu72 Ni18 C21'
_cell_volume   1441.96666652
_cell_formula_units_Z   3
loop_
 _symmetry_equiv_pos_site_id
 _symmetry_equiv_pos_as_xyz
  1  'x, y, z'
loop_
 _atom_site_type_symbol
 _atom_site_label
 _atom_site_symmetry_multiplicity
 _atom_site_fract_x
 _atom_site_fract_y
 _atom_site_fract_z
 _atom_site_occupancy
  C  C0  1  0.63507438  0.99925835  0.24922263  1
  C  C1  1  0.36496249  0.36378806  0.24908287  1
  C  C2  1  0.03359086  0.70010296  0.58514376  1
  C  C3  1  0.99921155  0.00698756  0.49928970  1
  C  C4  1  0.99996704  0.99946144  0.99854133  1
  C  C5  1  0.66607302  0.33265996  0.83187553  1
  C  C6  1  0.67495576  0.34084040  0.33595354  1
  C  C7  1  0.32453347  0.66574816  0.16115125  1
  C  C8  1  0.34144893  0.66581264  0.66896806  1
  C  C9  1  0.66768251  0.33440340  0.98122215  1
  C  C10  1  0.66513844  0.33146105  0.48314351  1
  C  C11  1  0.33438765  0.66670868  0.81659447  1
  C  C12  1  0.00010684  0.99809551  0.35287766  1
  C  C13  1  0.00001948  0.00071183  0.84999355  1
  C  C14  1  0.99920530  0.00762761  0.65481162  1
  C  C15  1  0.99981603  0.99705981  0.14434631  1
  C  C16  1  0.66390747  0.33041202  0.68704970  1
  C  C17  1  0.67276719  0.33890506  0.17759758  1
  C  C18  1  0.33277946  0.66683745  0.01601944  1
  C  C19  1  0.33901443  0.66591704  0.51562891  1
  C  C20  1  0.32657408  0.66590847  0.32254997  1
  Ni  Ni21  1  0.29033332  0.99666078  0.24988412  1
  Ni  Ni22  1  0.70943522  0.70650353  0.25025019  1
  Ni  Ni23  1  0.00012777  0.29427457  0.25002878  1
  Ni  Ni24  1  0.29439123  0.29994221  0.75198677  1
  Ni  Ni25  1  0.00550246  0.70505692  0.75124704  1
  Ni  Ni26  1  0.70025822  0.99437705  0.75193105  1
  Ni  Ni27  1  0.95317705  0.33057803  0.58176290  1
  Ni  Ni28  1  0.37990286  0.04643911  0.58193030  1
  Ni  Ni29  1  0.66345368  0.61955380  0.58216454  1
  Ni  Ni30  1  0.95655700  0.62176966  0.08119539  1
  Ni  Ni31  1  0.66542308  0.04342780  0.08198432  1
  Ni  Ni32  1  0.37788778  0.33453050  0.08195744  1
  Ni  Ni33  1  0.62232580  0.66283005  0.91712283  1
  Ni  Ni34  1  0.04058569  0.37778049  0.91703977  1
  Ni  Ni35  1  0.33722775  0.95955063  0.91703845  1
  Ni  Ni36  1  0.62967565  0.96818699  0.41790828  1
  Ni  Ni37  1  0.33846237  0.37040374  0.41790710  1
  Ni  Ni38  1  0.03183949  0.66139054  0.41920809  1
  Cu  Cu39  1  0.21449592  0.03266718  0.30375176  1
  Cu  Cu40  1  0.81514451  0.78539955  0.30455591  1
  Cu  Cu41  1  0.96612043  0.18191634  0.30396388  1
  Cu  Cu42  1  0.21428431  0.18770730  0.80489883  1
  Cu  Cu43  1  0.97429017  0.78797727  0.80344575  1
  Cu  Cu44  1  0.81226607  0.02664199  0.80487363  1
  Cu  Cu45  1  0.77146795  0.95836756  0.69634417  1
  Cu  Cu46  1  0.18776057  0.22844933  0.69635668  1
  Cu  Cu47  1  0.03964976  0.80964496  0.69433844  1
  Cu  Cu48  1  0.78610817  0.81927095  0.19652978  1
  Cu  Cu49  1  0.03410345  0.21521435  0.19625754  1
  Cu  Cu50  1  0.18400431  0.96993536  0.19572128  1
  Cu  Cu51  1  0.87794672  0.36640655  0.63570801  1
  Cu  Cu52  1  0.48499277  0.12261587  0.63618106  1
  Cu  Cu53  1  0.63734550  0.51491762  0.63657280  1
  Cu  Cu54  1  0.88414271  0.52004742  0.13728047  1
  Cu  Cu55  1  0.63686291  0.11478626  0.13938771  1
  Cu  Cu56  1  0.47711783  0.36195688  0.13939237  1
  Cu  Cu57  1  0.47172691  0.30972247  0.02962003  1
  Cu  Cu58  1  0.83908578  0.53010806  0.02821789  1
  Cu  Cu59  1  0.69046653  0.16203610  0.02964524  1
  Cu  Cu60  1  0.46810465  0.15931477  0.52776257  1
  Cu  Cu61  1  0.69490409  0.53218902  0.52820865  1
  Cu  Cu62  1  0.84008524  0.30753446  0.52754177  1
  Cu  Cu63  1  0.54603267  0.69352971  0.97122931  1
  Cu  Cu64  1  0.14752773  0.45383052  0.97114606  1
  Cu  Cu65  1  0.30634341  0.85267646  0.97114684  1
  Cu  Cu66  1  0.54628208  0.85420313  0.47011146  1
  Cu  Cu67  1  0.30670495  0.45316557  0.47008018  1
  Cu  Cu68  1  0.14166936  0.69263392  0.47335588  1
  Cu  Cu69  1  0.10642534  0.62672800  0.36449720  1
  Cu  Cu70  1  0.52486473  0.89707873  0.36129514  1
  Cu  Cu71  1  0.37314932  0.47574362  0.36135537  1
  Cu  Cu72  1  0.12575730  0.49327073  0.86287029  1
  Cu  Cu73  1  0.36756998  0.87444730  0.86287612  1
  Cu  Cu74  1  0.50697127  0.63240204  0.86295469  1
  Cu  Cu75  1  0.01368144  0.82113843  0.41221422  1
  Cu  Cu76  1  0.80837511  0.98739656  0.41165224  1
  Cu  Cu77  1  0.17850707  0.19172994  0.41158688  1
  Cu  Cu78  1  0.01741621  0.19822480  0.90936449  1
  Cu  Cu79  1  0.18048042  0.98210277  0.90929023  1
  Cu  Cu80  1  0.80208853  0.81949015  0.90931461  1
  Cu  Cu81  1  0.97016357  0.16990956  0.58575892  1
  Cu  Cu82  1  0.19773801  0.02555415  0.58519399  1
  Cu  Cu83  1  0.83089245  0.79815529  0.58537224  1
  Cu  Cu84  1  0.96888167  0.79873532  0.08499045  1
  Cu  Cu85  1  0.83005494  0.03133177  0.08559071  1
  Cu  Cu86  1  0.20063824  0.17003371  0.08545084  1
  Cu  Cu87  1  0.68025970  0.15358645  0.74505448  1
  Cu  Cu88  1  0.47395363  0.32058440  0.74517517  1
  Cu  Cu89  1  0.84590032  0.52568442  0.74477899  1
  Cu  Cu90  1  0.68300999  0.52337669  0.24473831  1
  Cu  Cu91  1  0.83692095  0.30986240  0.24427940  1
  Cu  Cu92  1  0.47431199  0.16080839  0.24498318  1
  Cu  Cu93  1  0.63711612  0.49609631  0.92415959  1
  Cu  Cu94  1  0.85872457  0.36249983  0.92416613  1
  Cu  Cu95  1  0.50414403  0.14151620  0.92423262  1
  Cu  Cu96  1  0.64510250  0.14851107  0.42647349  1
  Cu  Cu97  1  0.50328165  0.35496558  0.42659034  1
  Cu  Cu98  1  0.85060642  0.49629550  0.42698829  1
  Cu  Cu99  1  0.36019544  0.49457881  0.07610887  1
  Cu  Cu100  1  0.13525909  0.64095607  0.07544592  1
  Cu  Cu101  1  0.50539771  0.86520649  0.07612517  1
  Cu  Cu102  1  0.35487071  0.86320840  0.57558189  1
  Cu  Cu103  1  0.50605773  0.64077542  0.57533414  1
  Cu  Cu104  1  0.13256940  0.49505783  0.57505375  1
  Cu  Cu105  1  0.31599234  0.83927684  0.25577227  1
  Cu  Cu106  1  0.52562711  0.68725037  0.25562003  1
  Cu  Cu107  1  0.16436582  0.47330391  0.25632154  1
  Cu  Cu108  1  0.31124199  0.48177470  0.76067004  1
  Cu  Cu109  1  0.17049777  0.68910522  0.76017116  1
  Cu  Cu110  1  0.51808411  0.82934804  0.76064272  1
