# generated using pymatgen
data_Cu2NiC16
_symmetry_space_group_name_H-M   'P 1'
_cell_length_a   5.23181947
_cell_length_b   5.25552386
_cell_length_c   10.68919334
_cell_angle_alpha   90.00000000
_cell_angle_beta   90.00000000
_cell_angle_gamma   87.33850584
_symmetry_Int_Tables_number   1
_chemical_formula_structural   Cu2NiC16
_chemical_formula_sum   'Cu2 Ni1 C16'
_cell_volume   293.59250937
_cell_formula_units_Z   1
loop_
 _symmetry_equiv_pos_site_id
 _symmetry_equiv_pos_as_xyz
  1  'x, y, z'
loop_
 _atom_site_type_symbol
 _atom_site_label
 _atom_site_symmetry_multiplicity
 _atom_site_fract_x
 _atom_site_fract_y
 _atom_site_fract_z
 _atom_site_occupancy
  Ni  Ni0  1  0.73156705  0.74507356  0.50000000  1
  Cu  Cu1  1  0.02477983  0.02533889  0.00000000  1
  Cu  Cu2  1  0.36642661  0.36818386  0.50000000  1
  C  C3  1  0.01440170  0.01346263  0.31471524  1
  C  C4  1  0.01440170  0.01346263  0.68528476  1
  C  C5  1  0.52352195  0.52328118  0.16023995  1
  C  C6  1  0.52352195  0.52328118  0.83976005  1
  C  C7  1  0.21419878  0.80928530  0.83154721  1
  C  C8  1  0.21419878  0.80928530  0.16845279  1
  C  C9  1  0.15383686  0.79807184  0.50000000  1
  C  C10  1  0.34158319  0.34152726  0.00000000  1
  C  C11  1  0.30783737  0.30742823  0.30685526  1
  C  C12  1  0.30783737  0.30742823  0.69314474  1
  C  C13  1  0.71494223  0.71619687  0.31779343  1
  C  C14  1  0.71494223  0.71619687  0.68220657  1
  C  C15  1  0.70354095  0.70272146  0.00000000  1
  C  C16  1  0.79546711  0.15005109  0.50000000  1
  C  C17  1  0.81024716  0.21486181  0.16876888  1
  C  C18  1  0.81024716  0.21486181  0.83123112  1
