# generated using pymatgen
data_Cu2Ni2C3
_symmetry_space_group_name_H-M   'P 1'
_cell_length_a   3.27115003
_cell_length_b   3.26904700
_cell_length_c   18.70378553
_cell_angle_alpha   75.19491709
_cell_angle_beta   90.00656325
_cell_angle_gamma   120.02266588
_symmetry_Int_Tables_number   1
_chemical_formula_structural   Cu2Ni2C3
_chemical_formula_sum   'Cu2 Ni2 C3'
_cell_volume   165.46381999
_cell_formula_units_Z   1
loop_
 _symmetry_equiv_pos_site_id
 _symmetry_equiv_pos_as_xyz
  1  'x, y, z'
loop_
 _atom_site_type_symbol
 _atom_site_label
 _atom_site_symmetry_multiplicity
 _atom_site_fract_x
 _atom_site_fract_y
 _atom_site_fract_z
 _atom_site_occupancy
  C  C0  1  0.93899900  0.88668300  0.24029800  1
  C  C1  1  0.52483400  0.04978700  0.00076600  1
  C  C2  1  0.35649000  0.71690800  0.49918600  1
  Ni  Ni3  1  0.59793200  0.19956700  0.59381900  1
  Ni  Ni4  1  0.78245100  0.56908800  0.40408600  1
  Cu  Cu5  1  0.10799400  0.21592500  0.08654200  1
  Cu  Cu6  1  0.27456700  0.54940700  0.91530300  1
