# generated using pymatgen
data_Cu(NiC9)2
_symmetry_space_group_name_H-M   'P 1'
_cell_length_a   9.07089849
_cell_length_b   9.07089819
_cell_length_c   22.04904079
_cell_angle_alpha   91.12325247
_cell_angle_beta   88.87674747
_cell_angle_gamma   120.35424502
_symmetry_Int_Tables_number   1
_chemical_formula_structural   Cu(NiC9)2
_chemical_formula_sum   'Cu6 Ni12 C108'
_cell_volume   1565.12374987
_cell_formula_units_Z   6
loop_
 _symmetry_equiv_pos_site_id
 _symmetry_equiv_pos_as_xyz
  1  'x, y, z'
loop_
 _atom_site_type_symbol
 _atom_site_label
 _atom_site_symmetry_multiplicity
 _atom_site_fract_x
 _atom_site_fract_y
 _atom_site_fract_z
 _atom_site_occupancy
  C  C0  1  0.63829711  0.00478906  0.25112365  1
  C  C1  1  0.37000595  0.36802452  0.24711170  1
  C  C2  1  0.99157103  0.62643021  0.25007733  1
  C  C3  1  0.63197548  0.62999405  0.74711170  1
  C  C4  1  0.99521094  0.36170289  0.75112365  1
  C  C5  1  0.37356979  0.00842897  0.75007733  1
  C  C6  1  0.30496411  0.33812206  0.58445665  1
  C  C7  1  0.03667295  0.70135752  0.58044470  1
  C  C8  1  0.65823803  0.95976321  0.58341033  1
  C  C9  1  0.29864248  0.96332705  0.08044470  1
  C  C10  1  0.66187794  0.69503589  0.08445665  1
  C  C11  1  0.04023679  0.34176197  0.08341033  1
  C  C12  1  0.97163011  0.67145606  0.91779065  1
  C  C13  1  0.70333895  0.03469152  0.91377870  1
  C  C14  1  0.32490403  0.29309721  0.91674433  1
  C  C15  1  0.96530848  0.29666105  0.41377870  1
  C  C16  1  0.32854394  0.02836989  0.41779065  1
  C  C17  1  0.70690279  0.67509597  0.41674433  1
  C  C18  1  0.99551524  0.99446838  0.49910419  1
  C  C19  1  0.00553162  0.00448476  0.99910419  1
  C  C20  1  0.66218224  0.32780138  0.83243719  1
  C  C21  1  0.67219862  0.33781776  0.33243719  1
  C  C22  1  0.32884824  0.66113538  0.16577119  1
  C  C23  1  0.33886462  0.67115176  0.66577119  1
  C  C24  1  0.99556137  0.99736245  0.34987603  1
  C  C25  1  0.00263755  0.00443863  0.84987603  1
  C  C26  1  0.66222837  0.33069545  0.68320903  1
  C  C27  1  0.66930455  0.33777163  0.18320903  1
  C  C28  1  0.32889437  0.66402945  0.01654303  1
  C  C29  1  0.33597055  0.67110563  0.51654303  1
  Ni  Ni30  1  0.70222576  0.70910546  0.25032380  1
  Ni  Ni31  1  0.00563594  0.29597743  0.25060536  1
  Ni  Ni32  1  0.29089454  0.29777424  0.75032380  1
  Ni  Ni33  1  0.70402257  0.99436406  0.75060536  1
  Ni  Ni34  1  0.36889276  0.04243846  0.58365680  1
  Ni  Ni35  1  0.67230294  0.62931043  0.58393836  1
  Ni  Ni36  1  0.95756154  0.63110724  0.08365680  1
  Ni  Ni37  1  0.37068957  0.32769706  0.08393836  1
  Ni  Ni38  1  0.03555876  0.37577246  0.91699080  1
  Ni  Ni39  1  0.33896894  0.96264443  0.91727236  1
  Ni  Ni40  1  0.62422754  0.96444124  0.41699080  1
  Ni  Ni41  1  0.03735557  0.66103106  0.41727236  1
  Cu  Cu42  1  0.99895906  0.99714469  0.64873210  1
  Cu  Cu43  1  0.00285531  0.00104094  0.14873210  1
  Cu  Cu44  1  0.66562606  0.33047769  0.98206510  1
  Cu  Cu45  1  0.66952231  0.33437394  0.48206510  1
  Cu  Cu46  1  0.33229206  0.66381169  0.31539910  1
  Cu  Cu47  1  0.33618831  0.66770794  0.81539910  1
  C  C48  1  0.28983008  0.99353978  0.24912486  1
  C  C49  1  0.00646022  0.71016992  0.74912486  1
  C  C50  1  0.95649708  0.32687278  0.58245786  1
  C  C51  1  0.67312722  0.04350292  0.08245786  1
  C  C52  1  0.62316308  0.66020678  0.91579186  1
  C  C53  1  0.33979322  0.37683692  0.41579186  1
  C  C54  1  0.22092768  0.03286642  0.30725338  1
  C  C55  1  0.81718705  0.77643071  0.31003492  1
  C  C56  1  0.96967014  0.18717267  0.31102948  1
  C  C57  1  0.22356929  0.18281295  0.81003492  1
  C  C58  1  0.96713358  0.77907232  0.80725338  1
  C  C59  1  0.81282733  0.03032986  0.81102948  1
  C  C60  1  0.79816477  0.95771546  0.69002425  1
  C  C61  1  0.15996356  0.20300531  0.69077993  1
  C  C62  1  0.03750202  0.82844490  0.69288185  1
  C  C63  1  0.79699469  0.84003644  0.19077993  1
  C  C64  1  0.04228454  0.20183523  0.19002425  1
  C  C65  1  0.17155510  0.96249798  0.19288185  1
  C  C66  1  0.88759468  0.36619942  0.64058638  1
  C  C67  1  0.48385405  0.10976371  0.64336792  1
  C  C68  1  0.63633714  0.52050567  0.64436248  1
  C  C69  1  0.89023629  0.51614595  0.14336792  1
  C  C70  1  0.63380058  0.11240532  0.14058638  1
  C  C71  1  0.47949433  0.36366286  0.14436248  1
  C  C72  1  0.46483177  0.29104846  0.02335725  1
  C  C73  1  0.82663056  0.53633831  0.02411293  1
  C  C74  1  0.70416902  0.16177790  0.02621485  1
  C  C75  1  0.46366169  0.17336944  0.52411293  1
  C  C76  1  0.70895154  0.53516823  0.52335725  1
  C  C77  1  0.83822210  0.29583098  0.52621485  1
  C  C78  1  0.55426068  0.69953342  0.97392038  1
  C  C79  1  0.15052005  0.44309771  0.97670192  1
  C  C80  1  0.30300314  0.85383967  0.97769648  1
  C  C81  1  0.55690229  0.84947995  0.47670192  1
  C  C82  1  0.30046658  0.44573932  0.47392038  1
  C  C83  1  0.14616033  0.69699686  0.47769648  1
  C  C84  1  0.13149777  0.62438246  0.35669125  1
  C  C85  1  0.49329656  0.86967231  0.35744693  1
  C  C86  1  0.37083502  0.49511190  0.35954885  1
  C  C87  1  0.13032769  0.50670344  0.85744693  1
  C  C88  1  0.37561754  0.86850223  0.85669125  1
  C  C89  1  0.50488810  0.62916498  0.85954885  1
  C  C90  1  0.01807950  0.82921739  0.41256516  1
  C  C91  1  0.81711843  0.99666819  0.41324941  1
  C  C92  1  0.18523234  0.19546841  0.41011614  1
  C  C93  1  0.00333181  0.18288157  0.91324941  1
  C  C94  1  0.17078261  0.98192050  0.91256516  1
  C  C95  1  0.80453159  0.81476766  0.91011614  1
  C  C96  1  0.96563221  0.15918379  0.58630535  1
  C  C97  1  0.17879148  0.03320332  0.59057731  1
  C  C98  1  0.85204771  0.82169990  0.58910379  1
  C  C99  1  0.96679668  0.82120852  0.09057731  1
  C  C100  1  0.84081621  0.03436779  0.08630535  1
  C  C101  1  0.17830010  0.14795229  0.08910379  1
  C  C102  1  0.68474650  0.16255039  0.74589816  1
  C  C103  1  0.48378543  0.33000119  0.74658241  1
  C  C104  1  0.85189934  0.52880141  0.74344914  1
  C  C105  1  0.66999881  0.51621457  0.24658241  1
  C  C106  1  0.83744961  0.31525350  0.24589816  1
  C  C107  1  0.47119859  0.14810066  0.24344914  1
  C  C108  1  0.63229921  0.49251679  0.91963835  1
  C  C109  1  0.84545848  0.36653632  0.92391031  1
  C  C110  1  0.51871471  0.15503290  0.92243679  1
  C  C111  1  0.63346368  0.15454152  0.42391031  1
  C  C112  1  0.50748321  0.36770079  0.41963835  1
  C  C113  1  0.84496710  0.48128529  0.42243679  1
  C  C114  1  0.35141250  0.49588439  0.07923216  1
  C  C115  1  0.15045143  0.66333519  0.07991641  1
  C  C116  1  0.51856534  0.86213541  0.07678314  1
  C  C117  1  0.33666481  0.84954857  0.57991641  1
  C  C118  1  0.50411561  0.64858750  0.57923216  1
  C  C119  1  0.13786459  0.48143466  0.57678314  1
  C  C120  1  0.29896521  0.82585079  0.25297235  1
  C  C121  1  0.51212448  0.69987032  0.25724431  1
  C  C122  1  0.18538071  0.48836690  0.25577079  1
  C  C123  1  0.30012968  0.48787552  0.75724431  1
  C  C124  1  0.17414921  0.70103479  0.75297235  1
  C  C125  1  0.51163310  0.81461929  0.75577079  1
