# generated using pymatgen
data_CuNi7C33
_symmetry_space_group_name_H-M   'P 1'
_cell_length_a   8.94239944
_cell_length_b   8.92816717
_cell_length_c   21.95091725
_cell_angle_alpha   90.80619845
_cell_angle_beta   90.04284397
_cell_angle_gamma   119.89288423
_symmetry_Int_Tables_number   1
_chemical_formula_structural   CuNi7C33
_chemical_formula_sum   'Cu3 Ni21 C99'
_cell_volume   1519.17232152
_cell_formula_units_Z   3
loop_
 _symmetry_equiv_pos_site_id
 _symmetry_equiv_pos_as_xyz
  1  'x, y, z'
loop_
 _atom_site_type_symbol
 _atom_site_label
 _atom_site_symmetry_multiplicity
 _atom_site_fract_x
 _atom_site_fract_y
 _atom_site_fract_z
 _atom_site_occupancy
  Ni  Ni0  1  0.63760262  0.99431518  0.24305502  1
  Ni  Ni1  1  0.37727534  0.37527757  0.24189930  1
  Ni  Ni2  1  0.98207162  0.63726911  0.25495491  1
  Ni  Ni3  1  0.62110578  0.62366825  0.74322536  1
  Ni  Ni4  1  0.99384583  0.35277100  0.75198166  1
  Ni  Ni5  1  0.38595700  0.01566393  0.75749770  1
  Ni  Ni6  1  0.01855010  0.69499944  0.57607131  1
  Ni  Ni7  1  0.66510150  0.96141947  0.58301774  1
  Ni  Ni8  1  0.31643089  0.98012699  0.08073314  1
  Ni  Ni9  1  0.65229387  0.68723033  0.08785374  1
  Ni  Ni10  1  0.69526151  0.03379366  0.91513712  1
  Ni  Ni11  1  0.33162129  0.28979937  0.91630394  1
  Ni  Ni12  1  0.96117399  0.29649685  0.41507033  1
  Ni  Ni13  1  0.33170754  0.02326042  0.41767781  1
  Ni  Ni14  1  0.72199275  0.68560129  0.41636953  1
  Ni  Ni15  1  0.99295860  0.99098287  0.50067702  1
  Ni  Ni16  1  0.00784375  0.00575588  0.00147405  1
  Ni  Ni17  1  0.65903603  0.32543727  0.83409494  1
  Ni  Ni18  1  0.67437343  0.34758591  0.33286216  1
  Ni  Ni19  1  0.34366698  0.65850084  0.15991376  1
  Ni  Ni20  1  0.35308664  0.64828996  0.66606668  1
  Cu  Cu21  1  0.99450806  0.99232823  0.35550788  1
  Cu  Cu22  1  0.65755915  0.33437378  0.68383853  1
  Cu  Cu23  1  0.65757550  0.33340257  0.17161194  1
  C  C24  1  0.01649646  0.00517849  0.85016848  1
  C  C25  1  0.98279624  0.99875505  0.65309307  1
  C  C26  1  0.97765081  0.00821720  0.14202557  1
  C  C27  1  0.62453821  0.28559995  0.98790751  1
  C  C28  1  0.69289057  0.35710381  0.47860346  1
  C  C29  1  0.32881905  0.67135072  0.01731919  1
  C  C30  1  0.35056101  0.67675276  0.51531612  1
  C  C31  1  0.35134765  0.69085972  0.31902720  1
  C  C32  1  0.35183167  0.67614521  0.81305198  1
  C  C33  1  0.69608980  0.70291790  0.25052435  1
  C  C34  1  0.27764326  0.28969719  0.75306034  1
  C  C35  1  0.71375893  0.99105169  0.75623033  1
  C  C36  1  0.66328083  0.63557101  0.58201899  1
  C  C37  1  0.66241693  0.02445162  0.08044424  1
  C  C38  1  0.34827173  0.33490661  0.08116640  1
  C  C39  1  0.32090727  0.94521001  0.91569377  1
  C  C40  1  0.62046542  0.97197846  0.42132389  1
  C  C41  1  0.05574967  0.65884300  0.41937115  1
  C  C42  1  0.29380883  0.99192411  0.24983377  1
  C  C43  1  0.00981813  0.30201669  0.24940622  1
  C  C44  1  0.01097569  0.72248284  0.75144174  1
  C  C45  1  0.97328755  0.33628252  0.58112713  1
  C  C46  1  0.36171071  0.03020239  0.58054211  1
  C  C47  1  0.96681747  0.62837786  0.07966989  1
  C  C48  1  0.62593687  0.66500716  0.91626779  1
  C  C49  1  0.04326012  0.38496104  0.91547525  1
  C  C50  1  0.34656438  0.39289894  0.41852241  1
  C  C51  1  0.22505511  0.02450716  0.30657396  1
  C  C52  1  0.80217327  0.77309659  0.31339070  1
  C  C53  1  0.98905128  0.20973557  0.30670730  1
  C  C54  1  0.19372256  0.17250046  0.81320380  1
  C  C55  1  0.98518477  0.80765512  0.80532334  1
  C  C56  1  0.83440171  0.00688529  0.81490256  1
  C  C57  1  0.79259798  0.96127603  0.69199274  1
  C  C58  1  0.15180414  0.18817272  0.69339855  1
  C  C59  1  0.03195377  0.82254461  0.69464828  1
  C  C60  1  0.80265124  0.83558773  0.19209884  1
  C  C61  1  0.02966228  0.20516022  0.19667158  1
  C  C62  1  0.18558299  0.97357005  0.19612007  1
  C  C63  1  0.90454037  0.37007474  0.63750059  1
  C  C64  1  0.46647178  0.09439283  0.63691460  1
  C  C65  1  0.63316741  0.54146853  0.64578850  1
  C  C66  1  0.91262081  0.54290825  0.13884374  1
  C  C67  1  0.61550100  0.08168458  0.14416893  1
  C  C68  1  0.46625395  0.40080917  0.14234868  1
  C  C69  1  0.45333602  0.29371265  0.02564408  1
  C  C70  1  0.84023847  0.53146197  0.02996636  1
  C  C71  1  0.69486610  0.15787030  0.02417935  1
  C  C72  1  0.45149915  0.14156522  0.52810781  1
  C  C73  1  0.70080641  0.53096044  0.52511960  1
  C  C74  1  0.85153678  0.30654950  0.52832080  1
  C  C75  1  0.54119863  0.69359969  0.96970658  1
  C  C76  1  0.15910472  0.47214905  0.96811920  1
  C  C77  1  0.30397429  0.83320472  0.97520073  1
  C  C78  1  0.52655543  0.84189804  0.47654371  1
  C  C79  1  0.32169954  0.47613851  0.47226738  1
  C  C80  1  0.16629677  0.66593454  0.47883418  1
  C  C81  1  0.14431785  0.63059707  0.35660527  1
  C  C82  1  0.50396780  0.88596152  0.35855038  1
  C  C83  1  0.36805958  0.49221494  0.36166957  1
  C  C84  1  0.12478586  0.48234113  0.85887514  1
  C  C85  1  0.36121565  0.85625717  0.85634808  1
  C  C86  1  0.51403278  0.63286811  0.86038582  1
  C  C87  1  0.03985532  0.83240421  0.42300280  1
  C  C88  1  0.81551933  0.00430554  0.42206348  1
  C  C89  1  0.19348938  0.21763367  0.41537019  1
  C  C90  1  0.02312842  0.20533203  0.91350775  1
  C  C91  1  0.15504170  0.97997023  0.90904592  1
  C  C92  1  0.79805333  0.82335893  0.91114826  1
  C  C93  1  0.97933640  0.17235273  0.58473197  1
  C  C94  1  0.18819761  0.01327650  0.58672027  1
  C  C95  1  0.84796142  0.83184323  0.58805295  1
  C  C96  1  0.98388001  0.80503487  0.08421479  1
  C  C97  1  0.83299556  0.00086054  0.08412839  1
  C  C98  1  0.17132840  0.14633231  0.09354083  1
  C  C99  1  0.69774258  0.16485437  0.75527714  1
  C  C100  1  0.47198826  0.31848691  0.75323243  1
  C  C101  1  0.85882808  0.54707056  0.74888575  1
  C  C102  1  0.67196160  0.50918674  0.24710036  1
  C  C103  1  0.85614569  0.32225600  0.24326551  1
  C  C104  1  0.47216957  0.13920095  0.24600393  1
  C  C105  1  0.64229538  0.50793718  0.92205650  1
  C  C106  1  0.86819690  0.36391586  0.92115481  1
  C  C107  1  0.50156441  0.14592407  0.92234771  1
  C  C108  1  0.62961625  0.16253378  0.43005193  1
  C  C109  1  0.50351496  0.37429104  0.42329839  1
  C  C110  1  0.85674741  0.48787045  0.42218508  1
  C  C111  1  0.33046883  0.50088636  0.06243963  1
  C  C112  1  0.14231832  0.65329058  0.06973535  1
  C  C113  1  0.49137364  0.83285757  0.06844716  1
  C  C114  1  0.33663396  0.85029231  0.57339181  1
  C  C115  1  0.49542280  0.66326011  0.57135356  1
  C  C116  1  0.14588000  0.48772144  0.57251558  1
  C  C117  1  0.29643332  0.82428311  0.25366769  1
  C  C118  1  0.50165097  0.69080464  0.25775350  1
  C  C119  1  0.17001787  0.47460689  0.25115368  1
  C  C120  1  0.29209187  0.48427466  0.76043054  1
  C  C121  1  0.16868325  0.70679458  0.75607700  1
  C  C122  1  0.51791696  0.81695372  0.75874564  1
