# generated using pymatgen
data_Cu2Ni2C9
_symmetry_space_group_name_H-M   'P 1'
_cell_length_a   3.38691600
_cell_length_b   3.38693326
_cell_length_c   38.71138800
_cell_angle_alpha   90.00030096
_cell_angle_beta   90.00013427
_cell_angle_gamma   119.99943309
_symmetry_Int_Tables_number   1
_chemical_formula_structural   Cu2Ni2C9
_chemical_formula_sum   'Cu2 Ni2 C9'
_cell_volume   384.57665747
_cell_formula_units_Z   1
loop_
 _symmetry_equiv_pos_site_id
 _symmetry_equiv_pos_as_xyz
  1  'x, y, z'
loop_
 _atom_site_type_symbol
 _atom_site_label
 _atom_site_symmetry_multiplicity
 _atom_site_fract_x
 _atom_site_fract_y
 _atom_site_fract_z
 _atom_site_occupancy
  C  C0  1  0.30487200  0.64380800  0.87450600  1
  C  C1  1  0.33335700  0.66671900  0.70626800  1
  C  C2  1  0.66663500  0.33327300  0.04549800  1
  C  C3  1  0.66664300  0.33329000  0.14234800  1
  C  C4  1  0.33336000  0.66672300  0.60882100  1
  Ni  Ni5  1  0.33330300  0.66661100  0.09388000  1
  Ni  Ni6  1  0.33330200  0.66661900  0.46964200  1
  Cu  Cu7  1  0.66667000  0.33337000  0.28180800  1
  Cu  Cu8  1  0.66668300  0.33336900  0.65759600  1
  C  C9  1  0.66664400  0.33328300  0.42699800  1
  C  C10  1  0.66666000  0.33329700  0.51227300  1
  C  C11  1  0.33337400  0.66672600  0.32076200  1
  C  C12  1  0.33337000  0.66671500  0.24284700  1
