# generated using pymatgen
data_Cu5(NiC10)7
_symmetry_space_group_name_H-M   'P 1'
_cell_length_a   18.64178990
_cell_length_b   9.31510791
_cell_length_c   22.83653069
_cell_angle_alpha   89.91906120
_cell_angle_beta   90.15995654
_cell_angle_gamma   120.02130869
_symmetry_Int_Tables_number   1
_chemical_formula_structural   Cu5(NiC10)7
_chemical_formula_sum   'Cu15 Ni21 C210'
_cell_volume   3433.53337711
_cell_formula_units_Z   3
loop_
 _symmetry_equiv_pos_site_id
 _symmetry_equiv_pos_as_xyz
  1  'x, y, z'
loop_
 _atom_site_type_symbol
 _atom_site_label
 _atom_site_symmetry_multiplicity
 _atom_site_fract_x
 _atom_site_fract_y
 _atom_site_fract_z
 _atom_site_occupancy
  C  C0  1  0.81304988  0.99381964  0.23500339  1
  C  C1  1  0.18513919  0.35862612  0.27174046  1
  C  C2  1  0.68992215  0.36220680  0.25985841  1
  C  C3  1  0.99403282  0.63933349  0.23951482  1
  C  C4  1  0.50958209  0.65759017  0.25286642  1
  C  C5  1  0.31568531  0.64066849  0.75235381  1
  C  C6  1  0.00752310  0.35372613  0.75897392  1
  C  C7  1  0.49578220  0.34907878  0.74933628  1
  C  C8  1  0.18527868  0.01026239  0.77022688  1
  C  C9  1  0.68813014  0.01506538  0.77219578  1
  C  C10  1  0.14003495  0.33311435  0.58103779  1
  C  C11  1  0.63426885  0.33095373  0.58396368  1
  C  C12  1  0.33779131  0.97275231  0.57804909  1
  C  C13  1  0.83762362  0.97676078  0.57564541  1
  C  C14  1  0.13230194  0.94120819  0.08617789  1
  C  C15  1  0.64702628  0.95393268  0.08583599  1
  C  C16  1  0.33671623  0.69839904  0.07561524  1
  C  C17  1  0.83763004  0.72108039  0.07634773  1
  C  C18  1  0.49136127  0.69415723  0.92629548  1
  C  C19  1  0.99361008  0.68105276  0.92854666  1
  C  C20  1  0.33799544  0.01030356  0.91220392  1
  C  C21  1  0.84415006  0.03216439  0.92426722  1
  C  C22  1  0.16903388  0.30611616  0.89913372  1
  C  C23  1  0.67547633  0.32099375  0.90496121  1
  C  C24  1  0.49559458  0.30471103  0.41527566  1
  C  C25  1  0.98965315  0.28707393  0.42058873  1
  C  C26  1  0.17006537  0.02823895  0.39489878  1
  C  C27  1  0.67145328  0.03348549  0.39572551  1
  C  C28  1  0.34568865  0.67012477  0.40271791  1
  C  C29  1  0.83718605  0.66299291  0.40618086  1
  C  C30  1  0.99606735  0.00873596  0.49064045  1
  C  C31  1  0.50056444  0.01875835  0.48903218  1
  C  C32  1  0.98458771  0.98078870  0.99637000  1
  C  C33  1  0.49989765  0.98657229  0.99150355  1
  C  C34  1  0.32865484  0.33220451  0.83411068  1
  C  C35  1  0.82643223  0.33601321  0.84297104  1
  C  C36  1  0.32903114  0.32167488  0.34058919  1
  C  C37  1  0.82880806  0.32421112  0.32884705  1
  C  C38  1  0.16352587  0.68551041  0.17264399  1
  C  C39  1  0.66441557  0.68589633  0.16685516  1
  C  C40  1  0.15426144  0.63975940  0.67512569  1
  C  C41  1  0.66643973  0.64644134  0.67513634  1
  C  C42  1  0.99844486  0.01288483  0.65240502  1
  C  C43  1  0.49515153  0.00130807  0.64950399  1
  C  C44  1  0.99160691  0.99726011  0.14605896  1
  C  C45  1  0.49940088  0.98460169  0.15104970  1
  C  C46  1  0.83649799  0.33695308  0.69207670  1
  C  C47  1  0.33567854  0.33199007  0.19202060  1
  C  C48  1  0.15687651  0.66389062  0.01111202  1
  C  C49  1  0.67108949  0.68697857  0.01424299  1
  C  C50  1  0.16814191  0.66428870  0.51055313  1
  C  C51  1  0.65877210  0.65145598  0.50981528  1
  C  C52  1  0.18041617  0.68991757  0.32079722  1
  C  C53  1  0.68058636  0.67096204  0.82353280  1
  C  C54  1  0.99378945  0.98446461  0.34836714  1
  C  C55  1  0.50358423  0.00608266  0.34640604  1
  C  C56  1  0.00396287  0.99540424  0.84650052  1
  C  C57  1  0.49594659  0.00596842  0.84967568  1
  C  C58  1  0.33299590  0.31622744  0.69181871  1
  C  C59  1  0.83475569  0.33655541  0.18381008  1
  C  C60  1  0.33278047  0.35238316  0.97455976  1
  C  C61  1  0.83457576  0.33865360  0.98704615  1
  C  C62  1  0.33452306  0.31943259  0.48247479  1
  C  C63  1  0.83295249  0.31373815  0.47423387  1
  C  C64  1  0.69245292  0.68930660  0.31891761  1
  C  C65  1  0.18942890  0.69031807  0.81937964  1
  Ni  Ni66  1  0.14135075  0.99871049  0.25108104  1
  Ni  Ni67  1  0.65322680  0.98965153  0.25224130  1
  Ni  Ni68  1  0.35377750  0.70351299  0.25274833  1
  Ni  Ni69  1  0.84681161  0.68925466  0.25256138  1
  Ni  Ni70  1  0.15597375  0.31587559  0.74800282  1
  Ni  Ni71  1  0.64336506  0.28905500  0.75108871  1
  Ni  Ni72  1  0.34616535  0.99886931  0.75363855  1
  Ni  Ni73  1  0.85478673  0.00198063  0.75221587  1
  Ni  Ni74  1  0.47258799  0.34581651  0.58709638  1
  Ni  Ni75  1  0.97886322  0.33599372  0.57686890  1
  Ni  Ni76  1  0.47698348  0.62232829  0.07736398  1
  Ni  Ni77  1  0.97598518  0.60744254  0.08634299  1
  Ni  Ni78  1  0.83317800  0.06163099  0.08198514  1
  Ni  Ni79  1  0.32315889  0.67405589  0.91596852  1
  Ni  Ni80  1  0.83412865  0.66830750  0.92372634  1
  Ni  Ni81  1  0.16718473  0.97989231  0.91602185  1
  Ni  Ni82  1  0.66378789  0.99626583  0.91599926  1
  Ni  Ni83  1  0.33356302  0.99298989  0.42569220  1
  Ni  Ni84  1  0.82354052  0.97208842  0.41711690  1
  Ni  Ni85  1  0.16784203  0.33685647  0.41966948  1
  Ni  Ni86  1  0.66723117  0.35365378  0.41795876  1
  Cu  Cu87  1  0.99423558  0.29977914  0.25720848  1
  Cu  Cu88  1  0.51165398  0.31353964  0.26115255  1
  Cu  Cu89  1  0.01245481  0.70680636  0.75970495  1
  Cu  Cu90  1  0.49235683  0.68419909  0.75352871  1
  Cu  Cu91  1  0.19570465  0.05214331  0.58623386  1
  Cu  Cu92  1  0.68694316  0.04831264  0.57463018  1
  Cu  Cu93  1  0.33074194  0.60507172  0.58303200  1
  Cu  Cu94  1  0.83435785  0.63139643  0.57513731  1
  Cu  Cu95  1  0.33453067  0.03788437  0.07441892  1
  Cu  Cu96  1  0.18896553  0.32777984  0.07433430  1
  Cu  Cu97  1  0.69510990  0.34101274  0.08590182  1
  Cu  Cu98  1  0.01336198  0.34878973  0.90581724  1
  Cu  Cu99  1  0.50256564  0.34529251  0.91507726  1
  Cu  Cu100  1  0.00186147  0.66092692  0.41590840  1
  Cu  Cu101  1  0.50817562  0.67165124  0.41050067  1
  C  C102  1  0.08205254  0.00284889  0.30449087  1
  C  C103  1  0.59984721  0.01714778  0.30463796  1
  C  C104  1  0.41073564  0.83360201  0.30513776  1
  C  C105  1  0.90523758  0.78496370  0.30993601  1
  C  C106  1  0.50812647  0.21772043  0.31427578  1
  C  C107  1  0.99098949  0.20380783  0.31050766  1
  C  C108  1  0.10567038  0.17728753  0.79960506  1
  C  C109  1  0.57978720  0.15998302  0.80094242  1
  C  C110  1  0.48648277  0.77179723  0.80594647  1
  C  C111  1  0.01153596  0.79845943  0.81237707  1
  C  C112  1  0.40670656  0.02069249  0.80908237  1
  C  C113  1  0.91833711  0.99193763  0.80027876  1
  C  C114  1  0.37800442  0.95935084  0.69241620  1
  C  C115  1  0.88409731  0.99160679  0.68524887  1
  C  C116  1  0.10455883  0.25958195  0.68588823  1
  C  C117  1  0.60870312  0.21881759  0.68454835  1
  C  C118  1  0.01591599  0.79645190  0.70530212  1
  C  C119  1  0.50174862  0.77860277  0.69954380  1
  C  C120  1  0.38651994  0.78175654  0.18767992  1
  C  C121  1  0.87830234  0.80305907  0.19381316  1
  C  C122  1  0.00581731  0.22596386  0.20430028  1
  C  C123  1  0.51497524  0.22883283  0.20750967  1
  C  C124  1  0.10682921  0.00494514  0.18590710  1
  C  C125  1  0.59986068  0.94189586  0.19078448  1
  C  C126  1  0.42464414  0.33812141  0.64970678  1
  C  C127  1  0.93516704  0.33149240  0.63897748  1
  C  C128  1  0.23714185  0.14285014  0.64113884  1
  C  C129  1  0.72786235  0.13441707  0.62920025  1
  C  C130  1  0.33395230  0.52148212  0.63747683  1
  C  C131  1  0.83817215  0.54783060  0.62878025  1
  C  C132  1  0.43138784  0.53869913  0.13908508  1
  C  C133  1  0.92815039  0.51921661  0.14837990  1
  C  C134  1  0.33757640  0.12826950  0.12781133  1
  C  C135  1  0.83141704  0.15570942  0.14327237  1
  C  C136  1  0.23105093  0.32493745  0.12829325  1
  C  C137  1  0.73639757  0.33561062  0.14127378  1
  C  C138  1  0.23552374  0.32698026  0.02099433  1
  C  C139  1  0.74173611  0.34753105  0.03247419  1
  C  C140  1  0.42010366  0.51442545  0.01964080  1
  C  C141  1  0.93132670  0.50150351  0.02706590  1
  C  C142  1  0.32772874  0.11995840  0.02046746  1
  C  C143  1  0.82500607  0.14546015  0.02042016  1
  C  C144  1  0.24140927  0.14095615  0.53272462  1
  C  C145  1  0.73427305  0.14411455  0.52194433  1
  C  C146  1  0.32299756  0.51108334  0.52873200  1
  C  C147  1  0.82766459  0.53629270  0.52144311  1
  C  C148  1  0.42414285  0.35880801  0.52906671  1
  C  C149  1  0.92119327  0.32974866  0.51962275  1
  C  C150  1  0.28742240  0.71193085  0.97555310  1
  C  C151  1  0.80092573  0.72424373  0.98112014  1
  C  C152  1  0.06206089  0.41964139  0.96016201  1
  C  C153  1  0.55858394  0.43456278  0.96389500  1
  C  C154  1  0.13806822  0.87053025  0.97654821  1
  C  C155  1  0.63702275  0.86462119  0.97071985  1
  C  C156  1  0.30284338  0.88339138  0.48618641  1
  C  C157  1  0.79035266  0.86764489  0.47808797  1
  C  C158  1  0.14521954  0.41731035  0.47570032  1
  C  C159  1  0.63869378  0.40110888  0.47974492  1
  C  C160  1  0.05462832  0.68321504  0.46721159  1
  C  C161  1  0.55651052  0.69708937  0.46493607  1
  C  C162  1  0.03867425  0.63481956  0.36271649  1
  C  C163  1  0.54935042  0.64271965  0.36046110  1
  C  C164  1  0.25289270  0.90121386  0.38184963  1
  C  C165  1  0.75329345  0.87427583  0.36592446  1
  C  C166  1  0.19237560  0.46737657  0.36480929  1
  C  C167  1  0.68662349  0.50589911  0.37025615  1
  C  C168  1  0.05837185  0.45902904  0.85564151  1
  C  C169  1  0.53608141  0.43618795  0.85952552  1
  C  C170  1  0.18763569  0.87179037  0.86643370  1
  C  C171  1  0.68426156  0.91032870  0.86085171  1
  C  C172  1  0.25617200  0.63188692  0.86205878  1
  C  C173  1  0.75874258  0.59876363  0.87535749  1
  C  C174  1  0.99354972  0.81162377  0.41264421  1
  C  C175  1  0.50218204  0.82517056  0.40419451  1
  C  C176  1  0.42007776  0.99860382  0.40620652  1
  C  C177  1  0.91532047  0.99186802  0.40353597  1
  C  C178  1  0.08451352  0.15349720  0.40791213  1
  C  C179  1  0.58871885  0.16808410  0.40259427  1
  C  C180  1  0.00490017  0.18103883  0.90049505  1
  C  C181  1  0.49202850  0.17546870  0.91342541  1
  C  C182  1  0.09084288  0.01338988  0.90024282  1
  C  C183  1  0.58124136  0.01811785  0.90547014  1
  C  C184  1  0.41529433  0.83698235  0.90354709  1
  C  C185  1  0.92280173  0.83507243  0.90577712  1
  C  C186  1  0.47636214  0.16995437  0.58092357  1
  C  C187  1  0.98804924  0.16664694  0.57096724  1
  C  C188  1  0.11215454  0.03367735  0.58261319  1
  C  C189  1  0.60296415  0.02963316  0.57020154  1
  C  C190  1  0.40416127  0.77448362  0.57801110  1
  C  C191  1  0.90805755  0.80121832  0.57116077  1
  C  C192  1  0.48593496  0.80985814  0.07097792  1
  C  C193  1  0.98011953  0.79014670  0.07967683  1
  C  C194  1  0.40864294  0.01734175  0.07042959  1
  C  C195  1  0.91268170  0.03308464  0.07553736  1
  C  C196  1  0.10559819  0.17917130  0.07004310  1
  C  C197  1  0.61253456  0.18784767  0.08199648  1
  C  C198  1  0.33720336  0.16860670  0.75120945  1
  C  C199  1  0.85682106  0.17951473  0.76338945  1
  C  C200  1  0.25021570  0.33398420  0.74161952  1
  C  C201  1  0.73296454  0.29950648  0.76185227  1
  C  C202  1  0.41298668  0.51934827  0.75162742  1
  C  C203  1  0.93853423  0.53916652  0.76148046  1
  C  C204  1  0.35738673  0.53172359  0.26357943  1
  C  C205  1  0.83902186  0.50294100  0.24687376  1
  C  C206  1  0.43812105  0.33486594  0.26208753  1
  C  C207  1  0.91505327  0.30427402  0.25487568  1
  C  C208  1  0.23234539  0.16467486  0.26326166  1
  C  C209  1  0.74439594  0.16220324  0.24683224  1
  C  C210  1  0.33250747  0.50541645  0.91787912  1
  C  C211  1  0.85028580  0.50992664  0.93163953  1
  C  C212  1  0.41798141  0.32530327  0.92190603  1
  C  C213  1  0.92979389  0.32933608  0.91009344  1
  C  C214  1  0.25393377  0.16479561  0.92225178  1
  C  C215  1  0.74655872  0.18096579  0.92619217  1
  C  C216  1  0.35338495  0.18703266  0.42803341  1
  C  C217  1  0.83388331  0.16027602  0.41826821  1
  C  C218  1  0.25104804  0.31521232  0.43017377  1
  C  C219  1  0.75331658  0.34009192  0.42254014  1
  C  C220  1  0.42230686  0.52779081  0.41638558  1
  C  C221  1  0.91677185  0.51323164  0.42155493  1
  C  C222  1  0.18493387  0.48269734  0.07549266  1
  C  C223  1  0.68711813  0.49137759  0.08807296  1
  C  C224  1  0.07430208  0.65095352  0.09065407  1
  C  C225  1  0.57037818  0.64855536  0.07985062  1
  C  C226  1  0.25867869  0.86853015  0.08042756  1
  C  C227  1  0.74922784  0.87358138  0.08792248  1
  C  C228  1  0.19078316  0.88771114  0.58846182  1
  C  C229  1  0.68269341  0.88526995  0.57559073  1
  C  C230  1  0.25439825  0.62248803  0.58765354  1
  C  C231  1  0.75781239  0.64728136  0.58135748  1
  C  C232  1  0.07326023  0.49847936  0.57817489  1
  C  C233  1  0.57034427  0.49734671  0.58872333  1
  C  C234  1  0.14148056  0.82267690  0.25338055  1
  C  C235  1  0.66402079  0.82343135  0.26468235  1
  C  C236  1  0.25536108  0.65221761  0.25206160  1
  C  C237  1  0.75175818  0.65778310  0.26062840  1
  C  C238  1  0.06481064  0.47212938  0.26100452  1
  C  C239  1  0.58786087  0.48064798  0.26261071  1
  C  C240  1  0.16571555  0.50085013  0.76215540  1
  C  C241  1  0.64371976  0.46479365  0.75387495  1
  C  C242  1  0.08834274  0.69030620  0.76062965  1
  C  C243  1  0.56337909  0.65522385  0.75755723  1
  C  C244  1  0.25216373  0.83815968  0.76025508  1
  C  C245  1  0.75719878  0.85410834  0.75365253  1
