# generated using pymatgen
data_CuNi2C17
_symmetry_space_group_name_H-M   'P 1'
_cell_length_a   8.87061427
_cell_length_b   8.87061397
_cell_length_c   22.15698209
_cell_angle_alpha   90.39727703
_cell_angle_beta   89.60272297
_cell_angle_gamma   120.02578004
_symmetry_Int_Tables_number   1
_chemical_formula_structural   CuNi2C17
_chemical_formula_sum   'Cu6 Ni12 C102'
_cell_volume   1509.46072893
_cell_formula_units_Z   6
loop_
 _symmetry_equiv_pos_site_id
 _symmetry_equiv_pos_as_xyz
  1  'x, y, z'
loop_
 _atom_site_type_symbol
 _atom_site_label
 _atom_site_symmetry_multiplicity
 _atom_site_fract_x
 _atom_site_fract_y
 _atom_site_fract_z
 _atom_site_occupancy
  C  C0  1  0.62782934  0.99761610  0.24621997  1
  C  C1  1  0.99946822  0.64425547  0.24629756  1
  C  C2  1  0.00238390  0.37217066  0.74621997  1
  C  C3  1  0.35574453  0.00053178  0.74629756  1
  C  C4  1  0.29449634  0.33094910  0.57955297  1
  C  C5  1  0.66613522  0.97758847  0.57963056  1
  C  C6  1  0.66905090  0.70550366  0.07955297  1
  C  C7  1  0.02241153  0.33386478  0.07963056  1
  C  C8  1  0.96116234  0.66428310  0.91288697  1
  C  C9  1  0.33280122  0.31092247  0.91296456  1
  C  C10  1  0.33571690  0.03883766  0.41288697  1
  C  C11  1  0.68907753  0.66719878  0.41296456  1
  C  C12  1  0.00545505  0.01686714  0.49702029  1
  C  C13  1  0.98313286  0.99454495  0.99702029  1
  C  C14  1  0.67212205  0.35020014  0.83035329  1
  C  C15  1  0.64979986  0.32787795  0.33035329  1
  C  C16  1  0.33878805  0.68353414  0.16368729  1
  C  C17  1  0.31646586  0.66121195  0.66368729  1
  C  C18  1  0.00310482  0.00667458  0.35262508  1
  C  C19  1  0.99332542  0.99689518  0.85262508  1
  C  C20  1  0.66977182  0.34000758  0.68595808  1
  C  C21  1  0.65999242  0.33022818  0.18595808  1
  C  C22  1  0.33643782  0.67334158  0.01929208  1
  C  C23  1  0.32665842  0.66356218  0.51929208  1
  Ni  Ni24  1  0.29474186  0.01001788  0.25343664  1
  Ni  Ni25  1  0.70936564  0.69979444  0.25218305  1
  Ni  Ni26  1  0.30020556  0.29063436  0.75218305  1
  Ni  Ni27  1  0.98998212  0.70525814  0.75343664  1
  Ni  Ni28  1  0.96140886  0.34335088  0.58676964  1
  Ni  Ni29  1  0.37603264  0.03312744  0.58551605  1
  Ni  Ni30  1  0.96687256  0.62396736  0.08551605  1
  Ni  Ni31  1  0.65664912  0.03859114  0.08676964  1
  Ni  Ni32  1  0.62807486  0.67668488  0.92010364  1
  Ni  Ni33  1  0.04269864  0.36646144  0.91885005  1
  Ni  Ni34  1  0.63353856  0.95730136  0.41885005  1
  Ni  Ni35  1  0.32331512  0.37192514  0.42010364  1
  Cu  Cu36  1  0.01617572  0.00597256  0.64888216  1
  Cu  Cu37  1  0.99402744  0.98382428  0.14888216  1
  Cu  Cu38  1  0.68284272  0.33930556  0.98221516  1
  Cu  Cu39  1  0.66069444  0.31715728  0.48221516  1
  Cu  Cu40  1  0.34950872  0.67263956  0.31554916  1
  Cu  Cu41  1  0.32736044  0.65049128  0.81554916  1
  C  C42  1  0.00123999  0.29002923  0.25119187  1
  C  C43  1  0.70997077  0.99876001  0.75119187  1
  C  C44  1  0.66790699  0.62336223  0.58452487  1
  C  C45  1  0.37663777  0.33209301  0.08452487  1
  C  C46  1  0.33457299  0.95669623  0.91785887  1
  C  C47  1  0.04330377  0.66542701  0.41785887  1
  C  C48  1  0.19575109  0.02875985  0.31235260  1
  C  C49  1  0.83689866  0.79921797  0.30968188  1
  C  C50  1  0.97286381  0.17523785  0.30318647  1
  C  C51  1  0.20078203  0.16310134  0.80968188  1
  C  C52  1  0.97124015  0.80424891  0.81235260  1
  C  C53  1  0.82476215  0.02713619  0.80318647  1
  C  C54  1  0.77790579  0.96444583  0.69420890  1
  C  C55  1  0.17419788  0.22321333  0.69178843  1
  C  C56  1  0.03702536  0.82645752  0.69290246  1
  C  C57  1  0.77678667  0.82580212  0.19178843  1
  C  C58  1  0.03555417  0.22209421  0.19420890  1
  C  C59  1  0.17354248  0.96297464  0.19290246  1
  C  C60  1  0.86241809  0.36209285  0.64568560  1
  C  C61  1  0.50356566  0.13255097  0.64301488  1
  C  C62  1  0.63953081  0.50857085  0.63651947  1
  C  C63  1  0.86744903  0.49643434  0.14301488  1
  C  C64  1  0.63790715  0.13758191  0.14568560  1
  C  C65  1  0.49142915  0.36046919  0.13651947  1
  C  C66  1  0.44457279  0.29777883  0.02754190  1
  C  C67  1  0.84086488  0.55654633  0.02512143  1
  C  C68  1  0.70369236  0.15979052  0.02623546  1
  C  C69  1  0.44345367  0.15913512  0.52512143  1
  C  C70  1  0.70222117  0.55542721  0.52754190  1
  C  C71  1  0.84020948  0.29630764  0.52623546  1
  C  C72  1  0.52908409  0.69542685  0.97901960  1
  C  C73  1  0.17023166  0.46588497  0.97634888  1
  C  C74  1  0.30619681  0.84190485  0.96985347  1
  C  C75  1  0.53411503  0.82976834  0.47634888  1
  C  C76  1  0.30457315  0.47091591  0.47901960  1
  C  C77  1  0.15809515  0.69380319  0.46985347  1
  C  C78  1  0.11123879  0.63111283  0.36087590  1
  C  C79  1  0.50753088  0.88988033  0.35845543  1
  C  C80  1  0.37035836  0.49312452  0.35956946  1
  C  C81  1  0.11011967  0.49246912  0.85845543  1
  C  C82  1  0.36888717  0.88876121  0.86087590  1
  C  C83  1  0.50687548  0.62964164  0.85956946  1
  C  C84  1  0.02916048  0.82509164  0.41331049  1
  C  C85  1  0.82027870  0.96591645  0.40782194  1
  C  C86  1  0.16041651  0.17451617  0.41046249  1
  C  C87  1  0.03408355  0.17972130  0.90782194  1
  C  C88  1  0.17490836  0.97083952  0.91331049  1
  C  C89  1  0.82548383  0.83958349  0.91046249  1
  C  C90  1  0.96789993  0.15586053  0.59004112  1
  C  C91  1  0.18388712  0.01965313  0.58597939  1
  C  C92  1  0.81820830  0.80227659  0.59040720  1
  C  C93  1  0.98034687  0.81611288  0.08597939  1
  C  C94  1  0.84413947  0.03210007  0.09004112  1
  C  C95  1  0.19772341  0.18179170  0.09040720  1
  C  C96  1  0.69582748  0.15842464  0.74664349  1
  C  C97  1  0.48694570  0.29924945  0.74115494  1
  C  C98  1  0.82708351  0.50784917  0.74379549  1
  C  C99  1  0.70075055  0.51305430  0.24115494  1
  C  C100  1  0.84157536  0.30417252  0.24664349  1
  C  C101  1  0.49215083  0.17291649  0.24379549  1
  C  C102  1  0.63456693  0.48919353  0.92337412  1
  C  C103  1  0.85055412  0.35298613  0.91931239  1
  C  C104  1  0.48487530  0.13560959  0.92374020  1
  C  C105  1  0.64701387  0.14944588  0.41931239  1
  C  C106  1  0.51080647  0.36543307  0.42337412  1
  C  C107  1  0.86439041  0.51512470  0.42374020  1
  C  C108  1  0.36249348  0.49175864  0.07997749  1
  C  C109  1  0.15361170  0.63258345  0.07448894  1
  C  C110  1  0.49374951  0.84118317  0.07712949  1
  C  C111  1  0.36741655  0.84638830  0.57448894  1
  C  C112  1  0.50824136  0.63750652  0.57997749  1
  C  C113  1  0.15881683  0.50625049  0.57712949  1
  C  C114  1  0.30123293  0.82252753  0.25670812  1
  C  C115  1  0.51722012  0.68632013  0.25264639  1
  C  C116  1  0.15154130  0.46894359  0.25707420  1
  C  C117  1  0.31367987  0.48277988  0.75264639  1
  C  C118  1  0.17747247  0.69876707  0.75670812  1
  C  C119  1  0.53105641  0.84845870  0.75707420  1
