# generated using pymatgen
data_Cu2NiC6
_symmetry_space_group_name_H-M   'P 1'
_cell_length_a   3.17108712
_cell_length_b   5.56056959
_cell_length_c   6.36001732
_cell_angle_alpha   89.91775463
_cell_angle_beta   90.00000000
_cell_angle_gamma   90.00000000
_symmetry_Int_Tables_number   1
_chemical_formula_structural   Cu2NiC6
_chemical_formula_sum   'Cu2 Ni1 C6'
_cell_volume   112.14639163
_cell_formula_units_Z   1
loop_
 _symmetry_equiv_pos_site_id
 _symmetry_equiv_pos_as_xyz
  1  'x, y, z'
loop_
 _atom_site_type_symbol
 _atom_site_label
 _atom_site_symmetry_multiplicity
 _atom_site_fract_x
 _atom_site_fract_y
 _atom_site_fract_z
 _atom_site_occupancy
  C  C0  1  0.25000100  0.19369634  0.15473679  1
  C  C1  1  0.74999900  0.91357789  0.90385355  1
  Ni  Ni2  1  0.25000000  0.53605233  0.86397399  1
  Cu  Cu3  1  0.25000100  0.16103198  0.58078324  1
  Cu  Cu4  1  0.74999900  0.66769177  0.37174932  1
  C  C5  1  0.74999900  0.27898553  0.39614454  1
  C  C6  1  0.25000100  0.78230671  0.62864458  1
  C  C7  1  0.74999900  0.31314878  0.85450954  1
  C  C8  1  0.25000100  0.73683367  0.13102244  1
