# generated using pymatgen
data_CuNiC4
_symmetry_space_group_name_H-M   'P 1'
_cell_length_a   4.48113164
_cell_length_b   4.46589282
_cell_length_c   4.46589282
_cell_angle_alpha   81.27031297
_cell_angle_beta   81.21387315
_cell_angle_gamma   81.21387315
_symmetry_Int_Tables_number   1
_chemical_formula_structural   CuNiC4
_chemical_formula_sum   'Cu1 Ni1 C4'
_cell_volume   86.52928078
_cell_formula_units_Z   1
loop_
 _symmetry_equiv_pos_site_id
 _symmetry_equiv_pos_as_xyz
  1  'x, y, z'
loop_
 _atom_site_type_symbol
 _atom_site_label
 _atom_site_symmetry_multiplicity
 _atom_site_fract_x
 _atom_site_fract_y
 _atom_site_fract_z
 _atom_site_occupancy
  C  C0  1  0.38677958  0.38326733  0.38326733  1
  Ni  Ni1  1  0.75220536  0.74761161  0.74761161  1
  Cu  Cu2  1  0.03944751  0.03684040  0.03684040  1
  C  C3  1  0.02319394  0.52353229  0.02188968  1
  C  C4  1  0.02319394  0.02188968  0.52353229  1
  C  C5  1  0.52517767  0.02018969  0.02018969  1
