# generated using pymatgen
data_Cu2Ni2C15
_symmetry_space_group_name_H-M   'P 1'
_cell_length_a   5.79768100
_cell_length_b   5.71655200
_cell_length_c   9.35092300
_cell_angle_alpha   90.00000000
_cell_angle_beta   90.00000000
_cell_angle_gamma   90.00000000
_symmetry_Int_Tables_number   1
_chemical_formula_structural   Cu2Ni2C15
_chemical_formula_sum   'Cu2 Ni2 C15'
_cell_volume   309.91525572
_cell_formula_units_Z   1
loop_
 _symmetry_equiv_pos_site_id
 _symmetry_equiv_pos_as_xyz
  1  'x, y, z'
loop_
 _atom_site_type_symbol
 _atom_site_label
 _atom_site_symmetry_multiplicity
 _atom_site_fract_x
 _atom_site_fract_y
 _atom_site_fract_z
 _atom_site_occupancy
  Ni  Ni0  1  0.25000000  0.75000000  0.00545800  1
  Ni  Ni1  1  0.75000000  0.25000000  0.08127100  1
  Cu  Cu2  1  0.25000000  0.25000000  0.75565500  1
  Cu  Cu3  1  0.75000000  0.75000000  0.24145900  1
  C  C4  1  0.25000000  0.75000000  0.51560800  1
  C  C5  1  0.75000000  0.25000000  0.45672900  1
  C  C6  1  0.75000000  0.25000000  0.74900700  1
  C  C7  1  0.25000000  0.25000000  0.26755900  1
  C  C8  1  0.75000000  0.75000000  0.74318400  1
  C  C9  1  0.97457200  0.99503400  0.65419000  1
  C  C10  1  0.52542800  0.50496600  0.65419000  1
  C  C11  1  0.75000000  0.75000000  0.94581300  1
  C  C12  1  0.48155700  0.01524100  0.33154100  1
  C  C13  1  0.48155700  0.48475900  0.33154100  1
  C  C14  1  0.25000000  0.25000000  0.06877200  1
  C  C15  1  0.52542800  0.99503400  0.65419000  1
  C  C16  1  0.97457200  0.50496600  0.65419000  1
  C  C17  1  0.01844300  0.01524100  0.33154100  1
  C  C18  1  0.01844300  0.48475900  0.33154100  1
