# generated using pymatgen
data_Cu10Ni2C5
_symmetry_space_group_name_H-M   'P 1'
_cell_length_a   5.90314121
_cell_length_b   5.90314245
_cell_length_c   7.58393338
_cell_angle_alpha   98.43504249
_cell_angle_beta   109.44295898
_cell_angle_gamma   112.57548712
_symmetry_Int_Tables_number   1
_chemical_formula_structural   Cu10Ni2C5
_chemical_formula_sum   'Cu10 Ni2 C5'
_cell_volume   218.37930677
_cell_formula_units_Z   1
loop_
 _symmetry_equiv_pos_site_id
 _symmetry_equiv_pos_as_xyz
  1  'x, y, z'
loop_
 _atom_site_type_symbol
 _atom_site_label
 _atom_site_symmetry_multiplicity
 _atom_site_fract_x
 _atom_site_fract_y
 _atom_site_fract_z
 _atom_site_occupancy
  C  C0  1  0.72308700  0.72308700  0.00000000  1
  C  C1  1  0.18832000  0.14969700  0.21150200  1
  C  C2  1  0.93819600  0.97681800  0.78849800  1
  C  C3  1  0.46191600  0.02395700  0.98645900  1
  C  C4  1  0.03749800  0.47545700  0.01354100  1
  Ni  Ni5  1  0.72286400  0.58441800  0.32453600  1
  Ni  Ni6  1  0.25988200  0.39832800  0.67546400  1
  Cu  Cu7  1  0.39622500  0.68800700  0.73913000  1
  Cu  Cu8  1  0.94887700  0.65709700  0.26087000  1
  Cu  Cu9  1  0.58443100  0.29363300  0.27931100  1
  Cu  Cu10  1  0.01432200  0.30511900  0.72068900  1
  Cu  Cu11  1  0.84052000  0.11290700  0.01578200  1
  Cu  Cu12  1  0.09712300  0.82473700  0.98421800  1
  Cu  Cu13  1  0.46903300  0.33497700  0.80755500  1
  Cu  Cu14  1  0.52742300  0.66147900  0.19244500  1
  Cu  Cu15  1  0.81532200  0.70646000  0.53358100  1
  Cu  Cu16  1  0.17287900  0.28174100  0.46641900  1
