# generated using pymatgen
data_Cu3Ni9C70
_symmetry_space_group_name_H-M   'P 1'
_cell_length_a   18.79391916
_cell_length_b   9.35051580
_cell_length_c   22.61161108
_cell_angle_alpha   89.97745315
_cell_angle_beta   89.43190277
_cell_angle_gamma   119.91472319
_symmetry_Int_Tables_number   1
_chemical_formula_structural   Cu3Ni9C70
_chemical_formula_sum   'Cu9 Ni27 C210'
_cell_volume   3443.95942971
_cell_formula_units_Z   3
loop_
 _symmetry_equiv_pos_site_id
 _symmetry_equiv_pos_as_xyz
  1  'x, y, z'
loop_
 _atom_site_type_symbol
 _atom_site_label
 _atom_site_symmetry_multiplicity
 _atom_site_fract_x
 _atom_site_fract_y
 _atom_site_fract_z
 _atom_site_occupancy
  C  C0  1  0.82797423  0.02266670  0.25438413  1
  C  C1  1  0.17514499  0.35088544  0.25533785  1
  C  C2  1  0.69418464  0.36816286  0.24887447  1
  C  C3  1  0.00338195  0.63014048  0.24524685  1
  C  C4  1  0.49460083  0.63704878  0.24368580  1
  C  C5  1  0.32593101  0.63063256  0.74946503  1
  C  C6  1  0.99126770  0.34865327  0.73308649  1
  C  C7  1  0.50432482  0.37785123  0.74223352  1
  C  C8  1  0.19121468  0.01776563  0.74419101  1
  C  C9  1  0.68234696  0.00905158  0.74766413  1
  C  C10  1  0.14209758  0.31396917  0.58052904  1
  C  C11  1  0.65736274  0.32103127  0.58177936  1
  C  C12  1  0.33931101  0.99205970  0.59062079  1
  C  C13  1  0.83386591  0.97456906  0.58522521  1
  C  C14  1  0.15346702  0.99334091  0.08190169  1
  C  C15  1  0.64597723  0.96734142  0.07613144  1
  C  C16  1  0.33306036  0.68779363  0.08356764  1
  C  C17  1  0.83970370  0.68835887  0.09127602  1
  C  C18  1  0.47762799  0.67201484  0.91837607  1
  C  C19  1  0.97798049  0.67841595  0.92943865  1
  C  C20  1  0.34150118  0.02232056  0.90780251  1
  C  C21  1  0.84445162  0.02674076  0.90748627  1
  C  C22  1  0.17598705  0.29600991  0.91284458  1
  C  C23  1  0.66823904  0.28121478  0.91009196  1
  C  C24  1  0.48443699  0.29033182  0.43396469  1
  C  C25  1  0.97543908  0.27739236  0.42312223  1
  C  C26  1  0.16657212  0.05594205  0.41416176  1
  C  C27  1  0.67753373  0.05534184  0.42038376  1
  C  C28  1  0.34747578  0.66561347  0.41263553  1
  C  C29  1  0.84290838  0.66277627  0.42231337  1
  C  C30  1  0.99414115  0.98686033  0.50716584  1
  C  C31  1  0.50968197  0.01164318  0.51086172  1
  C  C32  1  0.00590883  0.00141792  0.00850979  1
  C  C33  1  0.50316988  0.99749713  0.00169804  1
  C  C34  1  0.32873082  0.33494984  0.82342357  1
  C  C35  1  0.81656347  0.32963641  0.82024304  1
  C  C36  1  0.31530425  0.29738716  0.33084694  1
  C  C37  1  0.82736436  0.32093938  0.33222132  1
  C  C38  1  0.15434153  0.65085337  0.16607565  1
  C  C39  1  0.66158463  0.65390480  0.16147252  1
  C  C40  1  0.16067207  0.66864253  0.66021428  1
  C  C41  1  0.65707046  0.66017866  0.66351565  1
  C  C42  1  0.00319617  0.00837009  0.34840473  1
  C  C43  1  0.49907926  0.00793980  0.34870872  1
  C  C44  1  0.99721592  0.99301802  0.84508653  1
  C  C45  1  0.50370964  0.99761537  0.84594332  1
  C  C46  1  0.33844465  0.33083101  0.67147224  1
  C  C47  1  0.83915248  0.34610344  0.17210026  1
  C  C48  1  0.33194909  0.33804504  0.99622980  1
  C  C49  1  0.82173310  0.33549678  0.98700902  1
  C  C50  1  0.32365285  0.31025585  0.48766405  1
  C  C51  1  0.83223579  0.33571528  0.49982146  1
  C  C52  1  0.67431674  0.67669656  0.31391054  1
  C  C53  1  0.17303299  0.66828390  0.81087766  1
  C  C54  1  0.99578018  0.00622028  0.64973270  1
  C  C55  1  0.51764761  0.02782133  0.66115763  1
  C  C56  1  0.01651551  0.00810109  0.16046741  1
  C  C57  1  0.50228161  0.99099443  0.15255727  1
  C  C58  1  0.82643669  0.32144082  0.67246237  1
  C  C59  1  0.32752779  0.35239704  0.17928700  1
  C  C60  1  0.17017725  0.67612295  0.01953301  1
  C  C61  1  0.66373161  0.65916921  0.01863659  1
  C  C62  1  0.16256227  0.66583239  0.51883799  1
  C  C63  1  0.68103559  0.66306793  0.52588298  1
  C  C64  1  0.17967806  0.67120203  0.30635652  1
  C  C65  1  0.68092434  0.69278568  0.80449273  1
  Ni  Ni66  1  0.16399543  0.00796045  0.25049174  1
  Ni  Ni67  1  0.64784925  0.99562444  0.24851924  1
  Ni  Ni68  1  0.35198125  0.69719015  0.24919974  1
  Ni  Ni69  1  0.85445753  0.70879870  0.24624567  1
  Ni  Ni70  1  0.00554009  0.30671280  0.25376133  1
  Ni  Ni71  1  0.14536780  0.29352250  0.74740906  1
  Ni  Ni72  1  0.66385996  0.32279857  0.75185923  1
  Ni  Ni73  1  0.50565176  0.70444395  0.75458552  1
  Ni  Ni74  1  0.35431566  0.00069564  0.74686317  1
  Ni  Ni75  1  0.85186405  0.02041169  0.74987710  1
  Ni  Ni76  1  0.49780953  0.32671109  0.58245685  1
  Ni  Ni77  1  0.98802907  0.33577375  0.58506940  1
  Ni  Ni78  1  0.16370285  -0.00004372  0.58410432  1
  Ni  Ni79  1  0.67392618  0.01148584  0.58369173  1
  Ni  Ni80  1  0.84164373  0.64761472  0.58179921  1
  Ni  Ni81  1  0.48814831  0.64308488  0.08591601  1
  Ni  Ni82  1  0.99778118  0.66799080  0.08224972  1
  Ni  Ni83  1  0.17465865  0.33828827  0.08401465  1
  Ni  Ni84  1  0.66248690  0.32587169  0.08459861  1
  Ni  Ni85  1  0.31665995  0.67104045  0.92279811  1
  Ni  Ni86  1  0.80193731  0.66377636  0.91450232  1
  Ni  Ni87  1  0.16710310  0.96210792  0.91787899  1
  Ni  Ni88  1  0.66752064  0.94328283  0.91664877  1
  Ni  Ni89  1  0.30166513  0.94147732  0.41525534  1
  Ni  Ni90  1  0.81662468  0.96529344  0.42360554  1
  Ni  Ni91  1  0.16822199  0.39216517  0.41645926  1
  Ni  Ni92  1  0.66796453  0.37072794  0.41855264  1
  Cu  Cu93  1  0.48858251  0.29461035  0.24233065  1
  Cu  Cu94  1  0.98953837  0.68303147  0.74405798  1
  Cu  Cu95  1  0.33024926  0.66129111  0.58034784  1
  Cu  Cu96  1  0.33462108  0.02028592  0.08375781  1
  Cu  Cu97  1  0.83061242  0.00042000  0.08032789  1
  Cu  Cu98  1  0.02211463  0.37632493  0.92414098  1
  Cu  Cu99  1  0.52882587  0.39274484  0.91635163  1
  Cu  Cu100  1  0.03001588  0.66212253  0.41457904  1
  Cu  Cu101  1  0.51949260  0.66586213  0.42087972  1
  C  C102  1  0.14161956  0.07412337  0.31086756  1
  C  C103  1  0.61371365  0.01577374  0.31315713  1
  C  C104  1  0.40416930  0.74766001  0.30983995  1
  C  C105  1  0.89488325  0.77980478  0.31073077  1
  C  C106  1  0.48030555  0.22551078  0.30347799  1
  C  C107  1  0.98684697  0.21792273  0.31865593  1
  C  C108  1  0.11485575  0.21600934  0.81476128  1
  C  C109  1  0.63655571  0.21389127  0.81300256  1
  C  C110  1  0.48654786  0.75189933  0.82011544  1
  C  C111  1  0.98309914  0.73615987  0.80582683  1
  C  C112  1  0.39213587  0.00709976  0.81237537  1
  C  C113  1  0.90144893  0.06270877  0.81233583  1
  C  C114  1  0.42009269  0.00838380  0.69520482  1
  C  C115  1  0.90845553  0.00291264  0.69809521  1
  C  C116  1  0.08259196  0.15040438  0.70037845  1
  C  C117  1  0.59380653  0.21113837  0.70073897  1
  C  C118  1  0.99168334  0.80188841  0.70077731  1
  C  C119  1  0.51707654  0.85711944  0.70972956  1
  C  C120  1  0.40575232  0.82187746  0.19525561  1
  C  C121  1  0.91897791  0.83063946  0.19308187  1
  C  C122  1  0.01710682  0.17878121  0.20757431  1
  C  C123  1  0.48969937  0.17931454  0.19843354  1
  C  C124  1  0.09407408  0.97912605  0.19928277  1
  C  C125  1  0.58510503  0.01234725  0.19906128  1
  C  C126  1  0.46263501  0.36654787  0.64218864  1
  C  C127  1  0.92882901  0.35107873  0.63671933  1
  C  C128  1  0.23223868  0.07177951  0.63683778  1
  C  C129  1  0.74927320  0.13752248  0.63114620  1
  C  C130  1  0.31581180  0.55766251  0.63380724  1
  C  C131  1  0.82304130  0.48540110  0.62349064  1
  C  C132  1  0.42676378  0.50556776  0.13668952  1
  C  C133  1  0.96424852  0.55893974  0.14234285  1
  C  C134  1  0.32434393  0.12681430  0.12729958  1
  C  C135  1  0.81533881  0.07288765  0.13381671  1
  C  C136  1  0.25139765  0.36658627  0.13141993  1
  C  C137  1  0.72989772  0.38705754  0.13769529  1
  C  C138  1  0.20151925  0.27942884  0.02381430  1
  C  C139  1  0.69712561  0.26162497  0.02888214  1
  C  C140  1  0.43701077  0.59553293  0.02461838  1
  C  C141  1  0.93066376  0.57990017  0.02816228  1
  C  C142  1  0.35053151  0.09674927  0.02356123  1
  C  C143  1  0.83918167  0.10272415  0.02727402  1
  C  C144  1  0.20068542  0.13176695  0.52774939  1
  C  C145  1  0.69770538  0.12170383  0.52302994  1
  C  C146  1  0.33878470  0.57654174  0.52715242  1
  C  C147  1  0.86358769  0.61076670  0.51608423  1
  C  C148  1  0.43004471  0.27690742  0.52860964  1
  C  C149  1  0.93756780  0.28284294  0.52366744  1
  C  C150  1  0.25372913  0.66029321  0.97832448  1
  C  C151  1  0.74595241  0.65067302  0.97409167  1
  C  C152  1  0.07519527  0.48332957  0.97237931  1
  C  C153  1  0.57228287  0.49332934  0.96901224  1
  C  C154  1  0.17365894  0.84094321  0.97069668  1
  C  C155  1  0.66723073  0.83849617  0.97669441  1
  C  C156  1  0.24574318  0.84165084  0.47412063  1
  C  C157  1  0.75575133  0.84481959  0.47862442  1
  C  C158  1  0.16851370  0.49789437  0.47565977  1
  C  C159  1  0.67676472  0.50303875  0.47189629  1
  C  C160  1  0.07277722  0.64906356  0.46754883  1
  C  C161  1  0.57255270  0.66505733  0.46808133  1
  C  C162  1  0.07296518  0.66457511  0.35891431  1
  C  C163  1  0.55016764  0.65396169  0.36102863  1
  C  C164  1  0.25193791  0.83717919  0.35578308  1
  C  C165  1  0.77093893  0.89460784  0.35991361  1
  C  C166  1  0.16903507  0.49524449  0.35562683  1
  C  C167  1  0.66311631  0.44290154  0.35329634  1
  C  C168  1  0.05367972  0.45467965  0.86560944  1
  C  C169  1  0.56962679  0.47632114  0.86048100  1
  C  C170  1  0.16640589  0.88323166  0.85318820  1
  C  C171  1  0.66908831  0.84229203  0.85659256  1
  C  C172  1  0.27002199  0.64865529  0.85991599  1
  C  C173  1  0.75169931  0.66746908  0.85575459  1
  C  C174  1  0.02778536  0.81961070  0.42024459  1
  C  C175  1  0.51252019  0.81884433  0.42530832  1
  C  C176  1  0.39128009  0.95326442  0.41893479  1
  C  C177  1  0.90308372  0.96098684  0.42793087  1
  C  C178  1  0.08790501  0.20753488  0.42215059  1
  C  C179  1  0.58060529  0.19406972  0.42874905  1
  C  C180  1  0.01807228  0.21281236  0.92815394  1
  C  C181  1  0.52649941  0.23070156  0.92235281  1
  C  C182  1  0.08102879  0.96702390  0.92746447  1
  C  C183  1  0.58710037  0.96702815  0.92238597  1
  C  C184  1  0.40178091  0.84883839  0.92873009  1
  C  C185  1  0.89179501  0.83141719  0.91890863  1
  C  C186  1  0.51051874  0.16456218  0.59228883  1
  C  C187  1  0.00033278  0.17450344  0.60105699  1
  C  C188  1  0.07536927  0.98926424  0.59834073  1
  C  C189  1  0.58658761  0.99383550  0.60558495  1
  C  C190  1  0.40326350  0.82737071  0.58533465  1
  C  C191  1  0.90906802  0.83156768  0.60288552  1
  C  C192  1  0.49953887  0.82956344  0.10117196  1
  C  C193  1  0.00988616  0.85529433  0.09082499  1
  C  C194  1  0.40086555  0.98410054  0.09706381  1
  C  C195  1  0.90374458  0.98076700  0.08517248  1
  C  C196  1  0.08761507  0.17957801  0.10431519  1
  C  C197  1  0.57108025  0.16343657  0.09872763  1
  C  C198  1  0.34131099  0.16118213  0.74463019  1
  C  C199  1  0.83440485  0.17379089  0.73609032  1
  C  C200  1  0.24000059  0.33027140  0.74034177  1
  C  C201  1  0.75021911  0.33313178  0.73055510  1
  C  C202  1  0.42539427  0.52697311  0.74008804  1
  C  C203  1  0.91909887  0.51361699  0.73678701  1
  C  C204  1  0.33447299  0.50420543  0.23587913  1
  C  C205  1  0.84110652  0.52210201  0.24357666  1
  C  C206  1  0.41851592  0.32425323  0.23445183  1
  C  C207  1  0.92534050  0.32309010  0.23961923  1
  C  C208  1  0.25141228  0.16805402  0.22604688  1
  C  C209  1  0.74145869  0.14840707  0.24067497  1
  C  C210  1  0.33024386  0.51061036  0.92583276  1
  C  C211  1  0.81099378  0.49726505  0.91247412  1
  C  C212  1  0.44333889  0.36536124  0.91790729  1
  C  C213  1  0.93774786  0.35235307  0.93001530  1
  C  C214  1  0.25173496  0.14277779  0.92142513  1
  C  C215  1  0.75256832  0.12506419  0.91473811  1
  C  C216  1  0.31008529  0.12519055  0.41205810  1
  C  C217  1  0.82884375  0.15122612  0.42709343  1
  C  C218  1  0.25321914  0.38098351  0.41381578  1
  C  C219  1  0.75102726  0.35434272  0.41928489  1
  C  C220  1  0.43434329  0.51852668  0.42539997  1
  C  C221  1  0.94549072  0.51709944  0.41437498  1
  C  C222  1  0.17582750  0.51434451  0.08111557  1
  C  C223  1  0.65333007  0.48854321  0.06970884  1
  C  C224  1  0.09030872  0.69115984  0.06911785  1
  C  C225  1  0.58177192  0.67377399  0.08146318  1
  C  C226  1  0.25477233  0.85571841  0.08351664  1
  C  C227  1  0.75568537  0.83006369  0.07566695  1
  C  C228  1  0.15295273  0.81766547  0.56936321  1
  C  C229  1  0.67693538  0.83978724  0.58158180  1
  C  C230  1  0.25525584  0.68051449  0.57612773  1
  C  C231  1  0.75303128  0.65125062  0.58128980  1
  C  C232  1  0.08250527  0.49234861  0.57966020  1
  C  C233  1  0.58911822  0.48826089  0.56872369  1
  C  C234  1  0.16017317  0.82927407  0.25530046  1
  C  C235  1  0.63835757  0.81451441  0.23763503  1
  C  C236  1  0.25897594  0.67342100  0.25275048  1
  C  C237  1  0.76684313  0.70555445  0.23657976  1
  C  C238  1  0.09053502  0.48978127  0.25233870  1
  C  C239  1  0.56719190  0.45632171  0.23731586  1
  C  C240  1  0.13802257  0.45925001  0.73658429  1
  C  C241  1  0.66036600  0.49495073  0.75573444  1
  C  C242  1  0.06783709  0.67662321  0.73836732  1
  C  C243  1  0.59085074  0.69216294  0.75267809  1
  C  C244  1  0.26692948  0.82877939  0.73574700  1
  C  C245  1  0.75968404  0.85053391  0.75311465  1
