# generated using pymatgen
data_Cu3NiC5
_symmetry_space_group_name_H-M   'P 1'
_cell_length_a   5.90986703
_cell_length_b   5.91655103
_cell_length_c   5.90986734
_cell_angle_alpha   89.99750093
_cell_angle_beta   90.20453483
_cell_angle_gamma   89.99748733
_symmetry_Int_Tables_number   1
_chemical_formula_structural   Cu3NiC5
_chemical_formula_sum   'Cu3 Ni1 C5'
_cell_volume   206.64328052
_cell_formula_units_Z   1
loop_
 _symmetry_equiv_pos_site_id
 _symmetry_equiv_pos_as_xyz
  1  'x, y, z'
loop_
 _atom_site_type_symbol
 _atom_site_label
 _atom_site_symmetry_multiplicity
 _atom_site_fract_x
 _atom_site_fract_y
 _atom_site_fract_z
 _atom_site_occupancy
  Ni  Ni0  1  0.70616697  0.70584318  0.70616697  1
  Cu  Cu1  1  0.84378020  0.84230200  0.19670059  1
  Cu  Cu2  1  0.84279439  0.19661812  0.84279439  1
  Cu  Cu3  1  0.19670059  0.84230200  0.84378020  1
  C  C4  1  0.16248437  0.16138102  0.16248437  1
  C  C5  1  0.54328414  0.97997816  0.98116561  1
  C  C6  1  0.98178839  0.54252782  0.98178839  1
  C  C7  1  0.98116561  0.97997816  0.54328414  1
  C  C8  1  0.48831434  0.48364354  0.48831434  1
