# generated using pymatgen
data_Cu10NiC13
_symmetry_space_group_name_H-M   'P 1'
_cell_length_a   12.27966000
_cell_length_b   12.27966000
_cell_length_c   12.27966000
_cell_angle_alpha   90.00000000
_cell_angle_beta   90.00000000
_cell_angle_gamma   90.00000000
_symmetry_Int_Tables_number   1
_chemical_formula_structural   Cu10NiC13
_chemical_formula_sum   'Cu80 Ni8 C104'
_cell_volume   1851.65054189
_cell_formula_units_Z   8
loop_
 _symmetry_equiv_pos_site_id
 _symmetry_equiv_pos_as_xyz
  1  'x, y, z'
loop_
 _atom_site_type_symbol
 _atom_site_label
 _atom_site_symmetry_multiplicity
 _atom_site_fract_x
 _atom_site_fract_y
 _atom_site_fract_z
 _atom_site_occupancy
  C  C0  1  0.50000000  0.50000000  0.50000000  1
  C  C1  1  0.00000000  0.50000000  0.00000000  1
  C  C2  1  0.00000000  0.00000000  0.50000000  1
  C  C3  1  0.50000000  0.00000000  0.00000000  1
  C  C4  1  0.00000000  0.00000000  0.00000000  1
  C  C5  1  0.50000000  0.00000000  0.50000000  1
  C  C6  1  0.50000000  0.50000000  0.00000000  1
  C  C7  1  0.00000000  0.50000000  0.50000000  1
  C  C8  1  0.09042900  0.34304100  0.38822100  1
  C  C9  1  0.59042900  0.15695900  0.61177900  1
  C  C10  1  0.90957100  0.84304100  0.11177900  1
  C  C11  1  0.15695900  0.61177900  0.59042900  1
  C  C12  1  0.11177900  0.90957100  0.84304100  1
  C  C13  1  0.61177900  0.59042900  0.15695900  1
  C  C14  1  0.34304100  0.38822100  0.09042900  1
  C  C15  1  0.38822100  0.09042900  0.34304100  1
  C  C16  1  0.84304100  0.11177900  0.90957100  1
  C  C17  1  0.65695900  0.88822100  0.40957100  1
  C  C18  1  0.88822100  0.40957100  0.65695900  1
  C  C19  1  0.40957100  0.65695900  0.88822100  1
  C  C20  1  0.90957100  0.65695900  0.61177900  1
  C  C21  1  0.40957100  0.84304100  0.38822100  1
  C  C22  1  0.09042900  0.15695900  0.88822100  1
  C  C23  1  0.84304100  0.38822100  0.40957100  1
  C  C24  1  0.88822100  0.09042900  0.15695900  1
  C  C25  1  0.38822100  0.40957100  0.84304100  1
  C  C26  1  0.65695900  0.61177900  0.90957100  1
  C  C27  1  0.61177900  0.90957100  0.65695900  1
  C  C28  1  0.15695900  0.88822100  0.09042900  1
  C  C29  1  0.34304100  0.11177900  0.59042900  1
  C  C30  1  0.11177900  0.59042900  0.34304100  1
  C  C31  1  0.59042900  0.34304100  0.11177900  1
  C  C32  1  0.05136400  0.20711800  0.00699400  1
  C  C33  1  0.55136400  0.29288200  0.99300600  1
  C  C34  1  0.94863600  0.70711800  0.49300600  1
  C  C35  1  0.29288200  0.99300600  0.55136400  1
  C  C36  1  0.49300600  0.94863600  0.70711800  1
  C  C37  1  0.99300600  0.55136400  0.29288200  1
  C  C38  1  0.20711800  0.00699400  0.05136400  1
  C  C39  1  0.00699400  0.05136400  0.20711800  1
  C  C40  1  0.70711800  0.49300600  0.94863600  1
  C  C41  1  0.79288200  0.50699400  0.44863600  1
  C  C42  1  0.50699400  0.44863600  0.79288200  1
  C  C43  1  0.44863600  0.79288200  0.50699400  1
  C  C44  1  0.94863600  0.79288200  0.99300600  1
  C  C45  1  0.44863600  0.70711800  0.00699400  1
  C  C46  1  0.05136400  0.29288200  0.50699400  1
  C  C47  1  0.70711800  0.00699400  0.44863600  1
  C  C48  1  0.50699400  0.05136400  0.29288200  1
  C  C49  1  0.00699400  0.44863600  0.70711800  1
  C  C50  1  0.79288200  0.99300600  0.94863600  1
  C  C51  1  0.99300600  0.94863600  0.79288200  1
  C  C52  1  0.29288200  0.50699400  0.05136400  1
  C  C53  1  0.20711800  0.49300600  0.55136400  1
  C  C54  1  0.49300600  0.55136400  0.20711800  1
  C  C55  1  0.58835500  0.31388500  0.35749700  1
  C  C56  1  0.96512400  0.30825700  0.11293200  1
  C  C57  1  0.46512400  0.19174300  0.88706800  1
  C  C58  1  0.03487600  0.80825700  0.38706800  1
  C  C59  1  0.19174300  0.88706800  0.46512400  1
  C  C60  1  0.38706800  0.03487600  0.80825700  1
  C  C61  1  0.88706800  0.46512400  0.19174300  1
  C  C62  1  0.30825700  0.11293200  0.96512400  1
  C  C63  1  0.11293200  0.96512400  0.30825700  1
  C  C64  1  0.80825700  0.38706800  0.03487600  1
  C  C65  1  0.69174300  0.61293200  0.53487600  1
  C  C66  1  0.61293200  0.53487600  0.69174300  1
  C  C67  1  0.53487600  0.69174300  0.61293200  1
  C  C68  1  0.03487600  0.69174300  0.88706800  1
  C  C69  1  0.53487600  0.80825700  0.11293200  1
  C  C70  1  0.96512400  0.19174300  0.61293200  1
  C  C71  1  0.80825700  0.11293200  0.53487600  1
  C  C72  1  0.61293200  0.96512400  0.19174300  1
  C  C73  1  0.11293200  0.53487600  0.80825700  1
  C  C74  1  0.69174300  0.88706800  0.03487600  1
  C  C75  1  0.88706800  0.03487600  0.69174300  1
  C  C76  1  0.19174300  0.61293200  0.96512400  1
  C  C77  1  0.30825700  0.38706800  0.46512400  1
  C  C78  1  0.38706800  0.46512400  0.30825700  1
  C  C79  1  0.46512400  0.30825700  0.38706800  1
  C  C80  1  0.08835500  0.31388500  0.14250300  1
  C  C81  1  0.58835500  0.18611500  0.85749700  1
  C  C82  1  0.91164500  0.81388500  0.35749700  1
  C  C83  1  0.18611500  0.85749700  0.58835500  1
  C  C84  1  0.35749700  0.91164500  0.81388500  1
  C  C85  1  0.85749700  0.58835500  0.18611500  1
  C  C86  1  0.31388500  0.14250300  0.08835500  1
  C  C87  1  0.14250300  0.08835500  0.31388500  1
  C  C88  1  0.81388500  0.35749700  0.91164500  1
  C  C89  1  0.68611500  0.64250300  0.41164500  1
  C  C90  1  0.64250300  0.41164500  0.68611500  1
  C  C91  1  0.41164500  0.68611500  0.64250300  1
  C  C92  1  0.91164500  0.68611500  0.85749700  1
  C  C93  1  0.41164500  0.81388500  0.14250300  1
  C  C94  1  0.08835500  0.18611500  0.64250300  1
  C  C95  1  0.81388500  0.14250300  0.41164500  1
  C  C96  1  0.64250300  0.08835500  0.18611500  1
  C  C97  1  0.14250300  0.41164500  0.81388500  1
  C  C98  1  0.68611500  0.85749700  0.91164500  1
  C  C99  1  0.85749700  0.91164500  0.68611500  1
  C  C100  1  0.18611500  0.64250300  0.08835500  1
  C  C101  1  0.31388500  0.35749700  0.58835500  1
  C  C102  1  0.35749700  0.58835500  0.31388500  1
  C  C103  1  0.55136400  0.20711800  0.49300600  1
  Ni  Ni104  1  0.26578900  0.26578900  0.26578900  1
  Ni  Ni105  1  0.23421100  0.73421100  0.76578900  1
  Ni  Ni106  1  0.76578900  0.23421100  0.73421100  1
  Ni  Ni107  1  0.73421100  0.76578900  0.23421100  1
  Ni  Ni108  1  0.73421100  0.73421100  0.73421100  1
  Ni  Ni109  1  0.76578900  0.26578900  0.23421100  1
  Ni  Ni110  1  0.23421100  0.76578900  0.26578900  1
  Ni  Ni111  1  0.26578900  0.23421100  0.76578900  1
  Cu  Cu112  1  0.63889500  0.96012900  0.44307600  1
  Cu  Cu113  1  0.13889500  0.53987100  0.55692400  1
  Cu  Cu114  1  0.36110500  0.46012900  0.05692400  1
  Cu  Cu115  1  0.53987100  0.55692400  0.13889500  1
  Cu  Cu116  1  0.05692400  0.36110500  0.46012900  1
  Cu  Cu117  1  0.55692400  0.13889500  0.53987100  1
  Cu  Cu118  1  0.96012900  0.44307600  0.63889500  1
  Cu  Cu119  1  0.44307600  0.63889500  0.96012900  1
  Cu  Cu120  1  0.46012900  0.05692400  0.36110500  1
  Cu  Cu121  1  0.03987100  0.94307600  0.86110500  1
  Cu  Cu122  1  0.94307600  0.86110500  0.03987100  1
  Cu  Cu123  1  0.86110500  0.03987100  0.94307600  1
  Cu  Cu124  1  0.36110500  0.03987100  0.55692400  1
  Cu  Cu125  1  0.86110500  0.46012900  0.44307600  1
  Cu  Cu126  1  0.63889500  0.53987100  0.94307600  1
  Cu  Cu127  1  0.46012900  0.44307600  0.86110500  1
  Cu  Cu128  1  0.94307600  0.63889500  0.53987100  1
  Cu  Cu129  1  0.44307600  0.86110500  0.46012900  1
  Cu  Cu130  1  0.03987100  0.55692400  0.36110500  1
  Cu  Cu131  1  0.55692400  0.36110500  0.03987100  1
  Cu  Cu132  1  0.53987100  0.94307600  0.63889500  1
  Cu  Cu133  1  0.96012900  0.05692400  0.13889500  1
  Cu  Cu134  1  0.05692400  0.13889500  0.96012900  1
  Cu  Cu135  1  0.13889500  0.96012900  0.05692400  1
  Cu  Cu136  1  0.57877100  0.03812900  0.18474400  1
  Cu  Cu137  1  0.07877100  0.46187100  0.81525600  1
  Cu  Cu138  1  0.42122900  0.53812900  0.31525600  1
  Cu  Cu139  1  0.46187100  0.81525600  0.07877100  1
  Cu  Cu140  1  0.31525600  0.42122900  0.53812900  1
  Cu  Cu141  1  0.81525600  0.07877100  0.46187100  1
  Cu  Cu142  1  0.03812900  0.18474400  0.57877100  1
  Cu  Cu143  1  0.18474400  0.57877100  0.03812900  1
  Cu  Cu144  1  0.53812900  0.31525600  0.42122900  1
  Cu  Cu145  1  0.96187100  0.68474400  0.92122900  1
  Cu  Cu146  1  0.68474400  0.92122900  0.96187100  1
  Cu  Cu147  1  0.92122900  0.96187100  0.68474400  1
  Cu  Cu148  1  0.42122900  0.96187100  0.81525600  1
  Cu  Cu149  1  0.92122900  0.53812900  0.18474400  1
  Cu  Cu150  1  0.57877100  0.46187100  0.68474400  1
  Cu  Cu151  1  0.53812900  0.18474400  0.92122900  1
  Cu  Cu152  1  0.68474400  0.57877100  0.46187100  1
  Cu  Cu153  1  0.18474400  0.92122900  0.53812900  1
  Cu  Cu154  1  0.96187100  0.81525600  0.42122900  1
  Cu  Cu155  1  0.81525600  0.42122900  0.96187100  1
  Cu  Cu156  1  0.46187100  0.68474400  0.57877100  1
  Cu  Cu157  1  0.03812900  0.31525600  0.07877100  1
  Cu  Cu158  1  0.31525600  0.07877100  0.03812900  1
  Cu  Cu159  1  0.07877100  0.03812900  0.31525600  1
  Cu  Cu160  1  0.80777200  0.26927800  0.34800400  1
  Cu  Cu161  1  0.30777200  0.23072200  0.65199600  1
  Cu  Cu162  1  0.19222800  0.76927800  0.15199600  1
  Cu  Cu163  1  0.23072200  0.65199600  0.30777200  1
  Cu  Cu164  1  0.15199600  0.19222800  0.76927800  1
  Cu  Cu165  1  0.65199600  0.30777200  0.23072200  1
  Cu  Cu166  1  0.26927800  0.34800400  0.80777200  1
  Cu  Cu167  1  0.34800400  0.80777200  0.26927800  1
  Cu  Cu168  1  0.76927800  0.15199600  0.19222800  1
  Cu  Cu169  1  0.73072200  0.84800400  0.69222800  1
  Cu  Cu170  1  0.84800400  0.69222800  0.73072200  1
  Cu  Cu171  1  0.69222800  0.73072200  0.84800400  1
  Cu  Cu172  1  0.19222800  0.73072200  0.65199600  1
  Cu  Cu173  1  0.69222800  0.76927800  0.34800400  1
  Cu  Cu174  1  0.80777200  0.23072200  0.84800400  1
  Cu  Cu175  1  0.76927800  0.34800400  0.69222800  1
  Cu  Cu176  1  0.84800400  0.80777200  0.23072200  1
  Cu  Cu177  1  0.34800400  0.69222800  0.76927800  1
  Cu  Cu178  1  0.73072200  0.65199600  0.19222800  1
  Cu  Cu179  1  0.65199600  0.19222800  0.73072200  1
  Cu  Cu180  1  0.23072200  0.84800400  0.80777200  1
  Cu  Cu181  1  0.26927800  0.15199600  0.30777200  1
  Cu  Cu182  1  0.15199600  0.30777200  0.26927800  1
  Cu  Cu183  1  0.30777200  0.26927800  0.15199600  1
  Cu  Cu184  1  0.33651400  0.33651400  0.33651400  1
  Cu  Cu185  1  0.16348600  0.83651400  0.33651400  1
  Cu  Cu186  1  0.83651400  0.33651400  0.16348600  1
  Cu  Cu187  1  0.66348600  0.66348600  0.66348600  1
  Cu  Cu188  1  0.66348600  0.83651400  0.16348600  1
  Cu  Cu189  1  0.83651400  0.16348600  0.66348600  1
  Cu  Cu190  1  0.16348600  0.66348600  0.83651400  1
  Cu  Cu191  1  0.33651400  0.16348600  0.83651400  1
