# generated using pymatgen
data_Cu2Ni7C10
_symmetry_space_group_name_H-M   'P 1'
_cell_length_a   10.21306900
_cell_length_b   6.38375300
_cell_length_c   9.99412564
_cell_angle_alpha   84.21955931
_cell_angle_beta   90.00000000
_cell_angle_gamma   90.00000000
_symmetry_Int_Tables_number   1
_chemical_formula_structural   Cu2Ni7C10
_chemical_formula_sum   'Cu4 Ni14 C20'
_cell_volume   648.28084491
_cell_formula_units_Z   2
loop_
 _symmetry_equiv_pos_site_id
 _symmetry_equiv_pos_as_xyz
  1  'x, y, z'
loop_
 _atom_site_type_symbol
 _atom_site_label
 _atom_site_symmetry_multiplicity
 _atom_site_fract_x
 _atom_site_fract_y
 _atom_site_fract_z
 _atom_site_occupancy
  Ni  Ni0  1  0.00000000  0.50000000  0.00000000  1
  Ni  Ni1  1  0.50000000  0.50000000  0.50000000  1
  Ni  Ni2  1  0.61679200  0.80915700  0.19071300  1
  Ni  Ni3  1  0.11679200  0.19084300  0.30928700  1
  Ni  Ni4  1  0.38320800  0.19084300  0.80928700  1
  Ni  Ni5  1  0.88320800  0.80915700  0.69071300  1
  Ni  Ni6  1  0.84944700  0.98433000  0.08816800  1
  Ni  Ni7  1  0.34944700  0.01567000  0.41183200  1
  Ni  Ni8  1  0.15055300  0.01567000  0.91183200  1
  Ni  Ni9  1  0.65055300  0.98433000  0.58816800  1
  Ni  Ni10  1  0.63941800  0.23884200  0.14834100  1
  Ni  Ni11  1  0.13941800  0.76115800  0.35165900  1
  Ni  Ni12  1  0.36058200  0.76115800  0.85165900  1
  Ni  Ni13  1  0.86058200  0.23884200  0.64834100  1
  Cu  Cu14  1  0.85118000  0.50043100  0.35260100  1
  Cu  Cu15  1  0.35118000  0.49956900  0.14739900  1
  Cu  Cu16  1  0.14882000  0.49956900  0.64739900  1
  Cu  Cu17  1  0.64882000  0.50043100  0.85260100  1
  C  C18  1  0.43288700  0.32027600  0.22686100  1
  C  C19  1  0.93288700  0.67972400  0.27313900  1
  C  C20  1  0.56711300  0.67972400  0.77313900  1
  C  C21  1  0.06711300  0.32027600  0.72686100  1
  C  C22  1  0.90640700  0.27698800  0.33778100  1
  C  C23  1  0.40640700  0.72301200  0.16221900  1
  C  C24  1  0.09359300  0.72301200  0.66221900  1
  C  C25  1  0.59359300  0.27698800  0.83778100  1
  C  C26  1  0.65753200  0.53935100  0.00372900  1
  C  C27  1  0.15753200  0.46064900  0.49627100  1
  C  C28  1  0.34246800  0.46064900  0.99627100  1
  C  C29  1  0.84246800  0.53935100  0.50372900  1
  C  C30  1  0.03318400  0.18697400  0.06320200  1
  C  C31  1  0.53318400  0.81302600  0.43679800  1
  C  C32  1  0.96681600  0.81302600  0.93679800  1
  C  C33  1  0.46681600  0.18697400  0.56320200  1
  C  C34  1  0.70848600  0.50162900  0.29271500  1
  C  C35  1  0.20848600  0.49837100  0.20728500  1
  C  C36  1  0.79151400  0.50162900  0.79271500  1
  C  C37  1  0.29151400  0.49837100  0.70728500  1
