# generated using pymatgen
data_Cu(NiC7)5
_symmetry_space_group_name_H-M   'P 1'
_cell_length_a   9.09943540
_cell_length_b   9.08735465
_cell_length_c   22.47065887
_cell_angle_alpha   89.95238709
_cell_angle_beta   89.98265141
_cell_angle_gamma   120.07442216
_symmetry_Int_Tables_number   1
_chemical_formula_structural   Cu(NiC7)5
_chemical_formula_sum   'Cu3 Ni15 C105'
_cell_volume   1607.94757193
_cell_formula_units_Z   3
loop_
 _symmetry_equiv_pos_site_id
 _symmetry_equiv_pos_as_xyz
  1  'x, y, z'
loop_
 _atom_site_type_symbol
 _atom_site_label
 _atom_site_symmetry_multiplicity
 _atom_site_fract_x
 _atom_site_fract_y
 _atom_site_fract_z
 _atom_site_occupancy
  C  C0  1  0.63271110  0.00034974  0.25109917  1
  C  C1  1  0.36633247  0.36624406  0.24879114  1
  C  C2  1  0.00039335  0.63071392  0.25043927  1
  C  C3  1  0.63266893  0.62774415  0.74821102  1
  C  C4  1  0.99582447  0.36838506  0.74904612  1
  C  C5  1  0.37316343  0.00488842  0.74923358  1
  C  C6  1  0.29499018  0.32848143  0.58458233  1
  C  C7  1  0.03454123  0.70658008  0.58407400  1
  C  C8  1  0.67143083  0.96407004  0.58470069  1
  C  C9  1  0.29468888  0.97040032  0.08239979  1
  C  C10  1  0.03397571  0.33147704  0.08613049  1
  C  C11  1  0.97191952  0.67301580  0.91593148  1
  C  C12  1  0.32679381  0.29486551  0.91717274  1
  C  C13  1  0.33093106  0.03309676  0.41686488  1
  C  C14  1  0.70164805  0.66717694  0.41865613  1
  C  C15  1  0.99836771  0.00652715  0.49830346  1
  C  C16  1  0.98524135  0.99228934  0.99983017  1
  C  C17  1  0.66772192  0.32073316  0.83208454  1
  C  C18  1  0.67786492  0.33122878  0.33813262  1
  C  C19  1  0.34023780  0.66305319  0.16534560  1
  C  C20  1  0.33423855  0.66652025  0.66644851  1
  C  C21  1  0.66780848  0.33841205  0.18694792  1
  C  C22  1  0.66604643  0.33066521  0.98188774  1
  C  C23  1  0.33119713  0.66271566  0.01749446  1
  C  C24  1  0.33496917  0.67070807  0.51851810  1
  C  C25  1  0.32869376  0.66846086  0.31538830  1
  C  C26  1  0.33204780  0.67052865  0.81297778  1
  C  C27  1  0.99312417  0.99775788  0.35159710  1
  C  C28  1  0.00309282  0.00637117  0.84961567  1
  C  C29  1  0.99955336  0.99823799  0.64775836  1
  C  C30  1  0.00246905  0.99524369  0.14892227  1
  C  C31  1  0.66646343  0.33351618  0.68529985  1
  C  C32  1  0.67745354  0.33236169  0.48362624  1
  Ni  Ni33  1  0.28415595  -0.00001605  0.25148486  1
  Ni  Ni34  1  0.71576257  0.71716016  0.25043139  1
  Ni  Ni35  1  0.00051595  0.28193948  0.24908431  1
  Ni  Ni36  1  0.28921844  0.28476153  0.74794521  1
  Ni  Ni37  1  0.99492463  0.71187225  0.74918840  1
  Ni  Ni38  1  0.71777515  0.00433312  0.74816635  1
  Ni  Ni39  1  0.95297021  0.32926408  0.58586093  1
  Ni  Ni40  1  0.37998757  0.05115710  0.58382800  1
  Ni  Ni41  1  0.66987882  0.61997173  0.58409500  1
  Ni  Ni42  1  0.96214959  0.63601803  0.08378088  1
  Ni  Ni43  1  0.36502269  0.33080601  0.08496336  1
  Ni  Ni44  1  0.03343610  0.36233561  0.91452456  1
  Ni  Ni45  1  0.32958137  0.96573652  0.91511315  1
  Ni  Ni46  1  0.63727501  0.97178412  0.41672989  1
  Ni  Ni47  1  0.02922351  0.66478232  0.41699442  1
  Cu  Cu48  1  0.67058165  0.03754659  0.08561483  1
  Cu  Cu49  1  0.63250665  0.67284066  0.91482536  1
  Cu  Cu50  1  0.33195001  0.36665886  0.41688096  1
  C  C51  1  0.19327296  0.02713386  0.30961044  1
  C  C52  1  0.83310755  0.80412177  0.30974819  1
  C  C53  1  0.97313774  0.15702538  0.30579486  1
  C  C54  1  0.19832873  0.16463110  0.80691131  1
  C  C55  1  0.96807320  0.80299326  0.80773245  1
  C  C56  1  0.84390812  0.03284534  0.80460712  1
  C  C57  1  0.80769915  0.97326308  0.68951343  1
  C  C58  1  0.16512240  0.19265197  0.69033587  1
  C  C59  1  0.02626636  0.83460249  0.69083982  1
  C  C60  1  0.81295320  0.84145690  0.19396360  1
  C  C61  1  0.02888229  0.19525424  0.18965360  1
  C  C62  1  0.16692411  0.97259810  0.19222446  1
  C  C63  1  0.86203102  0.36199784  0.64359777  1
  C  C64  1  0.50226439  0.14146208  0.64233000  1
  C  C65  1  0.64000023  0.49815382  0.64271602  1
  C  C66  1  0.87830288  0.51104548  0.14175981  1
  C  C67  1  0.63882377  0.11811310  0.14164137  1
  C  C68  1  0.48156850  0.35409387  0.14357286  1
  C  C69  1  0.45223419  0.29570545  0.02678569  1
  C  C70  1  0.84868123  0.54442856  0.02466258  1
  C  C71  1  0.69915181  0.15662946  0.03166166  1
  C  C72  1  0.47092791  0.17070501  0.52536545  1
  C  C73  1  0.69833731  0.52858205  0.52592338  1
  C  C74  1  0.82733075  0.30087271  0.52865556  1
  C  C75  1  0.54238789  0.69445995  0.96919052  1
  C  C76  1  0.15623417  0.45028265  0.97306038  1
  C  C77  1  0.29932779  0.84537995  0.97355456  1
  C  C78  1  0.54917447  0.84503782  0.47475126  1
  C  C79  1  0.30765060  0.45397119  0.47265299  1
  C  C80  1  0.15590105  0.70039364  0.47433840  1
  C  C81  1  0.11716276  0.63483635  0.35785869  1
  C  C82  1  0.51219557  0.88079134  0.35874951  1
  C  C83  1  0.36138401  0.48285439  0.36173438  1
  C  C84  1  0.12660746  0.48643470  0.85695707  1
  C  C85  1  0.35870323  0.87606505  0.85652013  1
  C  C86  1  0.52019264  0.64001013  0.85882438  1
  C  C87  1  0.01822031  0.83917011  0.41089101  1
  C  C88  1  0.81969213  0.98002274  0.40939754  1
  C  C89  1  0.17587762  0.18798872  0.41121271  1
  C  C90  1  0.02501827  0.17954694  0.90786330  1
  C  C91  1  0.15408663  0.97451672  0.90899760  1
  C  C92  1  0.81209126  0.82708284  0.90946236  1
  C  C93  1  0.96881804  0.15807236  0.58929273  1
  C  C94  1  0.19063641  0.03057503  0.58948388  1
  C  C95  1  0.84012338  0.80909329  0.58959226  1
  C  C96  1  0.98592890  0.82534698  0.09053049  1
  C  C97  1  0.83383010  0.02816704  0.09029986  1
  C  C98  1  0.17659778  0.15953837  0.09006154  1
  C  C99  1  0.69815135  0.17373166  0.74391733  1
  C  C100  1  0.47692088  0.30092972  0.74356357  1
  C  C101  1  0.82523302  0.52260265  0.74397106  1
  C  C102  1  0.69991899  0.52929036  0.24728195  1
  C  C103  1  0.82985221  0.29939647  0.24704724  1
  C  C104  1  0.47410978  0.16751953  0.24753059  1
  C  C105  1  0.64594155  0.50935635  0.92104782  1
  C  C106  1  0.85342710  0.35871781  0.92026886  1
  C  C107  1  0.49127194  0.15855211  0.91920307  1
  C  C108  1  0.64018115  0.15186358  0.42491968  1
  C  C109  1  0.49466889  0.35413686  0.42186793  1
  C  C110  1  0.83824019  0.50070707  0.42456621  1
  C  C111  1  0.34083644  0.49655078  0.08094130  1
  C  C112  1  0.15246726  0.65632494  0.07904959  1
  C  C113  1  0.50809374  0.86496515  0.07804702  1
  C  C114  1  0.36254339  0.86155909  0.58014656  1
  C  C115  1  0.49791038  0.63614904  0.58044047  1
  C  C116  1  0.14084876  0.49957452  0.57994564  1
  C  C117  1  0.30089989  0.82804267  0.25335143  1
  C  C118  1  0.52653788  0.69555280  0.25430092  1
  C  C119  1  0.17163230  0.47014553  0.25407483  1
  C  C120  1  0.30925309  0.47397278  0.75228836  1
  C  C121  1  0.16682100  0.69443842  0.75151208  1
  C  C122  1  0.53021327  0.83217554  0.75214125  1
