# generated using pymatgen
data_Cu3NiC
_symmetry_space_group_name_H-M   'P 1'
_cell_length_a   9.98201100
_cell_length_b   9.98201100
_cell_length_c   6.22730700
_cell_angle_alpha   90.00000000
_cell_angle_beta   90.00000000
_cell_angle_gamma   90.00000000
_symmetry_Int_Tables_number   1
_chemical_formula_structural   Cu3NiC
_chemical_formula_sum   'Cu24 Ni8 C8'
_cell_volume   620.49225467
_cell_formula_units_Z   8
loop_
 _symmetry_equiv_pos_site_id
 _symmetry_equiv_pos_as_xyz
  1  'x, y, z'
loop_
 _atom_site_type_symbol
 _atom_site_label
 _atom_site_symmetry_multiplicity
 _atom_site_fract_x
 _atom_site_fract_y
 _atom_site_fract_z
 _atom_site_occupancy
  C  C0  1  0.97839900  0.18141000  0.15096600  1
  C  C1  1  0.68141000  0.52160100  0.65096600  1
  C  C2  1  0.31859000  0.47839900  0.65096600  1
  C  C3  1  0.02160100  0.81859000  0.15096600  1
  C  C4  1  0.52160100  0.31859000  0.34903400  1
  C  C5  1  0.81859000  0.97839900  0.84903400  1
  C  C6  1  0.18141000  0.02160100  0.84903400  1
  C  C7  1  0.47839900  0.68141000  0.34903400  1
  Ni  Ni8  1  0.51076400  0.78200800  0.86639500  1
  Ni  Ni9  1  0.01076400  0.28200800  0.63360500  1
  Ni  Ni10  1  0.78200800  0.48923600  0.13360500  1
  Ni  Ni11  1  0.21799200  0.51076400  0.13360500  1
  Ni  Ni12  1  0.98923600  0.71799200  0.63360500  1
  Ni  Ni13  1  0.48923600  0.21799200  0.86639500  1
  Ni  Ni14  1  0.71799200  0.01076400  0.36639500  1
  Ni  Ni15  1  0.28200800  0.98923600  0.36639500  1
  Cu  Cu16  1  0.09645000  0.19580200  0.41367300  1
  Cu  Cu17  1  0.80419800  0.09645000  0.58632700  1
  Cu  Cu18  1  0.59645000  0.69580200  0.08632700  1
  Cu  Cu19  1  0.40355000  0.30419800  0.08632700  1
  Cu  Cu20  1  0.19580200  0.90355000  0.58632700  1
  Cu  Cu21  1  0.69580200  0.40355000  0.91367300  1
  Cu  Cu22  1  0.90355000  0.80419800  0.41367300  1
  Cu  Cu23  1  0.63118500  0.91439700  0.80504900  1
  Cu  Cu24  1  0.86881500  0.58560300  0.69495100  1
  Cu  Cu25  1  0.08560300  0.63118500  0.19495100  1
  Cu  Cu26  1  0.91439700  0.36881500  0.19495100  1
  Cu  Cu27  1  0.13118500  0.41439700  0.69495100  1
  Cu  Cu28  1  0.95404400  0.83375300  0.85493000  1
  Cu  Cu29  1  0.41439700  0.86881500  0.30504900  1
  Cu  Cu30  1  0.58560300  0.13118500  0.30504900  1
  Cu  Cu31  1  0.36881500  0.08560300  0.80504900  1
  Cu  Cu32  1  0.45404400  0.33375300  0.64507000  1
  Cu  Cu33  1  0.33375300  0.54595600  0.35493000  1
  Cu  Cu34  1  0.66624700  0.45404400  0.35493000  1
  Cu  Cu35  1  0.04595600  0.16624700  0.85493000  1
  Cu  Cu36  1  0.54595600  0.66624700  0.64507000  1
  Cu  Cu37  1  0.16624700  0.95404400  0.14507000  1
  Cu  Cu38  1  0.83375300  0.04595600  0.14507000  1
  Cu  Cu39  1  0.30419800  0.59645000  0.91367300  1
