# generated using pymatgen
data_Cu2NiC12
_symmetry_space_group_name_H-M   'P 1'
_cell_length_a   5.66222402
_cell_length_b   6.05499644
_cell_length_c   5.56898492
_cell_angle_alpha   62.62148067
_cell_angle_beta   90.00000000
_cell_angle_gamma   117.87643251
_symmetry_Int_Tables_number   1
_chemical_formula_structural   Cu2NiC12
_chemical_formula_sum   'Cu2 Ni1 C12'
_cell_volume   144.13781063
_cell_formula_units_Z   1
loop_
 _symmetry_equiv_pos_site_id
 _symmetry_equiv_pos_as_xyz
  1  'x, y, z'
loop_
 _atom_site_type_symbol
 _atom_site_label
 _atom_site_symmetry_multiplicity
 _atom_site_fract_x
 _atom_site_fract_y
 _atom_site_fract_z
 _atom_site_occupancy
  Ni  Ni0  1  0.22114800  0.44229800  0.77885200  1
  Cu  Cu1  1  0.95936500  0.91873000  0.04063500  1
  Cu  Cu2  1  0.28623100  0.57246200  0.21376900  1
  C  C3  1  0.62776800  0.25553500  0.11168100  1
  C  C4  1  0.62776800  0.25553500  0.63278400  1
  C  C5  1  0.72265200  0.90752100  0.54623900  1
  C  C6  1  0.18487000  0.90752100  0.54623900  1
  C  C7  1  0.92275200  0.31920600  0.34039800  1
  C  C8  1  0.83775500  0.16369600  0.91815100  1
  C  C9  1  0.87980600  0.75961300  0.38509200  1
  C  C10  1  0.39645500  0.31920600  0.34039800  1
  C  C11  1  0.37931900  0.75863500  0.38519600  1
  C  C12  1  0.32594200  0.16369600  0.91815100  1
  C  C13  1  0.87980600  0.75961300  0.85529500  1
  C  C14  1  0.37931900  0.75863500  0.85616900  1
