# generated using pymatgen
data_Cu6NiC12
_symmetry_space_group_name_H-M   'P 1'
_cell_length_a   8.06192044
_cell_length_b   5.84680995
_cell_length_c   5.68970114
_cell_angle_alpha   66.90649264
_cell_angle_beta   64.75004643
_cell_angle_gamma   62.81558198
_symmetry_Int_Tables_number   1
_chemical_formula_structural   Cu6NiC12
_chemical_formula_sum   'Cu6 Ni1 C12'
_cell_volume   209.18213204
_cell_formula_units_Z   1
loop_
 _symmetry_equiv_pos_site_id
 _symmetry_equiv_pos_as_xyz
  1  'x, y, z'
loop_
 _atom_site_type_symbol
 _atom_site_label
 _atom_site_symmetry_multiplicity
 _atom_site_fract_x
 _atom_site_fract_y
 _atom_site_fract_z
 _atom_site_occupancy
  Ni  Ni0  1  0.32825287  0.17469340  0.66611905  1
  Cu  Cu1  1  0.83192439  0.67045898  0.67240291  1
  Cu  Cu2  1  0.33233563  0.66343308  0.66236861  1
  Cu  Cu3  1  0.66970441  0.35102449  0.33779157  1
  Cu  Cu4  1  0.11469637  0.31291443  0.31061611  1
  Cu  Cu5  1  0.53842142  0.02300267  0.03166611  1
  Cu  Cu6  1  0.97662890  0.99355265  0.00823389  1
  C  C7  1  0.63010503  0.03143738  0.64612586  1
  C  C8  1  0.30956702  0.33543690  0.94834469  1
  C  C9  1  0.60875492  0.53697024  0.58877355  1
  C  C10  1  0.94562166  0.18604897  0.24520323  1
  C  C11  1  0.70786934  0.15274480  0.09442814  1
  C  C12  1  0.38798216  0.49264908  0.41215195  1
  C  C13  1  0.05152685  0.80037478  0.75701818  1
  C  C14  1  0.02679230  0.30278811  0.69834878  1
  C  C15  1  0.34764859  0.00237828  0.39522128  1
  C  C16  1  0.69549260  0.65623863  0.04674049  1
  C  C17  1  0.97400484  0.68448890  0.29857109  1
  C  C18  1  0.28192769  0.85436423  0.92987150  1
