# generated using pymatgen
data_Cu5NiC30
_symmetry_space_group_name_H-M   'P 1'
_cell_length_a   9.11424058
_cell_length_b   9.10658357
_cell_length_c   23.76516703
_cell_angle_alpha   89.90529194
_cell_angle_beta   90.06008004
_cell_angle_gamma   119.85182350
_symmetry_Int_Tables_number   1
_chemical_formula_structural   Cu5NiC30
_chemical_formula_sum   'Cu15 Ni3 C90'
_cell_volume   1710.77691533
_cell_formula_units_Z   3
loop_
 _symmetry_equiv_pos_site_id
 _symmetry_equiv_pos_as_xyz
  1  'x, y, z'
loop_
 _atom_site_type_symbol
 _atom_site_label
 _atom_site_symmetry_multiplicity
 _atom_site_fract_x
 _atom_site_fract_y
 _atom_site_fract_z
 _atom_site_occupancy
  C  C0  1  0.98832268  0.98457872  0.49207868  1
  C  C1  1  0.00410926  0.01626616  0.99780641  1
  C  C2  1  0.66438284  0.33001042  0.83006542  1
  C  C3  1  0.66830820  0.33630507  0.33223238  1
  C  C4  1  0.33332393  0.66134965  0.16989625  1
  C  C5  1  0.33845352  0.67166387  0.65873491  1
  C  C6  1  0.99570503  0.99791989  0.35202584  1
  C  C7  1  0.99814369  0.00244743  0.85128817  1
  C  C8  1  0.99778087  0.99829937  0.64423778  1
  C  C9  1  0.00015157  0.00122490  0.15211537  1
  C  C10  1  0.66550655  0.33103053  0.68346709  1
  C  C11  1  0.66696584  0.33467336  0.18855830  1
  C  C12  1  0.33261420  0.66360351  0.01884478  1
  C  C13  1  0.33554151  0.66885359  0.51877900  1
  C  C14  1  0.67543601  0.33503929  0.98121707  1
  C  C15  1  0.67364233  0.33284547  0.47628931  1
  C  C16  1  0.33072022  0.67500980  0.32217666  1
  C  C17  1  0.32097104  0.65685953  0.81648108  1
  Ni  Ni18  1  0.03761385  0.36949702  0.92017893  1
  Ni  Ni19  1  0.62839918  0.96245816  0.41997550  1
  Ni  Ni20  1  0.03949511  0.67003523  0.42058862  1
  Cu  Cu21  1  0.29802899  0.99110954  0.25209207  1
  Cu  Cu22  1  0.69132988  0.70129575  0.25190374  1
  Cu  Cu23  1  0.01077812  0.30857373  0.25185869  1
  Cu  Cu24  1  0.29878694  0.30400696  0.75270949  1
  Cu  Cu25  1  0.00508919  0.70173993  0.75271360  1
  Cu  Cu26  1  0.69291781  0.99183256  0.75288267  1
  Cu  Cu27  1  0.95364541  0.33171176  0.58133273  1
  Cu  Cu28  1  0.37810431  0.04607560  0.58169344  1
  Cu  Cu29  1  0.66715924  0.61984268  0.58161991  1
  Cu  Cu30  1  0.95494967  0.62436062  0.08200210  1
  Cu  Cu31  1  0.66897540  0.04615803  0.08195645  1
  Cu  Cu32  1  0.37876473  0.33131502  0.08144642  1
  Cu  Cu33  1  0.62099501  0.65828045  0.91699504  1
  Cu  Cu34  1  0.34067870  0.96222090  0.91703667  1
  Cu  Cu35  1  0.34066104  0.37917097  0.41735499  1
  C  C36  1  0.21858038  0.01429873  0.30150267  1
  C  C37  1  0.79670845  0.78221419  0.30076188  1
  C  C38  1  0.98752032  0.20503528  0.30122606  1
  C  C39  1  0.21888221  0.20328512  0.80248958  1
  C  C40  1  0.98611800  0.78094408  0.80294613  1
  C  C41  1  0.79677115  0.01424699  0.80220313  1
  C  C42  1  0.76044802  0.95938352  0.70121892  1
  C  C43  1  0.19843038  0.23973336  0.70131068  1
  C  C44  1  0.03816640  0.80230073  0.70140578  1
  C  C45  1  0.76282805  0.80034849  0.19940967  1
  C  C46  1  0.03538443  0.23440559  0.19955290  1
  C  C47  1  0.19933759  0.96278851  0.19988716  1
  C  C48  1  0.87426082  0.34831148  0.63272741  1
  C  C49  1  0.47154920  0.12504505  0.63386490  1
  C  C50  1  0.65475308  0.52752579  0.63390117  1
  C  C51  1  0.87303115  0.52402288  0.13182052  1
  C  C52  1  0.65214856  0.12804615  0.13195024  1
  C  C53  1  0.47480124  0.34539863  0.13222758  1
  C  C54  1  0.47930847  0.32101954  0.02972818  1
  C  C55  1  0.84173050  0.52221499  0.02936514  1
  C  C56  1  0.68051696  0.15917012  0.02906341  1
  C  C57  1  0.47488760  0.15472932  0.53141424  1
  C  C58  1  0.67801706  0.52290586  0.53105278  1
  C  C59  1  0.84334753  0.31988523  0.53011974  1
  C  C60  1  0.54965026  0.68619906  0.96740721  1
  C  C61  1  0.14540740  0.46427788  0.97258296  1
  C  C62  1  0.32081472  0.86572432  0.96759282  1
  C  C63  1  0.54415416  0.85122310  0.47345460  1
  C  C64  1  0.31579332  0.45094043  0.46779397  1
  C  C65  1  0.14347562  0.67994958  0.47374052  1
  C  C66  1  0.13883982  0.63598346  0.36212603  1
  C  C67  1  0.49427971  0.85863297  0.36254126  1
  C  C68  1  0.36769404  0.49272016  0.36562860  1
  C  C69  1  0.14312421  0.50390478  0.86211592  1
  C  C70  1  0.36679826  0.87699420  0.86559020  1
  C  C71  1  0.51015818  0.63446252  0.86587953  1
  C  C72  1  0.00727135  0.82157515  0.40969002  1
  C  C73  1  0.81709570  0.00782079  0.40926606  1
  C  C74  1  0.19997375  0.21029292  0.40697712  1
  C  C75  1  0.99923095  0.18247135  0.91054692  1
  C  C76  1  0.19469201  0.98497361  0.90845618  1
  C  C77  1  0.79221079  0.79816406  0.90793274  1
  C  C78  1  0.96062568  0.17308309  0.58120947  1
  C  C79  1  0.21069927  0.03677870  0.58215783  1
  C  C80  1  0.82390604  0.78770382  0.58173579  1
  C  C81  1  0.95951834  0.78748873  0.08002488  1
  C  C82  1  0.82590093  0.03858514  0.08023262  1
  C  C83  1  0.21248273  0.17500071  0.08011448  1
  C  C84  1  0.66578468  0.13817999  0.74805138  1
  C  C85  1  0.47251402  0.33495102  0.74793085  1
  C  C86  1  0.86379869  0.52748224  0.74788601  1
  C  C87  1  0.66834988  0.52869743  0.24662386  1
  C  C88  1  0.86269443  0.33404141  0.24645905  1
  C  C89  1  0.47170853  0.13599441  0.24658304  1
  C  C90  1  0.62949468  0.49487861  0.92270948  1
  C  C91  1  0.84335907  0.36185600  0.92860071  1
  C  C92  1  0.49992418  0.13628932  0.92207729  1
  C  C93  1  0.62989598  0.15140063  0.42775718  1
  C  C94  1  0.50300516  0.36970841  0.42205580  1
  C  C95  1  0.84619027  0.48703995  0.42791140  1
  C  C96  1  0.36451774  0.48401941  0.07627589  1
  C  C97  1  0.12204397  0.64229800  0.07585059  1
  C  C98  1  0.51852990  0.88124367  0.07474260  1
  C  C99  1  0.35943867  0.87658775  0.57902655  1
  C  C100  1  0.51525924  0.63624959  0.57857029  1
  C  C101  1  0.12219270  0.48012327  0.57719072  1
  C  C102  1  0.31271786  0.82955246  0.25922568  1
  C  C103  1  0.51647608  0.68269355  0.25947786  1
  C  C104  1  0.16989542  0.48158000  0.25859804  1
  C  C105  1  0.31698427  0.48420699  0.76257659  1
  C  C106  1  0.17035778  0.68819904  0.76159268  1
  C  C107  1  0.51709013  0.83285125  0.76364324  1
