# generated using pymatgen
data_Cu(NiC6)2
_symmetry_space_group_name_H-M   'P 1'
_cell_length_a   5.39686400
_cell_length_b   5.68875315
_cell_length_c   9.37592987
_cell_angle_alpha   103.83810549
_cell_angle_beta   88.01463377
_cell_angle_gamma   116.99953785
_symmetry_Int_Tables_number   1
_chemical_formula_structural   Cu(NiC6)2
_chemical_formula_sum   'Cu1 Ni2 C12'
_cell_volume   248.12580480
_cell_formula_units_Z   1
loop_
 _symmetry_equiv_pos_site_id
 _symmetry_equiv_pos_as_xyz
  1  'x, y, z'
loop_
 _atom_site_type_symbol
 _atom_site_label
 _atom_site_symmetry_multiplicity
 _atom_site_fract_x
 _atom_site_fract_y
 _atom_site_fract_z
 _atom_site_occupancy
  Ni  Ni0  1  0.77730500  0.51088800  0.27050800  1
  Ni  Ni1  1  0.22269500  0.48911200  0.72949200  1
  Cu  Cu2  1  0.00000000  0.00000000  0.00000000  1
  C  C3  1  0.83391500  0.27142800  0.72351700  1
  C  C4  1  0.16608500  0.72857200  0.27648300  1
  C  C5  1  0.18508300  0.73653900  0.91799200  1
  C  C6  1  0.71953100  0.73301900  0.43542000  1
  C  C7  1  0.28046900  0.26698100  0.56458000  1
  C  C8  1  0.80159100  0.27453900  0.37133800  1
  C  C9  1  0.19840900  0.72546100  0.62866200  1
  C  C10  1  0.38390500  0.29415900  0.20976700  1
  C  C11  1  0.61609500  0.70584100  0.79023300  1
  C  C12  1  0.75387600  0.72871100  0.13325900  1
  C  C13  1  0.24612400  0.27128900  0.86674100  1
  C  C14  1  0.81491700  0.26346100  0.08200800  1
