# generated using pymatgen
data_Cu3NiC9
_symmetry_space_group_name_H-M   'P 1'
_cell_length_a   5.96360086
_cell_length_b   5.82708893
_cell_length_c   5.97014427
_cell_angle_alpha   60.42379665
_cell_angle_beta   58.31495802
_cell_angle_gamma   59.74732574
_symmetry_Int_Tables_number   1
_chemical_formula_structural   Cu3NiC9
_chemical_formula_sum   'Cu3 Ni1 C9'
_cell_volume   144.91298917
_cell_formula_units_Z   1
loop_
 _symmetry_equiv_pos_site_id
 _symmetry_equiv_pos_as_xyz
  1  'x, y, z'
loop_
 _atom_site_type_symbol
 _atom_site_label
 _atom_site_symmetry_multiplicity
 _atom_site_fract_x
 _atom_site_fract_y
 _atom_site_fract_z
 _atom_site_occupancy
  Ni  Ni0  1  0.87569100  0.88299600  0.86674200  1
  C  C1  1  0.50066400  0.49491300  0.49950400  1
  Cu  Cu2  1  0.00937300  0.50258500  0.49392200  1
  Cu  Cu3  1  0.49821700  0.00562400  0.49745600  1
  Cu  Cu4  1  0.49681300  0.50079300  0.00312700  1
  C  C5  1  0.26063300  0.24726500  0.29345800  1
  C  C6  1  0.27063400  0.24654700  0.70733700  1
  C  C7  1  0.26135600  0.70349600  0.27454700  1
  C  C8  1  0.70235800  0.24536900  0.26602500  1
  C  C9  1  0.28885500  0.74697400  0.73664300  1
  C  C10  1  0.73754400  0.29321200  0.73046700  1
  C  C11  1  0.73274900  0.74719600  0.28285000  1
  C  C12  1  0.74011200  0.75207900  0.71697100  1
