# generated using pymatgen
data_Cu3Ni2C15
_symmetry_space_group_name_H-M   'P 1'
_cell_length_a   14.91064250
_cell_length_b   8.57341791
_cell_length_c   8.64476142
_cell_angle_alpha   90.00000000
_cell_angle_beta   124.53860899
_cell_angle_gamma   90.00000000
_symmetry_Int_Tables_number   1
_chemical_formula_structural   Cu3Ni2C15
_chemical_formula_sum   'Cu12 Ni8 C60'
_cell_volume   910.32359573
_cell_formula_units_Z   4
loop_
 _symmetry_equiv_pos_site_id
 _symmetry_equiv_pos_as_xyz
  1  'x, y, z'
loop_
 _atom_site_type_symbol
 _atom_site_label
 _atom_site_symmetry_multiplicity
 _atom_site_fract_x
 _atom_site_fract_y
 _atom_site_fract_z
 _atom_site_occupancy
  C  C0  1  0.24729299  0.76734049  0.99845724  1
  C  C1  1  0.74729299  0.73265951  0.49845724  1
  C  C2  1  0.74729299  0.26734049  0.99845724  1
  C  C3  1  0.24729299  0.23265951  0.49845724  1
  C  C4  1  0.50136311  0.10155672  0.74891603  1
  C  C5  1  0.50136311  0.89844328  0.24891603  1
  C  C6  1  0.00136311  0.60155672  0.74891603  1
  C  C7  1  0.00136311  0.39844328  0.24891603  1
  C  C8  1  0.81411868  0.93048582  0.21436686  1
  C  C9  1  0.81411868  0.06951418  0.71436686  1
  C  C10  1  0.31411868  0.43048582  0.21436686  1
  C  C11  1  0.31411868  0.56951418  0.71436686  1
  Ni  Ni12  1  0.10385558  0.75654484  0.55983240  1
  Ni  Ni13  1  0.89648470  0.74955834  0.93857065  1
  Ni  Ni14  1  0.89648470  0.25044166  0.43857065  1
  Ni  Ni15  1  0.10385558  0.24345516  0.05983240  1
  Ni  Ni16  1  0.60385558  0.25654484  0.55983240  1
  Ni  Ni17  1  0.39648470  0.24955834  0.93857065  1
  Ni  Ni18  1  0.39648470  0.75044166  0.43857065  1
  Ni  Ni19  1  0.60385558  0.74345516  0.05983240  1
  Cu  Cu20  1  0.00260117  0.96010305  0.74823835  1
  Cu  Cu21  1  0.00260117  0.03989695  0.24823835  1
  Cu  Cu22  1  0.50260117  0.46010305  0.74823835  1
  Cu  Cu23  1  0.50260117  0.53989695  0.24823835  1
  Cu  Cu24  1  0.35544396  0.89494141  0.75300279  1
  Cu  Cu25  1  0.64633209  0.89036557  0.74637765  1
  Cu  Cu26  1  0.64633209  0.10963443  0.24637765  1
  Cu  Cu27  1  0.35544396  0.10505859  0.25300279  1
  Cu  Cu28  1  0.85544396  0.39494141  0.75300279  1
  Cu  Cu29  1  0.14633209  0.39036557  0.74637765  1
  Cu  Cu30  1  0.14633209  0.60963443  0.24637765  1
  Cu  Cu31  1  0.85544396  0.60505859  0.25300279  1
  C  C32  1  0.15254481  0.57220476  0.73418731  1
  C  C33  1  0.85221974  0.57446759  0.76637905  1
  C  C34  1  0.85221974  0.42553241  0.26637905  1
  C  C35  1  0.15254481  0.42779524  0.23418731  1
  C  C36  1  0.65254481  0.07220476  0.73418731  1
  C  C37  1  0.35221974  0.07446759  0.76637905  1
  C  C38  1  0.35221974  0.92553241  0.26637905  1
  C  C39  1  0.65254481  0.92779524  0.23418731  1
  C  C40  1  0.42839782  0.55965062  0.56970554  1
  C  C41  1  0.56856876  0.56456626  0.92133791  1
  C  C42  1  0.56856876  0.43543374  0.42133791  1
  C  C43  1  0.42839782  0.44034938  0.06970554  1
  C  C44  1  0.92839782  0.05965062  0.56970554  1
  C  C45  1  0.06856876  0.06456626  0.92133791  1
  C  C46  1  0.06856876  0.93543374  0.42133791  1
  C  C47  1  0.92839782  0.94034938  0.06970554  1
  C  C48  1  0.25590005  0.81767731  0.73388343  1
  C  C49  1  0.74745326  0.82225098  0.76314022  1
  C  C50  1  0.74745326  0.17774902  0.26314022  1
  C  C51  1  0.25590005  0.18232269  0.23388343  1
  C  C52  1  0.75590005  0.31767731  0.73388343  1
  C  C53  1  0.24745326  0.32225098  0.76314022  1
  C  C54  1  0.24745326  0.67774902  0.26314022  1
  C  C55  1  0.75590005  0.68232269  0.23388343  1
  C  C56  1  0.35977041  0.85803284  0.58260374  1
  C  C57  1  0.64498132  0.86129084  0.92213607  1
  C  C58  1  0.64498132  0.13870916  0.42213607  1
  C  C59  1  0.35977041  0.14196716  0.08260374  1
  C  C60  1  0.85977041  0.35803284  0.58260374  1
  C  C61  1  0.14498132  0.36129084  0.92213607  1
  C  C62  1  0.14498132  0.63870916  0.42213607  1
  C  C63  1  0.85977041  0.64196716  0.08260374  1
  C  C64  1  0.45895715  0.82719638  0.93296383  1
  C  C65  1  0.54167496  0.82698498  0.56825117  1
  C  C66  1  0.54167496  0.17301502  0.06825117  1
  C  C67  1  0.45895715  0.17280362  0.43296383  1
  C  C68  1  0.95895715  0.32719638  0.93296383  1
  C  C69  1  0.04167496  0.32698498  0.56825117  1
  C  C70  1  0.04167496  0.67301502  0.06825117  1
  C  C71  1  0.95895715  0.67280362  0.43296383  1
  C  C72  1  0.08036496  0.85024513  0.73562635  1
  C  C73  1  0.92167448  0.85335853  0.76202343  1
  C  C74  1  0.92167448  0.14664147  0.26202343  1
  C  C75  1  0.08036496  0.14975487  0.23562635  1
  C  C76  1  0.58036496  0.35024513  0.73562635  1
  C  C77  1  0.42167448  0.35335853  0.76202343  1
  C  C78  1  0.42167448  0.64664147  0.26202343  1
  C  C79  1  0.58036496  0.64975487  0.23562635  1
