# generated using pymatgen
data_CuNi3C11
_symmetry_space_group_name_H-M   'P 1'
_cell_length_a   7.17534321
_cell_length_b   6.23795249
_cell_length_c   7.99514677
_cell_angle_alpha   89.97751581
_cell_angle_beta   80.79302312
_cell_angle_gamma   115.76962456
_symmetry_Int_Tables_number   1
_chemical_formula_structural   CuNi3C11
_chemical_formula_sum   'Cu1 Ni3 C11'
_cell_volume   317.13076949
_cell_formula_units_Z   1
loop_
 _symmetry_equiv_pos_site_id
 _symmetry_equiv_pos_as_xyz
  1  'x, y, z'
loop_
 _atom_site_type_symbol
 _atom_site_label
 _atom_site_symmetry_multiplicity
 _atom_site_fract_x
 _atom_site_fract_y
 _atom_site_fract_z
 _atom_site_occupancy
  Ni  Ni0  1  0.54131407  0.27081856  0.34290887  1
  Ni  Ni1  1  0.45868593  0.72918144  0.65709113  1
  Ni  Ni2  1  -0.00000000  0.00000000  -0.00000000  1
  Cu  Cu3  1  -0.00000000  0.00000000  0.50000000  1
  C  C4  1  -0.00000000  0.50000000  0.50000000  1
  C  C5  1  0.34977937  0.67512283  0.21154904  1
  C  C6  1  0.65022063  0.32487717  0.78845096  1
  C  C7  1  0.18288200  0.80440924  0.35543242  1
  C  C8  1  0.18314249  0.37887555  0.35540323  1
  C  C9  1  0.61466908  0.80750281  0.26081941  1
  C  C10  1  0.81711800  0.19559076  0.64456758  1
  C  C11  1  0.81685751  0.62112445  0.64459677  1
  C  C12  1  0.38533092  0.19249719  0.73918059  1
  C  C13  1  0.30277477  0.65192087  -0.00312496  1
  C  C14  1  0.69722523  0.34807913  0.00312496  1
