# generated using pymatgen
data_Cu2Ni2C
_symmetry_space_group_name_H-M   'P 1'
_cell_length_a   6.44957514
_cell_length_b   6.44957514
_cell_length_c   7.41377964
_cell_angle_alpha   80.23136789
_cell_angle_beta   80.23136789
_cell_angle_gamma   120.73403186
_symmetry_Int_Tables_number   1
_chemical_formula_structural   Cu2Ni2C
_chemical_formula_sum   'Cu4 Ni4 C2'
_cell_volume   248.98151493
_cell_formula_units_Z   2
loop_
 _symmetry_equiv_pos_site_id
 _symmetry_equiv_pos_as_xyz
  1  'x, y, z'
loop_
 _atom_site_type_symbol
 _atom_site_label
 _atom_site_symmetry_multiplicity
 _atom_site_fract_x
 _atom_site_fract_y
 _atom_site_fract_z
 _atom_site_occupancy
  C  C0  1  0.12967500  0.87032500  0.00000000  1
  C  C1  1  0.87032500  0.12967500  0.00000000  1
  Ni  Ni2  1  0.85795700  0.85795700  0.29279000  1
  Ni  Ni3  1  0.14204300  0.14204300  0.70721000  1
  Ni  Ni4  1  0.33702300  0.33702300  0.87137500  1
  Ni  Ni5  1  0.66297700  0.66297700  0.12862500  1
  Cu  Cu6  1  0.43173500  0.01727800  0.20806900  1
  Cu  Cu7  1  0.98272200  0.56826500  0.79193100  1
  Cu  Cu8  1  0.56826500  0.98272200  0.79193100  1
  Cu  Cu9  1  0.01727800  0.43173500  0.20806900  1
