# generated using pymatgen
data_Cu5(Ni2C21)3
_symmetry_space_group_name_H-M   'P 1'
_cell_length_a   18.58804650
_cell_length_b   9.29185982
_cell_length_c   23.86111986
_cell_angle_alpha   90.07417104
_cell_angle_beta   89.89812907
_cell_angle_gamma   119.93595146
_symmetry_Int_Tables_number   1
_chemical_formula_structural   Cu5(Ni2C21)3
_chemical_formula_sum   'Cu15 Ni18 C189'
_cell_volume   3571.38811479
_cell_formula_units_Z   3
loop_
 _symmetry_equiv_pos_site_id
 _symmetry_equiv_pos_as_xyz
  1  'x, y, z'
loop_
 _atom_site_type_symbol
 _atom_site_label
 _atom_site_symmetry_multiplicity
 _atom_site_fract_x
 _atom_site_fract_y
 _atom_site_fract_z
 _atom_site_occupancy
  Ni  Ni0  1  0.67911604  0.36938170  0.25160510  1
  Ni  Ni1  1  0.00406304  0.63885853  0.25251239  1
  Ni  Ni2  1  0.00170473  0.36945654  0.74962079  1
  Ni  Ni3  1  0.50172923  0.36944216  0.74988921  1
  Ni  Ni4  1  0.18145173  0.99243162  0.74916214  1
  Ni  Ni5  1  0.68132771  0.99236380  0.74950615  1
  Ni  Ni6  1  0.00056768  0.99961800  0.50210231  1
  Ni  Ni7  1  0.49990612  0.00052586  0.50261790  1
  Ni  Ni8  1  0.99856010  0.99644551  0.00264669  1
  Ni  Ni9  1  0.50219676  0.00524827  0.00159123  1
  Ni  Ni10  1  0.33354602  0.34414553  0.83463310  1
  Ni  Ni11  1  0.83305282  0.34361939  0.83525020  1
  Ni  Ni12  1  0.33285164  0.33227978  0.33486003  1
  Ni  Ni13  1  0.83332618  0.32182924  0.33551166  1
  Ni  Ni14  1  0.17250110  0.66456951  0.16725596  1
  Ni  Ni15  1  0.66698211  0.68178586  0.16729511  1
  Ni  Ni16  1  0.17342637  0.66703420  0.66112823  1
  Ni  Ni17  1  0.67322048  0.66661141  0.66183980  1
  Cu  Cu18  1  0.99735884  0.99456482  0.64370436  1
  Cu  Cu19  1  0.49727848  0.99426528  0.64364617  1
  Cu  Cu20  1  0.99784765  0.00191564  0.14602826  1
  Cu  Cu21  1  0.49989315  0.99970115  0.14481715  1
  Cu  Cu22  1  0.33286288  0.34582877  0.67690052  1
  Cu  Cu23  1  0.83315848  0.34577161  0.67703301  1
  Cu  Cu24  1  0.83288052  0.31742884  0.18068370  1
  Cu  Cu25  1  0.33315185  0.33089174  0.97984877  1
  Cu  Cu26  1  0.83353672  0.33260047  0.98171050  1
  Cu  Cu27  1  0.33296383  0.33166606  0.48151932  1
  Cu  Cu28  1  0.83367201  0.33383405  0.48049382  1
  Cu  Cu29  1  0.17398538  0.67070581  0.31599897  1
  Cu  Cu30  1  0.66529915  0.67380691  0.31735112  1
  Cu  Cu31  1  0.17158737  0.66598903  0.82088154  1
  Cu  Cu32  1  0.67198673  0.66696967  0.82107406  1
  C  C33  1  0.00242510  0.00620661  0.35445843  1
  C  C34  1  0.49645271  0.99512093  0.35414918  1
  C  C35  1  0.99821053  0.99715742  0.85680476  1
  C  C36  1  0.49852961  0.99691194  0.85600050  1
  C  C37  1  0.33382731  0.33612262  0.18414317  1
  C  C38  1  0.16972196  0.67142215  0.01732792  1
  C  C39  1  0.66342839  0.66127146  0.01512863  1
  C  C40  1  0.16539170  0.66631833  0.51275644  1
  C  C41  1  0.66599964  0.66788338  0.51276910  1
  C  C42  1  0.14971550  0.01668025  0.25022483  1
  C  C43  1  0.64389316  0.00946130  0.25437338  1
  C  C44  1  0.35913834  0.69753989  0.24981519  1
  C  C45  1  0.85806682  0.70739368  0.25501232  1
  C  C46  1  0.99698896  0.28838751  0.25523762  1
  C  C47  1  0.49096322  0.28126800  0.25082127  1
  C  C48  1  0.14158606  0.27832055  0.75516359  1
  C  C49  1  0.64183591  0.27891289  0.75494039  1
  C  C50  1  0.99823194  0.71028419  0.75615370  1
  C  C51  1  0.49833315  0.70979482  0.75596065  1
  C  C52  1  0.35769063  0.00843028  0.75505228  1
  C  C53  1  0.85780419  0.00815828  0.75516094  1
  C  C54  1  0.49395685  0.35067103  0.58042044  1
  C  C55  1  0.99358816  0.35064398  0.58044330  1
  C  C56  1  0.18154104  0.01272722  0.58084547  1
  C  C57  1  0.68196458  0.01390934  0.58054426  1
  C  C58  1  0.32428020  0.63776078  0.57725090  1
  C  C59  1  0.82439902  0.63768278  0.57732633  1
  C  C60  1  0.48432042  0.61458492  0.08318641  1
  C  C61  1  0.99295979  0.63734466  0.08047383  1
  C  C62  1  0.32322726  0.03186589  0.08368778  1
  C  C63  1  0.82480812  0.01086210  0.07720922  1
  C  C64  1  0.19284930  0.35558800  0.08364944  1
  C  C65  1  0.68113223  0.34703846  0.08038595  1
  C  C66  1  0.32110955  0.68587909  0.91867382  1
  C  C67  1  0.81974106  0.68381563  0.91869955  1
  C  C68  1  0.02434499  0.36374677  0.91661984  1
  C  C69  1  0.52251872  0.36025483  0.91462501  1
  C  C70  1  0.15722880  0.95215125  0.91595438  1
  C  C71  1  0.65723362  0.95415535  0.91566997  1
  C  C72  1  0.31905627  0.95430491  0.41676961  1
  C  C73  1  0.82024808  0.95412120  0.41618437  1
  C  C74  1  0.15779380  0.36159908  0.41657581  1
  C  C75  1  0.65701265  0.36101228  0.41349036  1
  C  C76  1  0.02409981  0.68509199  0.41322747  1
  C  C77  1  0.52165219  0.68475382  0.41655380  1
  C  C78  1  0.10290055  0.03492597  0.30374701  1
  C  C79  1  0.58659016  0.01043716  0.30532983  1
  C  C80  1  0.41312129  0.79161295  0.30363690  1
  C  C81  1  0.91612528  0.82175975  0.30571944  1
  C  C82  1  0.48038938  0.16425023  0.30342080  1
  C  C83  1  0.99766876  0.17739155  0.30680774  1
  C  C84  1  0.08794963  0.16742636  0.80745411  1
  C  C85  1  0.58806438  0.16758490  0.80722881  1
  C  C86  1  0.49564185  0.81680420  0.80811480  1
  C  C87  1  0.99561688  0.81720982  0.80833372  1
  C  C88  1  0.41202633  0.00545150  0.80726119  1
  C  C89  1  0.91204980  0.00528026  0.80744851  1
  C  C90  1  0.39699982  0.99301502  0.70165305  1
  C  C91  1  0.89695743  0.99255097  0.70172063  1
  C  C92  1  0.09454126  0.20058597  0.70159150  1
  C  C93  1  0.59448335  0.20071165  0.70149797  1
  C  C94  1  0.00843910  0.80750837  0.70295996  1
  C  C95  1  0.50843389  0.80732483  0.70291156  1
  C  C96  1  0.39666766  0.79817101  0.19785250  1
  C  C97  1  0.89608546  0.79970113  0.20106289  1
  C  C98  1  0.00322642  0.20983846  0.20131775  1
  C  C99  1  0.50767320  0.20980025  0.19889670  1
  C  C100  1  0.09628620  0.98413471  0.19878195  1
  C  C101  1  0.60021004  0.99995485  0.20012576  1
  C  C102  1  0.46272482  0.38291842  0.63765670  1
  C  C103  1  0.96236025  0.38267413  0.63772195  1
  C  C104  1  0.22834642  0.07614283  0.63808380  1
  C  C105  1  0.72846847  0.07641218  0.63786667  1
  C  C106  1  0.30809022  0.53979553  0.63338816  1
  C  C107  1  0.80804099  0.53965463  0.63339209  1
  C  C108  1  0.43236223  0.49687713  0.13608371  1
  C  C109  1  0.96274969  0.54218953  0.13696398  1
  C  C110  1  0.31526064  0.13366604  0.13593419  1
  C  C111  1  0.80790061  0.07558637  0.13289397  1
  C  C112  1  0.25213132  0.37063553  0.13633466  1
  C  C113  1  0.72752628  0.37937112  0.13722774  1
  C  C114  1  0.22918026  0.32770076  0.03156269  1
  C  C115  1  0.72830029  0.32562663  0.03270806  1
  C  C116  1  0.43417590  0.54047095  0.03124626  1
  C  C117  1  0.93562397  0.54456499  0.03263783  1
  C  C118  1  0.33655153  0.12990418  0.03113160  1
  C  C119  1  0.83733548  0.12445154  0.02877955  1
  C  C120  1  0.22898909  0.13128519  0.53394003  1
  C  C121  1  0.72955290  0.13235176  0.53356681  1
  C  C122  1  0.33725628  0.54749964  0.52947571  1
  C  C123  1  0.83730924  0.54749166  0.52938494  1
  C  C124  1  0.43482001  0.32726886  0.53355224  1
  C  C125  1  0.93435427  0.32742802  0.53355640  1
  C  C126  1  0.26951583  0.70256943  0.96906914  1
  C  C127  1  0.76617228  0.69841932  0.96782462  1
  C  C128  1  0.08630648  0.46988427  0.96623010  1
  C  C129  1  0.58251730  0.46674383  0.96440072  1
  C  C130  1  0.15241643  0.83213139  0.96572440  1
  C  C131  1  0.64837777  0.83139421  0.96524504  1
  C  C132  1  0.26843412  0.83564350  0.46694560  1
  C  C133  1  0.76876167  0.83593113  0.46675880  1
  C  C134  1  0.14949993  0.46373199  0.46719995  1
  C  C135  1  0.64872740  0.46566480  0.46336259  1
  C  C136  1  0.08399072  0.70068393  0.46366306  1
  C  C137  1  0.58168780  0.70309944  0.46687459  1
  C  C138  1  0.05812637  0.66068381  0.35858558  1
  C  C139  1  0.55668156  0.65749304  0.36339748  1
  C  C140  1  0.27154853  0.88762292  0.36319879  1
  C  C141  1  0.77183685  0.88254402  0.36308587  1
  C  C142  1  0.16959637  0.45741075  0.36345719  1
  C  C143  1  0.66918328  0.45135511  0.35840498  1
  C  C144  1  0.05603296  0.45217893  0.86087068  1
  C  C145  1  0.55490956  0.45000281  0.85930541  1
  C  C146  1  0.16878946  0.88738503  0.86029191  1
  C  C147  1  0.66899876  0.88899738  0.86003440  1
  C  C148  1  0.27433013  0.65786963  0.86453766  1
  C  C149  1  0.77433702  0.65682914  0.86396717  1
  C  C150  1  0.02117685  0.85318907  0.40765455  1
  C  C151  1  0.51816600  0.85222003  0.40925872  1
  C  C152  1  0.40514689  0.95721525  0.40901849  1
  C  C153  1  0.90789424  0.96294102  0.40921988  1
  C  C154  1  0.07426217  0.18710874  0.41055544  1
  C  C155  1  0.57257997  0.18572737  0.40670597  1
  C  C156  1  0.01994190  0.18827351  0.91110218  1
  C  C157  1  0.51951736  0.18689353  0.91053817  1
  C  C158  1  0.07357348  0.95885650  0.91178432  1
  C  C159  1  0.57372403  0.96180919  0.91098839  1
  C  C160  1  0.40688218  0.85340152  0.91252388  1
  C  C161  1  0.90602708  0.85203847  0.91238207  1
  C  C162  1  0.51081351  0.20545784  0.58243866  1
  C  C163  1  0.01074619  0.20593223  0.58245070  1
  C  C164  1  0.09217872  0.97930098  0.58254847  1
  C  C165  1  0.59247426  0.97975195  0.58234868  1
  C  C166  1  0.39701376  0.81571351  0.58069230  1
  C  C167  1  0.89691260  0.81567565  0.58073851  1
  C  C168  1  0.50090802  0.79031954  0.09181428  1
  C  C169  1  0.01214967  0.81741142  0.08201543  1
  C  C170  1  0.39311245  0.99504511  0.09239789  1
  C  C171  1  0.89714696  0.97682418  0.08008731  1
  C  C172  1  0.10488902  0.21509980  0.09333369  1
  C  C173  1  0.59147714  0.20322064  0.08068435  1
  C  C174  1  0.35850702  0.17703320  0.75765799  1
  C  C175  1  0.85853052  0.17666826  0.75766092  1
  C  C176  1  0.22550878  0.28001474  0.75672701  1
  C  C177  1  0.72556749  0.28006635  0.75662949  1
  C  C178  1  0.41998199  0.53529022  0.75691038  1
  C  C179  1  0.92001307  0.53546905  0.75685727  1
  C  C180  1  0.35426985  0.52040441  0.24018767  1
  C  C181  1  0.85916144  0.54063028  0.25727161  1
  C  C182  1  0.41033851  0.29651008  0.24116050  1
  C  C183  1  0.91572755  0.29769861  0.25825735  1
  C  C184  1  0.23779662  0.17929234  0.24045870  1
  C  C185  1  0.72625770  0.17934236  0.25835020  1
  C  C186  1  0.33823306  0.54406758  0.92588139  1
  C  C187  1  0.83790144  0.54316974  0.92598169  1
  C  C188  1  0.43492221  0.32747710  0.92325270  1
  C  C189  1  0.93664166  0.33138361  0.92492278  1
  C  C190  1  0.22827971  0.12770190  0.92411849  1
  C  C191  1  0.72885390  0.12955282  0.92394728  1
  C  C192  1  0.33850131  0.13202891  0.42472497  1
  C  C193  1  0.83694662  0.13039327  0.42411593  1
  C  C194  1  0.22841178  0.32586434  0.42419063  1
  C  C195  1  0.72761663  0.32610771  0.42306673  1
  C  C196  1  0.43368690  0.54341151  0.42473550  1
  C  C197  1  0.93632951  0.54302512  0.42284731  1
  C  C198  1  0.18894739  0.52259133  0.07540279  1
  C  C199  1  0.67541283  0.50993600  0.06518620  1
  C  C200  1  0.07994159  0.64412324  0.06515268  1
  C  C201  1  0.57146255  0.62402604  0.07584117  1
  C  C202  1  0.24033023  0.85692584  0.07463778  1
  C  C203  1  0.74170769  0.83761064  0.06497872  1
  C  C204  1  0.17590793  0.83987859  0.56661995  1
  C  C205  1  0.67643771  0.84056761  0.56650792  1
  C  C206  1  0.24327289  0.64871470  0.56571914  1
  C  C207  1  0.74309327  0.64778201  0.56547625  1
  C  C208  1  0.07978221  0.51335439  0.56653743  1
  C  C209  1  0.58042110  0.51253165  0.56620724  1
  C  C210  1  0.16094310  0.86485889  0.25731361  1
  C  C211  1  0.65796756  0.86191230  0.25696155  1
  C  C212  1  0.26979532  0.65939342  0.25583175  1
  C  C213  1  0.76749179  0.66862111  0.25794130  1
  C  C214  1  0.07042391  0.46759011  0.25746097  1
  C  C215  1  0.56727800  0.45404582  0.25897835  1
  C  C216  1  0.14900165  0.45022792  0.75858636  1
  C  C217  1  0.64919958  0.45067146  0.75853832  1
  C  C218  1  0.07665571  0.69230481  0.75976024  1
  C  C219  1  0.57678125  0.69214598  0.75967244  1
  C  C220  1  0.26716253  0.86554086  0.75723407  1
  C  C221  1  0.76720044  0.86534676  0.75721552  1
