# generated using pymatgen
data_CuNiC11
_symmetry_space_group_name_H-M   'P 1'
_cell_length_a   8.82736148
_cell_length_b   8.75216284
_cell_length_c   21.92420493
_cell_angle_alpha   91.21291019
_cell_angle_beta   90.26495352
_cell_angle_gamma   120.30599857
_symmetry_Int_Tables_number   1
_chemical_formula_structural   CuNiC11
_chemical_formula_sum   'Cu9 Ni9 C99'
_cell_volume   1461.79938787
_cell_formula_units_Z   9
loop_
 _symmetry_equiv_pos_site_id
 _symmetry_equiv_pos_as_xyz
  1  'x, y, z'
loop_
 _atom_site_type_symbol
 _atom_site_label
 _atom_site_symmetry_multiplicity
 _atom_site_fract_x
 _atom_site_fract_y
 _atom_site_fract_z
 _atom_site_occupancy
  C  C0  1  0.63936039  0.01096030  0.25350307  1
  C  C1  1  0.00151188  0.63360617  0.24429220  1
  C  C2  1  0.63423860  0.63324052  0.74524284  1
  C  C3  1  0.99719176  0.35625676  0.74742719  1
  C  C4  1  0.30510531  0.34266541  0.58618384  1
  C  C5  1  0.66808649  0.96627223  0.57942247  1
  C  C6  1  0.29887873  0.96100697  0.08087012  1
  C  C7  1  0.69310297  0.02743615  0.91236348  1
  C  C8  1  0.96537769  0.29476879  0.41461155  1
  C  C9  1  0.98547214  0.97300523  0.49756791  1
  C  C10  1  0.00704160  0.99092920  0.99836368  1
  C  C11  1  0.63722695  0.31443622  0.83209528  1
  C  C12  1  0.64019377  0.32252763  0.33331950  1
  C  C13  1  0.31751920  0.63885546  0.16403514  1
  C  C14  1  0.32650729  0.67272803  0.66496686  1
  C  C15  1  0.00296188  0.00234040  0.35140043  1
  C  C16  1  0.01638917  0.00905212  0.85278062  1
  C  C17  1  0.66489682  0.33045682  0.68509266  1
  C  C18  1  0.66816570  0.33470118  0.18460931  1
  C  C19  1  0.32500435  0.66502712  0.01908367  1
  C  C20  1  0.33612507  0.66901151  0.51779254  1
  C  C21  1  0.98874204  0.00155403  0.65121084  1
  C  C22  1  0.00518344  0.99748591  0.15220454  1
  C  C23  1  0.66434745  0.34118366  0.98431634  1
  C  C24  1  0.66930684  0.32979628  0.48536858  1
  C  C25  1  0.33231502  0.67164829  0.31661101  1
  C  C26  1  0.34188496  0.67842392  0.81673918  1
  Ni  Ni27  1  0.29551642  0.00020901  0.25087419  1
  Ni  Ni28  1  0.00683776  0.29486630  0.25180735  1
  Ni  Ni29  1  0.29385316  0.29601707  0.75093352  1
  Ni  Ni30  1  0.70081309  0.99714141  0.75291774  1
  Ni  Ni31  1  0.96376176  0.33476908  0.58480460  1
  Ni  Ni32  1  0.67419135  0.62765762  0.58468067  1
  Ni  Ni33  1  0.95632151  0.62952538  0.08581692  1
  Ni  Ni34  1  0.33740759  0.96626808  0.92113790  1
  Ni  Ni35  1  0.62677992  0.96447302  0.41858840  1
  Cu  Cu36  1  0.70314569  0.70678009  0.25026636  1
  Cu  Cu37  1  0.00572261  0.71303102  0.75011522  1
  Cu  Cu38  1  0.36796006  0.03901195  0.58299445  1
  Cu  Cu39  1  0.67458914  0.03860161  0.08296387  1
  Cu  Cu40  1  0.37236737  0.33440778  0.08351552  1
  Cu  Cu41  1  0.62452284  0.66111129  0.91715158  1
  Cu  Cu42  1  0.03810872  0.37596363  0.91605971  1
  Cu  Cu43  1  0.34057115  0.37568526  0.41698543  1
  Cu  Cu44  1  0.03694857  0.66647490  0.41680034  1
  C  C45  1  0.20396357  0.02051343  0.30555215  1
  C  C46  1  0.81452062  0.78922378  0.30466114  1
  C  C47  1  0.97094519  0.18471211  0.30879849  1
  C  C48  1  0.20547636  0.18323382  0.80440068  1
  C  C49  1  0.97668689  0.79364095  0.80417197  1
  C  C50  1  0.81389271  0.02224147  0.80935242  1
  C  C51  1  0.77787004  0.95509871  0.69382068  1
  C  C52  1  0.17973445  0.21728233  0.68986210  1
  C  C53  1  0.03399123  0.81864981  0.69451167  1
  C  C54  1  0.78057556  0.81968424  0.19558796  1
  C  C55  1  0.03292155  0.20480823  0.19395711  1
  C  C56  1  0.18081924  0.95701263  0.19044217  1
  C  C57  1  0.87913158  0.35514069  0.64227753  1
  C  C58  1  0.48092853  0.12080003  0.63722732  1
  C  C59  1  0.64019670  0.51748199  0.64152984  1
  C  C60  1  0.87516293  0.52859328  0.14360436  1
  C  C61  1  0.64436682  0.12245468  0.13724618  1
  C  C62  1  0.47830542  0.35707790  0.13828421  1
  C  C63  1  0.44811709  0.29363877  0.02793979  1
  C  C64  1  0.83895304  0.53949347  0.02749250  1
  C  C65  1  0.69769603  0.14398765  0.02694958  1
  C  C66  1  0.44544153  0.15176327  0.52821376  1
  C  C67  1  0.69728721  0.53631210  0.52668699  1
  C  C68  1  0.84414544  0.29327041  0.52617370  1
  C  C69  1  0.53748004  0.68742979  0.96906988  1
  C  C70  1  0.14802575  0.46217816  0.96900448  1
  C  C71  1  0.32067409  0.86439420  0.97840143  1
  C  C72  1  0.54076966  0.86021068  0.47523846  1
  C  C73  1  0.31271259  0.45573560  0.47284591  1
  C  C74  1  0.14631274  0.68724100  0.47020220  1
  C  C75  1  0.11082747  0.62952575  0.35949143  1
  C  C76  1  0.51571852  0.87875128  0.35819501  1
  C  C77  1  0.36338708  0.48499224  0.36269476  1
  C  C78  1  0.11566865  0.47615762  0.85852569  1
  C  C79  1  0.38010929  0.88142597  0.86370715  1
  C  C80  1  0.52068974  0.63010661  0.85836882  1
  C  C81  1  0.01932291  0.82282988  0.41133251  1
  C  C82  1  0.81304798  0.99144692  0.41327193  1
  C  C83  1  0.18071283  0.19839675  0.41106147  1
  C  C84  1  0.00877228  0.19308083  0.91174195  1
  C  C85  1  0.17743632  0.98627141  0.91306959  1
  C  C86  1  0.79992303  0.82299085  0.91235638  1
  C  C87  1  0.97961235  0.16147638  0.58726398  1
  C  C88  1  0.19333095  0.02418273  0.58877240  1
  C  C89  1  0.84338913  0.81607845  0.58930573  1
  C  C90  1  0.97788811  0.82157178  0.08841271  1
  C  C91  1  0.83441265  0.02477122  0.08884068  1
  C  C92  1  0.19416108  0.16985366  0.08694406  1
  C  C93  1  0.68898329  0.16470888  0.74597979  1
  C  C94  1  0.48173221  0.33098478  0.74476980  1
  C  C95  1  0.84768823  0.53249720  0.74382360  1
  C  C96  1  0.68374655  0.53023141  0.24294778  1
  C  C97  1  0.84642886  0.32181991  0.24445449  1
  C  C98  1  0.48196624  0.15916517  0.24449890  1
  C  C99  1  0.64276242  0.50101106  0.92126891  1
  C  C100  1  0.85897874  0.35729783  0.92002046  1
  C  C101  1  0.51485174  0.15469364  0.92495384  1
  C  C102  1  0.64609074  0.15569837  0.42178469  1
  C  C103  1  0.49958983  0.35934907  0.42171622  1
  C  C104  1  0.85976381  0.50122881  0.42037556  1
  C  C105  1  0.35660836  0.49115102  0.07620936  1
  C  C106  1  0.14242821  0.65587579  0.07988405  1
  C  C107  1  0.51593678  0.86037663  0.07724799  1
  C  C108  1  0.34977874  0.86277700  0.57552192  1
  C  C109  1  0.51367877  0.65528960  0.57819898  1
  C  C110  1  0.14928471  0.49427925  0.57795009  1
  C  C111  1  0.31353727  0.82782752  0.25462071  1
  C  C112  1  0.52733968  0.69160842  0.25539207  1
  C  C113  1  0.17546221  0.48408282  0.25745213  1
  C  C114  1  0.30442299  0.48401907  0.75621939  1
  C  C115  1  0.16143223  0.68806513  0.75549627  1
  C  C116  1  0.51590326  0.82480828  0.75579451  1
