# generated using pymatgen
data_Cu2NiC6
_symmetry_space_group_name_H-M   'P 1'
_cell_length_a   3.27377532
_cell_length_b   3.30205756
_cell_length_c   9.98837362
_cell_angle_alpha   90.00000000
_cell_angle_beta   90.00000000
_cell_angle_gamma   119.47738089
_symmetry_Int_Tables_number   1
_chemical_formula_structural   Cu2NiC6
_chemical_formula_sum   'Cu2 Ni1 C6'
_cell_volume   93.99873789
_cell_formula_units_Z   1
loop_
 _symmetry_equiv_pos_site_id
 _symmetry_equiv_pos_as_xyz
  1  'x, y, z'
loop_
 _atom_site_type_symbol
 _atom_site_label
 _atom_site_symmetry_multiplicity
 _atom_site_fract_x
 _atom_site_fract_y
 _atom_site_fract_z
 _atom_site_occupancy
  Ni  Ni0  1  0.83133119  0.18065294  0.25000000  1
  Cu  Cu1  1  0.13754004  0.86667444  0.56349765  1
  Cu  Cu2  1  0.13754004  0.86667444  0.93650235  1
  C  C3  1  0.16105616  0.84181567  0.25000000  1
  C  C4  1  0.80618882  0.20591142  0.75000000  1
  C  C5  1  0.16800023  0.84532743  0.36578727  1
  C  C6  1  0.80558814  0.20505811  0.62737490  1
  C  C7  1  0.80558814  0.20505811  0.87262510  1
  C  C8  1  0.16800023  0.84532743  0.13421273  1
