# generated using pymatgen
data_Cu3NiC
_symmetry_space_group_name_H-M   'P 1'
_cell_length_a   5.80540700
_cell_length_b   6.53668800
_cell_length_c   8.33155300
_cell_angle_alpha   90.00000000
_cell_angle_beta   90.00000000
_cell_angle_gamma   90.00000000
_symmetry_Int_Tables_number   1
_chemical_formula_structural   Cu3NiC
_chemical_formula_sum   'Cu12 Ni4 C4'
_cell_volume   316.16689194
_cell_formula_units_Z   4
loop_
 _symmetry_equiv_pos_site_id
 _symmetry_equiv_pos_as_xyz
  1  'x, y, z'
loop_
 _atom_site_type_symbol
 _atom_site_label
 _atom_site_symmetry_multiplicity
 _atom_site_fract_x
 _atom_site_fract_y
 _atom_site_fract_z
 _atom_site_occupancy
  C  C0  1  0.50000000  0.00000000  0.00000000  1
  C  C1  1  0.00000000  0.50000000  0.00000000  1
  C  C2  1  0.00000000  0.50000000  0.50000000  1
  C  C3  1  0.50000000  0.00000000  0.50000000  1
  Ni  Ni4  1  0.00982600  0.01589100  0.25000000  1
  Ni  Ni5  1  0.50982600  0.48410900  0.75000000  1
  Ni  Ni6  1  0.49017400  0.51589100  0.25000000  1
  Ni  Ni7  1  0.99017400  0.98410900  0.75000000  1
  Cu  Cu8  1  0.13487600  0.16594800  0.41502600  1
  Cu  Cu9  1  0.63487600  0.33405200  0.58497400  1
  Cu  Cu10  1  0.36512400  0.66594800  0.08497400  1
  Cu  Cu11  1  0.86512400  0.83405200  0.91502600  1
  Cu  Cu12  1  0.86512400  0.83405200  0.58497400  1
  Cu  Cu13  1  0.36512400  0.66594800  0.41502600  1
  Cu  Cu14  1  0.63487600  0.33405200  0.91502600  1
  Cu  Cu15  1  0.13487600  0.16594800  0.08497400  1
  Cu  Cu16  1  0.70813000  0.09642100  0.25000000  1
  Cu  Cu17  1  0.20813000  0.40357900  0.75000000  1
  Cu  Cu18  1  0.79187000  0.59642100  0.25000000  1
  Cu  Cu19  1  0.29187000  0.90357900  0.75000000  1
