# generated using pymatgen
data_Cu4NiC
_symmetry_space_group_name_H-M   'P 1'
_cell_length_a   4.48553400
_cell_length_b   11.32438100
_cell_length_c   12.40461600
_cell_angle_alpha   90.00000000
_cell_angle_beta   90.00000000
_cell_angle_gamma   90.00000000
_symmetry_Int_Tables_number   1
_chemical_formula_structural   Cu4NiC
_chemical_formula_sum   'Cu48 Ni12 C12'
_cell_volume   630.10358431
_cell_formula_units_Z   12
loop_
 _symmetry_equiv_pos_site_id
 _symmetry_equiv_pos_as_xyz
  1  'x, y, z'
loop_
 _atom_site_type_symbol
 _atom_site_label
 _atom_site_symmetry_multiplicity
 _atom_site_fract_x
 _atom_site_fract_y
 _atom_site_fract_z
 _atom_site_occupancy
  Ni  Ni0  1  0.85453200  0.75000000  0.11499600  1
  Ni  Ni1  1  0.85453200  0.25000000  0.38500400  1
  Ni  Ni2  1  0.14546800  0.25000000  0.88500400  1
  Ni  Ni3  1  0.14546800  0.75000000  0.61499600  1
  Ni  Ni4  1  0.85095700  0.13191300  0.57233100  1
  Ni  Ni5  1  0.85095700  0.86808700  0.92766900  1
  Ni  Ni6  1  0.14904300  0.63191300  0.42766900  1
  Ni  Ni7  1  0.14904300  0.36808700  0.07233100  1
  Ni  Ni8  1  0.14904300  0.86808700  0.42766900  1
  Ni  Ni9  1  0.14904300  0.13191300  0.07233100  1
  Ni  Ni10  1  0.85095700  0.36808700  0.57233100  1
  Ni  Ni11  1  0.85095700  0.63191300  0.92766900  1
  Cu  Cu12  1  0.16676300  0.75000000  0.29392400  1
  Cu  Cu13  1  0.16676300  0.25000000  0.20607600  1
  Cu  Cu14  1  0.83323700  0.25000000  0.70607600  1
  Cu  Cu15  1  0.83323700  0.75000000  0.79392400  1
  Cu  Cu16  1  0.47927300  0.75000000  0.36012300  1
  Cu  Cu17  1  0.47927300  0.25000000  0.13987700  1
  Cu  Cu18  1  0.52072700  0.25000000  0.63987700  1
  Cu  Cu19  1  0.52072700  0.75000000  0.86012300  1
  Cu  Cu20  1  0.73757200  0.04666500  0.61685700  1
  Cu  Cu21  1  0.73757200  0.95333500  0.88314300  1
  Cu  Cu22  1  0.26242800  0.54666500  0.38314300  1
  Cu  Cu23  1  0.26242800  0.45333500  0.11685700  1
  Cu  Cu24  1  0.26242800  0.95333500  0.38314300  1
  Cu  Cu25  1  0.26242800  0.04666500  0.11685700  1
  Cu  Cu26  1  0.73757200  0.45333500  0.61685700  1
  Cu  Cu27  1  0.73757200  0.54666500  0.88314300  1
  Cu  Cu28  1  0.12317800  0.12738900  0.57490400  1
  Cu  Cu29  1  0.83073400  0.06333000  0.41273100  1
  Cu  Cu30  1  0.12317800  0.87261100  0.92509600  1
  Cu  Cu31  1  0.87682200  0.37261100  0.07490400  1
  Cu  Cu32  1  0.87682200  0.87261100  0.42509600  1
  Cu  Cu33  1  0.87682200  0.12738900  0.07490400  1
  Cu  Cu34  1  0.12317800  0.37261100  0.57490400  1
  Cu  Cu35  1  0.12317800  0.62738900  0.92509600  1
  Cu  Cu36  1  0.12702400  0.75000000  0.11916400  1
  Cu  Cu37  1  0.12702400  0.25000000  0.38083600  1
  Cu  Cu38  1  0.87297600  0.25000000  0.88083600  1
  Cu  Cu39  1  0.87297600  0.75000000  0.61916400  1
  Cu  Cu40  1  0.74298300  0.75000000  0.20488400  1
  Cu  Cu41  1  0.74298300  0.25000000  0.29511600  1
  Cu  Cu42  1  0.25701700  0.25000000  0.79511600  1
  Cu  Cu43  1  0.25701700  0.75000000  0.70488400  1
  Cu  Cu44  1  0.52135200  0.62885500  0.05514000  1
  Cu  Cu45  1  0.52135200  0.37114500  0.44486000  1
  Cu  Cu46  1  0.47864800  0.12885500  0.94486000  1
  Cu  Cu47  1  0.47864800  0.87114500  0.55514000  1
  Cu  Cu48  1  0.47864800  0.37114500  0.94486000  1
  Cu  Cu49  1  0.47864800  0.62885500  0.55514000  1
  Cu  Cu50  1  0.52135200  0.87114500  0.05514000  1
  Cu  Cu51  1  0.52135200  0.12885500  0.44486000  1
  Cu  Cu52  1  0.83073400  0.56333000  0.08726900  1
  Cu  Cu53  1  0.83073400  0.43667000  0.41273100  1
  Cu  Cu54  1  0.16926600  0.06333000  0.91273100  1
  Cu  Cu55  1  0.16926600  0.93667000  0.58726900  1
  Cu  Cu56  1  0.16926600  0.43667000  0.91273100  1
  Cu  Cu57  1  0.16926600  0.56333000  0.58726900  1
  Cu  Cu58  1  0.83073400  0.93667000  0.08726900  1
  Cu  Cu59  1  0.87682200  0.62738900  0.42509600  1
  C  C60  1  0.74907900  0.13753100  0.45009700  1
  C  C61  1  0.74907900  0.86246900  0.04990300  1
  C  C62  1  0.25092100  0.63753100  0.54990300  1
  C  C63  1  0.25092100  0.36246900  0.95009700  1
  C  C64  1  0.25092100  0.86246900  0.54990300  1
  C  C65  1  0.25092100  0.13753100  0.95009700  1
  C  C66  1  0.74907900  0.36246900  0.45009700  1
  C  C67  1  0.74907900  0.63753100  0.04990300  1
  C  C68  1  0.74805700  0.75000000  0.87086700  1
  C  C69  1  0.74805700  0.25000000  0.62913300  1
  C  C70  1  0.25194300  0.25000000  0.12913300  1
  C  C71  1  0.25194300  0.75000000  0.37086700  1
