# generated using pymatgen
data_CuNi5C29
_symmetry_space_group_name_H-M   'P 1'
_cell_length_a   8.73499417
_cell_length_b   8.74258711
_cell_length_c   22.72559348
_cell_angle_alpha   89.99452805
_cell_angle_beta   89.93853907
_cell_angle_gamma   120.04209604
_symmetry_Int_Tables_number   1
_chemical_formula_structural   CuNi5C29
_chemical_formula_sum   'Cu3 Ni15 C87'
_cell_volume   1502.32435720
_cell_formula_units_Z   3
loop_
 _symmetry_equiv_pos_site_id
 _symmetry_equiv_pos_as_xyz
  1  'x, y, z'
loop_
 _atom_site_type_symbol
 _atom_site_label
 _atom_site_symmetry_multiplicity
 _atom_site_fract_x
 _atom_site_fract_y
 _atom_site_fract_z
 _atom_site_occupancy
  C  C0  1  0.66962596  0.33686209  0.83245472  1
  C  C1  1  0.66734239  0.33405135  0.33260566  1
  C  C2  1  0.33348456  0.66720996  0.16708395  1
  C  C3  1  0.00074061  0.00008814  0.35742155  1
  C  C4  1  0.99946281  0.00016726  0.14383693  1
  C  C5  1  0.66680503  0.33299820  0.18734621  1
  C  C6  1  0.67077642  0.33751485  0.97979939  1
  C  C7  1  0.33507023  0.66266962  0.01998012  1
  C  C8  1  0.33278513  0.66622020  0.31325068  1
  C  C9  1  0.99010894  0.99943902  0.85364230  1
  C  C10  1  0.00743631  0.99813031  0.64865068  1
  C  C11  1  0.66104688  0.32369661  0.68832508  1
  C  C12  1  0.65709614  0.32723478  0.47852612  1
  C  C13  1  0.33255061  0.67313993  0.51895962  1
  C  C14  1  0.32998541  0.65508622  0.80777692  1
  Ni  Ni15  1  0.28907982  0.99980746  0.25035911  1
  Ni  Ni16  1  0.71092650  0.71059904  0.25053914  1
  Ni  Ni17  1  0.99975354  0.28888153  0.25049520  1
  Ni  Ni18  1  0.28487979  0.28229784  0.75037091  1
  Ni  Ni19  1  0.99930380  0.71264698  0.75083965  1
  Ni  Ni20  1  0.71303957  0.99754933  0.74929307  1
  Ni  Ni21  1  0.37911636  0.04551383  0.58355278  1
  Ni  Ni22  1  0.95849386  0.62396685  0.08346599  1
  Ni  Ni23  1  0.66523198  0.04292857  0.08296444  1
  Ni  Ni24  1  0.37777246  0.33331740  0.08316253  1
  Ni  Ni25  1  0.62183176  0.66923739  0.91289718  1
  Ni  Ni26  1  0.04724879  0.37626938  0.91304172  1
  Ni  Ni27  1  0.61902307  0.95634186  0.41897031  1
  Ni  Ni28  1  0.33640097  0.38292465  0.41975235  1
  Ni  Ni29  1  0.04080039  0.66035119  0.41921477  1
  Cu  Cu30  1  0.95391373  0.33240237  0.58352279  1
  Cu  Cu31  1  0.66641347  0.62071066  0.58369812  1
  Cu  Cu32  1  0.32838968  0.95315584  0.91338424  1
  C  C33  1  0.20468474  0.02780373  0.30583468  1
  C  C34  1  0.82337046  0.79540084  0.30593896  1
  C  C35  1  0.97184576  0.17646420  0.30594654  1
  C  C36  1  0.20187124  0.16728262  0.80464023  1
  C  C37  1  0.96728332  0.80048336  0.80433693  1
  C  C38  1  0.83176296  0.03411788  0.80416358  1
  C  C39  1  0.80344745  0.97188213  0.69469697  1
  C  C40  1  0.16947325  0.19777480  0.69472881  1
  C  C41  1  0.02866243  0.83106320  0.69515317  1
  C  C42  1  0.79334921  0.82229500  0.19519639  1
  C  C43  1  0.02917264  0.20675973  0.19518259  1
  C  C44  1  0.17734838  0.97078127  0.19511469  1
  C  C45  1  0.86975768  0.36324680  0.63671168  1
  C  C46  1  0.50073273  0.13900054  0.63803114  1
  C  C47  1  0.63776687  0.50660824  0.63654708  1
  C  C48  1  0.87541844  0.50766130  0.13784429  1
  C  C49  1  0.63295709  0.12571794  0.13772153  1
  C  C50  1  0.49305876  0.36684766  0.13781432  1
  C  C51  1  0.46333961  0.30723079  0.02773441  1
  C  C52  1  0.84493418  0.53831494  0.02812227  1
  C  C53  1  0.69239570  0.15611315  0.02770040  1
  C  C54  1  0.47033113  0.16698551  0.52962471  1
  C  C55  1  0.69831498  0.53880844  0.53078996  1
  C  C56  1  0.84055061  0.30312137  0.53096611  1
  C  C57  1  0.54414074  0.70143677  0.96909167  1
  C  C58  1  0.15661916  0.45798564  0.96902425  1
  C  C59  1  0.30247453  0.84875928  0.96810365  1
  C  C60  1  0.52663552  0.83745714  0.47334965  1
  C  C61  1  0.31166169  0.47564103  0.47387919  1
  C  C62  1  0.16264001  0.68905932  0.47332922  1
  C  C63  1  0.12035460  0.62576435  0.36425505  1
  C  C64  1  0.50526634  0.87951707  0.36397864  1
  C  C65  1  0.37385026  0.49513109  0.36408883  1
  C  C66  1  0.13967523  0.49875603  0.85954294  1
  C  C67  1  0.36108158  0.87074945  0.86204187  1
  C  C68  1  0.50079358  0.64200220  0.85958364  1
  C  C69  1  0.02424314  0.82450890  0.41175247  1
  C  C70  1  0.80108830  0.97602688  0.41175573  1
  C  C71  1  0.17573390  0.19967422  0.41182872  1
  C  C72  1  0.02814835  0.19285632  0.90259410  1
  C  C73  1  0.17168725  0.97304599  0.90597414  1
  C  C74  1  0.80725831  0.83292137  0.90263141  1
  C  C75  1  0.97131797  0.17391002  0.59317405  1
  C  C76  1  0.19635595  0.02752215  0.59552593  1
  C  C77  1  0.82555654  0.79790629  0.59311680  1
  C  C78  1  0.97555562  0.80462067  0.09056201  1
  C  C79  1  0.82817770  0.02450753  0.09044733  1
  C  C80  1  0.19577431  0.17109847  0.09045242  1
  C  C81  1  0.69391429  0.16602314  0.73992904  1
  C  C82  1  0.47395362  0.30837810  0.73983756  1
  C  C83  1  0.83456898  0.52697242  0.73925854  1
  C  C84  1  0.69044879  0.52584989  0.24509113  1
  C  C85  1  0.83539242  0.30943642  0.24515364  1
  C  C86  1  0.47402750  0.16439603  0.24507958  1
  C  C87  1  0.64147434  0.50396998  0.91931762  1
  C  C88  1  0.86122549  0.35501808  0.91919221  1
  C  C89  1  0.48926841  0.13197915  0.92051621  1
  C  C90  1  0.64023140  0.14316895  0.42899853  1
  C  C91  1  0.50326584  0.36176990  0.42903318  1
  C  C92  1  0.85573437  0.49541588  0.43015883  1
  C  C93  1  0.35883460  0.49943773  0.07675805  1
  C  C94  1  0.14276269  0.64343687  0.07569984  1
  C  C95  1  0.49903075  0.85882478  0.07595126  1
  C  C96  1  0.36010115  0.86335182  0.57267014  1
  C  C97  1  0.50857036  0.63848861  0.57484415  1
  C  C98  1  0.13025985  0.49080590  0.57483967  1
  C  C99  1  0.30933161  0.83507646  0.25653651  1
  C  C100  1  0.52577678  0.69055176  0.25662381  1
  C  C101  1  0.16470900  0.47411872  0.25651860  1
  C  C102  1  0.30712012  0.46829546  0.75935493  1
  C  C103  1  0.16391317  0.69435273  0.76108311  1
  C  C104  1  0.52889428  0.83817991  0.76107746  1
