# generated using pymatgen
data_Cu2NiC10
_symmetry_space_group_name_H-M   'P 1'
_cell_length_a   5.40972791
_cell_length_b   5.70231577
_cell_length_c   6.94306747
_cell_angle_alpha   112.63388224
_cell_angle_beta   111.59438408
_cell_angle_gamma   93.66345602
_symmetry_Int_Tables_number   1
_chemical_formula_structural   Cu2NiC10
_chemical_formula_sum   'Cu2 Ni1 C10'
_cell_volume   178.46009043
_cell_formula_units_Z   1
loop_
 _symmetry_equiv_pos_site_id
 _symmetry_equiv_pos_as_xyz
  1  'x, y, z'
loop_
 _atom_site_type_symbol
 _atom_site_label
 _atom_site_symmetry_multiplicity
 _atom_site_fract_x
 _atom_site_fract_y
 _atom_site_fract_z
 _atom_site_occupancy
  C  C0  1  0.86635500  0.11640400  0.73361700  1
  C  C1  1  0.10952800  0.86100200  0.21881400  1
  Ni  Ni2  1  0.15375900  0.40552100  0.30701400  1
  Cu  Cu3  1  0.38380500  0.63047300  0.76816500  1
  Cu  Cu4  1  0.65637100  0.40651400  0.31233800  1
  C  C5  1  0.27517700  0.14738000  0.08686700  1
  C  C6  1  0.80771900  0.44159800  0.08646200  1
  C  C7  1  0.72613900  0.87852200  0.91602000  1
  C  C8  1  0.18670400  0.53803000  0.91654100  1
  C  C9  1  0.48822400  0.71347200  0.40868200  1
  C  C10  1  0.92344000  0.19736800  0.41029900  1
  C  C11  1  0.48438100  0.32809300  0.55711200  1
  C  C12  1  0.07589700  0.72847800  0.55806800  1
