# generated using pymatgen
data_CuNiC18
_symmetry_space_group_name_H-M   'P 1'
_cell_length_a   15.76384013
_cell_length_b   8.99758545
_cell_length_c   9.00616005
_cell_angle_alpha   90.00000000
_cell_angle_beta   125.31605281
_cell_angle_gamma   90.00000000
_symmetry_Int_Tables_number   1
_chemical_formula_structural   CuNiC18
_chemical_formula_sum   'Cu4 Ni4 C72'
_cell_volume   1042.32910537
_cell_formula_units_Z   4
loop_
 _symmetry_equiv_pos_site_id
 _symmetry_equiv_pos_as_xyz
  1  'x, y, z'
loop_
 _atom_site_type_symbol
 _atom_site_label
 _atom_site_symmetry_multiplicity
 _atom_site_fract_x
 _atom_site_fract_y
 _atom_site_fract_z
 _atom_site_occupancy
  C  C0  1  0.24994468  0.73039509  0.99163817  1
  C  C1  1  0.74994468  0.76960491  0.49163817  1
  C  C2  1  0.74994468  0.23039509  0.99163817  1
  C  C3  1  0.24994468  0.26960491  0.49163817  1
  C  C4  1  0.49769110  0.10939184  0.74360096  1
  C  C5  1  0.49769110  0.89060816  0.24360096  1
  C  C6  1  0.99769110  0.60939184  0.74360096  1
  C  C7  1  0.99769110  0.39060816  0.24360096  1
  C  C8  1  0.18928450  0.93983355  0.28798092  1
  C  C9  1  0.18928450  0.06016645  0.78798092  1
  C  C10  1  0.68928450  0.43983355  0.28798092  1
  C  C11  1  0.68928450  0.56016645  0.78798092  1
  Ni  Ni12  1  0.10516706  0.74944270  0.56374152  1
  Ni  Ni13  1  0.10516706  0.25055730  0.06374152  1
  Ni  Ni14  1  0.60516706  0.24944270  0.56374152  1
  Ni  Ni15  1  0.60516706  0.75055730  0.06374152  1
  Cu  Cu16  1  0.89323424  0.75365482  0.93184396  1
  Cu  Cu17  1  0.89323424  0.24634518  0.43184396  1
  Cu  Cu18  1  0.39323424  0.25365482  0.93184396  1
  Cu  Cu19  1  0.39323424  0.74634518  0.43184396  1
  C  C20  1  0.00142715  0.95815470  0.75663961  1
  C  C21  1  0.00142715  0.04184530  0.25663961  1
  C  C22  1  0.50142715  0.45815470  0.75663961  1
  C  C23  1  0.50142715  0.54184530  0.25663961  1
  C  C24  1  0.35408326  0.88586670  0.75789271  1
  C  C25  1  0.64416504  0.89632368  0.74890604  1
  C  C26  1  0.64416504  0.10367632  0.24890604  1
  C  C27  1  0.35408326  0.11413330  0.25789271  1
  C  C28  1  0.85408326  0.38586670  0.75789271  1
  C  C29  1  0.14416504  0.39632368  0.74890604  1
  C  C30  1  0.14416504  0.60367632  0.24890604  1
  C  C31  1  0.85408326  0.61413330  0.25789271  1
  C  C32  1  0.14678475  0.57583573  0.74144138  1
  C  C33  1  0.84886133  0.57050798  0.76349889  1
  C  C34  1  0.84886133  0.42949202  0.26349889  1
  C  C35  1  0.14678475  0.42416427  0.24144138  1
  C  C36  1  0.64678475  0.07583573  0.74144138  1
  C  C37  1  0.34886133  0.07050798  0.76349889  1
  C  C38  1  0.34886133  0.92949202  0.26349889  1
  C  C39  1  0.64678475  0.92416427  0.24144138  1
  C  C40  1  0.43469843  0.57080033  0.57849605  1
  C  C41  1  0.57023515  0.56364006  0.93656694  1
  C  C42  1  0.57023515  0.43635994  0.43656694  1
  C  C43  1  0.43469843  0.42919967  0.07849605  1
  C  C44  1  0.93469843  0.07080033  0.57849605  1
  C  C45  1  0.07023515  0.06364006  0.93656694  1
  C  C46  1  0.07023515  0.93635994  0.43656694  1
  C  C47  1  0.93469843  0.92919967  0.07849605  1
  C  C48  1  0.25321370  0.82257180  0.74432504  1
  C  C49  1  0.73971538  0.81192864  0.75837609  1
  C  C50  1  0.73971538  0.18807136  0.25837609  1
  C  C51  1  0.25321370  0.17742820  0.24432504  1
  C  C52  1  0.75321370  0.32257180  0.74432504  1
  C  C53  1  0.23971538  0.31192864  0.75837609  1
  C  C54  1  0.23971538  0.68807136  0.25837609  1
  C  C55  1  0.75321370  0.67742820  0.24432504  1
  C  C56  1  0.35330052  0.85669506  0.57498889  1
  C  C57  1  0.63946442  0.84679707  0.91979944  1
  C  C58  1  0.63946442  0.15320293  0.41979944  1
  C  C59  1  0.35330052  0.14330494  0.07498889  1
  C  C60  1  0.85330052  0.35669506  0.57498889  1
  C  C61  1  0.13946442  0.34679707  0.91979944  1
  C  C62  1  0.13946442  0.65320293  0.41979944  1
  C  C63  1  0.85330052  0.64330494  0.07498889  1
  C  C64  1  0.46397582  0.82592230  0.93733570  1
  C  C65  1  0.53602871  0.82955560  0.56394711  1
  C  C66  1  0.53602871  0.17044440  0.06394711  1
  C  C67  1  0.46397582  0.17407770  0.43733570  1
  C  C68  1  0.96397582  0.32592230  0.93733570  1
  C  C69  1  0.03602871  0.32955560  0.56394711  1
  C  C70  1  0.03602871  0.67044440  0.06394711  1
  C  C71  1  0.96397582  0.67407770  0.43733570  1
  C  C72  1  0.08241426  0.85524349  0.74512093  1
  C  C73  1  0.91631050  0.85006190  0.75385964  1
  C  C74  1  0.91631050  0.14993810  0.25385964  1
  C  C75  1  0.08241426  0.14475651  0.24512093  1
  C  C76  1  0.58241426  0.35524349  0.74512093  1
  C  C77  1  0.41631050  0.35006190  0.75385964  1
  C  C78  1  0.41631050  0.64993810  0.25385964  1
  C  C79  1  0.58241426  0.64475651  0.24512093  1
