# generated using pymatgen
data_Cu6NiC27
_symmetry_space_group_name_H-M   'P 1'
_cell_length_a   8.81131541
_cell_length_b   8.81131512
_cell_length_c   22.71464126
_cell_angle_alpha   90.00000000
_cell_angle_beta   90.00000000
_cell_angle_gamma   120.00000106
_symmetry_Int_Tables_number   1
_chemical_formula_structural   Cu6NiC27
_chemical_formula_sum   'Cu18 Ni3 C81'
_cell_volume   1527.27762716
_cell_formula_units_Z   3
loop_
 _symmetry_equiv_pos_site_id
 _symmetry_equiv_pos_as_xyz
  1  'x, y, z'
loop_
 _atom_site_type_symbol
 _atom_site_label
 _atom_site_symmetry_multiplicity
 _atom_site_fract_x
 _atom_site_fract_y
 _atom_site_fract_z
 _atom_site_occupancy
  C  C0  1  -0.00000000  -0.00000000  0.85644044  1
  C  C1  1  -0.00000000  -0.00000000  0.64035720  1
  C  C2  1  -0.00000000  -0.00000000  0.14755567  1
  C  C3  1  0.66666700  0.33333300  0.97856595  1
  C  C4  1  0.66666700  0.33333300  0.47467401  1
  C  C5  1  0.33333300  0.66666700  0.02335967  1
  C  C6  1  0.33333300  0.66666700  0.52114315  1
  C  C7  1  0.33333300  0.66666700  0.30744422  1
  C  C8  1  0.33333300  0.66666700  0.80785705  1
  Ni  Ni9  1  -0.00000000  -0.00000000  0.35819349  1
  Ni  Ni10  1  0.66666700  0.33333300  0.68877034  1
  Ni  Ni11  1  0.66666700  0.33333300  0.18790975  1
  Cu  Cu12  1  0.28745439  0.00005532  0.25158071  1
  Cu  Cu13  1  0.71260093  0.71254561  0.25158071  1
  Cu  Cu14  1  -0.00005532  0.28739907  0.25158071  1
  Cu  Cu15  1  0.28207722  0.28227471  0.75004391  1
  Cu  Cu16  1  0.00019750  0.71792278  0.75004391  1
  Cu  Cu17  1  0.71772529  -0.00019750  0.75004391  1
  Cu  Cu18  1  0.95390394  0.33562124  0.58270887  1
  Cu  Cu19  1  0.38171831  0.04609606  0.58270887  1
  Cu  Cu20  1  0.66437876  0.61828169  0.58270887  1
  Cu  Cu21  1  0.95410477  0.62384352  0.08300923  1
  Cu  Cu22  1  0.66973975  0.04589523  0.08300923  1
  Cu  Cu23  1  0.37615648  0.33026025  0.08300923  1
  Cu  Cu24  1  0.61631021  0.66532911  0.91623860  1
  Cu  Cu25  1  0.04901790  0.38368979  0.91623860  1
  Cu  Cu26  1  0.33467089  0.95098210  0.91623860  1
  Cu  Cu27  1  0.61568282  0.95036603  0.41639806  1
  Cu  Cu28  1  0.33468220  0.38431718  0.41639806  1
  Cu  Cu29  1  0.04963397  0.66531780  0.41639806  1
  C  C30  1  0.20798370  0.02787783  0.30591535  1
  C  C31  1  0.81989413  0.79201630  0.30591535  1
  C  C32  1  0.97212217  0.18010587  0.30591535  1
  C  C33  1  0.18632822  0.16980174  0.80549885  1
  C  C34  1  0.98347352  0.81367178  0.80549885  1
  C  C35  1  0.83019826  0.01652648  0.80549885  1
  C  C36  1  0.80235007  0.96621351  0.69574338  1
  C  C37  1  0.16386344  0.19764993  0.69574338  1
  C  C38  1  0.03378649  0.83613656  0.69574338  1
  C  C39  1  0.80214912  0.83534352  0.19510334  1
  C  C40  1  0.03319440  0.19785088  0.19510334  1
  C  C41  1  0.16465648  0.96680560  0.19510334  1
  C  C42  1  0.88839941  0.37521752  0.63904072  1
  C  C43  1  0.48681911  0.11160059  0.63904072  1
  C  C44  1  0.62478248  0.51318089  0.63904072  1
  C  C45  1  0.88774621  0.51068173  0.13634348  1
  C  C46  1  0.62293652  0.11225379  0.13634348  1
  C  C47  1  0.48931827  0.37706348  0.13634348  1
  C  C48  1  0.46908303  0.30483211  0.02737300  1
  C  C49  1  0.83575007  0.53091697  0.02737300  1
  C  C50  1  0.69516789  0.16424993  0.02737300  1
  C  C51  1  0.46713596  0.16550606  0.52881769  1
  C  C52  1  0.69837110  0.53286404  0.52881769  1
  C  C53  1  0.83449394  0.30162890  0.52881769  1
  C  C54  1  0.53132695  0.69612147  0.97037471  1
  C  C55  1  0.16479352  0.46867305  0.97037471  1
  C  C56  1  0.30387853  0.83520648  0.97037471  1
  C  C57  1  0.52038999  0.83799924  0.47134749  1
  C  C58  1  0.31760825  0.47961001  0.47134749  1
  C  C59  1  0.16200076  0.68239175  0.47134749  1
  C  C60  1  0.13465122  0.63169421  0.36219623  1
  C  C61  1  0.49704199  0.86534878  0.36219623  1
  C  C62  1  0.36830579  0.50295801  0.36219623  1
  C  C63  1  0.13602429  0.50000853  0.86180073  1
  C  C64  1  0.36398325  0.86397571  0.86180073  1
  C  C65  1  0.49999147  0.63601675  0.86180073  1
  C  C66  1  0.02700477  0.82230266  0.41379158  1
  C  C67  1  0.79529790  0.97299523  0.41379158  1
  C  C68  1  0.17769733  0.20470210  0.41379158  1
  C  C69  1  0.02633039  0.19967799  0.90587889  1
  C  C70  1  0.17334760  0.97366961  0.90587889  1
  C  C71  1  0.80032201  0.82665240  0.90587889  1
  C  C72  1  0.97466688  0.16950466  0.59259123  1
  C  C73  1  0.19483778  0.02533312  0.59259123  1
  C  C74  1  0.83049534  0.80516222  0.59259123  1
  C  C75  1  0.97572064  0.80701796  0.09032947  1
  C  C76  1  0.83129732  0.02427936  0.09032947  1
  C  C77  1  0.19298204  0.16870268  0.09032947  1
  C  C78  1  0.69507014  0.15693069  0.74646138  1
  C  C79  1  0.46186156  0.30492986  0.74646138  1
  C  C80  1  0.84306931  0.53813845  0.74646138  1
  C  C81  1  0.68203181  0.53217496  0.24074438  1
  C  C82  1  0.85014414  0.31796819  0.24074438  1
  C  C83  1  0.46782504  0.14985586  0.24074438  1
  C  C84  1  0.63870750  0.50450006  0.92736338  1
  C  C85  1  0.86579355  0.36129250  0.92736338  1
  C  C86  1  0.49549994  0.13420645  0.92736338  1
  C  C87  1  0.62750182  0.13195567  0.42822220  1
  C  C88  1  0.50445485  0.37249818  0.42822220  1
  C  C89  1  0.86804433  0.49554515  0.42822220  1
  C  C90  1  0.35096845  0.49008482  0.06755963  1
  C  C91  1  0.13911537  0.64903155  0.06755963  1
  C  C92  1  0.50991518  0.86088463  0.06755963  1
  C  C93  1  0.34873777  0.86029949  0.56960622  1
  C  C94  1  0.51156072  0.65126223  0.56960622  1
  C  C95  1  0.13970051  0.48843928  0.56960622  1
  C  C96  1  0.29631602  0.82652735  0.25870295  1
  C  C97  1  0.53021033  0.70368398  0.25870295  1
  C  C98  1  0.17347265  0.46978967  0.25870295  1
  C  C99  1  0.29422746  0.46426952  0.76179068  1
  C  C100  1  0.17004106  0.70577254  0.76179068  1
  C  C101  1  0.53573048  0.82995894  0.76179068  1
