# generated using pymatgen
data_Cu2Ni2C9
_symmetry_space_group_name_H-M   'P 1'
_cell_length_a   6.68807551
_cell_length_b   6.45085173
_cell_length_c   6.46690963
_cell_angle_alpha   60.02677986
_cell_angle_beta   61.24769932
_cell_angle_gamma   97.43963306
_symmetry_Int_Tables_number   1
_chemical_formula_structural   Cu2Ni2C9
_chemical_formula_sum   'Cu2 Ni2 C9'
_cell_volume   185.07686722
_cell_formula_units_Z   1
loop_
 _symmetry_equiv_pos_site_id
 _symmetry_equiv_pos_as_xyz
  1  'x, y, z'
loop_
 _atom_site_type_symbol
 _atom_site_label
 _atom_site_symmetry_multiplicity
 _atom_site_fract_x
 _atom_site_fract_y
 _atom_site_fract_z
 _atom_site_occupancy
  C  C0  1  0.00000000  0.50000000  -0.00000000  1
  Ni  Ni1  1  0.00000000  0.50000000  0.50000000  1
  Ni  Ni2  1  0.50000000  0.00000000  -0.00000000  1
  Cu  Cu3  1  0.00000000  0.00000000  0.50000000  1
  Cu  Cu4  1  0.00000000  0.00000000  -0.00000000  1
  C  C5  1  0.79327376  0.71578790  0.99446859  1
  C  C6  1  0.21827965  0.78437735  0.47161346  1
  C  C7  1  0.78313364  0.21747558  0.97317868  1
  C  C8  1  0.78314695  0.72470812  0.49497685  1
  C  C9  1  0.21685305  0.27529188  0.50502315  1
  C  C10  1  0.21686636  0.78252442  0.02682132  1
  C  C11  1  0.78172035  0.21562265  0.52838654  1
  C  C12  1  0.20672624  0.28421210  0.00553141  1
