# generated using pymatgen
data_Cu5NiC35
_symmetry_space_group_name_H-M   'P 1'
_cell_length_a   9.02406135
_cell_length_b   9.00644886
_cell_length_c   22.33136214
_cell_angle_alpha   90.00445495
_cell_angle_beta   89.88059347
_cell_angle_gamma   119.85636803
_symmetry_Int_Tables_number   1
_chemical_formula_structural   Cu5NiC35
_chemical_formula_sum   'Cu15 Ni3 C105'
_cell_volume   1574.08077109
_cell_formula_units_Z   3
loop_
 _symmetry_equiv_pos_site_id
 _symmetry_equiv_pos_as_xyz
  1  'x, y, z'
loop_
 _atom_site_type_symbol
 _atom_site_label
 _atom_site_symmetry_multiplicity
 _atom_site_fract_x
 _atom_site_fract_y
 _atom_site_fract_z
 _atom_site_occupancy
  C  C0  1  0.37135701  0.37408709  0.25327295  1
  C  C1  1  0.00130711  0.62941904  0.25009906  1
  C  C2  1  0.64019344  0.65106337  0.75176109  1
  C  C3  1  0.99533671  0.35385738  0.75695250  1
  C  C4  1  0.35874350  0.99280285  0.75138348  1
  C  C5  1  0.30816526  0.32855181  0.57649705  1
  C  C6  1  0.03139953  0.69144433  0.57771581  1
  C  C7  1  0.65585707  0.97095022  0.58337152  1
  C  C8  1  0.30935387  0.97579377  0.08399359  1
  C  C9  1  0.67444730  0.69058052  0.08288115  1
  C  C10  1  0.02468939  0.34137139  0.08538037  1
  C  C11  1  0.95913469  0.66584732  0.92022823  1
  C  C12  1  0.70708856  0.03884079  0.91458850  1
  C  C13  1  0.96249561  0.29324106  0.41215296  1
  C  C14  1  0.33279669  0.03650113  0.41633732  1
  C  C15  1  0.99193630  0.98521592  0.49639487  1
  C  C16  1  0.01186727  0.00788827  0.00617313  1
  C  C17  1  0.65327116  0.32843888  0.83272157  1
  C  C18  1  0.66650567  0.33246990  0.33135508  1
  C  C19  1  0.34138078  0.68010478  0.16799272  1
  C  C20  1  0.34121146  0.67786004  0.66616714  1
  C  C21  1  0.00922484  0.00955732  0.85651641  1
  C  C22  1  -0.00074494  0.00025405  0.65394129  1
  C  C23  1  0.66348205  0.32608206  0.67769293  1
  C  C24  1  0.66957649  0.32601371  0.18555294  1
  C  C25  1  0.66001513  0.33622503  0.98384521  1
  C  C26  1  0.66511706  0.34146183  0.47553351  1
  C  C27  1  0.99048842  0.99215150  0.35088034  1
  C  C28  1  0.99551616  0.99397465  0.15382207  1
  C  C29  1  0.33070280  0.66441377  0.01856435  1
  C  C30  1  0.33892142  0.67186122  0.51180153  1
  C  C31  1  0.34396868  0.67528520  0.31466801  1
  C  C32  1  0.33619767  0.66725444  0.81760765  1
  Ni  Ni33  1  0.68188682  0.99113430  0.75446939  1
  Ni  Ni34  1  0.35672166  0.01365924  0.57727867  1
  Ni  Ni35  1  0.98245304  0.65005552  0.08464102  1
  Cu  Cu36  1  0.27555952  0.99107151  0.25467669  1
  Cu  Cu37  1  0.71027855  0.72412231  0.25299533  1
  Cu  Cu38  1  0.00800119  0.28434373  0.25414306  1
  Cu  Cu39  1  0.30738282  0.31788767  0.75124459  1
  Cu  Cu40  1  0.00852185  0.69195523  0.75487946  1
  Cu  Cu41  1  0.98383015  0.34562414  0.57702064  1
  Cu  Cu42  1  0.65579178  0.63890561  0.58085011  1
  Cu  Cu43  1  0.66816216  0.01963841  0.08141412  1
  Cu  Cu44  1  0.35169421  0.33196014  0.08754041  1
  Cu  Cu45  1  0.60595786  0.66164355  0.91759057  1
  Cu  Cu46  1  0.05784523  0.39234048  0.91913644  1
  Cu  Cu47  1  0.33648398  0.94186376  0.91853890  1
  Cu  Cu48  1  0.62505767  0.94104316  0.41210897  1
  Cu  Cu49  1  0.32242415  0.38069652  0.41072208  1
  Cu  Cu50  1  0.06014373  0.67808993  0.41037629  1
  C  C51  1  0.18614662  0.01407385  0.31081165  1
  C  C52  1  0.82904122  0.81513884  0.30620219  1
  C  C53  1  0.99117521  0.17883964  0.31093352  1
  C  C54  1  0.21962233  0.18481130  0.80118925  1
  C  C55  1  0.97714846  0.77865748  0.80926476  1
  C  C56  1  0.81180229  0.03046738  0.81049806  1
  C  C57  1  0.76186641  0.95697852  0.69336628  1
  C  C58  1  0.20574481  0.24748732  0.69210905  1
  C  C59  1  0.04318988  0.80369180  0.69770870  1
  C  C60  1  0.79310193  0.82247618  0.19383774  1
  C  C61  1  0.02116374  0.19076875  0.19732071  1
  C  C62  1  0.16613317  0.96899832  0.19789608  1
  C  C63  1  0.91009036  0.38117526  0.63505914  1
  C  C64  1  0.46983390  0.09106770  0.63865286  1
  C  C65  1  0.62612578  0.54005754  0.64068640  1
  C  C66  1  0.90010300  0.51633475  0.14095698  1
  C  C67  1  0.61525625  0.10066763  0.13273113  1
  C  C68  1  0.46951387  0.37582894  0.14293459  1
  C  C69  1  0.43033802  0.28098676  0.03495727  1
  C  C70  1  0.85320916  0.57150129  0.02707263  1
  C  C71  1  0.71070856  0.13398515  0.02482135  1
  C  C72  1  0.44621138  0.14701861  0.52192327  1
  C  C73  1  0.70064628  0.54912101  0.53133832  1
  C  C74  1  0.86270897  0.31169975  0.52393032  1
  C  C75  1  0.51207180  0.66614281  0.97490964  1
  C  C76  1  0.15338799  0.48669637  0.97639968  1
  C  C77  1  0.33445797  0.84415486  0.97560046  1
  C  C78  1  0.54221822  0.84299017  0.47126085  1
  C  C79  1  0.30917663  0.47243346  0.46809634  1
  C  C80  1  0.16795388  0.69938339  0.46749919  1
  C  C81  1  0.15104684  0.65671109  0.35455904  1
  C  C82  1  0.50597967  0.85013344  0.35905865  1
  C  C83  1  0.33880019  0.48764764  0.35452077  1
  C  C84  1  0.14893741  0.48995778  0.86143609  1
  C  C85  1  0.33991026  0.84847366  0.86077045  1
  C  C86  1  0.51114418  0.65926968  0.85992641  1
  C  C87  1  0.03807120  0.83979555  0.40716043  1
  C  C88  1  0.81087661  0.96952373  0.40717158  1
  C  C89  1  0.15879860  0.19653359  0.41039477  1
  C  C90  1  0.02997873  0.20790807  0.92152344  1
  C  C91  1  0.17137572  0.95502217  0.92116820  1
  C  C92  1  0.78800603  0.82516013  0.92015164  1
  C  C93  1  0.99957948  0.18330813  0.58360245  1
  C  C94  1  0.16548890  0.99003641  0.58250602  1
  C  C95  1  0.80997401  0.82188046  0.58396189  1
  C  C96  1  0.99827270  0.83762910  0.09689930  1
  C  C97  1  0.83251221  0.01161589  0.09571633  1
  C  C98  1  0.17081147  0.17492903  0.09792467  1
  C  C99  1  0.66315762  0.16247638  0.75079537  1
  C  C100  1  0.49066443  0.34783027  0.74697087  1
  C  C101  1  0.84678694  0.51567890  0.74825171  1
  C  C102  1  0.69057184  0.54010742  0.25004321  1
  C  C103  1  0.85124524  0.31330165  0.25252697  1
  C  C104  1  0.45281630  0.15733277  0.25116449  1
  C  C105  1  0.63539629  0.50584164  0.91585957  1
  C  C106  1  0.87531161  0.37345866  0.91719699  1
  C  C107  1  0.49908479  0.12093035  0.91690908  1
  C  C108  1  0.64629117  0.12549434  0.41401992  1
  C  C109  1  0.47882744  0.35151192  0.41098542  1
  C  C110  1  0.88316375  0.51187106  0.41238657  1
  C  C111  1  0.33751148  0.49368415  0.07447535  1
  C  C112  1  0.17287662  0.67143111  0.07454504  1
  C  C113  1  0.51447572  0.83616467  0.07297511  1
  C  C114  1  0.34784184  0.82979995  0.56775581  1
  C  C115  1  0.48970557  0.64233796  0.56850748  1
  C  C116  1  0.16104895  0.50414189  0.56737364  1
  C  C117  1  0.29703422  0.82895563  0.25815888  1
  C  C118  1  0.52427069  0.69542936  0.25823351  1
  C  C119  1  0.17172149  0.46839732  0.25479781  1
  C  C120  1  0.31325160  0.48930319  0.76253164  1
  C  C121  1  0.16657830  0.67076759  0.76236295  1
  C  C122  1  0.49478722  0.81964758  0.76194503  1
