# generated using pymatgen
data_Cu2NiC6
_symmetry_space_group_name_H-M   'P 1'
_cell_length_a   5.74181000
_cell_length_b   5.74181000
_cell_length_c   16.40590600
_cell_angle_alpha   90.00000000
_cell_angle_beta   90.00000000
_cell_angle_gamma   90.00000000
_symmetry_Int_Tables_number   1
_chemical_formula_structural   Cu2NiC6
_chemical_formula_sum   'Cu8 Ni4 C24'
_cell_volume   540.87617731
_cell_formula_units_Z   4
loop_
 _symmetry_equiv_pos_site_id
 _symmetry_equiv_pos_as_xyz
  1  'x, y, z'
loop_
 _atom_site_type_symbol
 _atom_site_label
 _atom_site_symmetry_multiplicity
 _atom_site_fract_x
 _atom_site_fract_y
 _atom_site_fract_z
 _atom_site_occupancy
  Ni  Ni0  1  0.75000000  0.25000000  0.25000000  1
  Ni  Ni1  1  0.25000000  0.25000000  0.75000000  1
  Ni  Ni2  1  0.75000000  0.75000000  0.75000000  1
  Ni  Ni3  1  0.25000000  0.75000000  0.25000000  1
  Cu  Cu4  1  0.26184300  0.76184300  0.59278400  1
  Cu  Cu5  1  0.73815700  0.23815700  0.59278400  1
  Cu  Cu6  1  0.76184300  0.26184300  0.90721600  1
  Cu  Cu7  1  0.26184300  0.23815700  0.09278400  1
  Cu  Cu8  1  0.73815700  0.76184300  0.09278400  1
  Cu  Cu9  1  0.23815700  0.26184300  0.40721600  1
  Cu  Cu10  1  0.76184300  0.73815700  0.40721600  1
  Cu  Cu11  1  0.23815700  0.73815700  0.90721600  1
  C  C12  1  0.00000000  0.50000000  0.50833100  1
  C  C13  1  0.00000000  0.50000000  0.00833100  1
  C  C14  1  0.50000000  0.00000000  0.49166900  1
  C  C15  1  0.50000000  0.00000000  0.99166900  1
  C  C16  1  0.00000000  0.00000000  0.00000000  1
  C  C17  1  0.50000000  0.50000000  0.50000000  1
  C  C18  1  0.50000000  0.50000000  0.00000000  1
  C  C19  1  0.00000000  0.00000000  0.50000000  1
  C  C20  1  0.00000000  0.50000000  0.71019000  1
  C  C21  1  0.00000000  0.50000000  0.21019000  1
  C  C22  1  0.50000000  0.00000000  0.28981000  1
  C  C23  1  0.50000000  0.00000000  0.78981000  1
  C  C24  1  0.31311600  0.81311600  0.13056300  1
  C  C25  1  0.68688400  0.81311600  0.63056300  1
  C  C26  1  0.31311600  0.18688400  0.63056300  1
  C  C27  1  0.81311600  0.68688400  0.86943700  1
  C  C28  1  0.18688400  0.31311600  0.86943700  1
  C  C29  1  0.68688400  0.18688400  0.13056300  1
  C  C30  1  0.81311600  0.31311600  0.36943700  1
  C  C31  1  0.18688400  0.68688400  0.36943700  1
  C  C32  1  0.00000000  0.00000000  0.75000000  1
  C  C33  1  0.50000000  0.50000000  0.25000000  1
  C  C34  1  0.50000000  0.50000000  0.75000000  1
  C  C35  1  0.00000000  0.00000000  0.25000000  1
