# generated using pymatgen
data_Cu2Ni4C
_symmetry_space_group_name_H-M   'P 1'
_cell_length_a   7.30161936
_cell_length_b   7.30161936
_cell_length_c   4.08469000
_cell_angle_alpha   90.00000000
_cell_angle_beta   90.00000000
_cell_angle_gamma   146.96339836
_symmetry_Int_Tables_number   1
_chemical_formula_structural   Cu2Ni4C
_chemical_formula_sum   'Cu2 Ni4 C1'
_cell_volume   118.72253460
_cell_formula_units_Z   1
loop_
 _symmetry_equiv_pos_site_id
 _symmetry_equiv_pos_as_xyz
  1  'x, y, z'
loop_
 _atom_site_type_symbol
 _atom_site_label
 _atom_site_symmetry_multiplicity
 _atom_site_fract_x
 _atom_site_fract_y
 _atom_site_fract_z
 _atom_site_occupancy
  C  C0  1  0.00000000  0.00000000  0.00000000  1
  Ni  Ni1  1  0.18604500  0.81395500  0.50000000  1
  Ni  Ni2  1  0.30534900  0.69465100  0.00000000  1
  Ni  Ni3  1  0.81395500  0.18604500  0.50000000  1
  Ni  Ni4  1  0.69465100  0.30534900  0.00000000  1
  Cu  Cu5  1  0.41294200  0.58705800  0.50000000  1
  Cu  Cu6  1  0.58705800  0.41294200  0.50000000  1
