# generated using pymatgen
data_Cu2NiC6
_symmetry_space_group_name_H-M   'P 1'
_cell_length_a   6.29164746
_cell_length_b   5.47973590
_cell_length_c   6.64010587
_cell_angle_alpha   114.31221805
_cell_angle_beta   118.03334328
_cell_angle_gamma   90.09782335
_symmetry_Int_Tables_number   1
_chemical_formula_structural   Cu2NiC6
_chemical_formula_sum   'Cu2 Ni1 C6'
_cell_volume   178.64400205
_cell_formula_units_Z   1
loop_
 _symmetry_equiv_pos_site_id
 _symmetry_equiv_pos_as_xyz
  1  'x, y, z'
loop_
 _atom_site_type_symbol
 _atom_site_label
 _atom_site_symmetry_multiplicity
 _atom_site_fract_x
 _atom_site_fract_y
 _atom_site_fract_z
 _atom_site_occupancy
  C  C0  1  0.99986700  0.50012500  0.99954600  1
  Ni  Ni1  1  0.00000500  0.99984800  0.00008900  1
  Cu  Cu2  1  0.27033400  0.77045900  0.54022600  1
  Cu  Cu3  1  0.72927600  0.23031100  0.45922000  1
  C  C4  1  0.50052000  0.49836700  0.00088700  1
  C  C5  1  0.06546200  0.07948100  0.71650000  1
  C  C6  1  0.34906000  0.92021200  0.28122800  1
  C  C7  1  0.93493500  0.36261700  0.28348400  1
  C  C8  1  0.65054200  0.63857700  0.71881900  1
