# generated using pymatgen
data_CuNiC11
_symmetry_space_group_name_H-M   'P 1'
_cell_length_a   2.99042408
_cell_length_b   2.99343669
_cell_length_c   20.04814257
_cell_angle_alpha   89.85357116
_cell_angle_beta   95.35474240
_cell_angle_gamma   58.73465245
_symmetry_Int_Tables_number   1
_chemical_formula_structural   CuNiC11
_chemical_formula_sum   'Cu1 Ni1 C11'
_cell_volume   152.45701401
_cell_formula_units_Z   1
loop_
 _symmetry_equiv_pos_site_id
 _symmetry_equiv_pos_as_xyz
  1  'x, y, z'
loop_
 _atom_site_type_symbol
 _atom_site_label
 _atom_site_symmetry_multiplicity
 _atom_site_fract_x
 _atom_site_fract_y
 _atom_site_fract_z
 _atom_site_occupancy
  Ni  Ni0  1  0.50732191  0.21999920  0.62123583  1
  Cu  Cu1  1  0.99858032  0.00113590  0.00237772  1
  C  C2  1  0.50287238  0.49618781  0.25097111  1
  C  C3  1  0.10086162  0.99195893  0.49287119  1
  C  C4  1  0.39704661  0.67007973  0.76438869  1
  C  C5  1  0.13150825  0.18394492  0.20652809  1
  C  C6  1  0.70714620  0.64695531  0.04963049  1
  C  C7  1  0.22362671  0.86453084  0.67556913  1
  C  C8  1  0.40500715  0.35145984  0.45145697  1
  C  C9  1  0.87414249  0.80851630  0.29529041  1
  C  C10  1  0.77878069  0.58011838  0.55855861  1
  C  C11  1  0.28961045  0.35576055  0.95491119  1
  C  C12  1  0.75016222  0.99601931  0.80287756  1
