# generated using pymatgen
data_CuNiC11
_symmetry_space_group_name_H-M   'P 1'
_cell_length_a   5.86135011
_cell_length_b   5.88683990
_cell_length_c   5.97455303
_cell_angle_alpha   59.43474680
_cell_angle_beta   121.18427568
_cell_angle_gamma   119.13894678
_symmetry_Int_Tables_number   1
_chemical_formula_structural   CuNiC11
_chemical_formula_sum   'Cu1 Ni1 C11'
_cell_volume   144.69142461
_cell_formula_units_Z   1
loop_
 _symmetry_equiv_pos_site_id
 _symmetry_equiv_pos_as_xyz
  1  'x, y, z'
loop_
 _atom_site_type_symbol
 _atom_site_label
 _atom_site_symmetry_multiplicity
 _atom_site_fract_x
 _atom_site_fract_y
 _atom_site_fract_z
 _atom_site_occupancy
  Ni  Ni0  1  0.88359500  0.13238300  0.61943400  1
  Cu  Cu1  1  0.49662000  0.50325800  0.49264800  1
  C  C2  1  0.49826000  0.50696100  0.99528000  1
  C  C3  1  0.50398400  0.99359100  0.00268000  1
  C  C4  1  0.00446300  0.49960200  0.00179500  1
  C  C5  1  0.73761100  0.71498000  0.75118600  1
  C  C6  1  0.74932900  0.27200100  0.76159800  1
  C  C7  1  0.23849400  0.71413200  0.79642900  1
  C  C8  1  0.29165300  0.26413800  0.75068100  1
  C  C9  1  0.70725500  0.73521500  0.25135500  1
  C  C10  1  0.75325500  0.27841000  0.20781000  1
  C  C11  1  0.24424600  0.71896000  0.23025000  1
  C  C12  1  0.26028300  0.29732000  0.24302100  1
