# generated using pymatgen
data_Cu2Ni5C32
_symmetry_space_group_name_H-M   'P 1'
_cell_length_a   18.32931364
_cell_length_b   9.13627148
_cell_length_c   22.36241642
_cell_angle_alpha   89.88571203
_cell_angle_beta   90.14964262
_cell_angle_gamma   120.02941830
_symmetry_Int_Tables_number   1
_chemical_formula_structural   Cu2Ni5C32
_chemical_formula_sum   'Cu12 Ni30 C192'
_cell_volume   3242.15762064
_cell_formula_units_Z   6
loop_
 _symmetry_equiv_pos_site_id
 _symmetry_equiv_pos_as_xyz
  1  'x, y, z'
loop_
 _atom_site_type_symbol
 _atom_site_label
 _atom_site_symmetry_multiplicity
 _atom_site_fract_x
 _atom_site_fract_y
 _atom_site_fract_z
 _atom_site_occupancy
  Ni  Ni0  1  0.82164890  0.98027494  0.24478037  1
  Ni  Ni1  1  0.68033188  0.36491988  0.24993731  1
  Ni  Ni2  1  0.99685624  0.65746850  0.25901045  1
  Ni  Ni3  1  0.49410664  0.61787597  0.24635379  1
  Ni  Ni4  1  0.32356088  0.66831245  0.74315425  1
  Ni  Ni5  1  0.82285691  0.66749570  0.74361836  1
  Ni  Ni6  1  0.98903334  0.33184037  0.75644143  1
  Ni  Ni7  1  0.48884192  0.33163840  0.75671682  1
  Ni  Ni8  1  0.18326339  0.00078824  0.75015803  1
  Ni  Ni9  1  0.68291209  0.99944379  0.74975619  1
  Ni  Ni10  1  0.33489234  0.97519682  0.58730982  1
  Ni  Ni11  1  0.83168840  0.96937074  0.59083421  1
  Ni  Ni12  1  0.15719025  0.97016483  0.07939559  1
  Ni  Ni13  1  0.83241891  0.69258996  0.09255510  1
  Ni  Ni14  1  0.34748502  0.02581427  0.91287037  1
  Ni  Ni15  1  0.84711411  0.02590536  0.90853989  1
  Ni  Ni16  1  0.17277932  0.03630571  0.41946329  1
  Ni  Ni17  1  0.85024441  0.66766790  0.40737120  1
  Ni  Ni18  1  0.00904111  0.02791758  0.49912946  1
  Ni  Ni19  1  0.51027331  0.99725313  0.49279729  1
  Ni  Ni20  1  0.00996432  0.02150208  0.00099489  1
  Ni  Ni21  1  0.50912111  0.99584290  0.00828900  1
  Ni  Ni22  1  0.33349280  0.33416723  0.83731364  1
  Ni  Ni23  1  0.83310223  0.33291538  0.83670597  1
  Ni  Ni24  1  0.33409841  0.33557371  0.33320259  1
  Ni  Ni25  1  0.83243598  0.33568906  0.33573568  1
  Ni  Ni26  1  0.18710334  0.65545971  0.16959300  1
  Ni  Ni27  1  0.66115484  0.65514622  0.16337433  1
  Ni  Ni28  1  0.16715667  0.66616886  0.66295966  1
  Ni  Ni29  1  0.66553928  0.66694679  0.66254156  1
  Cu  Cu30  1  0.00289568  0.00821603  0.34883800  1
  Cu  Cu31  1  0.00116452  0.00040228  0.85530554  1
  Cu  Cu32  1  0.50082936  0.00151433  0.85547525  1
  Cu  Cu33  1  0.99973797  0.99772977  0.64471603  1
  Cu  Cu34  1  0.49935665  0.99842217  0.64480131  1
  Cu  Cu35  1  0.00319157  0.01290124  0.15201313  1
  Cu  Cu36  1  0.33584038  0.33726371  0.67443491  1
  Cu  Cu37  1  0.83352313  0.33145072  0.67424780  1
  Cu  Cu38  1  0.83279436  0.33456190  0.17803192  1
  Cu  Cu39  1  0.66253756  0.66411284  0.32230762  1
  Cu  Cu40  1  0.16767921  0.66329317  0.82568059  1
  Cu  Cu41  1  0.66597383  0.66430282  0.82567942  1
  C  C42  1  0.49166388  0.99450593  0.34992268  1
  C  C43  1  0.48837342  0.98830169  0.15028343  1
  C  C44  1  0.33274450  0.33042025  0.17967077  1
  C  C45  1  0.34225789  0.34412551  0.99001371  1
  C  C46  1  0.82869926  0.33375152  0.98846677  1
  C  C47  1  0.33698573  0.34802407  0.48208264  1
  C  C48  1  0.83121457  0.33028051  0.48532069  1
  C  C49  1  0.16660816  0.65586666  0.01667025  1
  C  C50  1  0.65810119  0.66293568  0.01908913  1
  C  C51  1  0.17017986  0.66358244  0.51099450  1
  C  C52  1  0.65858036  0.65882797  0.50848011  1
  C  C53  1  0.17518185  0.66462287  0.31854248  1
  C  C54  1  0.84239601  0.68912221  0.24998711  1
  C  C55  1  0.34357411  0.00006944  0.75005100  1
  C  C56  1  0.84377024  0.99918723  0.75021602  1
  C  C57  1  0.16361157  0.00157050  0.24988161  1
  C  C58  1  0.63621659  0.99425161  0.24932499  1
  C  C59  1  0.35112416  0.69692073  0.25066084  1
  C  C60  1  0.00804789  0.32722466  0.25216526  1
  C  C61  1  0.49263850  0.28078467  0.24825688  1
  C  C62  1  0.15308821  0.30468095  0.74884030  1
  C  C63  1  0.65341770  0.30592581  0.74894648  1
  C  C64  1  0.00038990  0.69401894  0.75080138  1
  C  C65  1  0.50051529  0.69430173  0.75108088  1
  C  C66  1  0.48897227  0.34393670  0.57764888  1
  C  C67  1  0.98992735  0.34620582  0.57870683  1
  C  C68  1  0.18227956  0.01985656  0.57313530  1
  C  C69  1  0.67965712  0.01262668  0.57842888  1
  C  C70  1  0.32724337  0.63968238  0.57925005  1
  C  C71  1  0.82818054  0.63987543  0.57454763  1
  C  C72  1  0.48487095  0.63965511  0.08936358  1
  C  C73  1  0.99110761  0.63783314  0.08019426  1
  C  C74  1  0.33368855  0.03319678  0.08194551  1
  C  C75  1  0.82927656  0.01641047  0.07860121  1
  C  C76  1  0.19187892  0.34268352  0.08206665  1
  C  C77  1  0.67495050  0.33420610  0.08172468  1
  C  C78  1  0.31886932  0.65661491  0.92178738  1
  C  C79  1  0.81767526  0.65611582  0.92473582  1
  C  C80  1  0.00772427  0.36065970  0.92181363  1
  C  C81  1  0.50817131  0.36207777  0.92212525  1
  C  C82  1  0.17387545  0.98347308  0.92570195  1
  C  C83  1  0.67262027  0.98198260  0.92260876  1
  C  C84  1  0.31694385  0.96744769  0.41689896  1
  C  C85  1  0.81833542  0.97700293  0.42157618  1
  C  C86  1  0.17413793  0.37227363  0.41799960  1
  C  C87  1  0.66779901  0.35447518  0.41757828  1
  C  C88  1  0.01949341  0.66413883  0.41635559  1
  C  C89  1  0.50649610  0.66778711  0.41448445  1
  C  C90  1  0.12392805  0.02189074  0.30483155  1
  C  C91  1  0.59914683  0.02395566  0.30346929  1
  C  C92  1  0.40544143  0.78120628  0.30311032  1
  C  C93  1  0.89736112  0.78270834  0.31031317  1
  C  C94  1  0.48506729  0.18556968  0.30360204  1
  C  C95  1  0.00100838  0.22451882  0.30484722  1
  C  C96  1  0.11619381  0.19735359  0.80224227  1
  C  C97  1  0.61691102  0.19827653  0.80232293  1
  C  C98  1  0.49926875  0.78372778  0.80529807  1
  C  C99  1  0.99909508  0.78356747  0.80505535  1
  C  C100  1  0.39838645  0.01581738  0.81044478  1
  C  C101  1  0.89853154  0.01406661  0.81056736  1
  C  C102  1  0.39025199  0.98471661  0.68964213  1
  C  C103  1  0.89058048  0.98345416  0.68978134  1
  C  C104  1  0.10694343  0.21470806  0.69467233  1
  C  C105  1  0.60738952  0.21651600  0.69475335  1
  C  C106  1  0.01733784  0.80193814  0.69753048  1
  C  C107  1  0.51685908  0.80128885  0.69768519  1
  C  C108  1  0.38688715  0.79674604  0.19537043  1
  C  C109  1  0.89160485  0.79984365  0.19033005  1
  C  C110  1  0.01996007  0.25376694  0.19701483  1
  C  C111  1  0.50224126  0.19794492  0.19467815  1
  C  C112  1  0.10907946  0.97867687  0.19702982  1
  C  C113  1  0.58891098  0.98863596  0.19504824  1
  C  C114  1  0.45876801  0.35759073  0.63807869  1
  C  C115  1  0.95767081  0.35439612  0.63902275  1
  C  C116  1  0.22714357  0.10062051  0.62964495  1
  C  C117  1  0.72069066  0.08306390  0.63741669  1
  C  C118  1  0.32750671  0.57075348  0.63945560  1
  C  C119  1  0.82851527  0.56122905  0.63258457  1
  C  C120  1  0.44537221  0.54340042  0.14561060  1
  C  C121  1  0.95699412  0.55935015  0.13911583  1
  C  C122  1  0.32126356  0.12506088  0.13219770  1
  C  C123  1  0.82780449  0.09281208  0.13689473  1
  C  C124  1  0.23847561  0.36049212  0.13863049  1
  C  C125  1  0.72215791  0.35740777  0.13886926  1
  C  C126  1  0.23631047  0.32451978  0.03007996  1
  C  C127  1  0.72321798  0.31764459  0.03174691  1
  C  C128  1  0.43322689  0.55079052  0.03653128  1
  C  C129  1  0.93259382  0.53510312  0.03205519  1
  C  C130  1  0.34331772  0.12584393  0.02496747  1
  C  C131  1  0.82972294  0.11955361  0.02773437  1
  C  C132  1  0.22979289  0.12446690  0.52077993  1
  C  C133  1  0.73163771  0.12783310  0.53017380  1
  C  C134  1  0.32407418  0.52652741  0.53164565  1
  C  C135  1  0.82984655  0.53990967  0.52305775  1
  C  C136  1  0.42770032  0.33114096  0.53171209  1
  C  C137  1  0.93082782  0.34023566  0.53214939  1
  C  C138  1  0.26425732  0.66875052  0.96815333  1
  C  C139  1  0.76558113  0.66161169  0.97412578  1
  C  C140  1  0.06232722  0.46980727  0.97010702  1
  C  C141  1  0.56279725  0.47189155  0.97007602  1
  C  C142  1  0.16964653  0.87837932  0.97781893  1
  C  C143  1  0.66966254  0.86932830  0.97118143  1
  C  C144  1  0.28109825  0.87538382  0.47398320  1
  C  C145  1  0.76699220  0.86647937  0.47158220  1
  C  C146  1  0.17002882  0.45960711  0.47205283  1
  C  C147  1  0.65993015  0.45207281  0.46740106  1
  C  C148  1  0.07125117  0.66796250  0.46743463  1
  C  C149  1  0.56414544  0.68504383  0.46402768  1
  C  C150  1  0.05653372  0.65270054  0.35869635  1
  C  C151  1  0.53986375  0.64926953  0.35616823  1
  C  C152  1  0.25796427  0.87473931  0.36668466  1
  C  C153  1  0.77582057  0.90473438  0.36342122  1
  C  C154  1  0.17541888  0.46207012  0.36264594  1
  C  C155  1  0.67819191  0.44631683  0.36002676  1
  C  C156  1  0.04264493  0.43120737  0.86192553  1
  C  C157  1  0.54182479  0.43221408  0.86194710  1
  C  C158  1  0.17608455  0.90056420  0.86906914  1
  C  C159  1  0.67672212  0.91037239  0.86368134  1
  C  C160  1  0.28047459  0.64384965  0.86171195  1
  C  C161  1  0.77713977  0.64554171  0.86582826  1
  C  C162  1  0.01740882  0.82690612  0.41857674  1
  C  C163  1  0.49774095  0.82139425  0.41383622  1
  C  C164  1  0.40189965  0.98818647  0.40971752  1
  C  C165  1  0.90060461  0.97971801  0.42413289  1
  C  C166  1  0.10017975  0.19592590  0.41908124  1
  C  C167  1  0.59353615  0.18261925  0.41587111  1
  C  C168  1  -0.00143165  0.18932772  0.92774586  1
  C  C169  1  0.49758766  0.19030189  0.92837769  1
  C  C170  1  0.10032156  0.00914395  0.92767494  1
  C  C171  1  0.59923037  0.00682507  0.92654666  1
  C  C172  1  0.40166314  0.81703609  0.92574925  1
  C  C173  1  0.90060180  0.81723966  0.92760416  1
  C  C174  1  0.49311936  0.18516055  0.57393558  1
  C  C175  1  0.99134806  0.18395113  0.57397835  1
  C  C176  1  0.09622306  -0.00483961  0.57189834  1
  C  C177  1  0.59382974  -0.01166305  0.57553411  1
  C  C178  1  0.40330376  0.80982984  0.57175595  1
  C  C179  1  0.90361598  0.81268282  0.57026555  1
  C  C180  1  0.49366159  0.81122284  0.09134629  1
  C  C181  1  0.00006771  0.81072687  0.07738146  1
  C  C182  1  0.40839816  0.01251021  0.08867087  1
  C  C183  1  0.90541489  -0.00259816  0.07446430  1
  C  C184  1  0.10805043  0.18233621  0.08336331  1
  C  C185  1  0.58962392  0.18546149  0.08378433  1
  C  C186  1  0.33400534  0.17076112  0.74862531  1
  C  C187  1  0.83502477  0.17070770  0.74910323  1
  C  C188  1  0.24250936  0.34833226  0.74574543  1
  C  C189  1  0.74322564  0.35113514  0.74566495  1
  C  C190  1  0.41781928  0.53549826  0.74740055  1
  C  C191  1  0.91726415  0.53624852  0.74663111  1
  C  C192  1  0.34647298  0.52794846  0.24632269  1
  C  C193  1  0.83102709  0.49854060  0.24983455  1
  C  C194  1  0.41922350  0.30891796  0.24446440  1
  C  C195  1  0.92685040  0.32994770  0.24916669  1
  C  C196  1  0.24823514  0.15336929  0.24361470  1
  C  C197  1  0.72581180  0.13387675  0.24585714  1
  C  C198  1  0.33067810  0.50927015  0.92825529  1
  C  C199  1  0.83072203  0.50888427  0.92856639  1
  C  C200  1  0.42212947  0.34356366  0.92436606  1
  C  C201  1  0.92128381  0.33817015  0.92430098  1
  C  C202  1  0.25406588  0.14889595  0.92656960  1
  C  C203  1  0.75282346  0.14937757  0.92517973  1
  C  C204  1  0.32310233  0.13758528  0.41829292  1
  C  C205  1  0.83232276  0.15122053  0.42561500  1
  C  C206  1  0.25023431  0.35006696  0.41758881  1
  C  C207  1  0.74800889  0.34698789  0.42299378  1
  C  C208  1  0.42198047  0.51371448  0.42119672  1
  C  C209  1  0.93026726  0.52223763  0.41929947  1
  C  C210  1  0.17776747  0.48919456  0.07790825  1
  C  C211  1  0.67088747  0.49405139  0.07635053  1
  C  C212  1  0.07743336  0.66166585  0.07492349  1
  C  C213  1  0.57074256  0.65886801  0.08585177  1
  C  C214  1  0.25489651  0.86255394  0.08065912  1
  C  C215  1  0.75365075  0.84148253  0.07799617  1
  C  C216  1  0.17904888  0.85316426  0.57181796  1
  C  C217  1  0.67625964  0.84581688  0.57436751  1
  C  C218  1  0.25170583  0.66293968  0.57805513  1
  C  C219  1  0.75159922  0.65765963  0.57362519  1
  C  C220  1  0.07568935  0.49199120  0.57296296  1
  C  C221  1  0.57401204  0.49343965  0.57035983  1
  C  C222  1  0.16886254  0.84402451  0.25405359  1
  C  C223  1  0.63705183  0.83150729  0.25219753  1
  C  C224  1  0.26466273  0.67125011  0.25728635  1
  C  C225  1  0.74936186  0.67864137  0.24959032  1
  C  C226  1  0.07874663  0.50475445  0.25721621  1
  C  C227  1  0.57067953  0.45250279  0.25100245  1
  C  C228  1  0.14928408  0.46309610  0.75256659  1
  C  C229  1  0.64967159  0.46431660  0.75299475  1
  C  C230  1  0.06776968  0.64958987  0.75423848  1
  C  C231  1  0.56808231  0.65013521  0.75409399  1
  C  C232  1  0.24873716  0.82909660  0.75144948  1
  C  C233  1  0.74940111  0.82770497  0.75147285  1
