# generated using pymatgen
data_CuNiC
_symmetry_space_group_name_H-M   'P 1'
_cell_length_a   7.84202700
_cell_length_b   8.55612200
_cell_length_c   8.73142587
_cell_angle_alpha   63.20976868
_cell_angle_beta   90.00000000
_cell_angle_gamma   90.00000000
_symmetry_Int_Tables_number   1
_chemical_formula_structural   CuNiC
_chemical_formula_sum   'Cu4 Ni4 C4'
_cell_volume   522.97129315
_cell_formula_units_Z   4
loop_
 _symmetry_equiv_pos_site_id
 _symmetry_equiv_pos_as_xyz
  1  'x, y, z'
loop_
 _atom_site_type_symbol
 _atom_site_label
 _atom_site_symmetry_multiplicity
 _atom_site_fract_x
 _atom_site_fract_y
 _atom_site_fract_z
 _atom_site_occupancy
  Ni  Ni0  1  0.80405700  0.60550900  0.04020200  1
  Ni  Ni1  1  0.30405700  0.89449100  0.95979800  1
  Ni  Ni2  1  0.19594300  0.39449100  0.95979800  1
  Ni  Ni3  1  0.69594300  0.10550900  0.04020200  1
  Cu  Cu4  1  0.64466500  0.93036800  0.82679400  1
  Cu  Cu5  1  0.14466500  0.56963200  0.17320600  1
  Cu  Cu6  1  0.35533500  0.06963200  0.17320600  1
  Cu  Cu7  1  0.85533500  0.43036800  0.82679400  1
  C  C8  1  0.61152300  0.40292100  0.32561900  1
  C  C9  1  0.11152300  0.09707900  0.67438100  1
  C  C10  1  0.38847700  0.59707900  0.67438100  1
  C  C11  1  0.88847700  0.90292100  0.32561900  1
