# generated using pymatgen
data_Cu2NiC10
_symmetry_space_group_name_H-M   'P 1'
_cell_length_a   4.90639192
_cell_length_b   4.90639367
_cell_length_c   6.30402500
_cell_angle_alpha   90.00000000
_cell_angle_beta   90.00000000
_cell_angle_gamma   66.82734735
_symmetry_Int_Tables_number   1
_chemical_formula_structural   Cu2NiC10
_chemical_formula_sum   'Cu2 Ni1 C10'
_cell_volume   139.51175585
_cell_formula_units_Z   1
loop_
 _symmetry_equiv_pos_site_id
 _symmetry_equiv_pos_as_xyz
  1  'x, y, z'
loop_
 _atom_site_type_symbol
 _atom_site_label
 _atom_site_symmetry_multiplicity
 _atom_site_fract_x
 _atom_site_fract_y
 _atom_site_fract_z
 _atom_site_occupancy
  Ni  Ni0  1  0.32215500  0.32215500  0.75000000  1
  Cu  Cu1  1  0.99353100  0.99353100  0.48414500  1
  Cu  Cu2  1  0.99353100  0.99353100  0.01585600  1
  C  C3  1  0.35403200  0.35403000  0.25000000  1
  C  C4  1  0.65474800  0.65474800  0.75000000  1
  C  C5  1  0.75560400  0.75560500  0.54975200  1
  C  C6  1  0.69854000  0.22636000  0.25000000  1
  C  C7  1  0.22635900  0.69854100  0.25000000  1
  C  C8  1  0.30042400  0.76050500  0.75000000  1
  C  C9  1  0.75560400  0.75560500  0.95024800  1
  C  C10  1  0.24526300  0.24526400  0.45280300  1
  C  C11  1  0.76050500  0.30042400  0.75000000  1
  C  C12  1  0.24526300  0.24526400  0.04719600  1
