# generated using pymatgen
data_Cu3NiC14
_symmetry_space_group_name_H-M   'P 1'
_cell_length_a   3.89481740
_cell_length_b   3.89481705
_cell_length_c   18.99945370
_cell_angle_alpha   95.88303790
_cell_angle_beta   95.88303570
_cell_angle_gamma   90.00000547
_symmetry_Int_Tables_number   1
_chemical_formula_structural   Cu3NiC14
_chemical_formula_sum   'Cu3 Ni1 C14'
_cell_volume   285.17012715
_cell_formula_units_Z   1
loop_
 _symmetry_equiv_pos_site_id
 _symmetry_equiv_pos_as_xyz
  1  'x, y, z'
loop_
 _atom_site_type_symbol
 _atom_site_label
 _atom_site_symmetry_multiplicity
 _atom_site_fract_x
 _atom_site_fract_y
 _atom_site_fract_z
 _atom_site_occupancy
  C  C0  1  0.41443212  0.41443212  0.82886324  1
  C  C1  1  0.58556788  0.58556788  0.17113676  1
  Ni  Ni2  1  0.50000000  0.50000000  -0.00000000  1
  Cu  Cu3  1  0.85972136  0.85972136  0.71944372  1
  Cu  Cu4  1  0.14027864  0.14027864  0.28055628  1
  Cu  Cu5  1  -0.00000000  -0.00000000  -0.00000000  1
  C  C6  1  0.25599629  0.25599629  0.51199259  1
  C  C7  1  0.74400371  0.74400371  0.48800741  1
  C  C8  1  0.81588597  0.81588597  0.63177194  1
  C  C9  1  0.18411403  0.18411403  0.36822806  1
  C  C10  1  0.87815232  0.37815232  0.75630464  1
  C  C11  1  0.37815232  0.87815232  0.75630464  1
  C  C12  1  0.12184768  0.62184768  0.24369536  1
  C  C13  1  0.62184768  0.12184768  0.24369536  1
  C  C14  1  0.94584959  0.94584959  0.89170019  1
  C  C15  1  0.50000000  -0.00000000  -0.00000000  1
  C  C16  1  -0.00000000  0.50000000  -0.00000000  1
  C  C17  1  0.05415041  0.05415041  0.10829981  1
