# generated using pymatgen
data_CuNi2C17
_symmetry_space_group_name_H-M   'P 1'
_cell_length_a   8.98748285
_cell_length_b   8.96546486
_cell_length_c   22.07098127
_cell_angle_alpha   90.19443912
_cell_angle_beta   90.02311855
_cell_angle_gamma   120.10304325
_symmetry_Int_Tables_number   1
_chemical_formula_structural   CuNi2C17
_chemical_formula_sum   'Cu6 Ni12 C102'
_cell_volume   1538.53540656
_cell_formula_units_Z   6
loop_
 _symmetry_equiv_pos_site_id
 _symmetry_equiv_pos_as_xyz
  1  'x, y, z'
loop_
 _atom_site_type_symbol
 _atom_site_label
 _atom_site_symmetry_multiplicity
 _atom_site_fract_x
 _atom_site_fract_y
 _atom_site_fract_z
 _atom_site_occupancy
  C  C0  1  0.99195683  0.36429331  0.75225804  1
  C  C1  1  0.39170930  0.01319967  0.74818806  1
  C  C2  1  0.31898584  0.33791835  0.58484548  1
  C  C3  1  0.03102825  0.70201707  0.57701805  1
  C  C4  1  0.65568706  0.96666214  0.58942111  1
  C  C5  1  0.32025647  0.97927108  0.08685695  1
  C  C6  1  0.65381179  0.68083530  0.08781038  1
  C  C7  1  0.02718275  0.34120256  0.08796112  1
  C  C8  1  0.33522339  0.29771375  0.92399826  1
  C  C9  1  0.95990457  0.28586380  0.41108376  1
  C  C10  1  0.32144660  0.03314519  0.41140385  1
  C  C11  1  0.71658799  0.68070695  0.41103229  1
  C  C12  1  0.00146846  0.99543827  0.49322229  1
  C  C13  1  0.99095816  0.98621893  0.99563066  1
  C  C14  1  0.66824557  0.33037573  0.83316181  1
  C  C15  1  0.66966421  0.33384218  0.32106727  1
  C  C16  1  0.33646471  0.66545153  0.16963884  1
  C  C17  1  0.36557726  0.67174295  0.66924735  1
  C  C18  1  0.00913764  0.02340605  0.85579997  1
  C  C19  1  0.99602630  0.00005724  0.64809926  1
  C  C20  1  0.00283218  0.00088578  0.14270537  1
  C  C21  1  0.67361435  0.31818816  0.98253666  1
  C  C22  1  0.65111326  0.33987715  0.47594766  1
  C  C23  1  0.31749659  0.66727945  0.02026480  1
  C  C24  1  0.34611703  0.67818918  0.51672876  1
  C  C25  1  0.33116590  0.66735209  0.31758155  1
  C  C26  1  0.33894492  0.67336736  0.81419641  1
  C  C27  1  0.00064894  0.99872929  0.35371110  1
  C  C28  1  0.63069803  0.31944489  0.68661301  1
  C  C29  1  0.66488949  0.33197343  0.17104031  1
  Ni  Ni30  1  0.29243179  0.29942745  0.75112956  1
  Ni  Ni31  1  0.70937691  0.99508119  0.75150503  1
  Ni  Ni32  1  0.37207685  0.03629395  0.58458839  1
  Ni  Ni33  1  0.66603177  0.62602849  0.58419693  1
  Ni  Ni34  1  0.95145794  0.61770073  0.08450012  1
  Ni  Ni35  1  0.66165373  0.03455757  0.08625862  1
  Ni  Ni36  1  0.37963139  0.33890338  0.08215946  1
  Ni  Ni37  1  0.03719857  0.38415173  0.91513498  1
  Ni  Ni38  1  0.33283004  0.95996365  0.91575049  1
  Ni  Ni39  1  0.62255405  0.96336626  0.41565747  1
  Ni  Ni40  1  0.33261563  0.38177678  0.41729476  1
  Ni  Ni41  1  0.04037194  0.65752262  0.41804034  1
  Cu  Cu42  1  0.29222411  0.99528915  0.25137109  1
  Cu  Cu43  1  0.70296795  0.70748655  0.25105691  1
  Cu  Cu44  1  0.00508025  0.29681835  0.25149048  1
  Cu  Cu45  1  0.00338339  0.71635619  0.75067735  1
  Cu  Cu46  1  0.96004111  0.33255659  0.58455002  1
  Cu  Cu47  1  0.62592146  0.66986001  0.91611034  1
  C  C48  1  0.20684313  0.00268586  0.30773627  1
  C  C49  1  0.79587936  0.79391803  0.30756032  1
  C  C50  1  0.99853261  0.20455630  0.30779925  1
  C  C51  1  0.18745544  0.18077188  0.81090969  1
  C  C52  1  0.99229313  0.80584586  0.80433714  1
  C  C53  1  0.83521356  0.00538090  0.80710796  1
  C  C54  1  0.80289704  0.97362586  0.68858602  1
  C  C55  1  0.16687558  0.18941139  0.69175790  1
  C  C56  1  0.01856305  0.81606824  0.69334947  1
  C  C57  1  0.80012865  0.81305871  0.19636490  1
  C  C58  1  0.01372955  0.19903079  0.19671230  1
  C  C59  1  0.18649906  0.98704337  0.19650913  1
  C  C60  1  0.88573489  0.35465877  0.64056912  1
  C  C61  1  0.49098175  0.09554204  0.64441845  1
  C  C62  1  0.62417609  0.49917306  0.64007370  1
  C  C63  1  0.89420959  0.49333678  0.14175151  1
  C  C64  1  0.59757679  0.10104002  0.14170932  1
  C  C65  1  0.50551360  0.39905119  0.13949392  1
  C  C66  1  0.45775089  0.28789588  0.02292802  1
  C  C67  1  0.81719164  0.52741534  0.02741524  1
  C  C68  1  0.71104604  0.16991776  0.02800248  1
  C  C69  1  0.47223033  0.16929634  0.52670590  1
  C  C70  1  0.69795974  0.53669225  0.52242395  1
  C  C71  1  0.85549574  0.31213546  0.52991095  1
  C  C72  1  0.54846557  0.68896843  0.97248155  1
  C  C73  1  0.16194210  0.47339570  0.97380032  1
  C  C74  1  0.31736583  0.84227391  0.97450066  1
  C  C75  1  0.53100899  0.84340402  0.47625428  1
  C  C76  1  0.31237269  0.47247706  0.47856867  1
  C  C77  1  0.15943827  0.68132250  0.47751132  1
  C  C78  1  0.13865552  0.62735694  0.35927476  1
  C  C79  1  0.48818680  0.86408955  0.35878547  1
  C  C80  1  0.37021412  0.51369164  0.35969180  1
  C  C81  1  0.14210295  0.49777267  0.85513498  1
  C  C82  1  0.35320574  0.86079542  0.85528137  1
  C  C83  1  0.51322845  0.65300804  0.86268442  1
  C  C84  1  0.02028761  0.82620929  0.41398135  1
  C  C85  1  0.80942775  0.98098202  0.41268670  1
  C  C86  1  0.16953561  0.19057310  0.41314549  1
  C  C87  1  0.02186574  0.19071415  0.91179273  1
  C  C88  1  0.15963522  0.97895496  0.91133768  1
  C  C89  1  0.79985573  0.82109528  0.91037318  1
  C  C90  1  0.97459766  0.17091568  0.58548725  1
  C  C91  1  0.18212553  0.02384239  0.58906548  1
  C  C92  1  0.84160931  0.81970361  0.58770310  1
  C  C93  1  0.97461684  0.81416047  0.09324137  1
  C  C94  1  0.84013774  0.02249058  0.09442009  1
  C  C95  1  0.18405235  0.16109860  0.09371335  1
  C  C96  1  0.70375591  0.17241893  0.75127995  1
  C  C97  1  0.47196400  0.30263000  0.75350084  1
  C  C98  1  0.85866494  0.53977163  0.74698242  1
  C  C99  1  0.68291010  0.53496154  0.24845133  1
  C  C100  1  0.85327676  0.31673442  0.24872602  1
  C  C101  1  0.46431955  0.14754886  0.24890686  1
  C  C102  1  0.63132228  0.50771998  0.91587582  1
  C  C103  1  0.84842226  0.36525813  0.92144268  1
  C  C104  1  0.50207804  0.15405295  0.92071694  1
  C  C105  1  0.63330992  0.14935996  0.42311838  1
  C  C106  1  0.51102996  0.37057079  0.42005810  1
  C  C107  1  0.85327757  0.48015523  0.42294001  1
  C  C108  1  0.33821540  0.49550449  0.07132779  1
  C  C109  1  0.15241311  0.66271698  0.07336398  1
  C  C110  1  0.50846794  0.83850299  0.07157164  1
  C  C111  1  0.33588762  0.83779314  0.57516367  1
  C  C112  1  0.49847924  0.65466642  0.57783743  1
  C  C113  1  0.13852858  0.48290515  0.58019543  1
  C  C114  1  0.29847727  0.83040371  0.24993402  1
  C  C115  1  0.53150289  0.69965235  0.25023091  1
  C  C116  1  0.16925840  0.46918145  0.25034756  1
  C  C117  1  0.29427048  0.48293648  0.75275354  1
  C  C118  1  0.16893147  0.71081440  0.75043143  1
  C  C119  1  0.51446622  0.82576850  0.75591621  1
