# generated using pymatgen
data_Cu2NiC16
_symmetry_space_group_name_H-M   'P 1'
_cell_length_a   8.91305568
_cell_length_b   8.90913309
_cell_length_c   22.91421709
_cell_angle_alpha   90.03276721
_cell_angle_beta   89.86905911
_cell_angle_gamma   119.78722141
_symmetry_Int_Tables_number   1
_chemical_formula_structural   Cu2NiC16
_chemical_formula_sum   'Cu12 Ni6 C96'
_cell_volume   1579.15106802
_cell_formula_units_Z   6
loop_
 _symmetry_equiv_pos_site_id
 _symmetry_equiv_pos_as_xyz
  1  'x, y, z'
loop_
 _atom_site_type_symbol
 _atom_site_label
 _atom_site_symmetry_multiplicity
 _atom_site_fract_x
 _atom_site_fract_y
 _atom_site_fract_z
 _atom_site_occupancy
  C  C0  1  0.99992071  0.63231661  0.25035150  1
  C  C1  1  0.36783067  0.00000661  0.74983122  1
  C  C2  1  0.66483813  0.96860402  0.58507882  1
  C  C3  1  0.03113639  0.33563915  0.08526204  1
  C  C4  1  0.97304065  0.66945158  0.91845581  1
  C  C5  1  0.33033541  0.02756809  0.41861874  1
  C  C6  1  0.00301056  0.99776023  0.50025081  1
  C  C7  1  0.00299929  0.99680234  0.00067421  1
  C  C8  1  0.66469962  0.32709103  0.83312657  1
  C  C9  1  0.67223733  0.33451793  0.33424521  1
  C  C10  1  0.34271477  0.67017914  0.16667129  1
  C  C11  1  0.32899274  0.65746618  0.66607700  1
  C  C12  1  0.99841694  0.00682579  0.85262944  1
  C  C13  1  0.66687744  0.32998603  0.18654545  1
  C  C14  1  0.66021004  0.32962518  0.98115767  1
  C  C15  1  0.33432977  0.67454557  0.01970863  1
  C  C16  1  0.32921799  0.65857867  0.31394477  1
  C  C17  1  0.34164128  0.67028924  0.81333947  1
  Ni  Ni18  1  -0.00004398  0.28711796  0.24927877  1
  Ni  Ni19  1  0.71089577  0.00310593  0.74742847  1
  Ni  Ni20  1  0.37212909  0.04234004  0.58260791  1
  Ni  Ni21  1  0.95790954  0.63023646  0.08343063  1
  Ni  Ni22  1  0.33552372  0.96307249  0.91531559  1
  Ni  Ni23  1  0.03504478  0.66372127  0.41605956  1
  C  C24  1  0.99311080  0.99939490  0.35264034  1
  C  C25  1  0.00394474  0.99976773  0.64782746  1
  C  C26  1  0.00106864  0.99701296  0.14821159  1
  C  C27  1  0.67042614  0.33543054  0.68478331  1
  C  C28  1  0.67039846  0.33894452  0.48157675  1
  C  C29  1  0.32654027  0.66560187  0.51841424  1
  Cu  Cu30  1  0.29150619  0.00210110  0.25147973  1
  Cu  Cu31  1  0.70920690  0.71130301  0.24975488  1
  Cu  Cu32  1  0.29062183  0.29147697  0.74877026  1
  Cu  Cu33  1  0.99565639  0.70566990  0.75022694  1
  Cu  Cu34  1  0.96017812  0.33526892  0.58335588  1
  Cu  Cu35  1  0.66595910  0.62405270  0.58346405  1
  Cu  Cu36  1  0.66682036  0.04103298  0.08399575  1
  Cu  Cu37  1  0.37459610  0.33200098  0.08440280  1
  Cu  Cu38  1  0.62387804  0.66653829  0.91689900  1
  Cu  Cu39  1  0.04473311  0.37665064  0.91756288  1
  Cu  Cu40  1  0.62530431  0.95664190  0.41773338  1
  Cu  Cu41  1  0.33338648  0.37545324  0.41769269  1
  C  C42  1  0.21301751  0.03113757  0.30758645  1
  C  C43  1  0.82758008  0.78477746  0.30386647  1
  C  C44  1  0.96418321  0.16946535  0.30702062  1
  C  C45  1  0.20860007  0.17254348  0.80237282  1
  C  C46  1  0.97087925  0.79010403  0.80546755  1
  C  C47  1  0.82960757  0.03013857  0.80417782  1
  C  C48  1  0.79015914  0.96808259  0.68783163  1
  C  C49  1  0.18109783  0.21195421  0.69381638  1
  C  C50  1  0.03941760  0.82497331  0.69620608  1
  C  C51  1  0.78907730  0.82236119  0.19478315  1
  C  C52  1  0.03405628  0.20975938  0.18885479  1
  C  C53  1  0.17187396  0.95852403  0.19764242  1
  C  C54  1  0.88267562  0.37079030  0.63833287  1
  C  C55  1  0.49444914  0.12194738  0.64090645  1
  C  C56  1  0.63525999  0.51380186  0.63866174  1
  C  C57  1  0.87080801  0.50656341  0.14067192  1
  C  C58  1  0.63766132  0.12500096  0.13803834  1
  C  C59  1  0.48480261  0.35641637  0.13822382  1
  C  C60  1  0.45930805  0.30350823  0.02986548  1
  C  C61  1  0.84427068  0.53961612  0.02481849  1
  C  C62  1  0.69831938  0.15806507  0.03021026  1
  C  C63  1  0.45742036  0.15629255  0.52316004  1
  C  C64  1  0.70094971  0.54692171  0.52862900  1
  C  C65  1  0.84258040  0.29609352  0.52925952  1
  C  C66  1  0.53913832  0.69263171  0.97101905  1
  C  C67  1  0.15281764  0.45715227  0.97317921  1
  C  C68  1  0.29891885  0.83458791  0.97104355  1
  C  C69  1  0.54988817  0.84980566  0.47452802  1
  C  C70  1  0.30357140  0.45592689  0.47286027  1
  C  C71  1  0.16423606  0.71143012  0.47214526  1
  C  C72  1  0.12593803  0.63849270  0.35772702  1
  C  C73  1  0.50756923  0.87000667  0.36466605  1
  C  C74  1  0.36201566  0.48879955  0.36357752  1
  C  C75  1  0.12980616  0.49299601  0.86402626  1
  C  C76  1  0.35958090  0.87090541  0.85713245  1
  C  C77  1  0.51167505  0.63725861  0.86258414  1
  C  C78  1  0.02925855  0.84605022  0.40995323  1
  C  C79  1  0.80699937  0.97748714  0.41222509  1
  C  C80  1  0.17403695  0.19151550  0.41147307  1
  C  C81  1  0.02360387  0.19553947  0.91083385  1
  C  C82  1  0.15572225  0.96904257  0.90963088  1
  C  C83  1  0.80695038  0.82539541  0.90969160  1
  C  C84  1  0.96844693  0.16544150  0.58901653  1
  C  C85  1  0.18050338  0.02140617  0.58847961  1
  C  C86  1  0.82458469  0.80941477  0.58876933  1
  C  C87  1  0.97887362  0.82185297  0.08889650  1
  C  C88  1  0.83650112  0.03324927  0.08891255  1
  C  C89  1  0.18936065  0.17229685  0.08836914  1
  C  C90  1  0.68241115  0.17234459  0.74486098  1
  C  C91  1  0.47105961  0.30495155  0.74361412  1
  C  C92  1  0.83176548  0.52748475  0.74330090  1
  C  C93  1  0.69345971  0.53107061  0.24257636  1
  C  C94  1  0.83281020  0.31695995  0.24433574  1
  C  C95  1  0.46939545  0.16258338  0.24341283  1
  C  C96  1  0.65084230  0.50811388  0.92259743  1
  C  C97  1  0.86581600  0.36487248  0.92396432  1
  C  C98  1  0.50583597  0.15130188  0.92247329  1
  C  C99  1  0.63362396  0.13540966  0.42267857  1
  C  C100  1  0.49376842  0.35029220  0.42181379  1
  C  C101  1  0.84595590  0.49113330  0.42203628  1
  C  C102  1  0.35166049  0.49167710  0.07707220  1
  C  C103  1  0.14480239  0.63541013  0.07788698  1
  C  C104  1  0.50864422  0.86015538  0.07701103  1
  C  C105  1  0.36763516  0.85427067  0.57804706  1
  C  C106  1  0.50392183  0.64617842  0.57689565  1
  C  C107  1  0.14248119  0.49439043  0.57712415  1
  C  C108  1  0.30793890  0.83715873  0.25768059  1
  C  C109  1  0.53010014  0.69355723  0.25758610  1
  C  C110  1  0.16800596  0.48341598  0.25500124  1
  C  C111  1  0.30868785  0.47062381  0.75682312  1
  C  C112  1  0.15972741  0.68840457  0.75698756  1
  C  C113  1  0.51565339  0.83422464  0.75419390  1
