# generated using pymatgen
data_Cu2NiC10
_symmetry_space_group_name_H-M   'P 1'
_cell_length_a   5.22122102
_cell_length_b   6.30081990
_cell_length_c   5.49766000
_cell_angle_alpha   90.00000000
_cell_angle_beta   79.21380110
_cell_angle_gamma   90.00000000
_symmetry_Int_Tables_number   1
_chemical_formula_structural   Cu2NiC10
_chemical_formula_sum   'Cu2 Ni1 C10'
_cell_volume   177.66646912
_cell_formula_units_Z   1
loop_
 _symmetry_equiv_pos_site_id
 _symmetry_equiv_pos_as_xyz
  1  'x, y, z'
loop_
 _atom_site_type_symbol
 _atom_site_label
 _atom_site_symmetry_multiplicity
 _atom_site_fract_x
 _atom_site_fract_y
 _atom_site_fract_z
 _atom_site_occupancy
  C  C0  1  0.25000000  0.95082829  0.00000000  1
  C  C1  1  0.75000000  0.35270155  0.00000000  1
  Ni  Ni2  1  0.75000000  0.08625510  0.50000000  1
  Cu  Cu3  1  0.25000000  0.38832093  0.50000000  1
  Cu  Cu4  1  0.75000000  0.62317578  0.50000000  1
  C  C5  1  0.04650412  0.14255436  0.75367633  1
  C  C6  1  0.01486357  0.57360021  0.75015067  1
  C  C7  1  0.48513643  0.57360021  0.24984933  1
  C  C8  1  0.45349588  0.14255436  0.24632367  1
  C  C9  1  0.56740268  0.84661281  0.71599389  1
  C  C10  1  0.54931463  0.34373480  0.68819413  1
  C  C11  1  0.95068537  0.34373480  0.31180587  1
  C  C12  1  0.93259732  0.84661281  0.28400611  1
