# generated using pymatgen
data_Cu2NiC15
_symmetry_space_group_name_H-M   'P 1'
_cell_length_a   8.75928641
_cell_length_b   8.75928612
_cell_length_c   22.79270968
_cell_angle_alpha   89.80942326
_cell_angle_beta   90.19057674
_cell_angle_gamma   119.76235225
_symmetry_Int_Tables_number   1
_chemical_formula_structural   Cu2NiC15
_chemical_formula_sum   'Cu12 Ni6 C90'
_cell_volume   1518.08416224
_cell_formula_units_Z   6
loop_
 _symmetry_equiv_pos_site_id
 _symmetry_equiv_pos_as_xyz
  1  'x, y, z'
loop_
 _atom_site_type_symbol
 _atom_site_label
 _atom_site_symmetry_multiplicity
 _atom_site_fract_x
 _atom_site_fract_y
 _atom_site_fract_z
 _atom_site_occupancy
  C  C0  1  0.98148913  0.99285037  0.49317576  1
  C  C1  1  0.00714963  0.01851087  0.99317576  1
  C  C2  1  0.67465537  0.32120889  0.82668636  1
  C  C3  1  0.67879111  0.32534463  0.32668636  1
  C  C4  1  0.33006399  0.64741246  0.16058731  1
  C  C5  1  0.35258754  0.66993601  0.66058731  1
  C  C6  1  0.98849766  0.00440322  0.35309622  1
  C  C7  1  0.99559678  0.01150234  0.85309622  1
  C  C8  1  0.66317536  0.33089845  0.68619711  1
  C  C9  1  0.66910155  0.33682464  0.18619711  1
  C  C10  1  0.32736872  0.65139932  0.02017247  1
  C  C11  1  0.34860068  0.67263128  0.52017247  1
  C  C12  1  0.98021291  0.98878677  0.64589331  1
  C  C13  1  0.01121323  0.01978709  0.14589331  1
  C  C14  1  0.66562877  0.33317129  0.97960072  1
  C  C15  1  0.66682871  0.33437123  0.47960072  1
  C  C16  1  0.33815441  0.67191476  0.31272113  1
  C  C17  1  0.32808524  0.66184559  0.81272113  1
  Ni  Ni18  1  0.99142166  0.29431255  0.25377945  1
  Ni  Ni19  1  0.70568745  0.00857834  0.75377945  1
  Ni  Ni20  1  0.65257544  0.61307706  0.58684116  1
  Ni  Ni21  1  0.38692294  0.34742456  0.08684116  1
  Ni  Ni22  1  0.04421662  0.36848995  0.91981034  1
  Ni  Ni23  1  0.63151005  0.95578338  0.41981034  1
  Cu  Cu24  1  0.28728537  0.00179312  0.25210680  1
  Cu  Cu25  1  0.71451849  0.71058565  0.25124416  1
  Cu  Cu26  1  0.28941435  0.28548151  0.75124416  1
  Cu  Cu27  1  0.99820688  0.71271463  0.75210680  1
  Cu  Cu28  1  0.95882521  0.33812576  0.58415477  1
  Cu  Cu29  1  0.37611547  0.04315549  0.58456668  1
  Cu  Cu30  1  0.95684451  0.62388453  0.08456668  1
  Cu  Cu31  1  0.66187424  0.04117479  0.08415477  1
  Cu  Cu32  1  0.62400305  0.66952692  0.91807280  1
  Cu  Cu33  1  0.33087078  0.95206495  0.91804057  1
  Cu  Cu34  1  0.33047308  0.37599695  0.41807280  1
  Cu  Cu35  1  0.04793505  0.66912922  0.41804057  1
  C  C36  1  0.20229079  0.01764172  0.30385022  1
  C  C37  1  0.81838241  0.79017743  0.30333799  1
  C  C38  1  0.97800901  0.17695587  0.30712747  1
  C  C39  1  0.20982257  0.18161759  0.80333799  1
  C  C40  1  0.98235828  0.79770921  0.80385022  1
  C  C41  1  0.82304413  0.02199099  0.80712747  1
  C  C42  1  0.80176416  0.97091466  0.69226135  1
  C  C43  1  0.17852466  0.20815539  0.69719729  1
  C  C44  1  0.03316564  0.82692223  0.69722031  1
  C  C45  1  0.79184461  0.82147534  0.19719729  1
  C  C46  1  0.02908534  0.19823584  0.19226135  1
  C  C47  1  0.17307777  0.96683436  0.19722031  1
  C  C48  1  0.87612792  0.35597883  0.63631552  1
  C  C49  1  0.48469494  0.12212109  0.63583033  1
  C  C50  1  0.64839329  0.50677906  0.64258969  1
  C  C51  1  0.87787891  0.51530506  0.13583033  1
  C  C52  1  0.64402117  0.12387208  0.13631552  1
  C  C53  1  0.49322094  0.35160671  0.14258969  1
  C  C54  1  0.47422614  0.30600096  0.02644645  1
  C  C55  1  0.84218737  0.53638340  0.02993977  1
  C  C56  1  0.70160020  0.15797659  0.02982953  1
  C  C57  1  0.46361660  0.15781263  0.52993977  1
  C  C58  1  0.69399904  0.52577386  0.52644645  1
  C  C59  1  0.84202341  0.29839980  0.52982953  1
  C  C60  1  0.54591803  0.69799240  0.96957103  1
  C  C61  1  0.15672218  0.47267943  0.97389775  1
  C  C62  1  0.31475903  0.85262254  0.97050433  1
  C  C63  1  0.52732057  0.84327782  0.47389775  1
  C  C64  1  0.30200760  0.45408197  0.46957103  1
  C  C65  1  0.14737746  0.68524097  0.47050433  1
  C  C66  1  0.12725121  0.63341822  0.36363226  1
  C  C67  1  0.50032542  0.86249689  0.35903611  1
  C  C68  1  0.36267041  0.49030949  0.36388752  1
  C  C69  1  0.13750311  0.49967458  0.85903611  1
  C  C70  1  0.36658178  0.87274879  0.86363226  1
  C  C71  1  0.50969051  0.63732959  0.86388752  1
  C  C72  1  0.02627993  0.82100619  0.40765014  1
  C  C73  1  0.82326863  0.98195144  0.41296454  1
  C  C74  1  0.18876939  0.19765068  0.40886840  1
  C  C75  1  0.01804856  0.17673137  0.91296454  1
  C  C76  1  0.17899381  0.97372007  0.90765014  1
  C  C77  1  0.80234932  0.81123061  0.90886840  1
  C  C78  1  0.97904438  0.17441897  0.58923754  1
  C  C79  1  0.20277150  0.04014275  0.58937443  1
  C  C80  1  0.84720069  0.81553831  0.59134287  1
  C  C81  1  0.95985725  0.79722850  0.08937443  1
  C  C82  1  0.82558103  0.02095562  0.08923754  1
  C  C83  1  0.18446169  0.15279931  0.09134287  1
  C  C84  1  0.67804244  0.17154466  0.74190495  1
  C  C85  1  0.46692321  0.31684130  0.74385178  1
  C  C86  1  0.85000026  0.53770587  0.74360862  1
  C  C87  1  0.68315870  0.53307679  0.24385178  1
  C  C88  1  0.82845534  0.32195756  0.24190495  1
  C  C89  1  0.46229413  0.14999974  0.24360862  1
  C  C90  1  0.63173667  0.49886051  0.92313684  1
  C  C91  1  0.84386733  0.35715112  0.92537459  1
  C  C92  1  0.49696707  0.13311105  0.92246191  1
  C  C93  1  0.64284888  0.15613267  0.42537459  1
  C  C94  1  0.50113949  0.36826333  0.42313684  1
  C  C95  1  0.86688895  0.50303293  0.42246191  1
  C  C96  1  0.35296914  0.50802978  0.07996756  1
  C  C97  1  0.13460740  0.65711319  0.07552948  1
  C  C98  1  0.51033595  0.87005367  0.07347903  1
  C  C99  1  0.34288681  0.86539260  0.57552948  1
  C  C100  1  0.49197022  0.64703086  0.57996756  1
  C  C101  1  0.12994633  0.48966405  0.57347903  1
  C  C102  1  0.29949008  0.83310724  0.25577928  1
  C  C103  1  0.53242238  0.69781842  0.25714180  1
  C  C104  1  0.17981717  0.48985650  0.25910421  1
  C  C105  1  0.30218158  0.46757762  0.75714180  1
  C  C106  1  0.16689276  0.70050992  0.75577928  1
  C  C107  1  0.51014350  0.82018283  0.75910421  1
