# generated using pymatgen
data_Cu6NiC41
_symmetry_space_group_name_H-M   'P 1'
_cell_length_a   10.42693816
_cell_length_b   10.42693816
_cell_length_c   7.84667806
_cell_angle_alpha   79.89298156
_cell_angle_beta   79.89298156
_cell_angle_gamma   67.54131676
_symmetry_Int_Tables_number   1
_chemical_formula_structural   Cu6NiC41
_chemical_formula_sum   'Cu6 Ni1 C41'
_cell_volume   770.62768811
_cell_formula_units_Z   1
loop_
 _symmetry_equiv_pos_site_id
 _symmetry_equiv_pos_as_xyz
  1  'x, y, z'
loop_
 _atom_site_type_symbol
 _atom_site_label
 _atom_site_symmetry_multiplicity
 _atom_site_fract_x
 _atom_site_fract_y
 _atom_site_fract_z
 _atom_site_occupancy
  C  C0  1  0.15995000  0.55510700  0.29628100  1
  C  C1  1  0.44489300  0.84005000  0.70371900  1
  C  C2  1  0.84005000  0.44489300  0.70371900  1
  C  C3  1  0.55510700  0.15995000  0.29628100  1
  C  C4  1  0.26236400  0.26236400  0.87498800  1
  C  C5  1  0.73763600  0.73763600  0.12501200  1
  C  C6  1  0.00000000  0.00000000  0.00000000  1
  Ni  Ni7  1  0.50000000  0.50000000  0.50000000  1
  Cu  Cu8  1  0.35299200  0.86614300  0.20070700  1
  Cu  Cu9  1  0.86614300  0.35299200  0.20070700  1
  Cu  Cu10  1  0.64700800  0.13385700  0.79929300  1
  Cu  Cu11  1  0.17185600  0.17185600  0.45997400  1
  Cu  Cu12  1  0.82814400  0.82814400  0.54002600  1
  Cu  Cu13  1  0.13385700  0.64700800  0.79929300  1
  C  C14  1  0.43164900  0.43164900  0.31381200  1
  C  C15  1  0.56835100  0.56835100  0.68618800  1
  C  C16  1  0.10843000  0.10843000  0.69407700  1
  C  C17  1  0.89157000  0.89157000  0.30592300  1
  C  C18  1  0.25141600  0.25141600  0.24016500  1
  C  C19  1  0.74858400  0.74858400  0.75983500  1
  C  C20  1  0.88228100  0.64651800  0.45493600  1
  C  C21  1  0.35348200  0.11771900  0.54506400  1
  C  C22  1  0.11771900  0.35348200  0.54506400  1
  C  C23  1  0.64651800  0.88228100  0.45493600  1
  C  C24  1  0.01426400  0.77046200  0.61660200  1
  C  C25  1  0.22953800  0.98573600  0.38339800  1
  C  C26  1  0.98573600  0.22953800  0.38339800  1
  C  C27  1  0.77046200  0.01426400  0.61660200  1
  C  C28  1  0.48954600  0.75251600  0.03319400  1
  C  C29  1  0.24748400  0.51045400  0.96680600  1
  C  C30  1  0.51045400  0.24748400  0.96680600  1
  C  C31  1  0.75251600  0.48954600  0.03319400  1
  C  C32  1  0.73612100  0.99806500  0.99387000  1
  C  C33  1  0.00193500  0.26387900  0.00613000  1
  C  C34  1  0.26387900  0.00193500  0.00613000  1
  C  C35  1  0.99806500  0.73612100  0.99387000  1
  C  C36  1  0.48326500  0.95860500  0.19630700  1
  C  C37  1  0.04139500  0.51673500  0.80369300  1
  C  C38  1  0.51673500  0.04139500  0.80369300  1
  C  C39  1  0.95860500  0.48326500  0.19630700  1
  C  C40  1  0.78924600  0.21027800  0.79715400  1
  C  C41  1  0.78972200  0.21075400  0.20284600  1
  C  C42  1  0.21075400  0.78972200  0.20284600  1
  C  C43  1  0.21027800  0.78924600  0.79715400  1
  C  C44  1  0.44713000  0.72443800  0.38919000  1
  C  C45  1  0.27556200  0.55287000  0.61081000  1
  C  C46  1  0.55287000  0.27556200  0.61081000  1
  C  C47  1  0.72443800  0.44713000  0.38919000  1
