# generated using pymatgen
data_Cu2NiC6
_symmetry_space_group_name_H-M   'P 1'
_cell_length_a   7.81524690
_cell_length_b   7.81476408
_cell_length_c   7.22702147
_cell_angle_alpha   55.85003078
_cell_angle_beta   124.15105972
_cell_angle_gamma   154.30422814
_symmetry_Int_Tables_number   1
_chemical_formula_structural   Cu2NiC6
_chemical_formula_sum   'Cu2 Ni1 C6'
_cell_volume   156.47376799
_cell_formula_units_Z   1
loop_
 _symmetry_equiv_pos_site_id
 _symmetry_equiv_pos_as_xyz
  1  'x, y, z'
loop_
 _atom_site_type_symbol
 _atom_site_label
 _atom_site_symmetry_multiplicity
 _atom_site_fract_x
 _atom_site_fract_y
 _atom_site_fract_z
 _atom_site_occupancy
  C  C0  1  0.25984557  0.74073347  0.73399661  1
  C  C1  1  0.77120921  0.23111635  0.23550578  1
  Ni  Ni2  1  0.55608367  0.44491473  0.67015528  1
  Cu  Cu3  1  0.02438761  0.97662713  0.27586099  1
  Cu  Cu4  1  0.95748168  0.04361971  0.80127618  1
  C  C5  1  0.10681342  0.89409676  0.83735916  1
  C  C6  1  0.40954776  0.59151459  0.60781093  1
  C  C7  1  0.58568189  0.41546815  0.43228634  1
  C  C8  1  0.89894919  0.10190910  0.98387373  1
