# generated using pymatgen
data_CuNi2C9
_symmetry_space_group_name_H-M   'P 1'
_cell_length_a   5.82069300
_cell_length_b   5.82069238
_cell_length_c   5.53517300
_cell_angle_alpha   90.00000000
_cell_angle_beta   90.00000000
_cell_angle_gamma   119.99998952
_symmetry_Int_Tables_number   1
_chemical_formula_structural   CuNi2C9
_chemical_formula_sum   'Cu1 Ni2 C9'
_cell_volume   162.40942108
_cell_formula_units_Z   1
loop_
 _symmetry_equiv_pos_site_id
 _symmetry_equiv_pos_as_xyz
  1  'x, y, z'
loop_
 _atom_site_type_symbol
 _atom_site_label
 _atom_site_symmetry_multiplicity
 _atom_site_fract_x
 _atom_site_fract_y
 _atom_site_fract_z
 _atom_site_occupancy
  C  C0  1  0.00000000  0.00000000  0.50000000  1
  Ni  Ni1  1  0.33333300  0.66666700  0.32778300  1
  Ni  Ni2  1  0.66666700  0.33333300  0.67221700  1
  Cu  Cu3  1  0.00000000  0.00000000  0.00000000  1
  C  C4  1  0.66666700  0.33333300  0.35923600  1
  C  C5  1  0.33333300  0.66666700  0.64076400  1
  C  C6  1  0.83844300  0.15664600  0.75117600  1
  C  C7  1  0.15664600  0.31820300  0.24882400  1
  C  C8  1  0.68179700  0.83844300  0.24882400  1
  C  C9  1  0.16155700  0.84335400  0.24882400  1
  C  C10  1  0.84335400  0.68179700  0.75117600  1
  C  C11  1  0.31820300  0.16155700  0.75117600  1
