# generated using pymatgen
data_Cu3Ni9C70
_symmetry_space_group_name_H-M   'P 1'
_cell_length_a   18.62063373
_cell_length_b   9.30990442
_cell_length_c   22.60306101
_cell_angle_alpha   89.90496203
_cell_angle_beta   90.19298505
_cell_angle_gamma   120.03530285
_symmetry_Int_Tables_number   1
_chemical_formula_structural   Cu3Ni9C70
_chemical_formula_sum   'Cu9 Ni27 C210'
_cell_volume   3392.19259283
_cell_formula_units_Z   3
loop_
 _symmetry_equiv_pos_site_id
 _symmetry_equiv_pos_as_xyz
  1  'x, y, z'
loop_
 _atom_site_type_symbol
 _atom_site_label
 _atom_site_symmetry_multiplicity
 _atom_site_fract_x
 _atom_site_fract_y
 _atom_site_fract_z
 _atom_site_occupancy
  C  C0  1  0.82484356  0.01207796  0.25952380  1
  C  C1  1  0.16782057  0.33660086  0.25001711  1
  C  C2  1  0.65787778  0.34483551  0.25264548  1
  C  C3  1  0.01232325  0.66656042  0.24228959  1
  C  C4  1  0.51203521  0.65605863  0.25589686  1
  C  C5  1  0.32416834  0.63543926  0.76406503  1
  C  C6  1  0.01100162  0.36611238  0.76069667  1
  C  C7  1  0.50982662  0.35963028  0.74707637  1
  C  C8  1  0.16024292  0.97455637  0.75838820  1
  C  C9  1  0.66247515  0.98723951  0.75668839  1
  C  C10  1  0.14359774  0.30362558  0.59030170  1
  C  C11  1  0.64160088  0.30797652  0.59241862  1
  C  C12  1  0.34306935  0.00126489  0.57980152  1
  C  C13  1  0.83389099  0.97335981  0.59445747  1
  C  C14  1  0.14456961  0.98087238  0.09329000  1
  C  C15  1  0.63760491  0.97537336  0.09030898  1
  C  C16  1  0.34552298  0.69288447  0.09205905  1
  C  C17  1  0.84140758  0.68949361  0.07397227  1
  C  C18  1  0.47885406  0.66174575  0.92188814  1
  C  C19  1  0.97630537  0.64435347  0.92149580  1
  C  C20  1  0.35388344  0.05433939  0.91716607  1
  C  C21  1  0.84724799  0.03594211  0.91729267  1
  C  C22  1  0.16922296  0.29107221  0.92950665  1
  C  C23  1  0.66722114  0.27685413  0.91910964  1
  C  C24  1  0.47677451  0.31137699  0.41940773  1
  C  C25  1  0.98266467  0.30203732  0.40629613  1
  C  C26  1  0.17078127  0.06152545  0.41316607  1
  C  C27  1  0.66908117  0.04639163  0.42722161  1
  C  C28  1  0.34849153  0.65727681  0.41124710  1
  C  C29  1  0.85109895  0.65223108  0.41199124  1
  C  C30  1  0.01871234  0.98854779  0.49864333  1
  C  C31  1  0.51196290  0.00804292  0.50482589  1
  C  C32  1  0.01319211  0.02007268  0.00802477  1
  C  C33  1  0.51532323  0.02414353  0.00519039  1
  C  C34  1  0.33131837  0.32995960  0.84248049  1
  C  C35  1  0.83076133  0.33529335  0.84400855  1
  C  C36  1  0.33005235  0.32107341  0.33675209  1
  C  C37  1  0.83237577  0.33614683  0.33703247  1
  C  C38  1  0.17320347  0.67275277  0.16856001  1
  C  C39  1  0.64376872  0.63431398  0.16870492  1
  C  C40  1  0.14853325  0.65324845  0.67350043  1
  C  C41  1  0.66748791  0.66945430  0.67195059  1
  C  C42  1  0.00885080  0.01816405  0.34870931  1
  C  C43  1  0.50719178  0.99451228  0.85132941  1
  C  C44  1  0.99770236  0.99524775  0.65384128  1
  C  C45  1  0.50942679  0.99949722  0.65281054  1
  C  C46  1  0.00963742  0.01733440  0.15369766  1
  C  C47  1  0.49679533  0.99707614  0.15249642  1
  C  C48  1  0.33646159  0.33317226  0.98601344  1
  C  C49  1  0.83043724  0.33097154  0.98117561  1
  C  C50  1  0.33005047  0.32945310  0.48020453  1
  C  C51  1  0.83543670  0.33944015  0.48370809  1
  C  C52  1  0.66439751  0.66568441  0.31739978  1
  C  C53  1  0.16382908  0.66241385  0.81826877  1
  C  C54  1  0.50278882  0.01292287  0.34998370  1
  C  C55  1  0.00117964  0.99071705  0.85065398  1
  C  C56  1  0.33137588  0.32151477  0.68145596  1
  C  C57  1  0.83301676  0.32408732  0.69038760  1
  C  C58  1  0.33938193  0.35539347  0.18703334  1
  C  C59  1  0.83263581  0.34180235  0.18086945  1
  C  C60  1  0.15212929  0.64851100  0.01908507  1
  C  C61  1  0.66099230  0.65108992  0.01968178  1
  C  C62  1  0.16972042  0.68479077  0.51617888  1
  C  C63  1  0.65153597  0.65553945  0.51959658  1
  C  C64  1  0.16721351  0.66824679  0.31411151  1
  C  C65  1  0.66713255  0.66596753  0.81591778  1
  Ni  Ni66  1  0.15947708  0.00325313  0.24877883  1
  Ni  Ni67  1  0.65488816  0.01167553  0.24784057  1
  Ni  Ni68  1  0.34926788  0.70176800  0.24969108  1
  Ni  Ni69  1  0.99561717  0.30927455  0.25459112  1
  Ni  Ni70  1  0.49725595  0.30042384  0.24822848  1
  Ni  Ni71  1  0.15275277  0.29731905  0.74616199  1
  Ni  Ni72  1  0.65548912  0.31437295  0.74924048  1
  Ni  Ni73  1  0.99880038  0.69713785  0.74775044  1
  Ni  Ni74  1  0.49535589  0.68172561  0.75417114  1
  Ni  Ni75  1  0.84878271  0.99580822  0.74912586  1
  Ni  Ni76  1  0.48083780  0.32806886  0.57703811  1
  Ni  Ni77  1  0.18031692  0.02219456  0.57778190  1
  Ni  Ni78  1  0.68958424  0.02907036  0.57954785  1
  Ni  Ni79  1  0.48699490  0.63118963  0.07848329  1
  Ni  Ni80  1  0.98155992  0.63502098  0.07722412  1
  Ni  Ni81  1  0.18876268  0.34883019  0.07991155  1
  Ni  Ni82  1  0.68174667  0.33933618  0.07757885  1
  Ni  Ni83  1  0.81437727  0.67708936  0.91760792  1
  Ni  Ni84  1  0.01692162  0.35105717  0.91236964  1
  Ni  Ni85  1  0.52087878  0.36784630  0.91365812  1
  Ni  Ni86  1  0.16575888  0.96015554  0.91232935  1
  Ni  Ni87  1  0.66252722  0.94622874  0.91946047  1
  Ni  Ni88  1  0.31677903  0.95704069  0.41400091  1
  Ni  Ni89  1  0.16103726  0.37783445  0.42068334  1
  Ni  Ni90  1  0.66574093  0.37186812  0.41352302  1
  Ni  Ni91  1  0.02206584  0.67292217  0.41319772  1
  Ni  Ni92  1  0.51684255  0.68316795  0.41243637  1
  Cu  Cu93  1  0.84911586  0.69069579  0.24642013  1
  Cu  Cu94  1  0.34893780  0.00647626  0.74530766  1
  Cu  Cu95  1  0.98781435  0.35000017  0.58368664  1
  Cu  Cu96  1  0.32436282  0.62173810  0.58635668  1
  Cu  Cu97  1  0.82698769  0.62411900  0.58066246  1
  Cu  Cu98  1  0.32475037  0.02512965  0.07979430  1
  Cu  Cu99  1  0.82710617  0.03166743  0.08711324  1
  Cu  Cu100  1  0.31371239  0.67821764  0.92062074  1
  Cu  Cu101  1  0.81522608  0.94924087  0.42251969  1
  C  C102  1  0.12770962  0.06080938  0.30637006  1
  C  C103  1  0.59937203  0.03968616  0.30453515  1
  C  C104  1  0.41885465  0.81347043  0.30323697  1
  C  C105  1  0.89590390  0.76431926  0.30182618  1
  C  C106  1  0.48743366  0.17991414  0.31037034  1
  C  C107  1  0.96297391  0.19579240  0.31415469  1
  C  C108  1  0.09730285  0.15741695  0.80161871  1
  C  C109  1  0.62470641  0.18911816  0.80515131  1
  C  C110  1  0.46172574  0.72914724  0.81303486  1
  C  C111  1  0.98653118  0.79442534  0.80847546  1
  C  C112  1  0.39678988  0.02693149  0.79991988  1
  C  C113  1  0.91853800  0.02594165  0.80185212  1
  C  C114  1  0.39088903  0.99516323  0.69214769  1
  C  C115  1  0.87522719  0.96768908  0.68548001  1
  C  C116  1  0.09796707  0.23957662  0.68701580  1
  C  C117  1  0.59566309  0.25285935  0.69207825  1
  C  C118  1  0.02237015  0.82383700  0.69519680  1
  C  C119  1  0.52520521  0.81999811  0.70358181  1
  C  C120  1  0.37183067  0.78535185  0.18652779  1
  C  C121  1  0.89194533  0.78975083  0.19416757  1
  C  C122  1  0.02469958  0.22642877  0.20563770  1
  C  C123  1  0.52166302  0.21750154  0.19756998  1
  C  C124  1  0.09421271  0.93408850  0.19430015  1
  C  C125  1  0.59775247  0.95917227  0.19041795  1
  C  C126  1  0.42341628  0.34079318  0.63330613  1
  C  C127  1  0.94193892  0.36039422  0.63680059  1
  C  C128  1  0.24930177  0.13989062  0.63332683  1
  C  C129  1  0.75772370  0.14264052  0.63603001  1
  C  C130  1  0.31926480  0.50883176  0.63775097  1
  C  C131  1  0.82620635  0.51311862  0.62901830  1
  C  C132  1  0.43195916  0.50666096  0.13682126  1
  C  C133  1  0.92571559  0.50785567  0.13425444  1
  C  C134  1  0.32071453  0.13042819  0.12784962  1
  C  C135  1  0.82378698  0.13647949  0.13873312  1
  C  C136  1  0.25604233  0.37548080  0.13646151  1
  C  C137  1  0.75140112  0.35794714  0.13345591  1
  C  C138  1  0.22756728  0.33240481  0.01964656  1
  C  C139  1  0.72074918  0.32201409  0.01701280  1
  C  C140  1  0.44301793  0.55214215  0.01725402  1
  C  C141  1  0.93598910  0.55893361  0.01614254  1
  C  C142  1  0.33274889  0.10166437  0.02133696  1
  C  C143  1  0.83850441  0.12040574  0.03194983  1
  C  C144  1  0.22141774  0.11044172  0.51646656  1
  C  C145  1  0.73207552  0.11958270  0.51948738  1
  C  C146  1  0.33544671  0.55562373  0.53124926  1
  C  C147  1  0.83588810  0.56355732  0.52277493  1
  C  C148  1  0.43596021  0.31320041  0.51564645  1
  C  C149  1  0.94586829  0.34921395  0.52869660  1
  C  C150  1  0.26008520  0.67738728  0.97072972  1
  C  C151  1  0.77053110  0.69614093  0.97975456  1
  C  C152  1  0.08106148  0.46875298  0.97076883  1
  C  C153  1  0.58343684  0.48348833  0.97146732  1
  C  C154  1  0.15491370  0.82516052  0.96905067  1
  C  C155  1  0.66801531  0.83795884  0.97746333  1
  C  C156  1  0.26908786  0.84861778  0.47799950  1
  C  C157  1  0.76168423  0.84459712  0.47354639  1
  C  C158  1  0.16600099  0.49314440  0.48116822  1
  C  C159  1  0.65553921  0.48548516  0.47091870  1
  C  C160  1  0.08585313  0.68474164  0.47160594  1
  C  C161  1  0.58085817  0.69343628  0.47198409  1
  C  C162  1  0.07808736  0.68021009  0.35660283  1
  C  C163  1  0.55737028  0.65929163  0.35463361  1
  C  C164  1  0.25305087  0.82952574  0.36507784  1
  C  C165  1  0.77219379  0.88181905  0.36618431  1
  C  C166  1  0.15266799  0.48320368  0.36468787  1
  C  C167  1  0.68573448  0.47424583  0.35345617  1
  C  C168  1  0.05606763  0.45408780  0.85390540  1
  C  C169  1  0.57838912  0.47637879  0.85710517  1
  C  C170  1  0.18219426  0.89612517  0.85134733  1
  C  C171  1  0.65503988  0.83067228  0.86106990  1
  C  C172  1  0.27408430  0.67045952  0.86335479  1
  C  C173  1  0.75300059  0.67790126  0.86519225  1
  C  C174  1  0.01229041  0.83398189  0.41774757  1
  C  C175  1  0.52144544  0.86631518  0.41324737  1
  C  C176  1  0.40558320  0.95935710  0.40956044  1
  C  C177  1  0.89363133  0.94538720  0.42585027  1
  C  C178  1  0.07687006  0.20059433  0.42656863  1
  C  C179  1  0.57458406  0.19328719  0.41198800  1
  C  C180  1  0.02172333  0.17686280  0.91197728  1
  C  C181  1  0.51310331  0.18831057  0.91815671  1
  C  C182  1  0.07397342  0.95596564  0.91036777  1
  C  C183  1  0.57835883  0.95422448  0.92587813  1
  C  C184  1  0.39392383  0.83512435  0.92567462  1
  C  C185  1  0.90517424  0.85147863  0.90744977  1
  C  C186  1  0.49356609  0.17029798  0.58513935  1
  C  C187  1  0.99327568  0.19760219  0.58607358  1
  C  C188  1  0.09252152  0.01148482  0.58515177  1
  C  C189  1  0.60118293  0.01679094  0.58640282  1
  C  C190  1  0.39107800  0.79251267  0.59628492  1
  C  C191  1  0.89305452  0.79785118  0.58740213  1
  C  C192  1  0.49547922  0.81085067  0.08528528  1
  C  C193  1  0.99426377  0.81795318  0.08519426  1
  C  C194  1  0.39117579  0.98621617  0.08708591  1
  C  C195  1  0.89354214  0.99425868  0.09694809  1
  C  C196  1  0.09942872  0.18699865  0.08830024  1
  C  C197  1  0.59303238  0.18109879  0.08745445  1
  C  C198  1  0.34507344  0.16738815  0.74143155  1
  C  C199  1  0.84718594  0.18002361  0.74512404  1
  C  C200  1  0.24230220  0.29001852  0.73911902  1
  C  C201  1  0.74617779  0.32306664  0.73154182  1
  C  C202  1  0.41310853  0.49553097  0.73377968  1
  C  C203  1  0.91226731  0.51291004  0.73683685  1
  C  C204  1  0.34850340  0.51752316  0.24645197  1
  C  C205  1  0.84653619  0.52399974  0.24200051  1
  C  C206  1  0.41047171  0.30921449  0.24009526  1
  C  C207  1  0.91392258  0.33228894  0.23584872  1
  C  C208  1  0.24693333  0.17418933  0.22973469  1
  C  C209  1  0.74406181  0.19806249  0.24099908  1
  C  C210  1  0.32474088  0.53177991  0.92338673  1
  C  C211  1  0.82488825  0.51716848  0.91132159  1
  C  C212  1  0.43256283  0.36062517  0.91000010  1
  C  C213  1  0.92458776  0.31762788  0.92099976  1
  C  C214  1  0.24085487  0.14776594  0.92127448  1
  C  C215  1  0.74644039  0.12273439  0.91204361  1
  C  C216  1  0.32544844  0.13631772  0.40945805  1
  C  C217  1  0.83198325  0.12217847  0.42693681  1
  C  C218  1  0.24505153  0.37037911  0.41322246  1
  C  C219  1  0.74086163  0.33387677  0.42303055  1
  C  C220  1  0.42487776  0.53099813  0.42112963  1
  C  C221  1  0.93487790  0.49936671  0.41244363  1
  C  C222  1  0.18645555  0.53010326  0.07676032  1
  C  C223  1  0.68914433  0.52765572  0.08071001  1
  C  C224  1  0.07555791  0.64612578  0.07719318  1
  C  C225  1  0.58213555  0.64827097  0.07921784  1
  C  C226  1  0.24103898  0.86301423  0.08122741  1
  C  C227  1  0.74458442  0.87418992  0.08955807  1
  C  C228  1  0.18308438  0.84108782  0.58177496  1
  C  C229  1  0.68649703  0.84223564  0.57894770  1
  C  C230  1  0.24238559  0.61800676  0.58801280  1
  C  C231  1  0.74339267  0.61667460  0.58311795  1
  C  C232  1  0.07410801  0.50001952  0.58483737  1
  C  C233  1  0.57540204  0.50450397  0.57800646  1
  C  C234  1  0.17720754  0.84629171  0.26096603  1
  C  C235  1  0.68497373  0.88018170  0.26044700  1
  C  C236  1  0.25174521  0.64146461  0.26707135  1
  C  C237  1  0.76401251  0.66089585  0.24772171  1
  C  C238  1  0.07580564  0.50367035  0.26033532  1
  C  C239  1  0.57246575  0.49007494  0.25358013  1
  C  C240  1  0.18277628  0.48930031  0.75856389  1
  C  C241  1  0.67480237  0.50610244  0.76015720  1
  C  C242  1  0.07275856  0.65541248  0.75354135  1
  C  C243  1  0.57494834  0.64694529  0.76047209  1
  C  C244  1  0.26381728  0.86515600  0.74697607  1
  C  C245  1  0.75141544  0.85854339  0.76399284  1
