# generated using pymatgen
data_Cu(NiC4)2
_symmetry_space_group_name_H-M   'P 1'
_cell_length_a   6.80331553
_cell_length_b   6.80331564
_cell_length_c   6.80111498
_cell_angle_alpha   52.65197795
_cell_angle_beta   52.65197751
_cell_angle_gamma   52.68465348
_symmetry_Int_Tables_number   1
_chemical_formula_structural   Cu(NiC4)2
_chemical_formula_sum   'Cu1 Ni2 C8'
_cell_volume   184.26941119
_cell_formula_units_Z   1
loop_
 _symmetry_equiv_pos_site_id
 _symmetry_equiv_pos_as_xyz
  1  'x, y, z'
loop_
 _atom_site_type_symbol
 _atom_site_label
 _atom_site_symmetry_multiplicity
 _atom_site_fract_x
 _atom_site_fract_y
 _atom_site_fract_z
 _atom_site_occupancy
  Ni  Ni0  1  0.72847849  0.72847849  0.72952588  1
  Ni  Ni1  1  0.19213234  0.19213234  0.19417904  1
  Cu  Cu2  1  0.52504793  0.52504793  0.52626855  1
  C  C3  1  0.36496756  0.36496756  0.36603464  1
  C  C4  1  -0.00019545  -0.00019545  0.00063390  1
  C  C5  1  0.25892825  0.77676936  0.77707230  1
  C  C6  1  0.25130100  0.74974366  0.25225684  1
  C  C7  1  0.77676936  0.25892825  0.77707230  1
  C  C8  1  0.25129128  0.25129128  0.75101835  1
  C  C9  1  0.74974366  0.25130100  0.25225684  1
  C  C10  1  0.77653558  0.77653558  0.25909835  1
