# generated using pymatgen
data_Cu2NiC12
_symmetry_space_group_name_H-M   'P 1'
_cell_length_a   5.24627341
_cell_length_b   12.12852198
_cell_length_c   11.51195566
_cell_angle_alpha   88.19170448
_cell_angle_beta   85.50203262
_cell_angle_gamma   80.75811830
_symmetry_Int_Tables_number   1
_chemical_formula_structural   Cu2NiC12
_chemical_formula_sum   'Cu8 Ni4 C48'
_cell_volume   720.63142613
_cell_formula_units_Z   4
loop_
 _symmetry_equiv_pos_site_id
 _symmetry_equiv_pos_as_xyz
  1  'x, y, z'
loop_
 _atom_site_type_symbol
 _atom_site_label
 _atom_site_symmetry_multiplicity
 _atom_site_fract_x
 _atom_site_fract_y
 _atom_site_fract_z
 _atom_site_occupancy
  C  C0  1  0.27822700  0.78152400  0.10690300  1
  C  C1  1  0.27890500  0.28125400  0.60691700  1
  C  C2  1  0.72095400  0.21871000  0.89327300  1
  C  C3  1  0.72168100  0.71853800  0.39329900  1
  C  C4  1  0.26736800  0.00078300  0.80484500  1
  C  C5  1  0.73271900  0.49924900  0.69506700  1
  C  C6  1  0.26644500  0.50039500  0.30485400  1
  C  C7  1  0.73345400  0.99956800  0.19509100  1
  Ni  Ni8  1  0.87486600  0.64395800  0.91107100  1
  Ni  Ni9  1  0.87602200  0.14325900  0.41087800  1
  Ni  Ni10  1  0.12386000  0.35663100  0.08902100  1
  Ni  Ni11  1  0.12520700  0.85609000  0.58908100  1
  Cu  Cu12  1  0.78347700  0.87478300  0.93869900  1
  Cu  Cu13  1  0.78288600  0.37400200  0.43863200  1
  Cu  Cu14  1  0.21718900  0.12591900  0.06124400  1
  Cu  Cu15  1  0.21648200  0.62530300  0.56134800  1
  Cu  Cu16  1  0.19726200  0.44280000  0.86075600  1
  Cu  Cu17  1  0.19866800  0.94220500  0.36067100  1
  Cu  Cu18  1  0.80127800  0.55770800  0.13945400  1
  Cu  Cu19  1  0.80273800  0.05727700  0.63920100  1
  C  C20  1  0.52958000  0.66493800  0.83147200  1
  C  C21  1  0.53114700  0.16497100  0.33067500  1
  C  C22  1  0.46902500  0.33500800  0.16875700  1
  C  C23  1  0.47058600  0.83516500  0.66864200  1
  C  C24  1  0.44606600  0.42573600  0.78099600  1
  C  C25  1  0.44763600  0.92544900  0.28096800  1
  C  C26  1  0.55228100  0.57449100  0.21911000  1
  C  C27  1  0.55392800  0.07436300  0.71896600  1
  C  C28  1  0.70554400  0.62465500  0.81895800  1
  C  C29  1  0.70626700  0.12366200  0.31896300  1
  C  C30  1  0.29370600  0.37601200  0.18094900  1
  C  C31  1  0.29460300  0.87542500  0.68116900  1
  C  C32  1  0.94172100  0.75669300  0.90520200  1
  C  C33  1  0.94166800  0.25609600  0.40447100  1
  C  C34  1  0.05794300  0.24380800  0.09516100  1
  C  C35  1  0.05837200  0.74335700  0.59510300  1
  C  C36  1  0.75789600  0.87841800  0.07335600  1
  C  C37  1  0.75780200  0.37732100  0.57331300  1
  C  C38  1  0.24161400  0.12253500  0.92656100  1
  C  C39  1  0.24232000  0.62178900  0.42670700  1
  C  C40  1  0.02521000  0.60024400  0.19399300  1
  C  C41  1  0.02697700  0.09990100  0.69344400  1
  C  C42  1  0.97305400  0.40020500  0.80643400  1
  C  C43  1  0.97456300  0.89970500  0.30626100  1
  C  C44  1  0.26768400  0.37397200  0.97436300  1
  C  C45  1  0.26918600  0.87336600  0.47434400  1
  C  C46  1  0.73096300  0.62664500  0.02581600  1
  C  C47  1  0.73215300  0.12606000  0.52555400  1
  C  C48  1  0.51185100  0.88692100  0.89214800  1
  C  C49  1  0.51107000  0.38599800  0.39222200  1
  C  C50  1  0.48937100  0.11422000  0.10729000  1
  C  C51  1  0.48798500  0.61306200  0.60807500  1
  C  C52  1  0.12335300  0.56892300  0.89397300  1
  C  C53  1  0.12449800  0.06835500  0.39397200  1
  C  C54  1  0.87542800  0.43159600  0.10612100  1
  C  C55  1  0.87669000  0.93113300  0.60608800  1
  C  C56  1  0.05763200  0.53905600  0.61514100  1
  C  C57  1  0.05963900  0.03940700  0.11569900  1
  C  C58  1  0.94111300  0.46040200  0.38454300  1
  C  C59  1  0.94218700  0.96098500  0.88471100  1
