# generated using pymatgen
data_Cu3NiC9
_symmetry_space_group_name_H-M   'P 1'
_cell_length_a   5.86758003
_cell_length_b   5.83522370
_cell_length_c   5.86762299
_cell_angle_alpha   62.22808601
_cell_angle_beta   59.90722004
_cell_angle_gamma   62.22830682
_symmetry_Int_Tables_number   1
_chemical_formula_structural   Cu3NiC9
_chemical_formula_sum   'Cu3 Ni1 C9'
_cell_volume   146.54569864
_cell_formula_units_Z   1
loop_
 _symmetry_equiv_pos_site_id
 _symmetry_equiv_pos_as_xyz
  1  'x, y, z'
loop_
 _atom_site_type_symbol
 _atom_site_label
 _atom_site_symmetry_multiplicity
 _atom_site_fract_x
 _atom_site_fract_y
 _atom_site_fract_z
 _atom_site_occupancy
  Ni  Ni0  1  0.11398100  0.13402600  0.11397600  1
  Cu  Cu1  1  0.50153100  0.50845900  0.99134400  1
  Cu  Cu2  1  0.49897800  0.00141000  0.49898000  1
  Cu  Cu3  1  0.99135000  0.50845000  0.50152800  1
  C  C4  1  0.49955100  0.50905400  0.49955100  1
  C  C5  1  0.24346500  0.29094700  0.24347100  1
  C  C6  1  0.70287200  0.27424000  0.25411200  1
  C  C7  1  0.26232600  0.72086700  0.26232800  1
  C  C8  1  0.25411200  0.27424000  0.70287200  1
  C  C9  1  0.74549800  0.73155200  0.30210600  1
  C  C10  1  0.73052000  0.30389800  0.73051900  1
  C  C11  1  0.30210200  0.73155400  0.74550200  1
  C  C12  1  0.75788100  0.70921900  0.75787600  1
