# generated using pymatgen
data_Cu4NiC3
_symmetry_space_group_name_H-M   'P 1'
_cell_length_a   6.17200400
_cell_length_b   10.83542200
_cell_length_c   13.81452837
_cell_angle_alpha   82.55001584
_cell_angle_beta   90.00000000
_cell_angle_gamma   90.00000000
_symmetry_Int_Tables_number   1
_chemical_formula_structural   Cu4NiC3
_chemical_formula_sum   'Cu48 Ni12 C36'
_cell_volume   916.06523293
_cell_formula_units_Z   12
loop_
 _symmetry_equiv_pos_site_id
 _symmetry_equiv_pos_as_xyz
  1  'x, y, z'
loop_
 _atom_site_type_symbol
 _atom_site_label
 _atom_site_symmetry_multiplicity
 _atom_site_fract_x
 _atom_site_fract_y
 _atom_site_fract_z
 _atom_site_occupancy
  Ni  Ni0  1  0.49881300  0.85159600  0.83892000  1
  Ni  Ni1  1  0.99881300  0.14840400  0.66108000  1
  Ni  Ni2  1  0.50118700  0.14840400  0.16108000  1
  Ni  Ni3  1  0.00118700  0.85159600  0.33892000  1
  Ni  Ni4  1  0.67623700  0.61170500  0.84097000  1
  Ni  Ni5  1  0.17623700  0.38829500  0.65903000  1
  Ni  Ni6  1  0.32376300  0.38829500  0.15903000  1
  Ni  Ni7  1  0.82376300  0.61170500  0.34097000  1
  Ni  Ni8  1  0.60806300  0.76031400  0.65987000  1
  Ni  Ni9  1  0.10806300  0.23968600  0.84013000  1
  Ni  Ni10  1  0.39193700  0.23968600  0.34013000  1
  Ni  Ni11  1  0.89193700  0.76031400  0.15987000  1
  Cu  Cu12  1  0.56650400  0.55155600  0.15722200  1
  Cu  Cu13  1  0.06650400  0.44844400  0.34277800  1
  Cu  Cu14  1  0.43349600  0.44844400  0.84277800  1
  Cu  Cu15  1  0.93349600  0.55155600  0.65722200  1
  Cu  Cu16  1  0.56800600  0.44223200  0.95018000  1
  Cu  Cu17  1  0.06800600  0.55776800  0.54982000  1
  Cu  Cu18  1  0.43199400  0.55776800  0.04982000  1
  Cu  Cu19  1  0.93199400  0.44223200  0.45018000  1
  Cu  Cu20  1  0.53595600  0.62582800  0.44614600  1
  Cu  Cu21  1  0.03595600  0.37417200  0.05385400  1
  Cu  Cu22  1  0.46404400  0.37417200  0.55385400  1
  Cu  Cu23  1  0.96404400  0.62582800  0.94614600  1
  Cu  Cu24  1  0.52675100  0.46252100  0.64467500  1
  Cu  Cu25  1  0.02675100  0.53747900  0.85532500  1
  Cu  Cu26  1  0.47324900  0.53747900  0.35532500  1
  Cu  Cu27  1  0.97324900  0.46252100  0.14467500  1
  Cu  Cu28  1  0.57406700  0.86851700  0.11717200  1
  Cu  Cu29  1  0.07406700  0.13148300  0.38282800  1
  Cu  Cu30  1  0.42593300  0.13148300  0.88282800  1
  Cu  Cu31  1  0.92593300  0.86851700  0.61717200  1
  Cu  Cu32  1  0.63982900  0.76625400  0.03588200  1
  Cu  Cu33  1  0.13982900  0.23374600  0.46411800  1
  Cu  Cu34  1  0.36017100  0.23374600  0.96411800  1
  Cu  Cu35  1  0.80443200  0.33003500  0.89382400  1
  Cu  Cu36  1  0.67812100  0.04045700  0.65412900  1
  Cu  Cu37  1  0.17812100  0.95954300  0.84587100  1
  Cu  Cu38  1  0.32187900  0.95954300  0.34587100  1
  Cu  Cu39  1  0.82187900  0.04045700  0.15412900  1
  Cu  Cu40  1  0.64366200  0.19688600  0.63966200  1
  Cu  Cu41  1  0.14366200  0.80311400  0.86033800  1
  Cu  Cu42  1  0.35633800  0.80311400  0.36033800  1
  Cu  Cu43  1  0.85633800  0.19688600  0.13966200  1
  Cu  Cu44  1  0.66351900  0.95608400  0.95222000  1
  Cu  Cu45  1  0.16351900  0.04391600  0.54778000  1
  Cu  Cu46  1  0.33648100  0.04391600  0.04778000  1
  Cu  Cu47  1  0.83648100  0.95608400  0.45222000  1
  Cu  Cu48  1  0.76147000  0.00276100  0.84002300  1
  Cu  Cu49  1  0.26147000  0.99723900  0.65997700  1
  Cu  Cu50  1  0.23853000  0.99723900  0.15997700  1
  Cu  Cu51  1  0.73853000  0.00276100  0.34002300  1
  Cu  Cu52  1  0.62526600  0.20169500  0.47188100  1
  Cu  Cu53  1  0.12526600  0.79830500  0.02811900  1
  Cu  Cu54  1  0.37473400  0.79830500  0.52811900  1
  Cu  Cu55  1  0.87473400  0.20169500  0.97188100  1
  Cu  Cu56  1  0.69556800  0.33003500  0.39382400  1
  Cu  Cu57  1  0.19556800  0.66996500  0.10617600  1
  Cu  Cu58  1  0.30443200  0.66996500  0.60617600  1
  Cu  Cu59  1  0.86017100  0.76625400  0.53588200  1
  C  C60  1  0.65689400  0.62679900  0.72385200  1
  C  C61  1  0.15689400  0.37320100  0.77614800  1
  C  C62  1  0.34310600  0.37320100  0.27614800  1
  C  C63  1  0.84310600  0.62679900  0.22385200  1
  C  C64  1  0.55996800  0.71645700  0.89609400  1
  C  C65  1  0.05996800  0.28354300  0.60390600  1
  C  C66  1  0.44003200  0.28354300  0.10390600  1
  C  C67  1  0.94003200  0.71645700  0.39609400  1
  C  C68  1  0.54097900  0.87102600  0.72239600  1
  C  C69  1  0.04097900  0.12897400  0.77760400  1
  C  C70  1  0.45902100  0.12897400  0.27760400  1
  C  C71  1  0.95902100  0.87102600  0.22239600  1
  C  C72  1  0.57540300  0.46934200  0.87658200  1
  C  C73  1  0.07540300  0.53065800  0.62341800  1
  C  C74  1  0.42459700  0.53065800  0.12341800  1
  C  C75  1  0.92459700  0.46934200  0.37658200  1
  C  C76  1  0.56487800  0.60858900  0.37605300  1
  C  C77  1  0.06487800  0.39141100  0.12394700  1
  C  C78  1  0.43512200  0.39141100  0.62394700  1
  C  C79  1  0.93512200  0.60858900  0.87605300  1
  C  C80  1  0.69353900  0.81905500  0.08766400  1
  C  C81  1  0.19353900  0.18094500  0.41233600  1
  C  C82  1  0.30646100  0.18094500  0.91233600  1
  C  C83  1  0.80646100  0.81905500  0.58766400  1
  C  C84  1  0.92932400  0.27398500  0.92273100  1
  C  C85  1  0.24389400  0.87468400  0.87339200  1
  C  C86  1  0.25610600  0.87468400  0.37339200  1
  C  C87  1  0.75610600  0.12531600  0.12660800  1
  C  C88  1  0.62638600  0.97191400  0.87921600  1
  C  C89  1  0.12638600  0.02808600  0.62078400  1
  C  C90  1  0.37361400  0.02808600  0.12078400  1
  C  C91  1  0.87361400  0.97191400  0.37921600  1
  C  C92  1  0.57067600  0.27398500  0.42273100  1
  C  C93  1  0.07067600  0.72601500  0.07726900  1
  C  C94  1  0.42932400  0.72601500  0.57726900  1
  C  C95  1  0.74389400  0.12531600  0.62660800  1
