# generated using pymatgen
data_Cu4(NiC21)3
_symmetry_space_group_name_H-M   'P 1'
_cell_length_a   18.36720399
_cell_length_b   9.20243226
_cell_length_c   24.35003917
_cell_angle_alpha   89.80885417
_cell_angle_beta   89.40598579
_cell_angle_gamma   120.20358562
_symmetry_Int_Tables_number   1
_chemical_formula_structural   Cu4(NiC21)3
_chemical_formula_sum   'Cu12 Ni9 C189'
_cell_volume   3556.61429511
_cell_formula_units_Z   3
loop_
 _symmetry_equiv_pos_site_id
 _symmetry_equiv_pos_as_xyz
  1  'x, y, z'
loop_
 _atom_site_type_symbol
 _atom_site_label
 _atom_site_symmetry_multiplicity
 _atom_site_fract_x
 _atom_site_fract_y
 _atom_site_fract_z
 _atom_site_occupancy
  C  C0  1  0.99571564  0.01587995  0.50080731  1
  C  C1  1  0.49549229  0.97486417  0.00452087  1
  C  C2  1  0.32120239  0.31097916  0.83719156  1
  C  C3  1  0.82733724  0.32991735  0.82587542  1
  C  C4  1  0.32844010  0.32533981  0.32479739  1
  C  C5  1  0.81733384  0.32537591  0.33205305  1
  C  C6  1  0.00920156  0.00490605  0.34684615  1
  C  C7  1  0.51017737  0.01466016  0.84900328  1
  C  C8  1  -0.00015036  0.01187359  0.64554500  1
  C  C9  1  0.50407055  0.98763164  0.14783816  1
  C  C10  1  0.32315996  0.32658286  0.98459133  1
  C  C11  1  0.84582406  0.34921023  0.98652388  1
  C  C12  1  0.34578293  0.33886170  0.48392163  1
  C  C13  1  0.82316030  0.32073455  0.48265557  1
  C  C14  1  0.16228746  0.67867944  0.30107263  1
  C  C15  1  0.67031551  0.66889426  0.30706038  1
  C  C16  1  0.17137842  0.68291575  0.80985325  1
  C  C17  1  0.66128555  0.64448952  0.80162596  1
  Ni  Ni18  1  0.15553205  0.02982014  0.24186283  1
  Ni  Ni19  1  0.65632891  0.02508927  0.24937153  1
  Ni  Ni20  1  0.65560810  0.28176700  0.74205029  1
  Ni  Ni21  1  0.48680352  0.33407728  0.58577587  1
  Ni  Ni22  1  0.98239922  0.34800779  0.58066879  1
  Ni  Ni23  1  0.48256137  0.61969266  0.08043235  1
  Ni  Ni24  1  0.98151027  0.63112134  0.08875241  1
  Ni  Ni25  1  0.16457574  0.95973995  0.91491552  1
  Ni  Ni26  1  0.66141949  0.36871223  0.41401952  1
  Cu  Cu27  1  0.51488781  0.02236031  0.35163919  1
  Cu  Cu28  1  0.00508217  0.99575757  0.85706722  1
  Cu  Cu29  1  0.50590041  0.01715126  0.64613392  1
  Cu  Cu30  1  0.00436506  0.99266848  0.14698061  1
  Cu  Cu31  1  0.33990377  0.33900343  0.67623185  1
  Cu  Cu32  1  0.83496116  0.33476184  0.67786091  1
  Cu  Cu33  1  0.33764520  0.33753826  0.17961245  1
  Cu  Cu34  1  0.83186985  0.32989429  0.18095021  1
  Cu  Cu35  1  0.15668889  0.68030193  0.02179724  1
  Cu  Cu36  1  0.66557686  0.67135929  0.02410123  1
  Cu  Cu37  1  0.16532948  0.66008697  0.52124465  1
  Cu  Cu38  1  0.65698564  0.63871810  0.51696122  1
  C  C39  1  0.36010050  0.69596819  0.25451776  1
  C  C40  1  0.85900448  0.69905071  0.24218594  1
  C  C41  1  0.98949658  0.27851480  0.24144243  1
  C  C42  1  0.48838387  0.28006866  0.25117249  1
  C  C43  1  0.15523877  0.28660139  0.75145109  1
  C  C44  1  0.98882684  0.69448865  0.75067755  1
  C  C45  1  0.48828314  0.69939084  0.74184542  1
  C  C46  1  0.35869393  0.01936259  0.74180945  1
  C  C47  1  0.85949483  0.02479828  0.75377799  1
  C  C48  1  0.18858965  0.02636476  0.58179177  1
  C  C49  1  0.67923302  0.01886867  0.58730426  1
  C  C50  1  0.33494519  0.64231107  0.58735475  1
  C  C51  1  0.82487675  0.62559006  0.58253381  1
  C  C52  1  0.32583523  0.02425972  0.08315146  1
  C  C53  1  0.83457081  0.02728983  0.08789052  1
  C  C54  1  0.17883313  0.33964216  0.08761208  1
  C  C55  1  0.68880971  0.35155550  0.08130043  1
  C  C56  1  0.31033649  0.67511142  0.92183142  1
  C  C57  1  0.81340332  0.67962039  0.91681146  1
  C  C58  1  0.02319572  0.36288017  0.91507535  1
  C  C59  1  0.52510850  0.37844750  0.92218414  1
  C  C60  1  0.66651624  0.95067384  0.92066869  1
  C  C61  1  0.31669759  0.94846493  0.41518489  1
  C  C62  1  0.81053734  0.94531359  0.42209357  1
  C  C63  1  0.16571725  0.37987883  0.42048554  1
  C  C64  1  0.02491980  0.67233566  0.42155888  1
  C  C65  1  0.52352097  0.68676287  0.41515460  1
  C  C66  1  0.12199137  0.06728533  0.30024471  1
  C  C67  1  0.61109050  0.05381649  0.30524400  1
  C  C68  1  0.41314966  0.78346848  0.30324614  1
  C  C69  1  0.90651294  0.76961442  0.29361210  1
  C  C70  1  0.47490080  0.17240908  0.30186053  1
  C  C71  1  0.97565591  0.18301194  0.29361050  1
  C  C72  1  0.11355759  0.17980075  0.80169667  1
  C  C73  1  0.62169878  0.17613171  0.80033827  1
  C  C74  1  0.47474256  0.76665120  0.79363924  1
  C  C75  1  0.97690502  0.77524856  0.80149356  1
  C  C76  1  0.40488160  0.04331661  0.79354627  1
  C  C77  1  0.91207915  0.04542584  0.80314083  1
  C  C78  1  0.40412303  0.00127218  0.69445559  1
  C  C79  1  0.89646709  0.99843469  0.70384024  1
  C  C80  1  0.10610964  0.20960925  0.70211880  1
  C  C81  1  0.59131656  0.18352624  0.69299810  1
  C  C82  1  0.00001880  0.79610043  0.70155488  1
  C  C83  1  0.49556325  0.80524258  0.69397434  1
  C  C84  1  0.39301016  0.79270856  0.20364873  1
  C  C85  1  0.90333663  0.81192190  0.19481005  1
  C  C86  1  0.99726001  0.18658809  0.19403130  1
  C  C87  1  0.49842842  0.20390825  0.20157216  1
  C  C88  1  0.09147281  -0.00010113  0.19284679  1
  C  C89  1  0.60336007  0.99250693  0.19474008  1
  C  C90  1  0.44347262  0.37401997  0.64031572  1
  C  C91  1  0.93484235  0.36743592  0.63836056  1
  C  C92  1  0.23830024  0.10769795  0.63274096  1
  C  C93  1  0.73578247  0.10489414  0.63529493  1
  C  C94  1  0.31342768  0.52304050  0.63633952  1
  C  C95  1  0.81319373  0.52038124  0.63310562  1
  C  C96  1  0.43488144  0.50182276  0.13775674  1
  C  C97  1  0.93189940  0.49716900  0.14038141  1
  C  C98  1  0.31309116  0.10559578  0.13286337  1
  C  C99  1  0.81454571  0.10567976  0.13510603  1
  C  C100  1  0.23542186  0.36648879  0.13498674  1
  C  C101  1  0.73846134  0.36825400  0.13129824  1
  C  C102  1  0.20860352  0.29316575  0.03834287  1
  C  C103  1  0.72632553  0.32175814  0.03208600  1
  C  C104  1  0.42649288  0.53310615  0.02780298  1
  C  C105  1  0.92814678  0.55817066  0.03330716  1
  C  C106  1  0.33865863  0.12455929  0.03345004  1
  C  C107  1  0.85262301  0.12928586  0.03768657  1
  C  C108  1  0.22556763  0.13387490  0.53327545  1
  C  C109  1  0.70907898  0.12725633  0.53857787  1
  C  C110  1  0.35297716  0.57332314  0.53862237  1
  C  C111  1  0.83919580  0.55165450  0.53377691  1
  C  C112  1  0.42850229  0.29857488  0.53298067  1
  C  C113  1  0.92568638  0.31765905  0.52830100  1
  C  C114  1  0.26239489  0.67629398  0.97224445  1
  C  C115  1  0.77391112  0.69778383  0.96886603  1
  C  C116  1  0.07059227  0.43952980  0.96607883  1
  C  C117  1  0.57745697  0.46992537  0.97082928  1
  C  C118  1  0.15186518  0.84554158  0.97149415  1
  C  C119  1  0.66202633  0.85177654  0.97204990  1
  C  C120  1  0.27690506  0.85072163  0.46858146  1
  C  C121  1  0.76250791  0.84775561  0.47365581  1
  C  C122  1  0.16083464  0.46846334  0.47233411  1
  C  C123  1  0.64968223  0.45700208  0.47107450  1
  C  C124  1  0.07656095  0.68449650  0.47113918  1
  C  C125  1  0.57076968  0.70433227  0.46711935  1
  C  C126  1  0.06598702  0.66332716  0.37061812  1
  C  C127  1  0.56357343  0.66095101  0.36734632  1
  C  C128  1  0.26222590  0.86635320  0.36817424  1
  C  C129  1  0.76584627  0.86644985  0.37194823  1
  C  C130  1  0.16993143  0.47185986  0.37062290  1
  C  C131  1  0.68254332  0.48246364  0.35939990  1
  C  C132  1  0.06392674  0.46439048  0.86583079  1
  C  C133  1  0.56588093  0.46916806  0.87050284  1
  C  C134  1  0.17512670  0.87279418  0.86046716  1
  C  C135  1  0.67039842  0.86767355  0.87047803  1
  C  C136  1  0.26554681  0.66473471  0.87080612  1
  C  C137  1  0.76237691  0.65961227  0.86842858  1
  C  C138  1  0.01788643  0.82662749  0.42138883  1
  C  C139  1  0.51550661  0.83970089  0.40882897  1
  C  C140  1  0.40004321  0.96088185  0.40761170  1
  C  C141  1  0.89489384  0.95961732  0.42259912  1
  C  C142  1  0.08755593  0.21082010  0.42226751  1
  C  C143  1  0.57114361  0.18666601  0.41014660  1
  C  C144  1  0.01572266  0.19251956  0.90953836  1
  C  C145  1  0.51799864  0.20962556  0.92147463  1
  C  C146  1  0.07523820  0.96568733  0.91033052  1
  C  C147  1  0.58816124  0.96268633  0.92201968  1
  C  C148  1  0.39484915  0.83070119  0.92081353  1
  C  C149  1  0.89817785  0.83760785  0.91053396  1
  C  C150  1  0.49251070  0.16462514  0.59521126  1
  C  C151  1  0.99757738  0.18870960  0.58744100  1
  C  C152  1  0.10183719  0.99399972  0.58842843  1
  C  C153  1  0.59214919  0.98668232  0.59948781  1
  C  C154  1  0.40871486  0.80756066  0.60073141  1
  C  C155  1  0.89999566  0.79491365  0.58915426  1
  C  C156  1  0.49695806  0.80754764  0.08445513  1
  C  C157  1  0.99086159  0.81492508  0.09759752  1
  C  C158  1  0.39922484  0.00292905  0.08933972  1
  C  C159  1  0.90775727  0.00736663  0.10050769  1
  C  C160  1  0.09161681  0.19698110  0.09923689  1
  C  C161  1  0.60162335  0.21326713  0.08648905  1
  C  C162  1  0.34912713  0.17311905  0.73580010  1
  C  C163  1  0.85421348  0.18119467  0.74724343  1
  C  C164  1  0.24086429  0.29854315  0.74547958  1
  C  C165  1  0.75021318  0.30271798  0.73268702  1
  C  C166  1  0.41045030  0.52603244  0.73664284  1
  C  C167  1  0.91033850  0.52538968  0.74594722  1
  C  C168  1  0.35507772  0.52827950  0.24853919  1
  C  C169  1  0.85271404  0.53194354  0.23555875  1
  C  C170  1  0.41001701  0.29443504  0.24698958  1
  C  C171  1  0.91376182  0.29750074  0.23574986  1
  C  C172  1  0.25038297  0.19860738  0.23274136  1
  C  C173  1  0.75106377  0.20210269  0.24124877  1
  C  C174  1  0.32099351  0.52654385  0.92241853  1
  C  C175  1  0.82563101  0.53270478  0.92110524  1
  C  C176  1  0.44107363  0.35978483  0.92480317  1
  C  C177  1  0.93651955  0.33594458  0.91864553  1
  C  C178  1  0.24468115  0.14848555  0.91623110  1
  C  C179  1  0.74132903  0.12058814  0.92427319  1
  C  C180  1  0.32751784  0.11976047  0.42045248  1
  C  C181  1  0.82066908  0.11466009  0.42362352  1
  C  C182  1  0.24058428  0.36063093  0.42468213  1
  C  C183  1  0.74341259  0.34388169  0.41658480  1
  C  C184  1  0.43665680  0.53924234  0.42015739  1
  C  C185  1  0.94098280  0.52232564  0.42479345  1
  C  C186  1  0.17436491  0.49460025  0.07772628  1
  C  C187  1  0.68914857  0.51440293  0.07468945  1
  C  C188  1  0.07333507  0.63943855  0.08029330  1
  C  C189  1  0.57649934  0.63229430  0.07663196  1
  C  C190  1  0.24816924  0.85428770  0.07759171  1
  C  C191  1  0.75864811  0.85636904  0.07896968  1
  C  C192  1  0.18696977  0.86349571  0.57527628  1
  C  C193  1  0.67449621  0.85587875  0.57782756  1
  C  C194  1  0.25940202  0.66116458  0.57887276  1
  C  C195  1  0.74903627  0.64240165  0.57672532  1
  C  C196  1  0.07732424  0.52145268  0.57643962  1
  C  C197  1  0.57755095  0.50983661  0.57728401  1
  C  C198  1  0.16486510  0.86540161  0.24754846  1
  C  C199  1  0.67016762  0.86833032  0.25771538  1
  C  C200  1  0.27408672  0.66497358  0.26317593  1
  C  C201  1  0.77521440  0.67842193  0.24470284  1
  C  C202  1  0.06520204  0.44473766  0.24488332  1
  C  C203  1  0.56080744  0.44774473  0.25815932  1
  C  C204  1  0.16622617  0.45351577  0.75822860  1
  C  C205  1  0.66499891  0.46507377  0.74768351  1
  C  C206  1  0.06146360  0.67122238  0.75669177  1
  C  C207  1  0.56300167  0.68198437  0.74492621  1
  C  C208  1  0.27496147  0.86961707  0.74392324  1
  C  C209  1  0.77431095  0.88041019  0.76113938  1
