# generated using pymatgen
data_Cu2NiC
_symmetry_space_group_name_H-M   'P 1'
_cell_length_a   6.95358973
_cell_length_b   6.95358973
_cell_length_c   6.95358973
_cell_angle_alpha   103.91398798
_cell_angle_beta   103.91398798
_cell_angle_gamma   121.26988657
_symmetry_Int_Tables_number   1
_chemical_formula_structural   Cu2NiC
_chemical_formula_sum   'Cu4 Ni2 C2'
_cell_volume   250.45570011
_cell_formula_units_Z   2
loop_
 _symmetry_equiv_pos_site_id
 _symmetry_equiv_pos_as_xyz
  1  'x, y, z'
loop_
 _atom_site_type_symbol
 _atom_site_label
 _atom_site_symmetry_multiplicity
 _atom_site_fract_x
 _atom_site_fract_y
 _atom_site_fract_z
 _atom_site_occupancy
  C  C0  1  0.25000000  0.25000000  0.00000000  1
  C  C1  1  0.75000000  0.75000000  0.00000000  1
  Ni  Ni2  1  0.75000000  0.25000000  0.50000000  1
  Ni  Ni3  1  0.25000000  0.75000000  0.50000000  1
  Cu  Cu4  1  0.67132700  0.17132700  0.84265400  1
  Cu  Cu5  1  0.17132700  0.32867300  0.50000000  1
  Cu  Cu6  1  0.82867300  0.67132700  0.50000000  1
  Cu  Cu7  1  0.32867300  0.82867300  0.15734600  1
