# generated using pymatgen
data_Cu2NiC17
_symmetry_space_group_name_H-M   'P 1'
_cell_length_a   9.13716196
_cell_length_b   9.15614076
_cell_length_c   22.84508752
_cell_angle_alpha   89.78496748
_cell_angle_beta   89.97048332
_cell_angle_gamma   119.89116337
_symmetry_Int_Tables_number   1
_chemical_formula_structural   Cu2NiC17
_chemical_formula_sum   'Cu12 Ni6 C102'
_cell_volume   1656.98199928
_cell_formula_units_Z   6
loop_
 _symmetry_equiv_pos_site_id
 _symmetry_equiv_pos_as_xyz
  1  'x, y, z'
loop_
 _atom_site_type_symbol
 _atom_site_label
 _atom_site_symmetry_multiplicity
 _atom_site_fract_x
 _atom_site_fract_y
 _atom_site_fract_z
 _atom_site_occupancy
  C  C0  1  0.62581375  0.99912978  0.25412089  1
  C  C1  1  0.00861279  0.64401881  0.24476027  1
  C  C2  1  0.63896711  0.64685647  0.74168620  1
  C  C3  1  0.37403743  0.00169642  0.75218179  1
  C  C4  1  0.31355812  0.34046963  0.58690458  1
  C  C5  1  0.66861946  0.95902309  0.58563875  1
  C  C6  1  0.29027953  0.95852057  0.08599450  1
  C  C7  1  0.02664735  0.34017524  0.08818682  1
  C  C8  1  0.98165797  0.67500670  0.92341991  1
  C  C9  1  0.68540399  0.02690657  0.90942569  1
  C  C10  1  0.33824955  0.02854775  0.40724091  1
  C  C11  1  0.69549551  0.67589731  0.42031120  1
  C  C12  1  0.97998450  0.98864038  0.49956943  1
  C  C13  1  0.00767840  0.98856854  0.00139854  1
  C  C14  1  0.66058165  0.31538597  0.83213579  1
  C  C15  1  0.65661653  0.31743416  0.33118690  1
  C  C16  1  0.33540681  0.66141278  0.16938414  1
  C  C17  1  0.32742988  0.66344164  0.66616901  1
  C  C18  1  0.00459677  0.01090290  0.84517536  1
  C  C19  1  0.65877879  0.33713696  0.98828887  1
  C  C20  1  0.67855276  0.33674129  0.48345906  1
  C  C21  1  0.33694249  0.66810399  0.01897899  1
  C  C22  1  0.33441222  0.66885530  0.51524671  1
  C  C23  1  0.32994467  0.66383990  0.81512871  1
  C  C24  1  0.00540149  0.01004333  0.34576382  1
  C  C25  1  0.98717219  0.98905579  0.65102669  1
  C  C26  1  0.00154429  0.98713790  0.15432097  1
  C  C27  1  0.67663691  0.33734651  0.68111512  1
  C  C28  1  0.65840368  0.33657297  0.18416893  1
  C  C29  1  0.33666397  0.67287657  0.31679273  1
  Ni  Ni30  1  0.29916406  0.00027439  0.25080653  1
  Ni  Ni31  1  0.69939148  0.00861109  0.74624282  1
  Ni  Ni32  1  0.67281762  0.63576966  0.58624943  1
  Ni  Ni33  1  0.96269052  0.63635347  0.08840555  1
  Ni  Ni34  1  0.33325434  0.97223656  0.91661171  1
  Ni  Ni35  1  0.63944446  0.96442498  0.41183183  1
  Cu  Cu36  1  0.70635819  0.70645465  0.25132280  1
  Cu  Cu37  1  0.00041330  0.29577523  0.24844817  1
  Cu  Cu38  1  0.30727371  0.29729323  0.74271806  1
  Cu  Cu39  1  0.99228820  0.69865057  0.74688759  1
  Cu  Cu40  1  0.96499440  0.32472526  0.58805133  1
  Cu  Cu41  1  0.36373602  0.03976903  0.58694030  1
  Cu  Cu42  1  0.67722660  0.04035164  0.08891551  1
  Cu  Cu43  1  0.35822531  0.32275592  0.08983802  1
  Cu  Cu44  1  0.63896003  0.66743887  0.91410165  1
  Cu  Cu45  1  0.02781993  0.36173098  0.91952608  1
  Cu  Cu46  1  0.32472348  0.36504026  0.41344077  1
  Cu  Cu47  1  0.03777845  0.67527173  0.41028511  1
  C  C48  1  0.21503201  0.02075772  0.30660506  1
  C  C49  1  0.81000065  0.78294512  0.30472718  1
  C  C50  1  0.97462479  0.18444741  0.29902714  1
  C  C51  1  0.23221226  0.19880731  0.79640099  1
  C  C52  1  0.96839960  0.76505455  0.80338168  1
  C  C53  1  0.78648096  0.02493449  0.80581207  1
  C  C54  1  0.79797753  0.98746747  0.69524858  1
  C  C55  1  0.20288119  0.21063747  0.69095551  1
  C  C56  1  0.01641727  0.81733948  0.69904094  1
  C  C57  1  0.78886175  0.81942493  0.20039975  1
  C  C58  1  0.02110289  0.21992219  0.19384802  1
  C  C59  1  0.18719549  0.97235542  0.19652492  1
  C  C60  1  0.87597803  0.34306538  0.63834558  1
  C  C61  1  0.47692354  0.12950638  0.63678960  1
  C  C62  1  0.65327808  0.52015843  0.63872119  1
  C  C63  1  0.86373064  0.51846036  0.14021936  1
  C  C64  1  0.65296084  0.13134285  0.13826799  1
  C  C65  1  0.46777748  0.34139359  0.13940279  1
  C  C66  1  0.42632065  0.29670700  0.03467627  1
  C  C67  1  0.87650251  0.56390903  0.02894556  1
  C  C68  1  0.70085067  0.13411650  0.03308802  1
  C  C69  1  0.43586745  0.13550255  0.53155510  1
  C  C70  1  0.68666296  0.56012162  0.52747966  1
  C  C71  1  0.86790349  0.29826007  0.53358125  1
  C  C72  1  0.54839133  0.67828260  0.96548944  1
  C  C73  1  0.12101596  0.43839939  0.97394559  1
  C  C74  1  0.31757379  0.86751314  0.97239474  1
  C  C75  1  0.56691732  0.86446097  0.47006494  1
  C  C76  1  0.30395800  0.42962619  0.47042690  1
  C  C77  1  0.13489240  0.69321889  0.46377490  1
  C  C78  1  0.12186500  0.65431654  0.35817919  1
  C  C79  1  0.52016199  0.86755087  0.35998024  1
  C  C80  1  0.34180913  0.47935069  0.36508627  1
  C  C81  1  0.11787996  0.46308117  0.86784426  1
  C  C82  1  0.34937736  0.88399100  0.86087708  1
  C  C83  1  0.54626650  0.65135424  0.85942331  1
  C  C84  1  0.02433413  0.83191024  0.40619085  1
  C  C85  1  0.81555912  0.97888550  0.40431883  1
  C  C86  1  0.17997144  0.19061400  0.40651496  1
  C  C87  1  0.99856059  0.18683010  0.91647249  1
  C  C88  1  0.16839434  0.98106013  0.91471173  1
  C  C89  1  0.80687810  0.82602708  0.91359776  1
  C  C90  1  0.98709217  0.17326484  0.59347092  1
  C  C91  1  0.19549617  0.02543240  0.59412756  1
  C  C92  1  0.82534965  0.81822350  0.59111727  1
  C  C93  1  0.99199391  0.81855281  0.09337810  1
  C  C94  1  0.83168537  0.02704227  0.09638846  1
  C  C95  1  0.18553699  0.17138930  0.09584773  1
  C  C96  1  0.66855477  0.16030181  0.73969738  1
  C  C97  1  0.47940224  0.31669097  0.73874030  1
  C  C98  1  0.83823989  0.53136847  0.73938436  1
  C  C99  1  0.69446728  0.53873080  0.24399853  1
  C  C100  1  0.84439090  0.31293215  0.24500345  1
  C  C101  1  0.48270225  0.15343762  0.24441186  1
  C  C102  1  0.66944998  0.52242867  0.91723888  1
  C  C103  1  0.85947765  0.35215162  0.91992990  1
  C  C104  1  0.49830305  0.14522109  0.91840623  1
  C  C105  1  0.64421649  0.13684395  0.41445963  1
  C  C106  1  0.48453336  0.35444769  0.41449588  1
  C  C107  1  0.86254576  0.52820896  0.41339242  1
  C  C108  1  0.33740888  0.47443142  0.08661167  1
  C  C109  1  0.14178645  0.64864966  0.08904104  1
  C  C110  1  0.52222024  0.87123927  0.08635785  1
  C  C111  1  0.35034856  0.87085070  0.58403831  1
  C  C112  1  0.50618818  0.64844313  0.58650078  1
  C  C113  1  0.13736126  0.47602591  0.58427445  1
  C  C114  1  0.31543112  0.83533299  0.25537033  1
  C  C115  1  0.53504783  0.68782494  0.25670981  1
  C  C116  1  0.14915372  0.46865434  0.25523518  1
  C  C117  1  0.32797812  0.46962321  0.74602783  1
  C  C118  1  0.14693451  0.68363587  0.74830412  1
  C  C119  1  0.52100343  0.84223687  0.74589748  1
