# generated using pymatgen
data_Cu3(NiC2)2
_symmetry_space_group_name_H-M   'P 1'
_cell_length_a   4.93735300
_cell_length_b   5.67510300
_cell_length_c   5.75321100
_cell_angle_alpha   90.00000000
_cell_angle_beta   90.00000000
_cell_angle_gamma   90.00000000
_symmetry_Int_Tables_number   1
_chemical_formula_structural   Cu3(NiC2)2
_chemical_formula_sum   'Cu6 Ni4 C8'
_cell_volume   161.20489641
_cell_formula_units_Z   2
loop_
 _symmetry_equiv_pos_site_id
 _symmetry_equiv_pos_as_xyz
  1  'x, y, z'
loop_
 _atom_site_type_symbol
 _atom_site_label
 _atom_site_symmetry_multiplicity
 _atom_site_fract_x
 _atom_site_fract_y
 _atom_site_fract_z
 _atom_site_occupancy
  C  C0  1  0.55387300  0.50000000  0.14793100  1
  C  C1  1  0.31225200  0.64669400  0.00000000  1
  C  C2  1  0.31225200  0.35330600  0.00000000  1
  C  C3  1  0.68774800  0.14669400  0.50000000  1
  C  C4  1  0.55387300  0.50000000  0.85206900  1
  C  C5  1  0.44612700  0.00000000  0.35206900  1
  C  C6  1  0.44612700  0.00000000  0.64793100  1
  C  C7  1  0.68774800  0.85330600  0.50000000  1
  Ni  Ni8  1  0.02693100  0.50000000  0.50000000  1
  Ni  Ni9  1  0.43427400  0.50000000  0.00000000  1
  Ni  Ni10  1  0.56572600  0.00000000  0.50000000  1
  Ni  Ni11  1  0.97306900  0.00000000  0.00000000  1
  Cu  Cu12  1  0.89815800  0.50000000  0.69168900  1
  Cu  Cu13  1  0.10184200  0.00000000  0.19168900  1
  Cu  Cu14  1  0.10184200  0.00000000  0.80831100  1
  Cu  Cu15  1  0.28244500  0.50000000  0.50000000  1
  Cu  Cu16  1  0.71755500  0.00000000  0.00000000  1
  Cu  Cu17  1  0.89815800  0.50000000  0.30831100  1
