# generated using pymatgen
data_CuNiC17
_symmetry_space_group_name_H-M   'P 1'
_cell_length_a   7.03487532
_cell_length_b   6.99078099
_cell_length_c   5.74084967
_cell_angle_alpha   73.17789213
_cell_angle_beta   107.08286862
_cell_angle_gamma   99.74280787
_symmetry_Int_Tables_number   1
_chemical_formula_structural   CuNiC17
_chemical_formula_sum   'Cu1 Ni1 C17'
_cell_volume   257.22965267
_cell_formula_units_Z   1
loop_
 _symmetry_equiv_pos_site_id
 _symmetry_equiv_pos_as_xyz
  1  'x, y, z'
loop_
 _atom_site_type_symbol
 _atom_site_label
 _atom_site_symmetry_multiplicity
 _atom_site_fract_x
 _atom_site_fract_y
 _atom_site_fract_z
 _atom_site_occupancy
  C  C0  1  0.27797700  0.26886300  0.26669500  1
  Ni  Ni1  1  0.91429500  0.91655300  0.24736600  1
  C  C2  1  0.19389600  0.61267600  0.78245800  1
  C  C3  1  0.38845100  0.81067100  0.27580700  1
  C  C4  1  0.61686500  0.19893400  0.71971700  1
  C  C5  1  0.81887300  0.39108600  0.23014300  1
  Cu  Cu6  1  0.08651300  0.08437000  0.75183000  1
  C  C7  1  0.03423700  0.80063600  0.66728800  1
  C  C8  1  0.08872500  0.36963300  0.80236700  1
  C  C9  1  0.21057400  0.00453100  0.14676700  1
  C  C10  1  0.36398200  0.66445700  0.59768100  1
  C  C11  1  0.36666300  0.10636800  0.67203700  1
  C  C12  1  0.31315100  0.59023700  0.11418900  1
  C  C13  1  0.66463500  0.36492000  0.90961400  1
  C  C14  1  0.62217800  0.90577900  0.25815200  1
  C  C15  1  0.60336900  0.32097100  0.39269400  1
  C  C16  1  0.79788100  0.03226600  0.83346000  1
  C  C17  1  0.91367700  0.62917900  0.23090300  1
  C  C18  1  0.00183700  0.20565000  0.35082900  1
