# generated using pymatgen
data_Cu2NiC14
_symmetry_space_group_name_H-M   'P 1'
_cell_length_a   4.12416565
_cell_length_b   5.95273169
_cell_length_c   10.60486200
_cell_angle_alpha   90.00000000
_cell_angle_beta   90.00000000
_cell_angle_gamma   68.61869127
_symmetry_Int_Tables_number   1
_chemical_formula_structural   Cu2NiC14
_chemical_formula_sum   'Cu2 Ni1 C14'
_cell_volume   242.43127414
_cell_formula_units_Z   1
loop_
 _symmetry_equiv_pos_site_id
 _symmetry_equiv_pos_as_xyz
  1  'x, y, z'
loop_
 _atom_site_type_symbol
 _atom_site_label
 _atom_site_symmetry_multiplicity
 _atom_site_fract_x
 _atom_site_fract_y
 _atom_site_fract_z
 _atom_site_occupancy
  C  C0  1  0.13254100  0.72835000  0.92729200  1
  C  C1  1  0.13254100  0.72835000  0.57270800  1
  C  C2  1  0.86917300  0.28875800  0.06318600  1
  C  C3  1  0.86917300  0.28875800  0.43681400  1
  Ni  Ni4  1  0.58934900  0.94527100  0.25000000  1
  Cu  Cu5  1  0.21928800  0.57720200  0.25000000  1
  Cu  Cu6  1  0.78177900  0.35948100  0.75000000  1
  C  C7  1  0.99368800  0.90463500  0.37712200  1
  C  C8  1  0.99368800  0.90463500  0.12287800  1
  C  C9  1  0.70618600  0.59488500  0.90391100  1
  C  C10  1  0.70618600  0.59488500  0.59608900  1
  C  C11  1  0.28982700  0.46210300  0.75000000  1
  C  C12  1  0.71352500  0.57352900  0.25000000  1
  C  C13  1  0.29809400  0.43051700  0.07527100  1
  C  C14  1  0.29809400  0.43051700  0.42472900  1
  C  C15  1  0.94510100  0.11489600  0.62365500  1
  C  C16  1  0.94510100  0.11489600  0.87634500  1
