# generated using pymatgen
data_CuNiC
_symmetry_space_group_name_H-M   'P 1'
_cell_length_a   4.46447100
_cell_length_b   7.24780400
_cell_length_c   7.54126600
_cell_angle_alpha   90.00000000
_cell_angle_beta   90.00000000
_cell_angle_gamma   90.00000000
_symmetry_Int_Tables_number   1
_chemical_formula_structural   CuNiC
_chemical_formula_sum   'Cu4 Ni4 C4'
_cell_volume   244.01734995
_cell_formula_units_Z   4
loop_
 _symmetry_equiv_pos_site_id
 _symmetry_equiv_pos_as_xyz
  1  'x, y, z'
loop_
 _atom_site_type_symbol
 _atom_site_label
 _atom_site_symmetry_multiplicity
 _atom_site_fract_x
 _atom_site_fract_y
 _atom_site_fract_z
 _atom_site_occupancy
  C  C0  1  0.25000000  0.49129400  0.68964100  1
  C  C1  1  0.75000000  0.50870600  0.31035900  1
  C  C2  1  0.25000000  0.99129400  0.81035900  1
  C  C3  1  0.75000000  0.00870600  0.18964100  1
  Ni  Ni4  1  0.25000000  0.29802600  0.10275200  1
  Ni  Ni5  1  0.75000000  0.70197400  0.89724800  1
  Ni  Ni6  1  0.25000000  0.79802600  0.39724800  1
  Ni  Ni7  1  0.75000000  0.20197400  0.60275200  1
  Cu  Cu8  1  0.75000000  0.84807500  0.57169400  1
  Cu  Cu9  1  0.25000000  0.15192500  0.42830600  1
  Cu  Cu10  1  0.75000000  0.34807500  0.92830600  1
  Cu  Cu11  1  0.25000000  0.65192500  0.07169400  1
