# generated using pymatgen
data_CuNiC9
_symmetry_space_group_name_H-M   'P 1'
_cell_length_a   7.35348122
_cell_length_b   7.35348122
_cell_length_c   6.78476586
_cell_angle_alpha   76.20195071
_cell_angle_beta   129.27314555
_cell_angle_gamma   129.49375660
_symmetry_Int_Tables_number   1
_chemical_formula_structural   CuNiC9
_chemical_formula_sum   'Cu1 Ni1 C9'
_cell_volume   210.74078943
_cell_formula_units_Z   1
loop_
 _symmetry_equiv_pos_site_id
 _symmetry_equiv_pos_as_xyz
  1  'x, y, z'
loop_
 _atom_site_type_symbol
 _atom_site_label
 _atom_site_symmetry_multiplicity
 _atom_site_fract_x
 _atom_site_fract_y
 _atom_site_fract_z
 _atom_site_occupancy
  C  C0  1  0.95725925  0.78146551  0.73872576  1
  C  C1  1  0.04274075  0.21853449  0.26127424  1
  C  C2  1  0.50000000  0.00000000  0.50000000  1
  Ni  Ni3  1  -0.00000000  0.50000000  0.50000000  1
  Cu  Cu4  1  0.50000000  0.50000000  -0.00000000  1
  C  C5  1  0.96241311  0.17555230  0.61487057  1
  C  C6  1  0.56068172  0.34754354  0.38512943  1
  C  C7  1  0.03758689  0.82444770  0.38512943  1
  C  C8  1  0.43931828  0.65245646  0.61487057  1
  C  C9  1  0.73722726  0.35080318  0.08803044  1
  C  C10  1  0.26277274  0.64919682  -0.08803044  1
