# generated using pymatgen
data_Cu2NiC
_symmetry_space_group_name_H-M   'P 1'
_cell_length_a   6.91631317
_cell_length_b   6.91631317
_cell_length_c   6.91631317
_cell_angle_alpha   98.82516386
_cell_angle_beta   98.82516386
_cell_angle_gamma   133.88079858
_symmetry_Int_Tables_number   1
_chemical_formula_structural   Cu2NiC
_chemical_formula_sum   'Cu8 Ni4 C4'
_cell_volume   219.41322295
_cell_formula_units_Z   4
loop_
 _symmetry_equiv_pos_site_id
 _symmetry_equiv_pos_as_xyz
  1  'x, y, z'
loop_
 _atom_site_type_symbol
 _atom_site_label
 _atom_site_symmetry_multiplicity
 _atom_site_fract_x
 _atom_site_fract_y
 _atom_site_fract_z
 _atom_site_occupancy
  C  C0  1  0.17168600  0.37500000  0.29668600  1
  C  C1  1  0.62500000  0.92168600  0.79668600  1
  C  C2  1  0.12500000  0.82831400  0.20331400  1
  C  C3  1  0.07831400  0.87500000  0.70331400  1
  Ni  Ni4  1  0.69614000  0.37500000  0.82114000  1
  Ni  Ni5  1  0.62500000  0.44614000  0.32114000  1
  Ni  Ni6  1  0.55386000  0.87500000  0.17886000  1
  Ni  Ni7  1  0.12500000  0.30386000  0.67886000  1
  Cu  Cu8  1  0.27116300  0.50550600  0.61614900  1
  Cu  Cu9  1  0.34498600  0.72883700  0.23434300  1
  Cu  Cu10  1  0.88935700  0.65501400  0.38385100  1
  Cu  Cu11  1  0.49449400  0.11064300  0.76565700  1
  Cu  Cu12  1  0.97883700  0.09498600  0.73434300  1
  Cu  Cu13  1  0.90501400  0.63935700  0.88385100  1
  Cu  Cu14  1  0.75550600  0.02116300  0.11614900  1
  Cu  Cu15  1  0.36064300  0.24449400  0.26565700  1
