# generated using pymatgen
data_CuNiC18
_symmetry_space_group_name_H-M   'P 1'
_cell_length_a   15.65831735
_cell_length_b   8.99446564
_cell_length_c   8.98458413
_cell_angle_alpha   90.00000000
_cell_angle_beta   125.03322056
_cell_angle_gamma   90.00000000
_symmetry_Int_Tables_number   1
_chemical_formula_structural   CuNiC18
_chemical_formula_sum   'Cu4 Ni4 C72'
_cell_volume   1036.11158808
_cell_formula_units_Z   4
loop_
 _symmetry_equiv_pos_site_id
 _symmetry_equiv_pos_as_xyz
  1  'x, y, z'
loop_
 _atom_site_type_symbol
 _atom_site_label
 _atom_site_symmetry_multiplicity
 _atom_site_fract_x
 _atom_site_fract_y
 _atom_site_fract_z
 _atom_site_occupancy
  C  C0  1  0.25003751  0.72744612  0.99067472  1
  C  C1  1  0.75003751  0.77255388  0.49067472  1
  C  C2  1  0.75003751  0.22744612  0.99067472  1
  C  C3  1  0.25003751  0.27255388  0.49067472  1
  C  C4  1  0.49855476  0.11847030  0.74302227  1
  C  C5  1  0.49855476  0.88152970  0.24302227  1
  C  C6  1  0.99855476  0.61847030  0.74302227  1
  C  C7  1  0.99855476  0.38152970  0.24302227  1
  C  C8  1  0.19120318  0.94650963  0.28514332  1
  C  C9  1  0.19120318  0.05349037  0.78514332  1
  C  C10  1  0.69120318  0.44650963  0.28514332  1
  C  C11  1  0.69120318  0.55349037  0.78514332  1
  Ni  Ni12  1  0.89246771  0.75346860  0.93152107  1
  Ni  Ni13  1  0.89246771  0.24653140  0.43152107  1
  Ni  Ni14  1  0.39246771  0.25346860  0.93152107  1
  Ni  Ni15  1  0.39246771  0.74653140  0.43152107  1
  Cu  Cu16  1  0.10536655  0.74998632  0.56410015  1
  Cu  Cu17  1  0.10536655  0.25001368  0.06410015  1
  Cu  Cu18  1  0.60536655  0.24998632  0.56410015  1
  Cu  Cu19  1  0.60536655  0.75001368  0.06410015  1
  C  C20  1  0.00058271  0.95977585  0.75653361  1
  C  C21  1  0.00058271  0.04022415  0.25653361  1
  C  C22  1  0.50058271  0.45977585  0.75653361  1
  C  C23  1  0.50058271  0.54022415  0.25653361  1
  C  C24  1  0.35509858  0.88707455  0.75857866  1
  C  C25  1  0.64276486  0.89488538  0.74679361  1
  C  C26  1  0.64276486  0.10511462  0.24679361  1
  C  C27  1  0.35509858  0.11292545  0.25857866  1
  C  C28  1  0.85509858  0.38707455  0.75857866  1
  C  C29  1  0.14276486  0.39488538  0.74679361  1
  C  C30  1  0.14276486  0.60511462  0.24679361  1
  C  C31  1  0.85509858  0.61292545  0.25857866  1
  C  C32  1  0.14719168  0.57392240  0.74111008  1
  C  C33  1  0.84930949  0.57160466  0.76463836  1
  C  C34  1  0.84930949  0.42839534  0.26463836  1
  C  C35  1  0.14719168  0.42607760  0.24111008  1
  C  C36  1  0.64719168  0.07392240  0.74111008  1
  C  C37  1  0.34930949  0.07160466  0.76463836  1
  C  C38  1  0.34930949  0.92839534  0.26463836  1
  C  C39  1  0.64719168  0.92607760  0.24111008  1
  C  C40  1  0.43420065  0.57184166  0.57866784  1
  C  C41  1  0.56950150  0.56299196  0.93783948  1
  C  C42  1  0.56950150  0.43700804  0.43783948  1
  C  C43  1  0.43420065  0.42815834  0.07866784  1
  C  C44  1  0.93420065  0.07184166  0.57866784  1
  C  C45  1  0.06950150  0.06299196  0.93783948  1
  C  C46  1  0.06950150  0.93700804  0.43783948  1
  C  C47  1  0.93420065  0.92815834  0.07866784  1
  C  C48  1  0.25371527  0.82258538  0.74474329  1
  C  C49  1  0.74008386  0.80956158  0.75979601  1
  C  C50  1  0.74008386  0.19043842  0.25979601  1
  C  C51  1  0.25371527  0.17741462  0.24474329  1
  C  C52  1  0.75371527  0.32258538  0.74474329  1
  C  C53  1  0.24008386  0.30956158  0.75979601  1
  C  C54  1  0.24008386  0.69043842  0.25979601  1
  C  C55  1  0.75371527  0.67741462  0.24474329  1
  C  C56  1  0.35485765  0.85646948  0.57622701  1
  C  C57  1  0.63875426  0.84421885  0.91858245  1
  C  C58  1  0.63875426  0.15578115  0.41858245  1
  C  C59  1  0.35485765  0.14353052  0.07622701  1
  C  C60  1  0.85485765  0.35646948  0.57622701  1
  C  C61  1  0.13875426  0.34421885  0.91858245  1
  C  C62  1  0.13875426  0.65578115  0.41858245  1
  C  C63  1  0.85485765  0.64353052  0.07622701  1
  C  C64  1  0.46440442  0.82629661  0.93913824  1
  C  C65  1  0.53500517  0.82873612  0.56195318  1
  C  C66  1  0.53500517  0.17126388  0.06195318  1
  C  C67  1  0.46440442  0.17370339  0.43913824  1
  C  C68  1  0.96440442  0.32629661  0.93913824  1
  C  C69  1  0.03500517  0.32873612  0.56195318  1
  C  C70  1  0.03500517  0.67126388  0.06195318  1
  C  C71  1  0.96440442  0.67370339  0.43913824  1
  C  C72  1  0.08155717  0.85491170  0.74575369  1
  C  C73  1  0.91534301  0.85069513  0.75518295  1
  C  C74  1  0.91534301  0.14930487  0.25518295  1
  C  C75  1  0.08155717  0.14508830  0.24575369  1
  C  C76  1  0.58155717  0.35491170  0.74575369  1
  C  C77  1  0.41534301  0.35069513  0.75518295  1
  C  C78  1  0.41534301  0.64930487  0.25518295  1
  C  C79  1  0.58155717  0.64508830  0.24575369  1
