# generated using pymatgen
data_Cu4(NiC11)3
_symmetry_space_group_name_H-M   'P 1'
_cell_length_a   8.77383194
_cell_length_b   8.82909742
_cell_length_c   21.88234272
_cell_angle_alpha   89.64343950
_cell_angle_beta   89.70533629
_cell_angle_gamma   120.04734780
_symmetry_Int_Tables_number   1
_chemical_formula_structural   Cu4(NiC11)3
_chemical_formula_sum   'Cu12 Ni9 C99'
_cell_volume   1467.21745885
_cell_formula_units_Z   3
loop_
 _symmetry_equiv_pos_site_id
 _symmetry_equiv_pos_as_xyz
  1  'x, y, z'
loop_
 _atom_site_type_symbol
 _atom_site_label
 _atom_site_symmetry_multiplicity
 _atom_site_fract_x
 _atom_site_fract_y
 _atom_site_fract_z
 _atom_site_occupancy
  C  C0  1  0.62385270  0.99865107  0.25191085  1
  C  C1  1  0.63709280  0.62592833  0.75045701  1
  C  C2  1  0.00119071  0.36562156  0.74571448  1
  C  C3  1  0.29834014  0.33954814  0.58456011  1
  C  C4  1  0.02547080  0.69436075  0.58687687  1
  C  C5  1  0.67328985  0.96575016  0.57895162  1
  C  C6  1  0.29833602  0.95650745  0.08676941  1
  C  C7  1  0.66946769  0.70564705  0.07983351  1
  C  C8  1  0.02787426  0.33512164  0.08346769  1
  C  C9  1  0.97124357  0.67760527  0.91427124  1
  C  C10  1  0.32953919  0.29814768  0.91204787  1
  C  C11  1  0.68837407  0.66953355  0.41462880  1
  C  C12  1  0.00027494  0.01527240  0.49573543  1
  C  C13  1  0.98724607  0.99457133  0.99632056  1
  C  C14  1  0.65648309  0.32518067  0.82946775  1
  C  C15  1  0.64789184  0.32046953  0.32908922  1
  C  C16  1  0.32240350  0.67134170  0.16970094  1
  C  C17  1  0.32747968  0.66153709  0.66450059  1
  C  C18  1  0.68001790  0.33467084  0.97817008  1
  C  C19  1  0.67095665  0.33166297  0.47605535  1
  C  C20  1  0.32639350  0.66388636  0.81310113  1
  Ni  Ni21  1  0.02200885  0.02936725  0.35429190  1
  Ni  Ni22  1  0.01090816  0.99672393  0.85607120  1
  Ni  Ni23  1  0.00102680  0.00363952  0.64855044  1
  Ni  Ni24  1  0.99645625  0.97933606  0.14941306  1
  Ni  Ni25  1  0.67747896  0.36176173  0.68751037  1
  Ni  Ni26  1  0.66310071  0.31741508  0.18572212  1
  Ni  Ni27  1  0.33227933  0.67776978  0.01695279  1
  Ni  Ni28  1  0.34557053  0.64854008  0.51694491  1
  Ni  Ni29  1  0.34143310  0.68200377  0.31624937  1
  Cu  Cu30  1  0.28663916  0.99897742  0.25033162  1
  Cu  Cu31  1  0.29019873  0.27448662  0.74836851  1
  Cu  Cu32  1  0.00115677  0.72138338  0.74867727  1
  Cu  Cu33  1  0.96104335  0.33525211  0.58706424  1
  Cu  Cu34  1  0.66985567  0.63200974  0.58495659  1
  Cu  Cu35  1  0.95865228  0.62317436  0.08840063  1
  Cu  Cu36  1  0.66812191  0.03421342  0.08800328  1
  Cu  Cu37  1  0.62653616  0.67974590  0.91911999  1
  Cu  Cu38  1  0.04863350  0.36798331  0.91996050  1
  Cu  Cu39  1  0.33286310  0.95605200  0.91827539  1
  Cu  Cu40  1  0.62474650  0.94919612  0.41466311  1
  Cu  Cu41  1  0.32216705  0.37875468  0.41367943  1
  C  C42  1  0.71003288  0.70430463  0.25015921  1
  C  C43  1  0.00466511  0.29184083  0.24942215  1
  C  C44  1  0.71415764  0.00396465  0.74927217  1
  C  C45  1  0.37846919  0.04449693  0.58524279  1
  C  C46  1  0.37601775  0.33310958  0.08601707  1
  C  C47  1  0.05492816  0.67267176  0.41604270  1
  C  C48  1  0.18471759  0.02429730  0.30786960  1
  C  C49  1  0.81645934  0.78692857  0.30499480  1
  C  C50  1  0.96490360  0.17251344  0.30347449  1
  C  C51  1  0.19549324  0.16927186  0.81049247  1
  C  C52  1  0.96177228  0.80123106  0.80919068  1
  C  C53  1  0.82206859  0.03239039  0.80344097  1
  C  C54  1  0.78938163  0.96913012  0.69318610  1
  C  C55  1  0.16221961  0.19944469  0.68900612  1
  C  C56  1  0.02827362  0.83519789  0.68713728  1
  C  C57  1  0.79148347  0.82274489  0.19466327  1
  C  C58  1  0.02848548  0.20972702  0.19343444  1
  C  C59  1  0.17242432  0.97428782  0.18779835  1
  C  C60  1  0.86083569  0.36262629  0.64523595  1
  C  C61  1  0.49208582  0.12432759  0.63800325  1
  C  C62  1  0.62529021  0.49941609  0.64241416  1
  C  C63  1  0.85022983  0.48664881  0.14278178  1
  C  C64  1  0.62677929  0.12638364  0.14393500  1
  C  C65  1  0.49223364  0.36370084  0.13816573  1
  C  C66  1  0.45168654  0.29940215  0.02916713  1
  C  C67  1  0.83313953  0.53889053  0.02584512  1
  C  C68  1  0.70438342  0.16853152  0.02799666  1
  C  C69  1  0.45838067  0.15758853  0.52900248  1
  C  C70  1  0.70440026  0.53760076  0.52494591  1
  C  C71  1  0.82783535  0.29666159  0.52808248  1
  C  C72  1  0.52803090  0.69335005  0.97922416  1
  C  C73  1  0.16952122  0.46301714  0.97834738  1
  C  C74  1  0.29289251  0.83351380  0.97773833  1
  C  C75  1  0.53265449  0.83341488  0.47720395  1
  C  C76  1  0.30018118  0.45786423  0.47808189  1
  C  C77  1  0.15432960  0.69475691  0.47320654  1
  C  C78  1  0.13042186  0.63868488  0.36253988  1
  C  C79  1  0.50527415  0.87064744  0.35506640  1
  C  C80  1  0.36669251  0.51374903  0.35709429  1
  C  C81  1  0.12769892  0.49865442  0.85854580  1
  C  C82  1  0.37075371  0.86750340  0.85829173  1
  C  C83  1  0.50123854  0.63231437  0.85736276  1
  C  C84  1  0.02020469  0.81916083  0.41061979  1
  C  C85  1  0.81838380  0.96437423  0.40505186  1
  C  C86  1  0.15870938  0.18185725  0.41027736  1
  C  C87  1  0.02529249  0.18001315  0.90851338  1
  C  C88  1  0.16123783  0.97650492  0.91097776  1
  C  C89  1  0.82153142  0.84195016  0.90927876  1
  C  C90  1  0.98067039  0.16052957  0.59153658  1
  C  C91  1  0.20223524  0.02963344  0.58866621  1
  C  C92  1  0.84589654  0.82484746  0.59133027  1
  C  C93  1  0.97698040  0.81742618  0.09117227  1
  C  C94  1  0.85002672  0.02591022  0.09576815  1
  C  C95  1  0.19768215  0.17607117  0.09099725  1
  C  C96  1  0.69083875  0.15720623  0.74203908  1
  C  C97  1  0.48995240  0.30637086  0.74128664  1
  C  C98  1  0.83237304  0.51770806  0.74470552  1
  C  C99  1  0.69335163  0.53173172  0.24180290  1
  C  C100  1  0.84090714  0.30556441  0.24440967  1
  C  C101  1  0.49023423  0.17477376  0.24253648  1
  C  C102  1  0.63893420  0.49643029  0.92459408  1
  C  C103  1  0.85878506  0.36525849  0.92126929  1
  C  C104  1  0.50145065  0.15475512  0.92435204  1
  C  C105  1  0.64712934  0.14730797  0.42390723  1
  C  C106  1  0.50887908  0.36532926  0.42348762  1
  C  C107  1  0.87011317  0.50893230  0.42107970  1
  C  C108  1  0.35866931  0.49046437  0.07992095  1
  C  C109  1  0.14992167  0.63651392  0.07831003  1
  C  C110  1  0.49521241  0.84226836  0.07780632  1
  C  C111  1  0.35578496  0.86829569  0.57701010  1
  C  C112  1  0.49460248  0.65224171  0.57845052  1
  C  C113  1  0.15042255  0.51650908  0.57592764  1
  C  C114  1  0.31431878  0.82418661  0.25749363  1
  C  C115  1  0.53332026  0.69120405  0.25371077  1
  C  C116  1  0.16018512  0.46532354  0.25682833  1
  C  C117  1  0.31640527  0.48103172  0.75446380  1
  C  C118  1  0.17443745  0.69117255  0.75286027  1
  C  C119  1  0.53730185  0.84023624  0.75359611  1
