# generated using pymatgen
data_Cu2NiC10
_symmetry_space_group_name_H-M   'P 1'
_cell_length_a   5.81826571
_cell_length_b   5.65301491
_cell_length_c   5.81826598
_cell_angle_alpha   95.80978095
_cell_angle_beta   111.88093817
_cell_angle_gamma   122.98591480
_symmetry_Int_Tables_number   1
_chemical_formula_structural   Cu2NiC10
_chemical_formula_sum   'Cu2 Ni1 C10'
_cell_volume   137.11544074
_cell_formula_units_Z   1
loop_
 _symmetry_equiv_pos_site_id
 _symmetry_equiv_pos_as_xyz
  1  'x, y, z'
loop_
 _atom_site_type_symbol
 _atom_site_label
 _atom_site_symmetry_multiplicity
 _atom_site_fract_x
 _atom_site_fract_y
 _atom_site_fract_z
 _atom_site_occupancy
  Ni  Ni0  1  0.50000000  0.00000000  0.00000000  1
  Cu  Cu1  1  0.11486400  0.90375100  0.28888700  1
  Cu  Cu2  1  0.88513600  0.09624900  0.71111300  1
  C  C3  1  0.63209800  0.41170300  0.27960400  1
  C  C4  1  0.36790200  0.58829700  0.72039600  1
  C  C5  1  0.80807200  0.44291900  0.13484800  1
  C  C6  1  0.72456600  0.81776200  0.93129100  1
  C  C7  1  0.27543400  0.18223800  0.06870900  1
  C  C8  1  0.19192800  0.55708100  0.86515200  1
  C  C9  1  0.21783000  0.28117200  0.56334200  1
  C  C10  1  0.61353000  0.18223800  0.40680300  1
  C  C11  1  0.78217000  0.71882800  0.43665800  1
  C  C12  1  0.38647000  0.81776200  0.59319700  1
