# generated using pymatgen
data_Cu2NiC16
_symmetry_space_group_name_H-M   'P 1'
_cell_length_a   4.95019350
_cell_length_b   4.93501651
_cell_length_c   9.20087200
_cell_angle_alpha   90.00003031
_cell_angle_beta   89.99996973
_cell_angle_gamma   90.08952701
_symmetry_Int_Tables_number   1
_chemical_formula_structural   Cu2NiC16
_chemical_formula_sum   'Cu2 Ni1 C16'
_cell_volume   224.77046544
_cell_formula_units_Z   1
loop_
 _symmetry_equiv_pos_site_id
 _symmetry_equiv_pos_as_xyz
  1  'x, y, z'
loop_
 _atom_site_type_symbol
 _atom_site_label
 _atom_site_symmetry_multiplicity
 _atom_site_fract_x
 _atom_site_fract_y
 _atom_site_fract_z
 _atom_site_occupancy
  Ni  Ni0  1  0.50000000  0.00000000  0.41172000  1
  C  C1  1  0.00000000  0.00000000  0.99073000  1
  C  C2  1  0.00000000  0.00000000  0.30363000  1
  C  C3  1  0.50000100  0.49999900  0.84250300  1
  C  C4  1  0.49999900  0.50000100  0.53046400  1
  Cu  Cu5  1  0.00000000  0.00000000  0.66528100  1
  Cu  Cu6  1  0.50000000  0.50000000  0.16765000  1
  C  C7  1  0.20521400  0.79242400  0.83751500  1
  C  C8  1  0.21340100  0.80133800  0.16172100  1
  C  C9  1  0.21390700  0.78899100  0.49153500  1
  C  C10  1  0.29160800  0.29548300  0.99641200  1
  C  C11  1  0.28581500  0.29040100  0.34157800  1
  C  C12  1  0.29907600  0.28873800  0.67239600  1
  C  C13  1  0.70839200  0.70451700  0.99641200  1
  C  C14  1  0.71418500  0.70959900  0.34157800  1
  C  C15  1  0.70092400  0.71126200  0.67239600  1
  C  C16  1  0.79478700  0.20757300  0.83751400  1
  C  C17  1  0.78659900  0.19866200  0.16172100  1
  C  C18  1  0.78609000  0.21101000  0.49153400  1
