# generated using pymatgen
data_Cu5NiC13
_symmetry_space_group_name_H-M   'P 1'
_cell_length_a   5.07764684
_cell_length_b   5.12158927
_cell_length_c   9.92063408
_cell_angle_alpha   93.53048536
_cell_angle_beta   97.13599918
_cell_angle_gamma   60.28341716
_symmetry_Int_Tables_number   1
_chemical_formula_structural   Cu5NiC13
_chemical_formula_sum   'Cu5 Ni1 C13'
_cell_volume   222.32762349
_cell_formula_units_Z   1
loop_
 _symmetry_equiv_pos_site_id
 _symmetry_equiv_pos_as_xyz
  1  'x, y, z'
loop_
 _atom_site_type_symbol
 _atom_site_label
 _atom_site_symmetry_multiplicity
 _atom_site_fract_x
 _atom_site_fract_y
 _atom_site_fract_z
 _atom_site_occupancy
  Ni  Ni0  1  0.92438766  1.00000000  0.75443588  1
  Cu  Cu1  1  0.17813516  0.66493455  0.49574662  1
  Cu  Cu2  1  0.64909471  0.66663098  0.98762604  1
  Cu  Cu3  1  0.31572669  0.33336902  0.98762604  1
  Cu  Cu4  1  0.84306971  0.33506545  0.49574662  1
  Cu  Cu5  1  0.51155774  1.00000000  0.49891099  1
  C  C6  1  0.99420372  1.00000000  0.04181377  1
  C  C7  1  0.00945473  0.63199048  0.09496788  1
  C  C8  1  0.28014162  0.67922337  0.89270476  1
  C  C9  1  0.15883868  0.32841199  0.40307203  1
  C  C10  1  0.48725167  0.67158801  0.40307203  1
  C  C11  1  0.56455406  0.30559788  0.60623676  1
  C  C12  1  0.19137133  0.00000000  0.60263757  1
  C  C13  1  0.87015294  0.69440212  0.60623676  1
  C  C14  1  0.64144521  0.36800952  0.09496788  1
  C  C15  1  0.37589688  1.00000000  0.09456155  1
  C  C16  1  0.95936499  0.32077663  0.89270476  1
  C  C17  1  0.63989499  0.00000000  0.89359035  1
  C  C18  1  0.80295750  1.00000000  0.39584172  1
