# generated using pymatgen
data_CuNiC17
_symmetry_space_group_name_H-M   'P 1'
_cell_length_a   8.97779524
_cell_length_b   8.97866336
_cell_length_c   22.95111262
_cell_angle_alpha   90.04968901
_cell_angle_beta   90.01439042
_cell_angle_gamma   119.79343863
_symmetry_Int_Tables_number   1
_chemical_formula_structural   CuNiC17
_chemical_formula_sum   'Cu6 Ni6 C102'
_cell_volume   1605.51980396
_cell_formula_units_Z   6
loop_
 _symmetry_equiv_pos_site_id
 _symmetry_equiv_pos_as_xyz
  1  'x, y, z'
loop_
 _atom_site_type_symbol
 _atom_site_label
 _atom_site_symmetry_multiplicity
 _atom_site_fract_x
 _atom_site_fract_y
 _atom_site_fract_z
 _atom_site_occupancy
  C  C0  1  0.00126634  0.63364972  0.25072076  1
  C  C1  1  0.36780074  0.99878899  0.75186987  1
  C  C2  1  0.66381635  0.96884687  0.58631864  1
  C  C3  1  0.03160164  0.33455784  0.08599268  1
  C  C4  1  0.97254566  0.67014722  0.91960980  1
  C  C5  1  0.33024629  0.02759981  0.41901936  1
  C  C6  1  0.00491434  0.99509021  0.50039647  1
  C  C7  1  0.00357599  0.99500507  0.99956064  1
  C  C8  1  0.66505146  0.32520508  0.83478687  1
  C  C9  1  0.67510741  0.33565749  0.33259582  1
  C  C10  1  0.34510566  0.67239325  0.16673827  1
  C  C11  1  0.32927625  0.65440112  0.66800145  1
  C  C12  1  0.99350728  0.00342034  0.35157777  1
  C  C13  1  0.00429332  0.99969232  0.64892376  1
  C  C14  1  0.99969682  0.99484904  0.14711907  1
  C  C15  1  0.66939023  0.33234312  0.68757550  1
  C  C16  1  0.67221639  0.34180196  0.47985820  1
  C  C17  1  0.32417705  0.66458867  0.51964390  1
  Ni  Ni18  1  -0.00000618  0.29814723  0.24718649  1
  Ni  Ni19  1  0.70576826  0.99525197  0.75103893  1
  Ni  Ni20  1  0.37169410  0.04132890  0.58208166  1
  Ni  Ni21  1  0.95751231  0.62318708  0.08085100  1
  Ni  Ni22  1  0.33448102  0.96345097  0.91517767  1
  Ni  Ni23  1  0.03843718  0.66603355  0.41291529  1
  Cu  Cu24  1  0.99909377  0.00583184  0.85329256  1
  Cu  Cu25  1  0.66537118  0.33033228  0.18430946  1
  Cu  Cu26  1  0.66012236  0.32899619  0.98054355  1
  Cu  Cu27  1  0.33428487  0.67321282  0.01817629  1
  Cu  Cu28  1  0.33114575  0.65960447  0.31376023  1
  Cu  Cu29  1  0.34047583  0.66996841  0.81599944  1
  C  C30  1  0.29936828  0.00360097  0.25110341  1
  C  C31  1  0.70207716  0.70455888  0.24961330  1
  C  C32  1  0.28949807  0.29520211  0.75248284  1
  C  C33  1  0.00090353  0.70705321  0.75422979  1
  C  C34  1  0.95909019  0.33291515  0.58390809  1
  C  C35  1  0.66756227  0.62611745  0.58418649  1
  C  C36  1  0.66210046  0.04071146  0.08262231  1
  C  C37  1  0.37879053  0.33722936  0.08261629  1
  C  C38  1  0.62396680  0.66608665  0.91747125  1
  C  C39  1  0.04479322  0.37595560  0.91778545  1
  C  C40  1  0.62124606  0.95397623  0.41662203  1
  C  C41  1  0.33472300  0.37678034  0.41526047  1
  C  C42  1  0.21603513  0.02590098  0.30688594  1
  C  C43  1  0.81988453  0.78605323  0.30334438  1
  C  C44  1  0.97550950  0.17866326  0.30376992  1
  C  C45  1  0.21473748  0.17645538  0.80629891  1
  C  C46  1  0.97540151  0.78680195  0.81057985  1
  C  C47  1  0.82570820  0.02943754  0.80806924  1
  C  C48  1  0.79081696  0.97183507  0.69127466  1
  C  C49  1  0.17935261  0.20965746  0.69795910  1
  C  C50  1  0.03572412  0.82814622  0.70154620  1
  C  C51  1  0.78986751  0.81536275  0.19542982  1
  C  C52  1  0.02243545  0.20827123  0.18861221  1
  C  C53  1  0.17703824  0.96832532  0.19854405  1
  C  C54  1  0.87488527  0.35980919  0.63838555  1
  C  C55  1  0.49185153  0.13181329  0.64012574  1
  C  C56  1  0.64715695  0.51823194  0.63855056  1
  C  C57  1  0.87568282  0.50268090  0.13936035  1
  C  C58  1  0.62659551  0.11690486  0.13763577  1
  C  C59  1  0.48720943  0.36549365  0.13799615  1
  C  C60  1  0.45496022  0.30201306  0.02797622  1
  C  C61  1  0.84479177  0.53783161  0.02162569  1
  C  C62  1  0.69984639  0.15742946  0.02862695  1
  C  C63  1  0.46258462  0.15132036  0.52334668  1
  C  C64  1  0.69337428  0.54208932  0.52956918  1
  C  C65  1  0.84601974  0.30585335  0.52993983  1
  C  C66  1  0.54196562  0.69360722  0.97223371  1
  C  C67  1  0.15075135  0.45135391  0.97428448  1
  C  C68  1  0.28830859  0.83317787  0.97071407  1
  C  C69  1  0.54190635  0.84873576  0.47262983  1
  C  C70  1  0.31148154  0.46212019  0.46968818  1
  C  C71  1  0.16449196  0.69848709  0.46912440  1
  C  C72  1  0.12202585  0.63913164  0.35323795  1
  C  C73  1  0.50483436  0.86969852  0.36281811  1
  C  C74  1  0.36788884  0.48575843  0.36006528  1
  C  C75  1  0.12921897  0.49438306  0.86444773  1
  C  C76  1  0.36396256  0.88265787  0.85505406  1
  C  C77  1  0.51372506  0.63216389  0.86239351  1
  C  C78  1  0.03190714  0.84522889  0.41002290  1
  C  C79  1  0.80144937  0.97476665  0.41069277  1
  C  C80  1  0.17409633  0.19465823  0.41026707  1
  C  C81  1  0.02345597  0.19512598  0.91212105  1
  C  C82  1  0.15394985  0.97202012  0.91060457  1
  C  C83  1  0.80749201  0.82626794  0.91227027  1
  C  C84  1  0.96682597  0.16488629  0.58918999  1
  C  C85  1  0.18091013  0.01771863  0.58785425  1
  C  C86  1  0.82570608  0.80956678  0.58870950  1
  C  C87  1  0.98095941  0.81449663  0.08729822  1
  C  C88  1  0.82905829  0.03026017  0.08911626  1
  C  C89  1  0.19442212  0.18052518  0.08912390  1
  C  C90  1  0.67610710  0.16289836  0.74723565  1
  C  C91  1  0.46945313  0.31292649  0.74506474  1
  C  C92  1  0.84158446  0.53041059  0.74632564  1
  C  C93  1  0.68736385  0.52501154  0.24348346  1
  C  C94  1  0.82977941  0.32415666  0.24520963  1
  C  C95  1  0.47524765  0.16707234  0.24330396  1
  C  C96  1  0.65235605  0.50809065  0.92193907  1
  C  C97  1  0.86626604  0.36659547  0.92196349  1
  C  C98  1  0.50613568  0.15299612  0.92161692  1
  C  C99  1  0.63318405  0.13185074  0.42130115  1
  C  C100  1  0.49046062  0.34719642  0.42052425  1
  C  C101  1  0.85038156  0.49702596  0.41945080  1
  C  C102  1  0.35769739  0.49914197  0.07642519  1
  C  C103  1  0.14509598  0.62902473  0.07718404  1
  C  C104  1  0.50537977  0.85871500  0.07609970  1
  C  C105  1  0.36626701  0.85503464  0.57917470  1
  C  C106  1  0.50764591  0.64807784  0.57868631  1
  C  C107  1  0.13971562  0.48894188  0.57859377  1
  C  C108  1  0.31600605  0.83935269  0.25500997  1
  C  C109  1  0.52535418  0.69161168  0.25596373  1
  C  C110  1  0.17024875  0.49235544  0.25174381  1
  C  C111  1  0.30191856  0.47210117  0.75873007  1
  C  C112  1  0.16643042  0.69211623  0.75757922  1
  C  C113  1  0.51086802  0.82524576  0.75443263  1
