# generated using pymatgen
data_Cu4NiC20
_symmetry_space_group_name_H-M   'P 1'
_cell_length_a   5.91051337
_cell_length_b   7.61102445
_cell_length_c   8.66082724
_cell_angle_alpha   87.21246027
_cell_angle_beta   86.69574042
_cell_angle_gamma   98.01126048
_symmetry_Int_Tables_number   1
_chemical_formula_structural   Cu4NiC20
_chemical_formula_sum   'Cu4 Ni1 C20'
_cell_volume   384.53091095
_cell_formula_units_Z   1
loop_
 _symmetry_equiv_pos_site_id
 _symmetry_equiv_pos_as_xyz
  1  'x, y, z'
loop_
 _atom_site_type_symbol
 _atom_site_label
 _atom_site_symmetry_multiplicity
 _atom_site_fract_x
 _atom_site_fract_y
 _atom_site_fract_z
 _atom_site_occupancy
  Ni  Ni0  1  0.53506700  0.08517600  0.10194600  1
  Cu  Cu1  1  0.80711000  0.14341900  0.33705800  1
  Cu  Cu2  1  0.29136300  0.64012100  0.20405200  1
  Cu  Cu3  1  0.70634000  0.35168400  0.79514400  1
  Cu  Cu4  1  0.23060200  0.85557900  0.69697100  1
  C  C5  1  0.13390300  0.23282900  0.96017100  1
  C  C6  1  0.77069700  0.66098600  0.46801300  1
  C  C7  1  0.28714900  0.32497600  0.50959600  1
  C  C8  1  0.73577000  0.80036300  0.93066300  1
  C  C9  1  0.87246300  0.09922000  0.14565600  1
  C  C10  1  0.53591000  0.18844200  0.30875400  1
  C  C11  1  0.26888400  0.02867800  0.57747200  1
  C  C12  1  0.28310500  0.47491400  0.09049200  1
  C  C13  1  0.75881700  0.51192500  0.91235400  1
  C  C14  1  0.47653900  0.79829900  0.73731500  1
  C  C15  1  0.79638500  0.96332000  0.44827500  1
  C  C16  1  0.07822800  0.69111300  0.61973800  1
  C  C17  1  0.50684400  0.18981200  0.89239800  1
  C  C18  1  0.09208100  0.90488500  0.85696000  1
  C  C19  1  0.45389900  0.82360700  0.11156900  1
  C  C20  1  0.93912400  0.26663900  0.74262600  1
  C  C21  1  0.04036000  0.69237900  0.25196500  1
  C  C22  1  0.58945800  0.42592600  0.63456500  1
  C  C23  1  0.97025700  0.32197900  0.38893800  1
  C  C24  1  0.42297700  0.58854600  0.36324800  1
