# generated using pymatgen
data_Cu3Ni5C31
_symmetry_space_group_name_H-M   'P 1'
_cell_length_a   9.28089969
_cell_length_b   9.24312672
_cell_length_c   23.37189015
_cell_angle_alpha   91.19985547
_cell_angle_beta   89.67403647
_cell_angle_gamma   119.92085857
_symmetry_Int_Tables_number   1
_chemical_formula_structural   Cu3Ni5C31
_chemical_formula_sum   'Cu9 Ni15 C93'
_cell_volume   1737.31059040
_cell_formula_units_Z   3
loop_
 _symmetry_equiv_pos_site_id
 _symmetry_equiv_pos_as_xyz
  1  'x, y, z'
loop_
 _atom_site_type_symbol
 _atom_site_label
 _atom_site_symmetry_multiplicity
 _atom_site_fract_x
 _atom_site_fract_y
 _atom_site_fract_z
 _atom_site_occupancy
  Ni  Ni0  1  0.65307047  0.01232977  0.25797169  1
  Ni  Ni1  1  -0.00142222  0.62027432  0.24697943  1
  Ni  Ni2  1  0.63378746  0.64158949  0.74497019  1
  Ni  Ni3  1  0.36336928  0.01005916  0.76078815  1
  Ni  Ni4  1  0.66560497  0.94857569  0.58321432  1
  Ni  Ni5  1  0.98475924  0.68590232  0.92115862  1
  Ni  Ni6  1  0.69087094  0.01847461  0.91369621  1
  Ni  Ni7  1  0.96025722  0.30574157  0.41118994  1
  Ni  Ni8  1  0.70072278  0.68675757  0.42749418  1
  Ni  Ni9  1  0.00012163  0.97131177  0.50173146  1
  Ni  Ni10  1  0.01094136  0.98174419  0.99751135  1
  Ni  Ni11  1  0.64501449  0.31323595  0.83297252  1
  Ni  Ni12  1  0.66631237  0.31390210  0.33674337  1
  Ni  Ni13  1  0.29191335  0.62661606  0.16003745  1
  Ni  Ni14  1  0.32866241  0.62977614  0.67109732  1
  Cu  Cu15  1  0.99820558  0.00483610  0.35219362  1
  Cu  Cu16  1  0.01210040  0.01534885  0.85051691  1
  Cu  Cu17  1  0.99829762  0.00436563  0.65135565  1
  Cu  Cu18  1  0.00326518  0.00364953  0.14098909  1
  Cu  Cu19  1  0.66280942  0.33751682  0.68597643  1
  Cu  Cu20  1  0.67588720  0.33687133  0.18022452  1
  Cu  Cu21  1  0.33063755  0.67316133  0.01817911  1
  Cu  Cu22  1  0.33547548  0.67261676  0.51722613  1
  Cu  Cu23  1  0.32082578  0.66310777  0.32138733  1
  C  C24  1  0.65911181  0.35114112  0.97733089  1
  C  C25  1  0.68060274  0.34869635  0.48136354  1
  C  C26  1  0.37323966  0.68167931  0.81707818  1
  C  C27  1  0.00103275  0.30153323  0.25104430  1
  C  C28  1  0.29813251  0.31008326  0.75141870  1
  C  C29  1  0.69739526  0.99957290  0.75273008  1
  C  C30  1  0.66990116  0.63154210  0.58318176  1
  C  C31  1  0.95733678  0.62510316  0.08097864  1
  C  C32  1  0.63148137  0.66710670  0.91826426  1
  C  C33  1  0.34317571  0.96557783  0.91658687  1
  C  C34  1  0.63228443  0.97700851  0.41825023  1
  C  C35  1  0.02614446  0.66473972  0.41852379  1
  C  C36  1  0.29704999  0.99869630  0.24936140  1
  C  C37  1  0.70139578  0.70458434  0.24961156  1
  C  C38  1  0.01197574  0.70545112  0.75163447  1
  C  C39  1  0.95458651  0.33234580  0.57938067  1
  C  C40  1  0.37764563  0.04906015  0.58026437  1
  C  C41  1  0.66772361  0.03992311  0.08027374  1
  C  C42  1  0.37894710  0.33279629  0.07934563  1
  C  C43  1  0.03271627  0.37904038  0.91667184  1
  C  C44  1  0.34598913  0.36991987  0.41820891  1
  C  C45  1  0.21719454  0.01558068  0.30178866  1
  C  C46  1  0.80188025  0.77936585  0.30293739  1
  C  C47  1  0.97978893  0.20167806  0.31086752  1
  C  C48  1  0.22266196  0.17715344  0.80238631  1
  C  C49  1  0.97901162  0.77771809  0.80410191  1
  C  C50  1  0.80141668  0.01761914  0.81002630  1
  C  C51  1  0.77198467  0.95727381  0.69454602  1
  C  C52  1  0.18928047  0.22628114  0.69307630  1
  C  C53  1  0.03418289  0.81276662  0.70165680  1
  C  C54  1  0.79073246  0.80776655  0.20020712  1
  C  C55  1  0.00857962  0.19178449  0.19700647  1
  C  C56  1  0.19336786  0.97538517  0.19850128  1
  C  C57  1  0.87323473  0.34764710  0.63156750  1
  C  C58  1  0.46888516  0.12134403  0.63507093  1
  C  C59  1  0.66238250  0.53731184  0.64150708  1
  C  C60  1  0.87418275  0.53657284  0.14179054  1
  C  C61  1  0.65241764  0.11621553  0.13555599  1
  C  C62  1  0.46924493  0.34280146  0.13235483  1
  C  C63  1  0.47006236  0.31884777  0.02787113  1
  C  C64  1  0.82381641  0.50234120  0.02593398  1
  C  C65  1  0.67550833  0.13974207  0.03093264  1
  C  C66  1  0.47265296  0.15128708  0.53131447  1
  C  C67  1  0.67515712  0.51080078  0.52696831  1
  C  C68  1  0.85274051  0.31964444  0.52724011  1
  C  C69  1  0.54018061  0.69544951  0.97105178  1
  C  C70  1  0.12732812  0.44969244  0.96979100  1
  C  C71  1  0.30167796  0.84403984  0.96977200  1
  C  C72  1  0.54908112  0.84557148  0.47011894  1
  C  C73  1  0.31496409  0.44626710  0.46926024  1
  C  C74  1  0.14118202  0.67869630  0.47142088  1
  C  C75  1  0.08931074  0.61573223  0.35913804  1
  C  C76  1  0.53140476  0.89956899  0.35754096  1
  C  C77  1  0.37392349  0.47549287  0.36740127  1
  C  C78  1  0.11776278  0.48077341  0.86660348  1
  C  C79  1  0.37389153  0.86650925  0.85936776  1
  C  C80  1  0.51940415  0.64554994  0.85868857  1
  C  C81  1  0.98674126  0.81655657  0.41348939  1
  C  C82  1  0.82362063  0.00741066  0.41441459  1
  C  C83  1  0.19860022  0.20253146  0.41056830  1
  C  C84  1  -0.00160090  0.20320336  0.91216775  1
  C  C85  1  0.17880404  0.98271668  0.90928195  1
  C  C86  1  0.82064888  0.82047420  0.91153394  1
  C  C87  1  0.95803654  0.17242440  0.58026663  1
  C  C88  1  0.20942788  0.02950266  0.58235142  1
  C  C89  1  0.83574825  0.81852468  0.57891378  1
  C  C90  1  0.96830107  0.80684734  0.07802087  1
  C  C91  1  0.82258899  0.02902437  0.08257769  1
  C  C92  1  0.21275155  0.17880483  0.07966472  1
  C  C93  1  0.65240341  0.14811882  0.74691166  1
  C  C94  1  0.49232820  0.34830493  0.74691955  1
  C  C95  1  0.86264997  0.53755762  0.74393437  1
  C  C96  1  0.67853985  0.53380620  0.24496287  1
  C  C97  1  0.82692319  0.31559230  0.24908126  1
  C  C98  1  0.46699737  0.14597843  0.24520233  1
  C  C99  1  0.64508002  0.49178861  0.92538553  1
  C  C100  1  0.86282566  0.36753334  0.92087236  1
  C  C101  1  0.52128881  0.14835458  0.92754656  1
  C  C102  1  0.65296373  0.16445064  0.43198998  1
  C  C103  1  0.49880029  0.35699199  0.42461560  1
  C  C104  1  0.83597187  0.49107781  0.42913560  1
  C  C105  1  0.36093989  0.48135961  0.07671854  1
  C  C106  1  0.13600283  0.63402092  0.07892437  1
  C  C107  1  0.52123147  0.86949896  0.07936687  1
  C  C108  1  0.36467333  0.88081032  0.57683275  1
  C  C109  1  0.50560450  0.65463368  0.57940240  1
  C  C110  1  0.12360644  0.47592762  0.57606931  1
  C  C111  1  0.31450186  0.84568495  0.25280166  1
  C  C112  1  0.53899037  0.69827533  0.25454918  1
  C  C113  1  0.16219253  0.49293368  0.25115115  1
  C  C114  1  0.31296494  0.49579843  0.76503889  1
  C  C115  1  0.16469770  0.69514485  0.75733595  1
  C  C116  1  0.50901525  0.82079727  0.75952794  1
