# generated using pymatgen
data_Cu2NiC18
_symmetry_space_group_name_H-M   'P 1'
_cell_length_a   9.29629051
_cell_length_b   9.27937549
_cell_length_c   22.06900318
_cell_angle_alpha   90.37236496
_cell_angle_beta   90.00000000
_cell_angle_gamma   120.06031810
_symmetry_Int_Tables_number   1
_chemical_formula_structural   Cu2NiC18
_chemical_formula_sum   'Cu12 Ni6 C108'
_cell_volume   1647.65110272
_cell_formula_units_Z   6
loop_
 _symmetry_equiv_pos_site_id
 _symmetry_equiv_pos_as_xyz
  1  'x, y, z'
loop_
 _atom_site_type_symbol
 _atom_site_label
 _atom_site_symmetry_multiplicity
 _atom_site_fract_x
 _atom_site_fract_y
 _atom_site_fract_z
 _atom_site_occupancy
  C  C0  1  0.64867889  0.01396975  0.24448480  1
  C  C1  1  0.36687949  0.35592292  0.24991858  1
  C  C2  1  0.99027731  0.62639305  0.24352492  1
  C  C3  1  0.63611574  0.62639305  0.74352492  1
  C  C4  1  0.98904343  0.35592292  0.74991858  1
  C  C5  1  0.36529086  0.01396975  0.74448480  1
  C  C6  1  0.30919769  0.34644901  0.58227943  1
  C  C7  1  0.03324600  0.69179689  0.57904873  1
  C  C8  1  0.65303950  0.96341582  0.57531175  1
  C  C9  1  0.31037732  0.96341582  0.07531175  1
  C  C10  1  0.65855189  0.69179689  0.07904873  1
  C  C11  1  0.03725232  0.34644901  0.08227943  1
  C  C12  1  0.98346154  0.68260930  0.91429443  1
  C  C13  1  0.70356028  0.03009856  0.91031929  1
  C  C14  1  0.32341746  0.29878632  0.91205171  1
  C  C15  1  0.97536785  0.29878632  0.41205171  1
  C  C16  1  0.32653728  0.03009856  0.41031929  1
  C  C17  1  0.69914676  0.68260930  0.41429443  1
  C  C18  1  0.99731094  0.00510715  0.49811702  1
  C  C19  1  0.00779621  0.00510715  0.99811702  1
  C  C20  1  0.66609998  0.32592553  0.83234755  1
  C  C21  1  0.65982655  0.32592553  0.33234755  1
  C  C22  1  0.32259356  0.66165466  0.16513652  1
  C  C23  1  0.33906011  0.66165466  0.66513652  1
  C  C24  1  0.00077190  0.00101376  0.34818173  1
  C  C25  1  0.00024186  0.00101376  0.84818173  1
  C  C26  1  0.66473653  0.33161335  0.68148699  1
  C  C27  1  0.66687782  0.33161335  0.18148699  1
  C  C28  1  0.33274823  0.66806824  0.01473383  1
  C  C29  1  0.33531901  0.66806824  0.51473383  1
  C  C30  1  0.98184829  0.98798610  0.65084252  1
  C  C31  1  0.00613781  0.98798610  0.15084252  1
  C  C32  1  0.66835866  0.33245260  0.98393559  1
  C  C33  1  0.66409494  0.33245260  0.48393559  1
  C  C34  1  0.33773640  0.68332996  0.31703644  1
  C  C35  1  0.34559256  0.68332996  0.81703644  1
  Ni  Ni36  1  0.29846532  0.98943140  0.25419120  1
  Ni  Ni37  1  0.69096607  0.98943140  0.75419120  1
  Ni  Ni38  1  0.67445991  0.63715000  0.58665445  1
  Ni  Ni39  1  0.96269110  0.63715000  0.08665445  1
  Ni  Ni40  1  0.34638281  0.97894432  0.92061940  1
  Ni  Ni41  1  0.63256051  0.97894432  0.42061940  1
  Cu  Cu42  1  0.69287863  0.70723163  0.25073092  1
  Cu  Cu43  1  0.01411817  0.30220031  0.24954233  1
  Cu  Cu44  1  0.28808214  0.30220031  0.74954233  1
  Cu  Cu45  1  0.01435300  0.70723163  0.75073092  1
  Cu  Cu46  1  0.95702171  0.31903873  0.58404655  1
  Cu  Cu47  1  0.35887858  0.04160404  0.58313717  1
  Cu  Cu48  1  0.68272646  0.04160404  0.08313717  1
  Cu  Cu49  1  0.36201802  0.31903873  0.08404655  1
  Cu  Cu50  1  0.62643184  0.65305469  0.91755371  1
  Cu  Cu51  1  0.02975815  0.37737922  0.91709017  1
  Cu  Cu52  1  0.34762007  0.37737922  0.41709017  1
  Cu  Cu53  1  0.02662185  0.65305469  0.41755371  1
  C  C54  1  0.22452142  0.01654927  0.31473145  1
  C  C55  1  0.78664272  0.77854555  0.30960978  1
  C  C56  1  0.98805300  0.20923145  0.30864144  1
  C  C57  1  0.22117845  0.20923145  0.80864144  1
  C  C58  1  0.99190282  0.77854555  0.80960978  1
  C  C59  1  0.79202785  0.01654927  0.81473145  1
  C  C60  1  0.80505856  0.96778235  0.69569212  1
  C  C61  1  0.16800505  0.19412951  0.69489719  1
  C  C62  1  0.02781465  0.82658003  0.69580266  1
  C  C63  1  0.79876537  0.82658003  0.19580266  1
  C  C64  1  0.02612447  0.19412951  0.19489719  1
  C  C65  1  0.16272379  0.96778235  0.19569212  1
  C  C66  1  0.88800190  0.34195984  0.64333541  1
  C  C67  1  0.45560541  0.10767346  0.64197599  1
  C  C68  1  0.65430058  0.54143831  0.64797949  1
  C  C69  1  0.88713873  0.54143831  0.14797949  1
  C  C70  1  0.65206905  0.10767346  0.14197599  1
  C  C71  1  0.45395893  0.34195984  0.14333541  1
  C  C72  1  0.46707031  0.30372769  0.02905155  1
  C  C73  1  0.82709553  0.52357495  0.02840554  1
  C  C74  1  0.69129345  0.16329309  0.02933692  1
  C  C75  1  0.47200064  0.16329309  0.52933692  1
  C  C76  1  0.69648042  0.52357495  0.52840554  1
  C  C77  1  0.83665838  0.30372769  0.52905155  1
  C  C78  1  0.55647083  0.67594850  0.97651921  1
  C  C79  1  0.12232732  0.44445452  0.97658626  1
  C  C80  1  0.31577980  0.87199808  0.97963514  1
  C  C81  1  0.55621729  0.87199808  0.47963514  1
  C  C82  1  0.32212620  0.44445452  0.47658626  1
  C  C83  1  0.11947667  0.67594850  0.47651921  1
  C  C84  1  0.13445171  0.63970263  0.36286271  1
  C  C85  1  0.49529137  0.85920952  0.36172943  1
  C  C86  1  0.36363288  0.49542102  0.36242557  1
  C  C87  1  0.13178715  0.49542102  0.86242557  1
  C  C88  1  0.36391715  0.85920952  0.86172943  1
  C  C89  1  0.50524992  0.63970263  0.86286271  1
  C  C90  1  0.99478284  0.79885408  0.41093209  1
  C  C91  1  0.81730192  0.00880249  0.41267154  1
  C  C92  1  0.20108501  0.19901175  0.41095889  1
  C  C93  1  0.99792674  0.19901175  0.91095889  1
  C  C94  1  0.19150057  0.00880249  0.91267154  1
  C  C95  1  0.80407125  0.79885408  0.91093209  1
  C  C96  1  0.95948751  0.15028314  0.58471930  1
  C  C97  1  0.19387602  0.04717321  0.58243993  1
  C  C98  1  0.85849343  0.82175635  0.58940306  1
  C  C99  1  0.96326292  0.82175635  0.08940306  1
  C  C100  1  0.85329719  0.04717321  0.08243993  1
  C  C101  1  0.19079563  0.15028314  0.08471930  1
  C  C102  1  0.65494812  0.14006341  0.74615869  1
  C  C103  1  0.46523176  0.33110913  0.74347203  1
  C  C104  1  0.86819464  0.52930134  0.74435769  1
  C  C105  1  0.66110770  0.52930134  0.24435769  1
  C  C106  1  0.86587837  0.33110913  0.24347203  1
  C  C107  1  0.48511629  0.14006341  0.24615869  1
  C  C108  1  0.62611442  0.48318078  0.91709582  1
  C  C109  1  0.85775238  0.37522773  0.91921993  1
  C  C110  1  0.52796375  0.15749161  0.92194373  1
  C  C111  1  0.62952886  0.15749161  0.42194373  1
  C  C112  1  0.51747635  0.37522773  0.41921993  1
  C  C113  1  0.85706736  0.48318078  0.41709582  1
  C  C114  1  0.33399403  0.46703447  0.07657584  1
  C  C115  1  0.14952491  0.66980272  0.08133620  1
  C  C116  1  0.53886942  0.86321271  0.07549204  1
  C  C117  1  0.32434229  0.86321271  0.57549204  1
  C  C118  1  0.52027681  0.66980272  0.58133620  1
  C  C119  1  0.13303944  0.46703447  0.57657584  1
  C  C120  1  0.29402852  0.80479664  0.25589220  1
  C  C121  1  0.52296795  0.70696488  0.25101634  1
  C  C122  1  0.18274852  0.47208646  0.25047910  1
  C  C123  1  0.28933693  0.47208646  0.75047910  1
  C  C124  1  0.18399593  0.70696488  0.75101634  1
  C  C125  1  0.51076712  0.80479664  0.75589220  1
