# generated using pymatgen
data_Cu6NiC12
_symmetry_space_group_name_H-M   'P 1'
_cell_length_a   4.96500279
_cell_length_b   7.52349574
_cell_length_c   5.56199740
_cell_angle_alpha   96.53076209
_cell_angle_beta   94.89055699
_cell_angle_gamma   86.63623090
_symmetry_Int_Tables_number   1
_chemical_formula_structural   Cu6NiC12
_chemical_formula_sum   'Cu6 Ni1 C12'
_cell_volume   205.41225566
_cell_formula_units_Z   1
loop_
 _symmetry_equiv_pos_site_id
 _symmetry_equiv_pos_as_xyz
  1  'x, y, z'
loop_
 _atom_site_type_symbol
 _atom_site_label
 _atom_site_symmetry_multiplicity
 _atom_site_fract_x
 _atom_site_fract_y
 _atom_site_fract_z
 _atom_site_occupancy
  Ni  Ni0  1  0.01164800  0.49305100  0.00071500  1
  Cu  Cu1  1  0.49877900  0.00480200  0.50581400  1
  Cu  Cu2  1  0.52575800  0.69141200  0.14541300  1
  Cu  Cu3  1  0.50726900  0.33210700  0.84066400  1
  Cu  Cu4  1  0.00418700  0.69373300  0.64688900  1
  Cu  Cu5  1  0.97830200  0.30922600  0.37875700  1
  Cu  Cu6  1  0.99918000  0.00557300  0.00575500  1
  C  C7  1  0.84813000  0.44829400  0.65422300  1
  C  C8  1  0.85254700  0.76181200  0.95349600  1
  C  C9  1  0.81348800  0.09356000  0.30865600  1
  C  C10  1  0.67944200  0.09601100  0.81701700  1
  C  C11  1  0.68769900  0.77332400  0.46414300  1
  C  C12  1  0.68465100  0.44191200  0.14960600  1
  C  C13  1  0.32205500  0.57554000  0.85614900  1
  C  C14  1  0.31297200  0.23809600  0.54402600  1
  C  C15  1  0.30678900  0.90759300  0.20395600  1
  C  C16  1  0.14045200  0.24097300  0.06978100  1
  C  C17  1  0.17435800  0.91177000  0.70984400  1
  C  C18  1  0.16618100  0.57049800  0.34509900  1
