# generated using pymatgen
data_Cu3Ni4C31
_symmetry_space_group_name_H-M   'P 1'
_cell_length_a   9.20664683
_cell_length_b   9.23725746
_cell_length_c   23.79098693
_cell_angle_alpha   89.93117456
_cell_angle_beta   90.17723383
_cell_angle_gamma   119.98339356
_symmetry_Int_Tables_number   1
_chemical_formula_structural   Cu3Ni4C31
_chemical_formula_sum   'Cu9 Ni12 C93'
_cell_volume   1752.50053687
_cell_formula_units_Z   3
loop_
 _symmetry_equiv_pos_site_id
 _symmetry_equiv_pos_as_xyz
  1  'x, y, z'
loop_
 _atom_site_type_symbol
 _atom_site_label
 _atom_site_symmetry_multiplicity
 _atom_site_fract_x
 _atom_site_fract_y
 _atom_site_fract_z
 _atom_site_occupancy
  Ni  Ni0  1  0.36069038  0.36081602  0.25035706  1
  Ni  Ni1  1  0.32319119  0.34954089  0.58926481  1
  Ni  Ni2  1  0.02325439  0.69429957  0.58064042  1
  Ni  Ni3  1  0.00528905  0.68601360  0.92059057  1
  Ni  Ni4  1  0.69647354  0.02662080  0.91089958  1
  Ni  Ni5  1  0.29947525  0.28840387  0.92015997  1
  Ni  Ni6  1  0.96032090  0.97643074  0.49939294  1
  Ni  Ni7  1  0.02344581  0.02041803  0.00108207  1
  Ni  Ni8  1  0.66467984  0.32210347  0.82514109  1
  Ni  Ni9  1  0.68416977  0.32722727  0.32975761  1
  Ni  Ni10  1  0.32992670  0.68197134  0.16714902  1
  Ni  Ni11  1  0.38481678  0.68168455  0.66407880  1
  Cu  Cu12  1  0.99373890  0.99171291  0.35077528  1
  Cu  Cu13  1  0.00237276  0.00304240  0.84556720  1
  Cu  Cu14  1  0.97693588  0.98804461  0.65015585  1
  Cu  Cu15  1  0.99365129  0.99331132  0.14612529  1
  Cu  Cu16  1  0.66497888  0.33452699  0.68603087  1
  Cu  Cu17  1  0.67523805  0.33104292  0.18445070  1
  Cu  Cu18  1  0.32501052  0.66035667  0.01887244  1
  Cu  Cu19  1  0.34707899  0.67267932  0.51311815  1
  Cu  Cu20  1  0.33541243  0.67782464  0.32113929  1
  C  C21  1  0.66755840  0.32635636  0.98119937  1
  C  C22  1  0.66558443  0.33942508  0.48315152  1
  C  C23  1  0.32118200  0.66886655  0.82093037  1
  C  C24  1  0.66639831  0.62963537  0.58323804  1
  C  C25  1  0.03391755  0.36961534  0.91822779  1
  C  C26  1  0.33669231  0.96611141  0.91828278  1
  C  C27  1  0.29904835  0.00262407  0.24964124  1
  C  C28  1  0.69111214  0.69302306  0.24988579  1
  C  C29  1  0.00753956  0.30097913  0.25084907  1
  C  C30  1  0.30761527  0.32047233  0.75286507  1
  C  C31  1  0.01006501  0.69433284  0.75258781  1
  C  C32  1  0.67853967  0.98690269  0.75515774  1
  C  C33  1  0.95871198  0.33470920  0.58000409  1
  C  C34  1  0.37265622  0.04275322  0.58104570  1
  C  C35  1  0.95477109  0.62819666  0.08016399  1
  C  C36  1  0.67202864  0.04190155  0.07999018  1
  C  C37  1  0.37683568  0.33152720  0.08184001  1
  C  C38  1  0.62089511  0.65698967  0.91698189  1
  C  C39  1  0.64250630  0.98611196  0.41866600  1
  C  C40  1  0.33970903  0.35780951  0.41860031  1
  C  C41  1  0.01963758  0.65759023  0.42154222  1
  C  C42  1  0.21394317  0.01709162  0.30013617  1
  C  C43  1  0.78646290  0.77511757  0.30100982  1
  C  C44  1  0.99252466  0.20361097  0.30172874  1
  C  C45  1  0.21912644  0.21990314  0.80258566  1
  C  C46  1  0.99137329  0.77615364  0.80277041  1
  C  C47  1  0.77243856  0.00263896  0.80728615  1
  C  C48  1  0.76346801  0.97021037  0.70504741  1
  C  C49  1  0.21215883  0.24523640  0.70023792  1
  C  C50  1  0.02929362  0.79108494  0.70076106  1
  C  C51  1  0.77416485  0.78802697  0.19874812  1
  C  C52  1  0.02182630  0.21680946  0.19987741  1
  C  C53  1  0.20238055  0.98844151  0.19830752  1
  C  C54  1  0.87883548  0.34575274  0.63157406  1
  C  C55  1  0.47012260  0.10969502  0.63254061  1
  C  C56  1  0.64447954  0.51672880  0.63755136  1
  C  C57  1  0.86543651  0.53517657  0.13046241  1
  C  C58  1  0.66159282  0.12724261  0.13036583  1
  C  C59  1  0.46378453  0.33428041  0.13421727  1
  C  C60  1  0.47895307  0.32831534  0.03106452  1
  C  C61  1  0.85686141  0.53110109  0.02781017  1
  C  C62  1  0.67611371  0.14452674  0.02771241  1
  C  C63  1  0.47194385  0.14453896  0.53080737  1
  C  C64  1  0.67504326  0.51573778  0.52772620  1
  C  C65  1  0.84940887  0.31462220  0.52974287  1
  C  C66  1  0.55777674  0.69462499  0.96681548  1
  C  C67  1  0.16410529  0.43504558  0.96919750  1
  C  C68  1  0.30025515  0.84748188  0.97098468  1
  C  C69  1  0.56031830  0.88488853  0.46858090  1
  C  C70  1  0.32183026  0.44165188  0.46858296  1
  C  C71  1  0.11507429  0.67588236  0.47346903  1
  C  C72  1  0.10185871  0.63574807  0.37188876  1
  C  C73  1  0.54246661  0.91265685  0.36725557  1
  C  C74  1  0.36904666  0.45898080  0.36710104  1
  C  C75  1  0.12754277  0.50207311  0.86346086  1
  C  C76  1  0.37525424  0.87471908  0.86280161  1
  C  C77  1  0.50854178  0.62818633  0.86689905  1
  C  C78  1  0.99185638  0.80077329  0.41656140  1
  C  C79  1  0.81348812  0.01014069  0.41516392  1
  C  C80  1  0.19472493  0.18838508  0.41461951  1
  C  C81  1  0.98144181  0.17661637  0.90647387  1
  C  C82  1  0.17902810  0.99725496  0.90968003  1
  C  C83  1  0.79381913  0.79474472  0.90633378  1
  C  C84  1  0.98933237  0.19151883  0.58012049  1
  C  C85  1  0.21593313  0.05415501  0.58212883  1
  C  C86  1  0.84539232  0.80647827  0.58085302  1
  C  C87  1  0.96354520  0.79209202  0.07647882  1
  C  C88  1  0.82908698  0.03718428  0.07737248  1
  C  C89  1  0.21167225  0.17787189  0.07734068  1
  C  C90  1  0.65457835  0.13348476  0.75125546  1
  C  C91  1  0.47715226  0.33945027  0.75192690  1
  C  C92  1  0.86703083  0.52192960  0.74991213  1
  C  C93  1  0.66734468  0.51930931  0.24819548  1
  C  C94  1  0.86028227  0.32630527  0.24858825  1
  C  C95  1  0.46616630  0.16217045  0.24806178  1
  C  C96  1  0.62597117  0.49569820  0.92279197  1
  C  C97  1  0.85564242  0.37708488  0.92730698  1
  C  C98  1  0.51175985  0.15503029  0.92496018  1
  C  C99  1  0.65827569  0.15671486  0.42479888  1
  C  C100  1  0.49582809  0.34042504  0.42544273  1
  C  C101  1  0.84879439  0.49770659  0.42530876  1
  C  C102  1  0.36563575  0.48461481  0.07961061  1
  C  C103  1  0.12242502  0.64424282  0.08046067  1
  C  C104  1  0.52357526  0.87447007  0.07760270  1
  C  C105  1  0.32723744  0.86600715  0.57411802  1
  C  C106  1  0.49622117  0.64245656  0.57879292  1
  C  C107  1  0.12147525  0.49369742  0.57438427  1
  C  C108  1  0.32439799  0.85598628  0.25269451  1
  C  C109  1  0.51723885  0.67029447  0.25214683  1
  C  C110  1  0.16688246  0.46797515  0.25366028  1
  C  C111  1  0.32564848  0.49217771  0.75878520  1
  C  C112  1  0.17081468  0.68616417  0.75817576  1
  C  C113  1  0.50997010  0.82866684  0.75785000  1
