# generated using pymatgen
data_CuNiC13
_symmetry_space_group_name_H-M   'P 1'
_cell_length_a   3.47985400
_cell_length_b   8.82388579
_cell_length_c   8.95455407
_cell_angle_alpha   103.63398213
_cell_angle_beta   101.20547219
_cell_angle_gamma   90.00354420
_symmetry_Int_Tables_number   1
_chemical_formula_structural   CuNiC13
_chemical_formula_sum   'Cu1 Ni1 C13'
_cell_volume   261.81163320
_cell_formula_units_Z   1
loop_
 _symmetry_equiv_pos_site_id
 _symmetry_equiv_pos_as_xyz
  1  'x, y, z'
loop_
 _atom_site_type_symbol
 _atom_site_label
 _atom_site_symmetry_multiplicity
 _atom_site_fract_x
 _atom_site_fract_y
 _atom_site_fract_z
 _atom_site_occupancy
  Ni  Ni0  1  0.63129900  0.17460200  0.26416900  1
  Cu  Cu1  1  0.46446100  0.96294200  0.92795200  1
  C  C2  1  0.69884300  0.81971700  0.39927200  1
  C  C3  1  0.30107200  0.16819700  0.60287400  1
  C  C4  1  0.66818800  0.51753900  0.33787800  1
  C  C5  1  0.35865800  0.50972600  0.71779600  1
  C  C6  1  0.98873400  0.49701100  0.97844800  1
  C  C7  1  0.82913500  0.00251800  0.65914300  1
  C  C8  1  0.16320300  0.99349200  0.32785300  1
  C  C9  1  0.76887500  0.35188000  0.53858600  1
  C  C10  1  0.24536600  0.66836200  0.49212200  1
  C  C11  1  0.91763100  0.67230300  0.83569900  1
  C  C12  1  0.08934900  0.34996800  0.18011900  1
  C  C13  1  0.56614500  0.63889900  0.13317200  1
  C  C14  1  0.43403900  0.33690600  0.86920300  1
