# generated using pymatgen
data_CuNiC16
_symmetry_space_group_name_H-M   'P 1'
_cell_length_a   9.19008375
_cell_length_b   9.19008343
_cell_length_c   23.20729010
_cell_angle_alpha   90.00000000
_cell_angle_beta   90.00000000
_cell_angle_gamma   120.00000118
_symmetry_Int_Tables_number   1
_chemical_formula_structural   CuNiC16
_chemical_formula_sum   'Cu6 Ni6 C96'
_cell_volume   1697.43823682
_cell_formula_units_Z   6
loop_
 _symmetry_equiv_pos_site_id
 _symmetry_equiv_pos_as_xyz
  1  'x, y, z'
loop_
 _atom_site_type_symbol
 _atom_site_label
 _atom_site_symmetry_multiplicity
 _atom_site_fract_x
 _atom_site_fract_y
 _atom_site_fract_z
 _atom_site_occupancy
  Ni  Ni0  1  0.00000000  0.00000000  0.50428769  1
  Ni  Ni1  1  0.00000000  0.00000000  0.00428769  1
  Ni  Ni2  1  0.66666700  0.33333300  0.83762069  1
  Ni  Ni3  1  0.66666700  0.33333300  0.33762069  1
  Ni  Ni4  1  0.33333300  0.66666700  0.17095469  1
  Ni  Ni5  1  0.33333300  0.66666700  0.67095469  1
  Cu  Cu6  1  0.00000000  0.00000000  0.35799471  1
  Cu  Cu7  1  0.00000000  0.00000000  0.85799471  1
  Cu  Cu8  1  0.66666700  0.33333300  0.69132771  1
  Cu  Cu9  1  0.66666700  0.33333300  0.19132771  1
  Cu  Cu10  1  0.33333300  0.66666700  0.02466171  1
  Cu  Cu11  1  0.33333300  0.66666700  0.52466171  1
  C  C12  1  0.00000000  0.00000000  0.64816891  1
  C  C13  1  0.00000000  0.00000000  0.14816891  1
  C  C14  1  0.66666700  0.33333300  0.98150191  1
  C  C15  1  0.66666700  0.33333300  0.48150191  1
  C  C16  1  0.33333300  0.66666700  0.31483591  1
  C  C17  1  0.33333300  0.66666700  0.81483591  1
  C  C18  1  0.27432332  0.96568284  0.24967114  1
  C  C19  1  0.69135952  0.72567668  0.24967114  1
  C  C20  1  0.03431716  0.30864048  0.24967114  1
  C  C21  1  0.27432332  0.30864048  0.74967114  1
  C  C22  1  0.03431716  0.72567668  0.74967114  1
  C  C23  1  0.69135952  0.96568284  0.74967114  1
  C  C24  1  0.94099032  0.29901584  0.58300414  1
  C  C25  1  0.35802652  0.05900968  0.58300414  1
  C  C26  1  0.70098416  0.64197348  0.58300414  1
  C  C27  1  0.94099032  0.64197348  0.08300414  1
  C  C28  1  0.70098416  0.05900968  0.08300414  1
  C  C29  1  0.35802652  0.29901584  0.08300414  1
  C  C30  1  0.60765632  0.63234984  0.91633814  1
  C  C31  1  0.02469252  0.39234368  0.91633814  1
  C  C32  1  0.36765016  0.97530748  0.91633814  1
  C  C33  1  0.60765632  0.97530748  0.41633814  1
  C  C34  1  0.36765016  0.39234368  0.41633814  1
  C  C35  1  0.02469252  0.63234984  0.41633814  1
  C  C36  1  0.20464505  0.99377585  0.30430483  1
  C  C37  1  0.78913080  0.79535495  0.30430483  1
  C  C38  1  0.00622415  0.21086920  0.30430483  1
  C  C39  1  0.20464505  0.21086920  0.80430483  1
  C  C40  1  0.00622415  0.79535495  0.80430483  1
  C  C41  1  0.78913080  0.99377585  0.80430483  1
  C  C42  1  0.79906705  0.95571345  0.69606845  1
  C  C43  1  0.15664640  0.20093295  0.69606845  1
  C  C44  1  0.04428655  0.84335360  0.69606845  1
  C  C45  1  0.79906705  0.84335360  0.19606845  1
  C  C46  1  0.04428655  0.20093295  0.19606845  1
  C  C47  1  0.15664640  0.95571345  0.19606845  1
  C  C48  1  0.87131205  0.32710885  0.63763783  1
  C  C49  1  0.45579780  0.12868795  0.63763783  1
  C  C50  1  0.67289115  0.54420220  0.63763783  1
  C  C51  1  0.87131205  0.54420220  0.13763783  1
  C  C52  1  0.67289115  0.12868795  0.13763783  1
  C  C53  1  0.45579780  0.32710885  0.13763783  1
  C  C54  1  0.46573405  0.28904645  0.02940145  1
  C  C55  1  0.82331340  0.53426595  0.02940145  1
  C  C56  1  0.71095355  0.17668660  0.02940145  1
  C  C57  1  0.46573405  0.17668660  0.52940145  1
  C  C58  1  0.71095355  0.53426595  0.52940145  1
  C  C59  1  0.82331340  0.28904645  0.52940145  1
  C  C60  1  0.53797805  0.66044285  0.97097183  1
  C  C61  1  0.12246380  0.46202195  0.97097183  1
  C  C62  1  0.33955715  0.87753620  0.97097183  1
  C  C63  1  0.53797805  0.87753620  0.47097183  1
  C  C64  1  0.33955715  0.46202195  0.47097183  1
  C  C65  1  0.12246380  0.66044285  0.47097183  1
  C  C66  1  0.13240005  0.62238045  0.36273545  1
  C  C67  1  0.48997940  0.86759995  0.36273545  1
  C  C68  1  0.37761955  0.51002060  0.36273545  1
  C  C69  1  0.13240005  0.51002060  0.86273545  1
  C  C70  1  0.37761955  0.86759995  0.86273545  1
  C  C71  1  0.48997940  0.62238045  0.86273545  1
  C  C72  1  0.97773834  0.76755856  0.40824882  1
  C  C73  1  0.78982022  0.02226166  0.40824882  1
  C  C74  1  0.23244144  0.21017978  0.40824882  1
  C  C75  1  0.97773834  0.21017978  0.90824882  1
  C  C76  1  0.23244144  0.02226166  0.90824882  1
  C  C77  1  0.78982022  0.76755856  0.90824882  1
  C  C78  1  0.93549196  0.12418015  0.58822298  1
  C  C79  1  0.18868819  0.06450804  0.58822298  1
  C  C80  1  0.87581985  0.81131181  0.58822298  1
  C  C81  1  0.93549196  0.81131181  0.08822298  1
  C  C82  1  0.87581985  0.06450804  0.08822298  1
  C  C83  1  0.18868819  0.12418015  0.08822298  1
  C  C84  1  0.64440534  0.10089156  0.74158182  1
  C  C85  1  0.45648722  0.35559466  0.74158182  1
  C  C86  1  0.89910844  0.54351278  0.74158182  1
  C  C87  1  0.64440534  0.54351278  0.24158182  1
  C  C88  1  0.89910844  0.35559466  0.24158182  1
  C  C89  1  0.45648722  0.10089156  0.24158182  1
  C  C90  1  0.60215896  0.45751315  0.92155598  1
  C  C91  1  0.85535519  0.39784104  0.92155598  1
  C  C92  1  0.54248685  0.14464481  0.92155598  1
  C  C93  1  0.60215896  0.14464481  0.42155598  1
  C  C94  1  0.54248685  0.39784104  0.42155598  1
  C  C95  1  0.85535519  0.45751315  0.42155598  1
  C  C96  1  0.31107134  0.43422556  0.07491582  1
  C  C97  1  0.12315322  0.68892866  0.07491582  1
  C  C98  1  0.56577444  0.87684678  0.07491582  1
  C  C99  1  0.31107134  0.87684678  0.57491582  1
  C  C100  1  0.56577444  0.68892866  0.57491582  1
  C  C101  1  0.12315322  0.43422556  0.57491582  1
  C  C102  1  0.26882496  0.79084715  0.25488998  1
  C  C103  1  0.52202119  0.73117504  0.25488998  1
  C  C104  1  0.20915285  0.47797881  0.25488998  1
  C  C105  1  0.26882496  0.47797881  0.75488998  1
  C  C106  1  0.20915285  0.73117504  0.75488998  1
  C  C107  1  0.52202119  0.79084715  0.75488998  1
