# generated using pymatgen
data_Cu6Ni2C5
_symmetry_space_group_name_H-M   'P 1'
_cell_length_a   3.21923700
_cell_length_b   3.21924922
_cell_length_c   44.87842002
_cell_angle_alpha   90.00136056
_cell_angle_beta   90.00236566
_cell_angle_gamma   119.99982577
_symmetry_Int_Tables_number   1
_chemical_formula_structural   Cu6Ni2C5
_chemical_formula_sum   'Cu6 Ni2 C5'
_cell_volume   402.78798017
_cell_formula_units_Z   1
loop_
 _symmetry_equiv_pos_site_id
 _symmetry_equiv_pos_as_xyz
  1  'x, y, z'
loop_
 _atom_site_type_symbol
 _atom_site_label
 _atom_site_symmetry_multiplicity
 _atom_site_fract_x
 _atom_site_fract_y
 _atom_site_fract_z
 _atom_site_occupancy
  C  C0  1  0.00004500  0.00009300  0.56307600  1
  C  C1  1  0.33345600  0.66684000  0.09343100  1
  C  C2  1  0.66657700  0.33319300  0.28186300  1
  C  C3  1  0.66661900  0.33324900  0.66583900  1
  C  C4  1  0.33333400  0.66668100  0.46048700  1
  Ni  Ni5  1  0.33331900  0.66661300  0.70394800  1
  Ni  Ni6  1  0.33325000  0.66655600  0.62721900  1
  Cu  Cu7  1  0.33327600  0.66655000  0.31653200  1
  Cu  Cu8  1  0.66674900  0.33347100  0.05877000  1
  Cu  Cu9  1  0.66662900  0.33332100  0.42577600  1
  Cu  Cu10  1  0.66684300  0.33356000  0.12810100  1
  Cu  Cu11  1  0.66669700  0.33337000  0.49544200  1
  Cu  Cu12  1  0.33320800  0.66650100  0.24719200  1
