# generated using pymatgen
data_Cu3Ni3C35
_symmetry_space_group_name_H-M   'P 1'
_cell_length_a   18.25145676
_cell_length_b   9.10303135
_cell_length_c   22.48836332
_cell_angle_alpha   89.95513237
_cell_angle_beta   90.29805446
_cell_angle_gamma   120.11997563
_symmetry_Int_Tables_number   1
_chemical_formula_structural   Cu3Ni3C35
_chemical_formula_sum   'Cu18 Ni18 C210'
_cell_volume   3231.75846259
_cell_formula_units_Z   6
loop_
 _symmetry_equiv_pos_site_id
 _symmetry_equiv_pos_as_xyz
  1  'x, y, z'
loop_
 _atom_site_type_symbol
 _atom_site_label
 _atom_site_symmetry_multiplicity
 _atom_site_fract_x
 _atom_site_fract_y
 _atom_site_fract_z
 _atom_site_occupancy
  C  C0  1  0.19485201  0.36171568  0.24763657  1
  C  C1  1  0.68897946  0.35702559  0.24769033  1
  C  C2  1  0.99645002  0.64620047  0.25169203  1
  C  C3  1  0.49467820  0.63828635  0.24335868  1
  C  C4  1  0.31592752  0.63156209  0.74730966  1
  C  C5  1  0.81476481  0.62584128  0.73857242  1
  C  C6  1  0.19114914  0.02501383  0.74775064  1
  C  C7  1  0.69385326  0.02726290  0.74736398  1
  C  C8  1  0.15283076  0.32523165  0.57869147  1
  C  C9  1  0.66474078  0.34459951  0.57903550  1
  C  C10  1  0.01219052  0.69888288  0.57924028  1
  C  C11  1  0.52367800  0.70539122  0.58091879  1
  C  C12  1  0.32334994  0.97057563  0.58923874  1
  C  C13  1  0.82195433  0.95350778  0.58798562  1
  C  C14  1  0.15577435  0.97994987  0.07999989  1
  C  C15  1  0.64787617  0.96450515  0.07679408  1
  C  C16  1  0.82188935  0.67681014  0.08859108  1
  C  C17  1  0.02117838  0.33939988  0.08024202  1
  C  C18  1  0.52401219  0.35252251  0.08615885  1
  C  C19  1  0.49377482  0.68345735  0.92250475  1
  C  C20  1  0.98988848  0.67857891  0.91773222  1
  C  C21  1  0.84509901  0.03252463  0.90835115  1
  C  C22  1  0.16187939  0.28109180  0.91018991  1
  C  C23  1  0.66537679  0.27931160  0.91658531  1
  C  C24  1  0.49308755  0.30581105  0.41818882  1
  C  C25  1  0.98918779  0.30014965  0.42050538  1
  C  C26  1  0.16548706  0.05169065  0.41669296  1
  C  C27  1  0.66707348  0.05260448  0.41656561  1
  C  C28  1  0.34787144  0.65814514  0.40784798  1
  C  C29  1  0.84617812  0.65376684  0.41786750  1
  C  C30  1  0.00403013  0.99874366  0.49998070  1
  C  C31  1  0.51347610  0.01683111  0.49621455  1
  C  C32  1  0.00877262  0.00640651  0.99577238  1
  C  C33  1  0.50341261  0.99533089  0.99932499  1
  C  C34  1  0.33004605  0.30426404  0.82694775  1
  C  C35  1  0.82682116  0.31036230  0.82627682  1
  C  C36  1  0.32480361  0.32993121  0.32594974  1
  C  C37  1  0.82106667  0.32666248  0.32910502  1
  C  C38  1  0.18388351  0.67788787  0.16409879  1
  C  C39  1  0.66581681  0.66849765  0.16187667  1
  C  C40  1  0.16497817  0.66834555  0.66514266  1
  C  C41  1  0.67478641  0.67048561  0.66117684  1
  C  C42  1  0.99966883  0.00505662  0.64990218  1
  C  C43  1  0.50475887  0.01691048  0.65261850  1
  C  C44  1  0.00347011  0.99641649  0.15229262  1
  C  C45  1  0.50028528  0.98179668  0.14772393  1
  C  C46  1  0.32678032  0.32710455  0.98471827  1
  C  C47  1  0.17575159  0.67307143  0.31213741  1
  C  C48  1  0.67491252  0.67074586  0.31117947  1
  C  C49  1  0.17103240  0.67778702  0.81211088  1
  C  C50  1  0.67091395  0.67582662  0.81202052  1
  C  C51  1  0.00595092  0.00205250  0.34793848  1
  C  C52  1  0.50649884  0.00414471  0.34606655  1
  C  C53  1  0.00582763  0.01116071  0.84601256  1
  C  C54  1  0.50457024  0.01397460  0.84965857  1
  C  C55  1  0.32635997  0.30964472  0.68705651  1
  C  C56  1  0.82303128  0.31867757  0.68345871  1
  C  C57  1  0.32981027  0.34531002  0.18484639  1
  C  C58  1  0.82236114  0.33055875  0.18682838  1
  C  C59  1  0.81969080  0.31144877  0.98351422  1
  C  C60  1  0.32176830  0.32820772  0.48290786  1
  C  C61  1  0.81944787  0.33881996  0.48738561  1
  C  C62  1  0.17168032  0.67155471  0.01632486  1
  C  C63  1  0.65876566  0.66438059  0.01976305  1
  C  C64  1  0.16389808  0.66374840  0.51612012  1
  C  C65  1  0.67150937  0.66272772  0.51926841  1
  Ni  Ni66  1  0.15237822  0.00293436  0.25301796  1
  Ni  Ni67  1  0.65032085  0.00103734  0.25292471  1
  Ni  Ni68  1  0.35658513  0.70977973  0.25401639  1
  Ni  Ni69  1  0.85607828  0.70641090  0.25216715  1
  Ni  Ni70  1  0.14984205  0.29930428  0.75154978  1
  Ni  Ni71  1  0.65033162  0.29925577  0.75488424  1
  Ni  Ni72  1  0.35770768  0.00770667  0.75207537  1
  Ni  Ni73  1  0.85752067  0.01232506  0.75402258  1
  Ni  Ni74  1  0.18520318  0.03046146  0.58211178  1
  Ni  Ni75  1  0.68294896  0.02923098  0.58212200  1
  Ni  Ni76  1  0.83526673  0.62925645  0.58390868  1
  Ni  Ni77  1  0.47907875  0.62069176  0.08504371  1
  Ni  Ni78  1  0.18347267  0.34177916  0.08548630  1
  Ni  Ni79  1  0.68488788  0.33846395  0.08228158  1
  Ni  Ni80  1  0.16401420  0.95933917  0.91988703  1
  Ni  Ni81  1  0.66549720  0.96323296  0.91880098  1
  Ni  Ni82  1  0.16467262  0.36874389  0.41968863  1
  Ni  Ni83  1  0.66347828  0.36628023  0.41862213  1
  Cu  Cu84  1  0.99801737  0.29205601  0.25118966  1
  Cu  Cu85  1  0.49767664  0.28982996  0.25173385  1
  Cu  Cu86  1  0.99935715  0.70542652  0.75178100  1
  Cu  Cu87  1  0.49837957  0.70466690  0.75080380  1
  Cu  Cu88  1  0.47618302  0.33376429  0.58272723  1
  Cu  Cu89  1  0.97876262  0.33581712  0.58223858  1
  Cu  Cu90  1  0.33485137  0.62659466  0.58318954  1
  Cu  Cu91  1  0.97855534  0.62208983  0.08291018  1
  Cu  Cu92  1  0.33237893  0.04004499  0.08472708  1
  Cu  Cu93  1  0.83628401  0.04637968  0.08285764  1
  Cu  Cu94  1  0.31392207  0.66914825  0.91749815  1
  Cu  Cu95  1  0.81464236  0.66801928  0.91877864  1
  Cu  Cu96  1  0.01995119  0.37608732  0.91900480  1
  Cu  Cu97  1  0.51967796  0.37274681  0.91753027  1
  Cu  Cu98  1  0.31472391  0.96211247  0.41919945  1
  Cu  Cu99  1  0.81499708  0.96273118  0.41786975  1
  Cu  Cu100  1  0.01988102  0.66353182  0.41699961  1
  Cu  Cu101  1  0.51968704  0.66344129  0.41890398  1
  C  C102  1  0.10779165  0.03459951  0.30930113  1
  C  C103  1  0.60897385  0.03506088  0.31058501  1
  C  C104  1  0.40838190  0.79634984  0.31433356  1
  C  C105  1  0.91180638  0.79929003  0.31027814  1
  C  C106  1  0.48837415  0.19095561  0.30561325  1
  C  C107  1  0.98627083  0.19027099  0.30448028  1
  C  C108  1  0.11054867  0.18040064  0.80938797  1
  C  C109  1  0.60756337  0.17684712  0.81050842  1
  C  C110  1  0.48526586  0.78040312  0.80435620  1
  C  C111  1  0.98745594  0.78389952  0.80524320  1
  C  C112  1  0.41115972  0.00740763  0.80764757  1
  C  C113  1  0.90689265  0.01550419  0.81393025  1
  C  C114  1  0.39410216  0.96252313  0.68971577  1
  C  C115  1  0.89796079  0.96756990  0.69510842  1
  C  C116  1  0.09135351  0.20962443  0.69151169  1
  C  C117  1  0.59112576  0.21122443  0.69337036  1
  C  C118  1  0.01619451  0.81720403  0.69834279  1
  C  C119  1  0.51472419  0.81820014  0.69716094  1
  C  C120  1  0.40024520  0.83214087  0.19605699  1
  C  C121  1  0.89821982  0.82400777  0.19090949  1
  C  C122  1  0.01467724  0.21291999  0.19724162  1
  C  C123  1  0.51406389  0.21521082  0.19794993  1
  C  C124  1  0.08778366  0.96460341  0.19272739  1
  C  C125  1  0.58797748  0.96548102  0.19306960  1
  C  C126  1  0.43577054  0.35906350  0.63477787  1
  C  C127  1  0.93847150  0.36013526  0.63493477  1
  C  C128  1  0.24487149  0.11357115  0.64028767  1
  C  C129  1  0.73970163  0.10894511  0.64143978  1
  C  C130  1  0.32468385  0.52517979  0.63678956  1
  C  C131  1  0.82368443  0.51588065  0.64253925  1
  C  C132  1  0.43637382  0.49949787  0.14164957  1
  C  C133  1  0.93975091  0.51894716  0.13646740  1
  C  C134  1  0.31812348  0.12005745  0.13701133  1
  C  C135  1  0.82658463  0.13150537  0.13530695  1
  C  C136  1  0.23592910  0.35498858  0.14398237  1
  C  C137  1  0.74465390  0.37371689  0.14052259  1
  C  C138  1  0.22622233  0.29886468  0.02610984  1
  C  C139  1  0.72222197  0.29267778  0.02366213  1
  C  C140  1  0.42186251  0.53046801  0.02307050  1
  C  C141  1  0.92746708  0.54484889  0.02878428  1
  C  C142  1  0.34534915  0.14890131  0.03023052  1
  C  C143  1  0.85322668  0.15110764  0.02836670  1
  C  C144  1  0.22385901  0.14785603  0.52283081  1
  C  C145  1  0.71989621  0.14650116  0.52299662  1
  C  C146  1  0.34976406  0.55055208  0.52945291  1
  C  C147  1  0.85929387  0.56015856  0.52415313  1
  C  C148  1  0.42548299  0.30457813  0.52767527  1
  C  C149  1  0.92902541  0.30689730  0.52721087  1
  C  C150  1  0.27155582  0.68683406  0.96943817  1
  C  C151  1  0.77379928  0.69223054  0.97093197  1
  C  C152  1  0.07347351  0.45439359  0.97238407  1
  C  C153  1  0.57149377  0.45094603  0.97135732  1
  C  C154  1  0.15085820  0.84277411  0.97778517  1
  C  C155  1  0.65394827  0.84428759  0.97545184  1
  C  C156  1  0.27396133  0.85626334  0.47187516  1
  C  C157  1  0.77475469  0.85821940  0.47081847  1
  C  C158  1  0.15166601  0.46083934  0.47720414  1
  C  C159  1  0.64741306  0.45637552  0.47533281  1
  C  C160  1  0.07387360  0.69235070  0.47002355  1
  C  C161  1  0.57350169  0.69080614  0.47163660  1
  C  C162  1  0.06285261  0.64511317  0.36296647  1
  C  C163  1  0.55985914  0.64027366  0.36451177  1
  C  C164  1  0.25785546  0.87949015  0.36573361  1
  C  C165  1  0.75805607  0.87876715  0.36459566  1
  C  C166  1  0.17676394  0.49379931  0.36093084  1
  C  C167  1  0.67620256  0.49173405  0.35992122  1
  C  C168  1  0.06263964  0.48336317  0.86583091  1
  C  C169  1  0.56158752  0.48413663  0.86489451  1
  C  C170  1  0.17490498  0.86378922  0.86038712  1
  C  C171  1  0.67676008  0.86382011  0.85943035  1
  C  C172  1  0.25931982  0.63712491  0.86280937  1
  C  C173  1  0.75920328  0.63819216  0.86445044  1
  C  C174  1  0.00887866  0.81414258  0.41220243  1
  C  C175  1  0.50789639  0.81332789  0.41389513  1
  C  C176  1  0.39814609  0.97560303  0.41173738  1
  C  C177  1  0.89858874  0.97509639  0.41015743  1
  C  C178  1  0.07836102  0.18058624  0.41306917  1
  C  C179  1  0.57734371  0.17768728  0.41211649  1
  C  C180  1  0.00868744  0.20315237  0.91337639  1
  C  C181  1  0.51006683  0.20358206  0.91121537  1
  C  C182  1  0.07883583  0.97857483  0.91365409  1
  C  C183  1  0.57897608  0.97726837  0.91326701  1
  C  C184  1  0.39944157  0.81306698  0.91084049  1
  C  C185  1  0.89939215  0.82180027  0.91172010  1
  C  C186  1  0.48341961  0.17354417  0.58886980  1
  C  C187  1  0.98816264  0.17918570  0.58848216  1
  C  C188  1  0.08965434  0.01305851  0.59025753  1
  C  C189  1  0.58423433  0.00998424  0.58987597  1
  C  C190  1  0.41171550  0.80169030  0.58784512  1
  C  C191  1  0.91951559  0.82714783  0.58989996  1
  C  C192  1  0.48813394  0.81297476  0.08617332  1
  C  C193  1  0.98529198  0.79667872  0.08789893  1
  C  C194  1  0.41096240  0.03175127  0.08859622  1
  C  C195  1  0.91395397  0.02652442  0.08884632  1
  C  C196  1  0.08579998  0.15964852  0.08741973  1
  C  C197  1  0.58653158  0.17091744  0.09106712  1
  C  C198  1  0.34229067  0.16639258  0.74677853  1
  C  C199  1  0.84242847  0.17054858  0.74604331  1
  C  C200  1  0.24641236  0.33398509  0.74345995  1
  C  C201  1  0.74508031  0.32861216  0.74748330  1
  C  C202  1  0.42387618  0.53845261  0.73992667  1
  C  C203  1  0.92556286  0.53684876  0.74316884  1
  C  C204  1  0.34682177  0.52251441  0.24828667  1
  C  C205  1  0.85011444  0.52263753  0.24534962  1
  C  C206  1  0.42485129  0.31525652  0.24518483  1
  C  C207  1  0.92674444  0.31884159  0.24082083  1
  C  C208  1  0.24437526  0.16498100  0.24317535  1
  C  C209  1  0.74331695  0.16415154  0.24454126  1
  C  C210  1  0.31952023  0.50782187  0.92110988  1
  C  C211  1  0.82546880  0.51668091  0.92235064  1
  C  C212  1  0.43490197  0.36235101  0.92188958  1
  C  C213  1  0.93607775  0.36485843  0.92409033  1
  C  C214  1  0.24996939  0.15354839  0.92155682  1
  C  C215  1  0.75412617  0.14919149  0.91784471  1
  C  C216  1  0.32526333  0.13453099  0.42265420  1
  C  C217  1  0.82608658  0.13520762  0.42133228  1
  C  C218  1  0.25283623  0.35959390  0.41891902  1
  C  C219  1  0.75097550  0.35544763  0.41804634  1
  C  C220  1  0.43481977  0.50552745  0.42424642  1
  C  C221  1  0.93702958  0.50459124  0.42062541  1
  C  C222  1  0.16605437  0.49837297  0.07547000  1
  C  C223  1  0.67653604  0.50946772  0.07498124  1
  C  C224  1  0.06596605  0.65142103  0.07847213  1
  C  C225  1  0.57512366  0.65263061  0.07976358  1
  C  C226  1  0.25666462  0.87077366  0.07621732  1
  C  C227  1  0.76151717  0.87477571  0.07697912  1
  C  C228  1  0.17198741  0.83673352  0.57598316  1
  C  C229  1  0.66678799  0.83545541  0.57525820  1
  C  C230  1  0.25840083  0.64487466  0.57729820  1
  C  C231  1  0.75049720  0.64870484  0.57896497  1
  C  C232  1  0.06616146  0.48549143  0.57807256  1
  C  C233  1  0.56287362  0.48054146  0.57807986  1
  C  C234  1  0.14755273  0.81563572  0.25718461  1
  C  C235  1  0.64776168  0.81586823  0.25772297  1
  C  C236  1  0.25706106  0.67879944  0.25475432  1
  C  C237  1  0.75792910  0.67743154  0.25399112  1
  C  C238  1  0.07755350  0.46390958  0.25588898  1
  C  C239  1  0.57703585  0.46526675  0.25702667  1
  C  C240  1  0.15729553  0.48846182  0.75781715  1
  C  C241  1  0.65721077  0.48715812  0.75812695  1
  C  C242  1  0.07877290  0.69417232  0.75655369  1
  C  C243  1  0.57720972  0.69250504  0.75544254  1
  C  C244  1  0.25825315  0.82980797  0.75509933  1
  C  C245  1  0.75912972  0.83143451  0.75612122  1
