# generated using pymatgen
data_Cu4Ni4C5
_symmetry_space_group_name_H-M   'P 1'
_cell_length_a   5.16447805
_cell_length_b   5.19879766
_cell_length_c   6.00027972
_cell_angle_alpha   81.19761214
_cell_angle_beta   92.67068632
_cell_angle_gamma   97.68968824
_symmetry_Int_Tables_number   1
_chemical_formula_structural   Cu4Ni4C5
_chemical_formula_sum   'Cu4 Ni4 C5'
_cell_volume   157.71670945
_cell_formula_units_Z   1
loop_
 _symmetry_equiv_pos_site_id
 _symmetry_equiv_pos_as_xyz
  1  'x, y, z'
loop_
 _atom_site_type_symbol
 _atom_site_label
 _atom_site_symmetry_multiplicity
 _atom_site_fract_x
 _atom_site_fract_y
 _atom_site_fract_z
 _atom_site_occupancy
  C  C0  1  0.22944682  0.51608896  0.08860059  1
  C  C1  1  0.24300199  0.47633310  0.63861330  1
  C  C2  1  0.14431678  0.00226058  0.26356791  1
  C  C3  1  0.84133344  0.95020674  0.80160294  1
  C  C4  1  0.77062713  0.51380289  0.36961925  1
  Ni  Ni5  1  0.08390482  0.22739601  0.89946521  1
  Ni  Ni6  1  0.05328014  0.31769688  0.37790970  1
  Ni  Ni7  1  0.95574994  0.76392976  0.57102658  1
  Ni  Ni8  1  0.93330000  0.73708959  0.08955897  1
  Cu  Cu9  1  0.46255869  0.74021721  0.84683628  1
  Cu  Cu10  1  0.43968112  0.72269774  0.34354287  1
  Cu  Cu11  1  0.60197499  0.25367172  0.63707840  1
  Cu  Cu12  1  0.51582415  0.29249782  0.18716100  1
