# generated using pymatgen
data_Cu3Ni3C31
_symmetry_space_group_name_H-M   'P 1'
_cell_length_a   8.82785558
_cell_length_b   8.83978361
_cell_length_c   22.67014261
_cell_angle_alpha   89.92160878
_cell_angle_beta   90.11254845
_cell_angle_gamma   120.23187346
_symmetry_Int_Tables_number   1
_chemical_formula_structural   Cu3Ni3C31
_chemical_formula_sum   'Cu9 Ni9 C93'
_cell_volume   1528.48568129
_cell_formula_units_Z   3
loop_
 _symmetry_equiv_pos_site_id
 _symmetry_equiv_pos_as_xyz
  1  'x, y, z'
loop_
 _atom_site_type_symbol
 _atom_site_label
 _atom_site_symmetry_multiplicity
 _atom_site_fract_x
 _atom_site_fract_y
 _atom_site_fract_z
 _atom_site_occupancy
  C  C0  1  0.36043824  0.36223213  0.24703093  1
  C  C1  1  0.63513780  0.62925564  0.75162570  1
  C  C2  1  0.96817492  0.29452941  0.41600264  1
  C  C3  1  0.99783938  0.00008188  0.49992065  1
  C  C4  1  0.99822426  0.99559336  0.00037053  1
  C  C5  1  0.66538198  0.33290614  0.83354198  1
  C  C6  1  0.66913046  0.32966844  0.33212810  1
  C  C7  1  0.32506247  0.66568968  0.16479981  1
  C  C8  1  0.31921747  0.66154674  0.66597177  1
  C  C9  1  0.99570953  0.00751798  0.35424758  1
  C  C10  1  0.68000383  0.33989727  0.68710670  1
  C  C11  1  0.68340250  0.34136874  0.18232211  1
  C  C12  1  0.00389741  0.98351580  0.85299225  1
  C  C13  1  0.01735973  0.01773347  0.64831764  1
  C  C14  1  0.01496224  0.01646352  0.14168995  1
  C  C15  1  0.66293874  0.35858501  0.98228871  1
  C  C16  1  0.66088372  0.31325093  0.47908430  1
  C  C17  1  0.33998110  0.66141244  0.02327729  1
  C  C18  1  0.33621113  0.65192908  0.51880894  1
  C  C19  1  0.34038036  0.66213574  0.31569361  1
  C  C20  1  0.32362546  0.64816249  0.81300391  1
  Ni  Ni21  1  0.99624215  0.29370873  0.24988808  1
  Ni  Ni22  1  0.28655661  0.28446979  0.75298152  1
  Ni  Ni23  1  0.00998315  0.71584425  0.74871536  1
  Ni  Ni24  1  0.96136459  0.33338483  0.58264296  1
  Ni  Ni25  1  0.96501593  0.63242846  0.08290840  1
  Ni  Ni26  1  0.38075094  0.33640943  0.08469905  1
  Ni  Ni27  1  0.62250349  0.67189789  0.91648841  1
  Ni  Ni28  1  0.61458986  0.94684831  0.41785825  1
  Ni  Ni29  1  0.34405388  0.37793679  0.41765893  1
  Cu  Cu30  1  0.28807288  0.99492321  0.24966017  1
  Cu  Cu31  1  0.71150923  0.71288860  0.24947971  1
  Cu  Cu32  1  0.71378148  0.99997649  0.75111455  1
  Cu  Cu33  1  0.37556052  0.03973437  0.58305211  1
  Cu  Cu34  1  0.66864639  0.62551009  0.58231899  1
  Cu  Cu35  1  0.66654782  0.04310643  0.08166414  1
  Cu  Cu36  1  0.04310221  0.37545898  0.91744183  1
  Cu  Cu37  1  0.33660397  0.95432980  0.91662495  1
  Cu  Cu38  1  0.04737069  0.66751319  0.41770089  1
  C  C39  1  0.20966799  0.02541313  0.30285013  1
  C  C40  1  0.81558628  0.78692052  0.30355132  1
  C  C41  1  0.97522490  0.18094667  0.30900458  1
  C  C42  1  0.18245637  0.16196076  0.80900067  1
  C  C43  1  0.96871942  0.80627044  0.80648152  1
  C  C44  1  0.82194752  0.02780157  0.80425606  1
  C  C45  1  0.78979517  0.96542007  0.69726396  1
  C  C46  1  0.16348980  0.19972189  0.69317530  1
  C  C47  1  0.02907078  0.84086429  0.69198458  1
  C  C48  1  0.79066549  0.81928051  0.19687776  1
  C  C49  1  0.03489899  0.19310437  0.19378911  1
  C  C50  1  0.17841505  0.96747479  0.19608176  1
  C  C51  1  0.87399926  0.36619890  0.63946361  1
  C  C52  1  0.48067150  0.11887106  0.63597414  1
  C  C53  1  0.63265010  0.52033214  0.63701157  1
  C  C54  1  0.88508205  0.50948256  0.13958016  1
  C  C55  1  0.63305033  0.11340348  0.13570217  1
  C  C56  1  0.48492156  0.36816977  0.14530839  1
  C  C57  1  0.46811388  0.30009509  0.02593803  1
  C  C58  1  0.83314999  0.53056060  0.02544992  1
  C  C59  1  0.69701253  0.15226535  0.02878260  1
  C  C60  1  0.45677052  0.15361068  0.52950706  1
  C  C61  1  0.69182409  0.53932542  0.53019669  1
  C  C62  1  0.83473172  0.30722506  0.52382684  1
  C  C63  1  0.52202953  0.69469006  0.97303551  1
  C  C64  1  0.15461876  0.46042038  0.96949303  1
  C  C65  1  0.30268936  0.84629391  0.96982817  1
  C  C66  1  0.51500414  0.82929340  0.47530663  1
  C  C67  1  0.30080471  0.47214795  0.47261603  1
  C  C68  1  0.15484707  0.69421949  0.47087277  1
  C  C69  1  0.12344277  0.63177060  0.36389705  1
  C  C70  1  0.49147646  0.85984324  0.35893499  1
  C  C71  1  0.36619961  0.50059677  0.35872368  1
  C  C72  1  0.12506566  0.48836877  0.86330233  1
  C  C73  1  0.35809266  0.87115410  0.86300331  1
  C  C74  1  0.49957385  0.64088257  0.85748087  1
  C  C75  1  0.02677641  0.82078891  0.41081655  1
  C  C76  1  0.81055540  0.97777085  0.41404570  1
  C  C77  1  0.16659461  0.19068413  0.41278702  1
  C  C78  1  0.02784474  0.20268182  0.90960005  1
  C  C79  1  0.17653786  0.97492572  0.91001318  1
  C  C80  1  0.81753829  0.84478343  0.90789284  1
  C  C81  1  0.97632633  0.15454311  0.59051331  1
  C  C82  1  0.19896517  0.02460656  0.58770696  1
  C  C83  1  0.82485971  0.80188684  0.58879168  1
  C  C84  1  0.97536515  0.82135122  0.09329825  1
  C  C85  1  0.82290968  0.02130525  0.08945773  1
  C  C86  1  0.18226159  0.16164719  0.08939480  1
  C  C87  1  0.69083220  0.15279407  0.74511082  1
  C  C88  1  0.48053422  0.31565492  0.74472111  1
  C  C89  1  0.82957657  0.52835362  0.74630872  1
  C  C90  1  0.67926538  0.53037322  0.24561033  1
  C  C91  1  0.82427333  0.31199645  0.24635382  1
  C  C92  1  0.46251679  0.15614807  0.24376429  1
  C  C93  1  0.64160776  0.49476450  0.92337312  1
  C  C94  1  0.86727947  0.35707296  0.92290180  1
  C  C95  1  0.49428847  0.13129925  0.92250106  1
  C  C96  1  0.64265863  0.14844306  0.42490673  1
  C  C97  1  0.51967219  0.36656577  0.42762709  1
  C  C98  1  0.87017558  0.50506890  0.42358880  1
  C  C99  1  0.35236998  0.50403715  0.07248345  1
  C  C100  1  0.15725407  0.65480001  0.06874700  1
  C  C101  1  0.50784689  0.86498749  0.07508383  1
  C  C102  1  0.35478369  0.86480632  0.57477819  1
  C  C103  1  0.50838642  0.64415243  0.57575174  1
  C  C104  1  0.15458088  0.50982427  0.57238129  1
  C  C105  1  0.30561415  0.83732000  0.25575693  1
  C  C106  1  0.53046140  0.69319910  0.25544108  1
  C  C107  1  0.18198519  0.48760889  0.25798285  1
  C  C108  1  0.31022752  0.48386690  0.75869879  1
  C  C109  1  0.18280019  0.69913178  0.76100836  1
  C  C110  1  0.53652865  0.83787693  0.75679202  1
