# generated using pymatgen
data_Cu(NiC3)3
_symmetry_space_group_name_H-M   'P 1'
_cell_length_a   3.33771900
_cell_length_b   3.33794924
_cell_length_c   44.50465115
_cell_angle_alpha   89.99167772
_cell_angle_beta   90.00000000
_cell_angle_gamma   119.99772822
_symmetry_Int_Tables_number   1
_chemical_formula_structural   Cu(NiC3)3
_chemical_formula_sum   'Cu1 Ni3 C9'
_cell_volume   429.41327593
_cell_formula_units_Z   1
loop_
 _symmetry_equiv_pos_site_id
 _symmetry_equiv_pos_as_xyz
  1  'x, y, z'
loop_
 _atom_site_type_symbol
 _atom_site_label
 _atom_site_symmetry_multiplicity
 _atom_site_fract_x
 _atom_site_fract_y
 _atom_site_fract_z
 _atom_site_occupancy
  C  C0  1  0.00002800  0.00005700  0.18805100  1
  C  C1  1  0.33331700  0.66663600  0.70030300  1
  C  C2  1  0.33340500  0.66681200  0.61493800  1
  Ni  Ni3  1  0.33318100  0.66636100  0.08701000  1
  Ni  Ni4  1  0.66675700  0.33351300  0.28848400  1
  Ni  Ni5  1  0.66669200  0.33338500  0.65763500  1
  Cu  Cu6  1  0.33339600  0.66679000  0.46962000  1
  C  C7  1  0.33338300  0.66676700  0.32587700  1
  C  C8  1  0.66656700  0.33313400  0.04960400  1
  C  C9  1  0.66646000  0.33291900  0.12500400  1
  C  C10  1  0.33348100  0.66696300  0.25046900  1
  C  C11  1  0.66671000  0.33341800  0.43537300  1
  C  C12  1  0.66662400  0.33324700  0.50388100  1
