# generated using pymatgen
data_Cu3NiC35
_symmetry_space_group_name_H-M   'P 1'
_cell_length_a   18.27845545
_cell_length_b   9.15980890
_cell_length_c   22.74423375
_cell_angle_alpha   89.97429366
_cell_angle_beta   90.03616483
_cell_angle_gamma   120.11117535
_symmetry_Int_Tables_number   1
_chemical_formula_structural   Cu3NiC35
_chemical_formula_sum   'Cu18 Ni6 C210'
_cell_volume   3294.12547105
_cell_formula_units_Z   6
loop_
 _symmetry_equiv_pos_site_id
 _symmetry_equiv_pos_as_xyz
  1  'x, y, z'
loop_
 _atom_site_type_symbol
 _atom_site_label
 _atom_site_symmetry_multiplicity
 _atom_site_fract_x
 _atom_site_fract_y
 _atom_site_fract_z
 _atom_site_occupancy
  C  C0  1  0.81690580  0.01272235  0.24504494  1
  C  C1  1  0.18654912  0.37371464  0.24179979  1
  C  C2  1  0.69147106  0.35915186  0.25421490  1
  C  C3  1  0.99031840  0.60975380  0.25473632  1
  C  C4  1  0.49363997  0.63865069  0.23728485  1
  C  C5  1  0.31886556  0.62120809  0.74709865  1
  C  C6  1  0.99368877  0.34904688  0.74046261  1
  C  C7  1  0.49039847  0.37589202  0.75310431  1
  C  C8  1  0.19326981  0.02702440  0.74371106  1
  C  C9  1  0.68543002  0.99562683  0.74321274  1
  C  C10  1  0.14796446  0.32431769  0.57815007  1
  C  C11  1  0.01565325  0.69050599  0.58579642  1
  C  C12  1  0.49018575  0.66518637  0.92055280  1
  C  C13  1  0.99704522  0.67850012  0.92539442  1
  C  C14  1  0.84743765  0.02376887  0.91226016  1
  C  C15  1  0.49729904  0.31958634  0.42449098  1
  C  C16  1  0.16291319  0.01910662  0.42182479  1
  C  C17  1  0.34960122  0.66742238  0.41067189  1
  C  C18  1  0.99376323  0.00661729  0.49903417  1
  C  C19  1  0.52333396  0.01608819  0.49312219  1
  C  C20  1  0.02037952  0.02812765  0.99342733  1
  C  C21  1  0.50729090  0.02144781  -0.00022937  1
  C  C22  1  0.32366704  0.30534743  0.82861452  1
  C  C23  1  0.82991115  0.33541406  0.82848271  1
  C  C24  1  0.33969444  0.34361959  0.32911701  1
  C  C25  1  0.82964021  0.34172307  0.32907986  1
  C  C26  1  0.17985160  0.67440890  0.16082823  1
  C  C27  1  0.65940313  0.67519540  0.16312121  1
  C  C28  1  0.17292864  0.68172606  0.66392325  1
  C  C29  1  0.67731504  0.68571928  0.66083604  1
  Ni  Ni30  1  0.33097250  0.32366288  0.68884831  1
  Ni  Ni31  1  0.83649339  0.32469284  0.68091662  1
  Ni  Ni32  1  0.33845320  0.34904461  0.18020368  1
  Ni  Ni33  1  0.83415179  0.33503767  0.18901121  1
  Ni  Ni34  1  0.16180990  0.67034317  0.01603534  1
  Ni  Ni35  1  0.66004926  0.65310741  0.51579164  1
  Cu  Cu36  1  0.99387592  0.99792150  0.35402875  1
  Cu  Cu37  1  0.50458455  0.99108465  0.35419257  1
  Cu  Cu38  1  0.00258605  0.01687357  0.85457508  1
  Cu  Cu39  1  0.49772008  -0.00065395  0.85351488  1
  Cu  Cu40  1  0.99640696  0.01474250  0.64547000  1
  Cu  Cu41  1  0.49733232  0.99124478  0.64735668  1
  Cu  Cu42  1  0.99669335  0.00541192  0.14632556  1
  Cu  Cu43  1  0.49412121  0.97081609  0.14478927  1
  Cu  Cu44  1  0.33485387  0.32516655  0.98075290  1
  Cu  Cu45  1  0.83237607  0.33765665  0.97828560  1
  Cu  Cu46  1  0.33118321  0.32470289  0.48095953  1
  Cu  Cu47  1  0.83432391  0.33717238  0.47784004  1
  Cu  Cu48  1  0.66068993  0.65831454  0.01709420  1
  Cu  Cu49  1  0.16453598  0.67017189  0.51700974  1
  Cu  Cu50  1  0.16846368  0.66364783  0.31570343  1
  Cu  Cu51  1  0.66428836  0.65984403  0.31608651  1
  Cu  Cu52  1  0.16527100  0.67026117  0.81691006  1
  Cu  Cu53  1  0.67036067  0.67489913  0.81543024  1
  C  C54  1  0.64844575  -0.00206346  0.24750475  1
  C  C55  1  0.34894258  0.69385159  0.25143868  1
  C  C56  1  0.85091658  0.70508000  0.24834458  1
  C  C57  1  0.00157769  0.29940126  0.24862626  1
  C  C58  1  0.14851053  0.30184874  0.74719544  1
  C  C59  1  0.50089649  0.70271597  0.75066145  1
  C  C60  1  0.35085415  -0.00306705  0.74874380  1
  C  C61  1  0.84857387  0.00263168  0.75121394  1
  C  C62  1  0.98073617  0.33723245  0.58595077  1
  C  C63  1  0.18465172  0.03363403  0.58881467  1
  C  C64  1  0.48339455  0.62800604  0.08473799  1
  C  C65  1  0.81320869  0.67018204  0.91837957  1
  C  C66  1  0.02411547  0.37885552  0.92155123  1
  C  C67  1  0.51782331  0.36795410  0.91314113  1
  C  C68  1  0.16783486  0.96321782  0.91694702  1
  C  C69  1  0.66463209  0.96023178  0.91691618  1
  C  C70  1  0.31419358  0.95824537  0.41614649  1
  C  C71  1  0.16527453  0.36879077  0.42000032  1
  C  C72  1  0.66713960  0.37310009  0.41667535  1
  C  C73  1  0.01618336  0.66345511  0.41259115  1
  C  C74  1  0.52284311  0.66860800  0.42129245  1
  C  C75  1  0.14641729  0.00214954  0.24848390  1
  C  C76  1  0.49668518  0.28799695  0.24955343  1
  C  C77  1  0.64688341  0.29128172  0.74770708  1
  C  C78  1  0.99584474  0.70218521  0.75006655  1
  C  C79  1  0.48508641  0.33816265  0.58736957  1
  C  C80  1  0.68601517  0.03467766  0.58577257  1
  C  C81  1  0.33694639  0.62862721  0.58484541  1
  C  C82  1  0.82723871  0.61562058  0.58623685  1
  C  C83  1  0.98347156  0.62965219  0.08719296  1
  C  C84  1  0.33025692  0.03774852  0.08696361  1
  C  C85  1  0.83438138  0.04181992  0.08498547  1
  C  C86  1  0.18663175  0.33704804  0.08592542  1
  C  C87  1  0.68770525  0.33549304  0.08825966  1
  C  C88  1  0.31162993  0.66512202  0.91997159  1
  C  C89  1  0.80998738  0.95515543  0.41993571  1
  C  C90  1  0.10760857  0.02459283  0.30332116  1
  C  C91  1  0.60290450  0.03190976  0.30356086  1
  C  C92  1  0.40640832  0.78813713  0.30949401  1
  C  C93  1  0.91227452  0.80157959  0.30491772  1
  C  C94  1  0.49125451  0.19883851  0.30531652  1
  C  C95  1  0.99239331  0.17880388  0.30505617  1
  C  C96  1  0.09657864  0.17032169  0.80031955  1
  C  C97  1  0.60593444  0.18376956  0.80065646  1
  C  C98  1  0.49158116  0.79484850  0.81020041  1
  C  C99  1  0.99102603  0.78722429  0.80369556  1
  C  C100  1  0.41122300  0.01228261  0.80430322  1
  C  C101  1  0.90408634  0.02336352  0.81045148  1
  C  C102  1  0.40045402  0.97280454  0.69171851  1
  C  C103  1  0.90163040  0.99063543  0.69483382  1
  C  C104  1  0.09107573  0.21421881  0.68719079  1
  C  C105  1  0.59317557  0.20669237  0.69498232  1
  C  C106  1  0.00476286  0.80344445  0.69628211  1
  C  C107  1  0.51818822  0.83910188  0.69637760  1
  C  C108  1  0.39956149  0.80949093  0.19372139  1
  C  C109  1  0.90083612  0.83369711  0.19242788  1
  C  C110  1  0.01899604  0.20557290  0.19222707  1
  C  C111  1  0.50664586  0.19990534  0.19852090  1
  C  C112  1  0.09061020  0.98193096  0.19716084  1
  C  C113  1  0.58506021  0.96670119  0.19156200  1
  C  C114  1  0.44021343  0.34307904  0.64009243  1
  C  C115  1  0.94486903  0.36918589  0.64653562  1
  C  C116  1  0.23479986  0.12586916  0.64762764  1
  C  C117  1  0.72990173  0.12021036  0.64116875  1
  C  C118  1  0.33457457  0.53519489  0.63723480  1
  C  C119  1  0.81817180  0.51199889  0.63802883  1
  C  C120  1  0.44133516  0.53446202  0.14592479  1
  C  C121  1  0.93674384  0.53315330  0.13965708  1
  C  C122  1  0.32166841  0.12502442  0.13822772  1
  C  C123  1  0.83214481  0.12981514  0.13812761  1
  C  C124  1  0.22939859  0.33809940  0.14173166  1
  C  C125  1  0.73266544  0.34175872  0.14251809  1
  C  C126  1  0.23379894  0.32438203  0.03467985  1
  C  C127  1  0.73298925  0.31905183  0.03600927  1
  C  C128  1  0.42669063  0.52422478  0.02666039  1
  C  C129  1  0.93291727  0.54499946  0.03263339  1
  C  C130  1  0.33597861  0.13508988  0.03180274  1
  C  C131  1  0.83845160  0.13754504  0.03087085  1
  C  C132  1  0.23138123  0.15564596  0.53035283  1
  C  C133  1  0.73132652  0.13996372  0.53386902  1
  C  C134  1  0.34328973  0.54730685  0.52987175  1
  C  C135  1  0.83527495  0.53197191  0.53168778  1
  C  C136  1  0.43431825  0.32196443  0.53280333  1
  C  C137  1  0.92174549  0.33087536  0.53082016  1
  C  C138  1  0.27041020  0.68283416  0.97072749  1
  C  C139  1  0.77037491  0.70682956  0.97465613  1
  C  C140  1  0.08122430  0.46545448  0.97666758  1
  C  C141  1  0.57766808  0.46462118  0.96992941  1
  C  C142  1  0.15062018  0.83806054  0.97074105  1
  C  C143  1  0.64841026  0.83074761  0.97056137  1
  C  C144  1  0.27018258  0.83337766  0.47219588  1
  C  C145  1  0.76865311  0.85481287  0.47133370  1
  C  C146  1  0.15569819  0.45291776  0.48020553  1
  C  C147  1  0.65063087  0.46562872  0.47010974  1
  C  C148  1  0.07804288  0.69314065  0.46988084  1
  C  C149  1  0.58003166  0.69822299  0.47671528  1
  C  C150  1  0.05906714  0.64302026  0.35264577  1
  C  C151  1  0.56345786  0.63827095  0.35977257  1
  C  C152  1  0.25039113  0.87716853  0.36020003  1
  C  C153  1  0.76410326  0.87596284  0.36356331  1
  C  C154  1  0.18110102  0.49163749  0.36309687  1
  C  C155  1  0.68025699  0.47861587  0.35355525  1
  C  C156  1  0.06242929  0.49049375  0.86001892  1
  C  C157  1  0.55913232  0.48113281  0.85367268  1
  C  C158  1  0.18103923  0.88198019  0.85432837  1
  C  C159  1  0.68367938  0.88366478  0.85718038  1
  C  C160  1  0.26499136  0.65059797  0.86341033  1
  C  C161  1  0.75431522  0.63763260  0.86037958  1
  C  C162  1  0.01213201  0.83810357  0.41081988  1
  C  C163  1  0.50266063  0.82410383  0.41369711  1
  C  C164  1  0.40810978  0.98649048  0.40865193  1
  C  C165  1  0.89755598  0.97845194  0.41584108  1
  C  C166  1  0.08674664  0.17664559  0.41268957  1
  C  C167  1  0.57913235  0.18927374  0.40952587  1
  C  C168  1  0.00294504  0.18294743  0.91395215  1
  C  C169  1  0.50606702  0.17997990  0.91121085  1
  C  C170  1  0.08038021  0.97253780  0.90889668  1
  C  C171  1  0.57948661  0.97337148  0.91294079  1
  C  C172  1  0.39994920  0.81467706  0.91505412  1
  C  C173  1  0.90820481  0.83166588  0.91057708  1
  C  C174  1  0.49370612  0.18179307  0.58765399  1
  C  C175  1  0.98870974  0.16412505  0.58246938  1
  C  C176  1  0.08596330  0.00170130  0.58808935  1
  C  C177  1  0.59946833  0.01984566  0.58523637  1
  C  C178  1  0.41288116  0.80412692  0.58447219  1
  C  C179  1  0.91075314  0.78041868  0.58907496  1
  C  C180  1  0.49102218  0.81872202  0.08063584  1
  C  C181  1  0.99210028  0.80310759  0.08794239  1
  C  C182  1  0.41169139  0.03480744  0.08881812  1
  C  C183  1  0.91404817  0.02910928  0.08385527  1
  C  C184  1  0.10044233  0.17759469  0.08418418  1
  C  C185  1  0.59987515  0.18788432  0.08765922  1
  C  C186  1  0.34431991  0.16573320  0.74732496  1
  C  C187  1  0.83700233  0.16896989  0.74697888  1
  C  C188  1  0.24274992  0.32948929  0.74551980  1
  C  C189  1  0.73091784  0.30915811  0.74200884  1
  C  C190  1  0.41636583  0.52249144  0.74213781  1
  C  C191  1  0.92212906  0.53055639  0.74722969  1
  C  C192  1  0.33756404  0.50479403  0.24788470  1
  C  C193  1  0.84138324  0.52046530  0.24348946  1
  C  C194  1  0.42324044  0.31332186  0.24533981  1
  C  C195  1  0.91674759  0.31083937  0.24334826  1
  C  C196  1  0.23034728  0.15249546  0.24187198  1
  C  C197  1  0.74202772  0.16005330  0.24179951  1
  C  C198  1  0.32223302  0.51317608  0.92175549  1
  C  C199  1  0.82665750  0.50617792  0.92641308  1
  C  C200  1  0.42620961  0.36124679  0.92059545  1
  C  C201  1  0.92782690  0.35967687  0.92682484  1
  C  C202  1  0.24877344  0.15504128  0.92298868  1
  C  C203  1  0.75086528  0.14246818  0.92660888  1
  C  C204  1  0.32299183  0.14451111  0.42567426  1
  C  C205  1  0.81878001  0.12550057  0.42155867  1
  C  C206  1  0.25332746  0.35881328  0.42336185  1
  C  C207  1  0.74688225  0.33997003  0.42276801  1
  C  C208  1  0.42787212  0.49429033  0.42531957  1
  C  C209  1  0.92272149  0.49733921  0.42041211  1
  C  C210  1  0.17824632  0.48769609  0.08281606  1
  C  C211  1  0.68341960  0.49328118  0.08309145  1
  C  C212  1  0.06753311  0.64738228  0.08484016  1
  C  C213  1  0.57975166  0.65444839  0.08133093  1
  C  C214  1  0.25822400  0.86444027  0.08204302  1
  C  C215  1  0.75977851  0.87005895  0.08338470  1
  C  C216  1  0.17279690  0.84337077  0.58152560  1
  C  C217  1  0.67802791  0.86724303  0.58296789  1
  C  C218  1  0.25815121  0.63944827  0.58326956  1
  C  C219  1  0.75737955  0.64981157  0.58081692  1
  C  C220  1  0.07882828  0.49834797  0.58001738  1
  C  C221  1  0.56973513  0.48837428  0.58422125  1
  C  C222  1  0.14958492  0.84353214  0.25085280  1
  C  C223  1  0.65239887  0.82300907  0.25385838  1
  C  C224  1  0.25534617  0.67764453  0.25198670  1
  C  C225  1  0.75927339  0.69656950  0.25294218  1
  C  C226  1  0.08579441  0.48695064  0.25163932  1
  C  C227  1  0.57675304  0.46147453  0.25082495  1
  C  C228  1  0.15124948  0.48328396  0.75441248  1
  C  C229  1  0.64992726  0.45533511  0.75237050  1
  C  C230  1  0.07608996  0.69105274  0.75134640  1
  C  C231  1  0.58551262  0.68407203  0.75144034  1
  C  C232  1  0.25852318  0.82272082  0.75199193  1
  C  C233  1  0.75485129  0.83094946  0.75028767  1
