# generated using pymatgen
data_Cu5Ni4C69
_symmetry_space_group_name_H-M   'P 1'
_cell_length_a   18.77221193
_cell_length_b   9.39817951
_cell_length_c   23.81899004
_cell_angle_alpha   89.81829153
_cell_angle_beta   89.27061518
_cell_angle_gamma   120.04466798
_symmetry_Int_Tables_number   1
_chemical_formula_structural   Cu5Ni4C69
_chemical_formula_sum   'Cu15 Ni12 C207'
_cell_volume   3637.10556717
_cell_formula_units_Z   3
loop_
 _symmetry_equiv_pos_site_id
 _symmetry_equiv_pos_as_xyz
  1  'x, y, z'
loop_
 _atom_site_type_symbol
 _atom_site_label
 _atom_site_symmetry_multiplicity
 _atom_site_fract_x
 _atom_site_fract_y
 _atom_site_fract_z
 _atom_site_occupancy
  C  C0  1  0.33060066  0.00107550  0.24905962  1
  C  C1  1  0.82576123  0.99307714  0.25380353  1
  C  C2  1  0.18644064  0.38524962  0.23917189  1
  C  C3  1  0.67164455  0.36963638  0.24352644  1
  C  C4  1  0.99494113  0.62865090  0.26526311  1
  C  C5  1  0.49510465  0.62275775  0.26160022  1
  C  C6  1  0.83331314  0.65982259  0.73948290  1
  C  C7  1  0.98925296  0.35655948  0.75410968  1
  C  C8  1  0.49320779  0.34572093  0.75871362  1
  C  C9  1  0.17665458  0.99509095  0.73423213  1
  C  C10  1  0.02009199  0.71654287  0.58933258  1
  C  C11  1  0.32802691  0.98069226  0.59746746  1
  C  C12  1  0.02410093  0.32966429  0.08609545  1
  C  C13  1  0.51488165  0.32868258  0.09004749  1
  C  C14  1  0.15852370  0.30095779  0.93086353  1
  C  C15  1  0.66030270  0.30449302  0.93424699  1
  C  C16  1  0.16121341  0.01652926  0.42863518  1
  C  C17  1  0.66062820  0.02488927  0.42842398  1
  C  C18  1  0.99632758  0.99113892  0.50555996  1
  C  C19  1  0.51615660  0.98857594  0.49375690  1
  C  C20  1  0.00567217  0.01345369  0.00078212  1
  C  C21  1  0.50845493  0.01050451  0.00720700  1
  C  C22  1  0.34906847  0.32675431  0.83615222  1
  C  C23  1  0.85336471  0.31918158  0.82807272  1
  C  C24  1  0.35767138  0.37797742  0.33721225  1
  C  C25  1  0.85192857  0.37135226  0.33880556  1
  C  C26  1  0.17913104  0.65246898  0.17057062  1
  C  C27  1  0.67562424  0.64666146  0.16564691  1
  C  C28  1  0.17139935  0.68267382  0.67239799  1
  C  C29  1  0.69152225  0.73775239  0.65753405  1
  C  C30  1  0.98896348  0.98642382  0.35192341  1
  C  C31  1  0.98912122  0.98748863  0.84656550  1
  C  C32  1  0.49296156  0.00896347  0.84787629  1
  C  C33  1  0.51173359  0.00522164  0.64357331  1
  C  C34  1  0.99828749  0.00040981  0.15706740  1
  C  C35  1  0.82482551  0.33483824  0.17969587  1
  C  C36  1  0.33976658  0.33813602  0.98698528  1
  C  C37  1  0.83450327  0.33449408  0.98525088  1
  C  C38  1  0.17085883  0.65851212  0.01881110  1
  C  C39  1  0.16544611  0.66288699  0.51744517  1
  C  C40  1  0.16260202  0.66780220  0.81446098  1
  C  C41  1  0.66871338  0.68816438  0.81518312  1
  Ni  Ni42  1  0.48806980  0.98067959  0.34685920  1
  Ni  Ni43  1  0.00290732  0.99649129  0.64730715  1
  Ni  Ni44  1  0.50060381  0.00980065  0.15595953  1
  Ni  Ni45  1  0.33247445  0.32764572  0.67751693  1
  Ni  Ni46  1  0.82641351  0.31243848  0.67962894  1
  Ni  Ni47  1  0.33556220  0.34749987  0.18434026  1
  Ni  Ni48  1  0.33593395  0.34389998  0.48112117  1
  Ni  Ni49  1  0.83643675  0.34050374  0.48278377  1
  Ni  Ni50  1  0.65990722  0.64958396  0.01801978  1
  Ni  Ni51  1  0.65659622  0.68182154  0.51621543  1
  Ni  Ni52  1  0.16264481  0.65197766  0.31917935  1
  Ni  Ni53  1  0.65252175  0.63958793  0.32185821  1
  Cu  Cu54  1  0.35282884  0.70519700  0.25088460  1
  Cu  Cu55  1  0.83709659  0.68875130  0.25366723  1
  Cu  Cu56  1  0.00213144  0.31707339  0.24835904  1
  Cu  Cu57  1  0.49714554  0.29246486  0.24934891  1
  Cu  Cu58  1  0.99391451  0.68717991  0.73867869  1
  Cu  Cu59  1  0.34904232  0.01560103  0.73900240  1
  Cu  Cu60  1  0.85260415  0.00404890  0.74119141  1
  Cu  Cu61  1  0.18517941  0.04922869  0.58036446  1
  Cu  Cu62  1  0.69157954  0.04230094  0.57569643  1
  Cu  Cu63  1  0.18240166  0.32989753  0.08628454  1
  Cu  Cu64  1  0.66927091  0.32596039  0.08269580  1
  Cu  Cu65  1  0.01210347  0.35095917  0.91681850  1
  Cu  Cu66  1  0.51832459  0.36725209  0.91535446  1
  Cu  Cu67  1  0.01371093  0.65738290  0.41869466  1
  Cu  Cu68  1  0.51435377  0.67178386  0.41439209  1
  C  C69  1  0.15877504  0.00027568  0.25388515  1
  C  C70  1  0.64235273  0.98856405  0.25392952  1
  C  C71  1  0.15353287  0.29643885  0.74464071  1
  C  C72  1  0.65800939  0.30982853  0.75091144  1
  C  C73  1  0.49172208  0.67832341  0.74697059  1
  C  C74  1  0.48176441  0.34464833  0.58045296  1
  C  C75  1  0.97773705  0.32419025  0.58531900  1
  C  C76  1  0.33413582  0.62331444  0.58443535  1
  C  C77  1  0.83177891  0.62869326  0.58237458  1
  C  C78  1  0.49031662  0.64845030  0.08870549  1
  C  C79  1  0.98972501  0.64653190  0.08542081  1
  C  C80  1  0.33709765  0.03445971  0.09302699  1
  C  C81  1  0.82611265  0.00626208  0.08321536  1
  C  C82  1  0.32106921  0.66125593  0.91406846  1
  C  C83  1  0.81195997  0.66671796  0.91992537  1
  C  C84  1  0.16812671  0.98098009  0.91611031  1
  C  C85  1  0.66213199  0.96448794  0.92375094  1
  C  C86  1  0.31867595  0.97491983  0.41402594  1
  C  C87  1  0.80576378  0.95915195  0.41763742  1
  C  C88  1  0.17505120  0.36428772  0.41401703  1
  C  C89  1  0.66662453  0.36981989  0.41858206  1
  C  C90  1  0.12184938  0.02800803  0.30478749  1
  C  C91  1  0.60671828  0.01976542  0.30522311  1
  C  C92  1  0.41395929  0.76872569  0.30455236  1
  C  C93  1  0.90664024  0.76571599  0.30267104  1
  C  C94  1  0.47819278  0.16034981  0.30124516  1
  C  C95  1  0.98929649  0.18621931  0.29835365  1
  C  C96  1  0.11968055  0.20408807  0.79826663  1
  C  C97  1  0.62355062  0.21668966  0.80416222  1
  C  C98  1  0.48930975  0.75916031  0.79920933  1
  C  C99  1  0.97818916  0.77423308  0.79317315  1
  C  C100  1  0.41009328  0.04471356  0.79274636  1
  C  C101  1  0.90332470  0.03431930  0.79977939  1
  C  C102  1  0.39364244  0.00206011  0.68128241  1
  C  C103  1  0.90422489  0.98074834  0.68959193  1
  C  C104  1  0.10003460  0.20508016  0.69724296  1
  C  C105  1  0.60304851  0.21876523  0.70396133  1
  C  C106  1  0.01850325  0.80856103  0.68262609  1
  C  C107  1  0.50177814  0.78119911  0.69714489  1
  C  C108  1  0.39350035  0.83047631  0.19645672  1
  C  C109  1  0.87594948  0.80765996  0.19790098  1
  C  C110  1  0.01643447  0.24586913  0.18827322  1
  C  C111  1  0.52003125  0.22884955  0.19108699  1
  C  C112  1  0.10395299  0.96635018  0.20529328  1
  C  C113  1  0.59236826  0.96944152  0.20376087  1
  C  C114  1  0.44905145  0.36934839  0.63507661  1
  C  C115  1  0.93954111  0.34512742  0.63715518  1
  C  C116  1  0.24007617  0.13119030  0.63690478  1
  C  C117  1  0.73804431  0.13399513  0.63309651  1
  C  C118  1  0.33511863  0.53542824  0.63610045  1
  C  C119  1  0.82279322  0.53990258  0.63651073  1
  C  C120  1  0.45157096  0.53704608  0.13890530  1
  C  C121  1  0.94918623  0.55888218  0.13861402  1
  C  C122  1  0.33374845  0.12436413  0.14367706  1
  C  C123  1  0.81718888  0.07336578  0.13794278  1
  C  C124  1  0.23420434  0.32888451  0.14222975  1
  C  C125  1  0.72014007  0.34301951  0.14036565  1
  C  C126  1  0.22790352  0.33538952  0.02588571  1
  C  C127  1  0.71553092  0.31535695  0.02509196  1
  C  C128  1  0.44083966  0.57153356  0.03822176  1
  C  C129  1  0.94077765  0.55084260  0.03714387  1
  C  C130  1  0.34626465  0.13268711  0.04152861  1
  C  C131  1  0.83633846  0.12199030  0.03721199  1
  C  C132  1  0.23234014  0.15126085  0.52159405  1
  C  C133  1  0.73655509  0.14361143  0.51728102  1
  C  C134  1  0.33598776  0.53944511  0.53297480  1
  C  C135  1  0.84660755  0.54341572  0.53483518  1
  C  C136  1  0.42770527  0.33056166  0.53392991  1
  C  C137  1  0.93032817  0.31248042  0.53479229  1
  C  C138  1  0.28165728  0.67594632  0.96611514  1
  C  C139  1  0.76543092  0.67847573  0.96813965  1
  C  C140  1  0.06808407  0.45656939  0.97187923  1
  C  C141  1  0.57140810  0.46652332  0.97078632  1
  C  C142  1  0.17069084  0.88745125  0.96504909  1
  C  C143  1  0.66440121  0.86929161  0.97243606  1
  C  C144  1  0.28161091  0.88096152  0.46696072  1
  C  C145  1  0.76376336  0.85481132  0.46718672  1
  C  C146  1  0.17094335  0.45248296  0.46365865  1
  C  C147  1  0.66004399  0.46238406  0.46657855  1
  C  C148  1  0.06726525  0.67261437  0.47467108  1
  C  C149  1  0.57872358  0.71202826  0.46564348  1
  C  C150  1  0.06052226  0.64443332  0.36016611  1
  C  C151  1  0.55088126  0.64085906  0.35467221  1
  C  C152  1  0.26681551  0.88394605  0.36504421  1
  C  C153  1  0.76324517  0.87674613  0.36463504  1
  C  C154  1  0.18100480  0.45572484  0.36127814  1
  C  C155  1  0.67660198  0.45847567  0.36391896  1
  C  C156  1  0.05928716  0.44770388  0.85776113  1
  C  C157  1  0.56339292  0.45749814  0.85529199  1
  C  C158  1  0.17123739  0.90294573  0.86262458  1
  C  C159  1  0.66838974  0.89165552  0.86994137  1
  C  C160  1  0.27617271  0.66731240  0.86432210  1
  C  C161  1  0.77499286  0.67323035  0.86577218  1
  C  C162  1  0.01403919  0.83332203  0.41795975  1
  C  C163  1  0.51275260  0.84980941  0.41006648  1
  C  C164  1  0.40311815  0.00249705  0.40932415  1
  C  C165  1  0.89161203  0.99201833  0.41858704  1
  C  C166  1  0.10165480  0.19662655  0.41472246  1
  C  C167  1  0.59234708  0.20097704  0.41661142  1
  C  C168  1  0.01355237  0.17692885  0.92021700  1
  C  C169  1  0.51762606  0.18843528  0.91860181  1
  C  C170  1  0.09216544  0.99322667  0.91930493  1
  C  C171  1  0.58551703  0.97404591  0.92515565  1
  C  C172  1  0.40689518  0.79689218  0.91385650  1
  C  C173  1  0.89818714  0.80321070  0.92334152  1
  C  C174  1  0.48329012  0.18776158  0.58204759  1
  C  C175  1  0.98882756  0.17892186  0.58740245  1
  C  C176  1  0.08946398  0.01840954  0.58277446  1
  C  C177  1  0.59729817  0.01792825  0.57505012  1
  C  C178  1  0.40660035  0.79344943  0.58278177  1
  C  C179  1  0.90920185  0.79556973  0.58373571  1
  C  C180  1  0.49837348  0.81119874  0.09592073  1
  C  C181  1  0.99888751  0.81185160  0.08277750  1
  C  C182  1  0.41181415  0.01875962  0.09330125  1
  C  C183  1  0.90277423  0.99513720  0.08246392  1
  C  C184  1  0.08754516  0.17030905  0.08520584  1
  C  C185  1  0.57584488  0.15857552  0.08686117  1
  C  C186  1  0.34496084  0.19022509  0.74104645  1
  C  C187  1  0.84333739  0.16853060  0.73934295  1
  C  C188  1  0.23691121  0.31576698  0.73780582  1
  C  C189  1  0.74231796  0.33804463  0.74329224  1
  C  C190  1  0.41412926  0.51494054  0.74385796  1
  C  C191  1  0.90865493  0.50734885  0.73292316  1
  C  C192  1  0.33549972  0.51407713  0.24246234  1
  C  C193  1  0.81682824  0.49744041  0.24729149  1
  C  C194  1  0.41332224  0.31326580  0.24342219  1
  C  C195  1  0.91921703  0.33668164  0.24786301  1
  C  C196  1  0.24113578  0.14827820  0.24454772  1
  C  C197  1  0.72747350  0.13161438  0.24758573  1
  C  C198  1  0.31776881  0.49965661  0.91338001  1
  C  C199  1  0.80933653  0.50567767  0.92053386  1
  C  C200  1  0.42494189  0.33908626  0.91708401  1
  C  C201  1  0.91977351  0.32977708  0.91729244  1
  C  C202  1  0.24013586  0.15251868  0.91537277  1
  C  C203  1  0.73322117  0.13613099  0.92326315  1
  C  C204  1  0.31897489  0.13501195  0.41619785  1
  C  C205  1  0.80665345  0.11926924  0.41851759  1
  C  C206  1  0.24958322  0.34465286  0.41518449  1
  C  C207  1  0.74050032  0.34797976  0.42231540  1
  C  C208  1  0.42223849  0.50568960  0.42394427  1
  C  C209  1  0.92055324  0.49045912  0.42202371  1
  C  C210  1  0.16998788  0.49405746  0.09076188  1
  C  C211  1  0.65671747  0.49077085  0.08112616  1
  C  C212  1  0.07126336  0.65719217  0.08398423  1
  C  C213  1  0.57299917  0.66320046  0.08223627  1
  C  C214  1  0.26169126  0.87167828  0.09173803  1
  C  C215  1  0.75202259  0.84268906  0.07565768  1
  C  C216  1  0.17812062  0.86357523  0.57993732  1
  C  C217  1  0.68313132  0.85645572  0.57749195  1
  C  C218  1  0.25877513  0.63916993  0.58766719  1
  C  C219  1  0.75802587  0.64479231  0.57462121  1
  C  C220  1  0.06095304  0.47776316  0.58265293  1
  C  C221  1  0.56702667  0.48488094  0.57389516  1
  C  C222  1  0.17073765  0.85540776  0.25996857  1
  C  C223  1  0.64874849  0.83745512  0.25833318  1
  C  C224  1  0.26040090  0.69098075  0.26112397  1
  C  C225  1  0.74949417  0.68908476  0.26490285  1
  C  C226  1  0.08648040  0.50072453  0.25449019  1
  C  C227  1  0.57824978  0.47820612  0.25773036  1
  C  C228  1  0.15938954  0.45995074  0.74619897  1
  C  C229  1  0.66274612  0.47287709  0.75243283  1
  C  C230  1  0.07250536  0.65450279  0.74608679  1
  C  C231  1  0.56194698  0.64532416  0.74659690  1
  C  C232  1  0.25421933  0.86145209  0.74557117  1
  C  C233  1  0.76375837  0.82832912  0.74353724  1
