# generated using pymatgen
data_CuNiC2
_symmetry_space_group_name_H-M   'P 1'
_cell_length_a   5.64562535
_cell_length_b   5.65358172
_cell_length_c   5.64562574
_cell_angle_alpha   31.77951269
_cell_angle_beta   31.82034566
_cell_angle_gamma   31.77951567
_symmetry_Int_Tables_number   1
_chemical_formula_structural   CuNiC2
_chemical_formula_sum   'Cu1 Ni1 C2'
_cell_volume   44.42638539
_cell_formula_units_Z   1
loop_
 _symmetry_equiv_pos_site_id
 _symmetry_equiv_pos_as_xyz
  1  'x, y, z'
loop_
 _atom_site_type_symbol
 _atom_site_label
 _atom_site_symmetry_multiplicity
 _atom_site_fract_x
 _atom_site_fract_y
 _atom_site_fract_z
 _atom_site_occupancy
  Ni  Ni0  1  0.35325600  0.36200000  0.35325600  1
  Cu  Cu1  1  0.51492700  0.51449600  0.51492500  1
  C  C2  1  0.74463900  0.75084600  0.74463700  1
  C  C3  1  0.23718300  0.23515500  0.23718100  1
