# generated using pymatgen
data_Cu2NiC17
_symmetry_space_group_name_H-M   'P 1'
_cell_length_a   8.89659923
_cell_length_b   8.80908139
_cell_length_c   21.84225092
_cell_angle_alpha   91.09904213
_cell_angle_beta   90.00000000
_cell_angle_gamma   120.32919350
_symmetry_Int_Tables_number   1
_chemical_formula_structural   Cu2NiC17
_chemical_formula_sum   'Cu12 Ni6 C102'
_cell_volume   1477.15206638
_cell_formula_units_Z   6
loop_
 _symmetry_equiv_pos_site_id
 _symmetry_equiv_pos_as_xyz
  1  'x, y, z'
loop_
 _atom_site_type_symbol
 _atom_site_label
 _atom_site_symmetry_multiplicity
 _atom_site_fract_x
 _atom_site_fract_y
 _atom_site_fract_z
 _atom_site_occupancy
  C  C0  1  0.35952597  0.35797379  0.24745716  1
  C  C1  1  0.99723998  0.63169049  0.24558587  1
  C  C2  1  0.63445051  0.63169049  0.74558587  1
  C  C3  1  0.99844782  0.35797379  0.74745716  1
  C  C4  1  0.02619297  0.69130679  0.58079016  1
  C  C5  1  0.66390698  0.96502349  0.57891887  1
  C  C6  1  0.30111751  0.96502349  0.07891887  1
  C  C7  1  0.66511482  0.69130679  0.08079016  1
  C  C8  1  0.69285897  0.02464079  0.91412416  1
  C  C9  1  0.33057298  0.29835749  0.91225287  1
  C  C10  1  0.96778351  0.29835749  0.41225287  1
  C  C11  1  0.33178082  0.02464079  0.41412416  1
  C  C12  1  0.98269239  0.98643260  0.49747209  1
  C  C13  1  0.00374020  0.98643260  0.99747209  1
  C  C14  1  0.64935939  0.31976560  0.83080509  1
  C  C15  1  0.67040720  0.31976560  0.33080509  1
  C  C16  1  0.31602539  0.65309960  0.16413909  1
  C  C17  1  0.33707320  0.65309960  0.66413909  1
  C  C18  1  0.99366382  0.99708958  0.35171274  1
  C  C19  1  0.00342576  0.99708958  0.85171274  1
  C  C20  1  0.66033082  0.33042258  0.68504574  1
  C  C21  1  0.67009276  0.33042258  0.18504574  1
  C  C22  1  0.32699682  0.66375658  0.01837974  1
  C  C23  1  0.33675876  0.66375658  0.51837974  1
  Ni  Ni24  1  0.99176923  0.01145557  0.65100068  1
  Ni  Ni25  1  0.01968635  0.01145557  0.15100068  1
  Ni  Ni26  1  0.65843623  0.34478857  0.98433368  1
  Ni  Ni27  1  0.68635335  0.34478857  0.48433368  1
  Ni  Ni28  1  0.32510223  0.67812257  0.31766768  1
  Ni  Ni29  1  0.35301935  0.67812257  0.81766768  1
  Cu  Cu30  1  0.29701830  0.99828982  0.25174872  1
  Cu  Cu31  1  0.00430853  0.29643760  0.25343743  1
  Cu  Cu32  1  0.29212907  0.29643760  0.75343743  1
  Cu  Cu33  1  0.70127152  0.99828982  0.75174872  1
  Cu  Cu34  1  0.96368530  0.33162282  0.58508172  1
  Cu  Cu35  1  0.67097553  0.62977060  0.58677043  1
  Cu  Cu36  1  0.95879607  0.62977060  0.08677043  1
  Cu  Cu37  1  0.36793852  0.33162282  0.08508172  1
  Cu  Cu38  1  0.63035130  0.66495682  0.91841572  1
  Cu  Cu39  1  0.33764153  0.96310460  0.92010443  1
  Cu  Cu40  1  0.62546207  0.96310460  0.42010443  1
  Cu  Cu41  1  0.03460452  0.66495682  0.41841572  1
  C  C42  1  0.70182560  0.70984062  0.24851464  1
  C  C43  1  0.00801503  0.70984062  0.74851464  1
  C  C44  1  0.36849260  0.04317362  0.58184764  1
  C  C45  1  0.67468203  0.04317362  0.08184764  1
  C  C46  1  0.03515860  0.37650762  0.91518164  1
  C  C47  1  0.34134803  0.37650762  0.41518164  1
  C  C48  1  0.21065724  0.02421883  0.30822499  1
  C  C49  1  0.81514108  0.79720990  0.30163166  1
  C  C50  1  0.98363194  0.19539403  0.31143642  1
  C  C51  1  0.21176209  0.19539403  0.81143642  1
  C  C52  1  0.98206882  0.79720990  0.80163166  1
  C  C53  1  0.81356159  0.02421883  0.80822499  1
  C  C54  1  0.77897008  0.95741073  0.69284571  1
  C  C55  1  0.16946804  0.20750024  0.69633974  1
  C  C56  1  0.03088410  0.80980198  0.69135812  1
  C  C57  1  0.77891788  0.80980198  0.19135812  1
  C  C58  1  0.03803219  0.20750024  0.19633974  1
  C  C59  1  0.17844065  0.95741073  0.19284571  1
  C  C60  1  0.87732424  0.35755183  0.64155799  1
  C  C61  1  0.48180808  0.13054290  0.63496466  1
  C  C62  1  0.65029894  0.52872703  0.64476942  1
  C  C63  1  0.87842909  0.52872703  0.14476942  1
  C  C64  1  0.64873582  0.13054290  0.13496466  1
  C  C65  1  0.48022859  0.35755183  0.14155799  1
  C  C66  1  0.44563708  0.29074373  0.02617871  1
  C  C67  1  0.83613504  0.54083324  0.02967274  1
  C  C68  1  0.69755110  0.14313498  0.02469112  1
  C  C69  1  0.44558488  0.14313498  0.52469112  1
  C  C70  1  0.70469919  0.54083324  0.52967274  1
  C  C71  1  0.84510765  0.29074373  0.52617871  1
  C  C72  1  0.54399024  0.69088583  0.97489199  1
  C  C73  1  0.14847408  0.46387690  0.96829866  1
  C  C74  1  0.31696494  0.86206103  0.97810342  1
  C  C75  1  0.54509509  0.86206103  0.47810342  1
  C  C76  1  0.31540182  0.46387690  0.46829866  1
  C  C77  1  0.14689459  0.69088583  0.47489199  1
  C  C78  1  0.11230308  0.62407773  0.35951271  1
  C  C79  1  0.50280104  0.87416724  0.36300674  1
  C  C80  1  0.36421710  0.47646898  0.35802512  1
  C  C81  1  0.11225088  0.47646898  0.85802512  1
  C  C82  1  0.37136519  0.87416724  0.86300674  1
  C  C83  1  0.51177365  0.62407773  0.85951271  1
  C  C84  1  0.02147181  0.83029878  0.41109125  1
  C  C85  1  0.81042255  0.99597684  0.41275849  1
  C  C86  1  0.18210295  0.19746973  0.41119200  1
  C  C87  1  0.01536679  0.19746973  0.91119200  1
  C  C88  1  0.18555430  0.99597684  0.91275849  1
  C  C89  1  0.80882697  0.83029878  0.91109125  1
  C  C90  1  0.97490803  0.15994547  0.58882028  1
  C  C91  1  0.19129309  0.01873898  0.58768378  1
  C  C92  1  0.84621061  0.81682442  0.58968824  1
  C  C93  1  0.97061381  0.81682442  0.08968824  1
  C  C94  1  0.82744589  0.01873898  0.08768378  1
  C  C95  1  0.18503744  0.15994547  0.08882028  1
  C  C96  1  0.68813881  0.16363178  0.74442425  1
  C  C97  1  0.47708955  0.32930984  0.74609149  1
  C  C98  1  0.84876995  0.53080273  0.74452500  1
  C  C99  1  0.68203379  0.53080273  0.24452500  1
  C  C100  1  0.85222130  0.32930984  0.24609149  1
  C  C101  1  0.47549397  0.16363178  0.24442425  1
  C  C102  1  0.64157503  0.49327847  0.92215328  1
  C  C103  1  0.85796009  0.35207198  0.92101678  1
  C  C104  1  0.51287761  0.15015742  0.92302124  1
  C  C105  1  0.63728081  0.15015742  0.42302124  1
  C  C106  1  0.49411289  0.35207198  0.42101678  1
  C  C107  1  0.85170444  0.49327847  0.42215328  1
  C  C108  1  0.35480481  0.49696578  0.07775825  1
  C  C109  1  0.14375555  0.66264384  0.07942549  1
  C  C110  1  0.51543595  0.86413673  0.07785900  1
  C  C111  1  0.34869979  0.86413673  0.57785900  1
  C  C112  1  0.51888730  0.66264384  0.57942549  1
  C  C113  1  0.14215997  0.49696578  0.57775825  1
  C  C114  1  0.30824103  0.82661247  0.25548728  1
  C  C115  1  0.52462609  0.68540598  0.25435078  1
  C  C116  1  0.17954361  0.48349142  0.25635524  1
  C  C117  1  0.30394681  0.48349142  0.75635524  1
  C  C118  1  0.16077889  0.68540598  0.75435078  1
  C  C119  1  0.51837044  0.82661247  0.75548728  1
