# generated using pymatgen
data_Cu3NiC10
_symmetry_space_group_name_H-M   'P 1'
_cell_length_a   4.37823200
_cell_length_b   4.93834300
_cell_length_c   14.10519400
_cell_angle_alpha   90.00000000
_cell_angle_beta   90.00000000
_cell_angle_gamma   90.00000000
_symmetry_Int_Tables_number   1
_chemical_formula_structural   Cu3NiC10
_chemical_formula_sum   'Cu3 Ni1 C10'
_cell_volume   304.97138060
_cell_formula_units_Z   1
loop_
 _symmetry_equiv_pos_site_id
 _symmetry_equiv_pos_as_xyz
  1  'x, y, z'
loop_
 _atom_site_type_symbol
 _atom_site_label
 _atom_site_symmetry_multiplicity
 _atom_site_fract_x
 _atom_site_fract_y
 _atom_site_fract_z
 _atom_site_occupancy
  C  C0  1  0.50000000  0.50000000  0.82736500  1
  C  C1  1  0.50000000  0.50000000  0.17263500  1
  C  C2  1  0.50000000  0.50000000  0.50000000  1
  Ni  Ni3  1  0.00000000  0.00000000  0.50000000  1
  Cu  Cu4  1  0.00000000  0.00000000  0.00000000  1
  Cu  Cu5  1  0.00000000  0.00000000  0.68333400  1
  Cu  Cu6  1  0.00000000  0.00000000  0.31666600  1
  C  C7  1  0.50000000  0.00000000  0.61695200  1
  C  C8  1  0.50000000  0.00000000  0.38304800  1
  C  C9  1  0.00000000  0.00000000  0.84248400  1
  C  C10  1  0.00000000  0.00000000  0.15751600  1
  C  C11  1  0.00000000  0.50000000  0.00000000  1
  C  C12  1  0.00000000  0.50000000  0.62104600  1
  C  C13  1  0.00000000  0.50000000  0.37895400  1
