# generated using pymatgen
data_Cu5(NiC)7
_symmetry_space_group_name_H-M   'P 1'
_cell_length_a   4.90166211
_cell_length_b   4.95897754
_cell_length_c   8.74983447
_cell_angle_alpha   89.09508156
_cell_angle_beta   88.87631335
_cell_angle_gamma   98.18932311
_symmetry_Int_Tables_number   1
_chemical_formula_structural   Cu5(NiC)7
_chemical_formula_sum   'Cu5 Ni7 C7'
_cell_volume   210.43786369
_cell_formula_units_Z   1
loop_
 _symmetry_equiv_pos_site_id
 _symmetry_equiv_pos_as_xyz
  1  'x, y, z'
loop_
 _atom_site_type_symbol
 _atom_site_label
 _atom_site_symmetry_multiplicity
 _atom_site_fract_x
 _atom_site_fract_y
 _atom_site_fract_z
 _atom_site_occupancy
  C  C0  1  0.00197100  0.51040200  0.33700100  1
  C  C1  1  0.96759500  0.99088600  0.00468000  1
  C  C2  1  0.05126900  0.02381300  0.34101800  1
  C  C3  1  0.00722500  0.99269900  0.66597200  1
  C  C4  1  0.54081900  0.39246200  0.14456900  1
  C  C5  1  0.46943700  0.51127300  0.83546500  1
  C  C6  1  0.46057200  0.54707500  0.51903300  1
  Ni  Ni7  1  0.17756900  0.79610600  0.49111500  1
  Ni  Ni8  1  0.33554500  0.32721900  0.34563700  1
  Ni  Ni9  1  0.29944200  0.26543900  0.98261600  1
  Ni  Ni10  1  0.29921800  0.32697000  0.67492100  1
  Ni  Ni11  1  0.66195300  0.70595400  0.67507400  1
  Ni  Ni12  1  0.67646700  0.68691400  0.99603700  1
  Ni  Ni13  1  0.86466600  0.20407700  0.18688800  1
  Cu  Cu14  1  0.15634600  0.77943000  0.17224300  1
  Cu  Cu15  1  0.17019400  0.78821300  0.83901300  1
  Cu  Cu16  1  0.70171200  0.73013800  0.34691900  1
  Cu  Cu17  1  0.80914200  0.18074000  0.83671500  1
  Cu  Cu18  1  0.83497000  0.24019000  0.49793400  1
