# generated using pymatgen
data_Cu3NiC14
_symmetry_space_group_name_H-M   'P 1'
_cell_length_a   8.80893750
_cell_length_b   8.80893722
_cell_length_c   23.00741059
_cell_angle_alpha   90.00000000
_cell_angle_beta   90.00000000
_cell_angle_gamma   120.00000106
_symmetry_Int_Tables_number   1
_chemical_formula_structural   Cu3NiC14
_chemical_formula_sum   'Cu18 Ni6 C84'
_cell_volume   1546.12788693
_cell_formula_units_Z   6
loop_
 _symmetry_equiv_pos_site_id
 _symmetry_equiv_pos_as_xyz
  1  'x, y, z'
loop_
 _atom_site_type_symbol
 _atom_site_label
 _atom_site_symmetry_multiplicity
 _atom_site_fract_x
 _atom_site_fract_y
 _atom_site_fract_z
 _atom_site_occupancy
  C  C0  1  0.00000000  -0.00000000  0.49574273  1
  C  C1  1  0.00000000  -0.00000000  0.99574273  1
  C  C2  1  0.66666700  0.33333300  0.82907573  1
  C  C3  1  0.66666700  0.33333300  0.32907573  1
  C  C4  1  0.33333300  0.66666700  0.16240973  1
  C  C5  1  0.33333300  0.66666700  0.66240973  1
  C  C6  1  0.00000000  -0.00000000  0.64568887  1
  C  C7  1  0.00000000  -0.00000000  0.14568887  1
  C  C8  1  0.66666700  0.33333300  0.97902187  1
  C  C9  1  0.66666700  0.33333300  0.47902187  1
  C  C10  1  0.33333300  0.66666700  0.31235587  1
  C  C11  1  0.33333300  0.66666700  0.81235587  1
  Ni  Ni12  1  0.00000000  -0.00000000  0.35181620  1
  Ni  Ni13  1  0.00000000  -0.00000000  0.85181620  1
  Ni  Ni14  1  0.66666700  0.33333300  0.68514920  1
  Ni  Ni15  1  0.66666700  0.33333300  0.18514920  1
  Ni  Ni16  1  0.33333300  0.66666700  0.01848320  1
  Ni  Ni17  1  0.33333300  0.66666700  0.51848320  1
  Cu  Cu18  1  0.29009771  -0.00040879  0.25054732  1
  Cu  Cu19  1  0.70949350  0.70990229  0.25054732  1
  Cu  Cu20  1  0.00040879  0.29050650  0.25054732  1
  Cu  Cu21  1  0.29009771  0.29050650  0.75054732  1
  Cu  Cu22  1  0.00040879  0.70990229  0.75054732  1
  Cu  Cu23  1  0.70949350  -0.00040879  0.75054732  1
  Cu  Cu24  1  0.95676471  0.33292421  0.58388032  1
  Cu  Cu25  1  0.37616050  0.04323529  0.58388032  1
  Cu  Cu26  1  0.66707579  0.62383950  0.58388032  1
  Cu  Cu27  1  0.95676471  0.62383950  0.08388032  1
  Cu  Cu28  1  0.66707579  0.04323529  0.08388032  1
  Cu  Cu29  1  0.37616050  0.33292421  0.08388032  1
  Cu  Cu30  1  0.62343071  0.66625821  0.91721432  1
  Cu  Cu31  1  0.04282650  0.37656929  0.91721432  1
  Cu  Cu32  1  0.33374179  0.95717350  0.91721432  1
  Cu  Cu33  1  0.62343071  0.95717350  0.41721432  1
  Cu  Cu34  1  0.33374179  0.37656929  0.41721432  1
  Cu  Cu35  1  0.04282650  0.66625821  0.41721432  1
  C  C36  1  0.21318096  0.02730221  0.30505136  1
  C  C37  1  0.81412126  0.78681904  0.30505136  1
  C  C38  1  0.97269779  0.18587874  0.30505136  1
  C  C39  1  0.21318096  0.18587874  0.80505136  1
  C  C40  1  0.97269779  0.78681904  0.80505136  1
  C  C41  1  0.81412126  0.02730221  0.80505136  1
  C  C42  1  0.80065256  0.97017371  0.69555991  1
  C  C43  1  0.16952115  0.19934744  0.69555991  1
  C  C44  1  0.02982629  0.83047885  0.69555991  1
  C  C45  1  0.80065256  0.83047885  0.19555991  1
  C  C46  1  0.02982629  0.19934744  0.19555991  1
  C  C47  1  0.16952115  0.97017371  0.19555991  1
  C  C48  1  0.87984796  0.36063521  0.63838436  1
  C  C49  1  0.48078826  0.12015204  0.63838436  1
  C  C50  1  0.63936479  0.51921174  0.63838436  1
  C  C51  1  0.87984796  0.51921174  0.13838436  1
  C  C52  1  0.63936479  0.12015204  0.13838436  1
  C  C53  1  0.48078826  0.36063521  0.13838436  1
  C  C54  1  0.46731956  0.30350671  0.02889291  1
  C  C55  1  0.83618815  0.53268044  0.02889291  1
  C  C56  1  0.69649329  0.16381185  0.02889291  1
  C  C57  1  0.46731956  0.16381185  0.52889291  1
  C  C58  1  0.69649329  0.53268044  0.52889291  1
  C  C59  1  0.83618815  0.30350671  0.52889291  1
  C  C60  1  0.54651396  0.69396921  0.97171836  1
  C  C61  1  0.14745426  0.45348604  0.97171836  1
  C  C62  1  0.30603079  0.85254574  0.97171836  1
  C  C63  1  0.54651396  0.85254574  0.47171836  1
  C  C64  1  0.30603079  0.45348604  0.47171836  1
  C  C65  1  0.14745426  0.69396921  0.47171836  1
  C  C66  1  0.13398556  0.63684071  0.36222691  1
  C  C67  1  0.50285415  0.86601444  0.36222691  1
  C  C68  1  0.36315929  0.49714585  0.36222691  1
  C  C69  1  0.13398556  0.49714585  0.86222691  1
  C  C70  1  0.36315929  0.86601444  0.86222691  1
  C  C71  1  0.50285415  0.63684071  0.86222691  1
  C  C72  1  0.01297776  0.82026360  0.41037229  1
  C  C73  1  0.80728585  0.98702224  0.41037229  1
  C  C74  1  0.17973640  0.19271415  0.41037229  1
  C  C75  1  0.01297776  0.19271415  0.91037229  1
  C  C76  1  0.17973640  0.98702224  0.91037229  1
  C  C77  1  0.80728585  0.82026360  0.91037229  1
  C  C78  1  0.96714060  0.15908111  0.59071985  1
  C  C79  1  0.19194051  0.03285940  0.59071985  1
  C  C80  1  0.84091889  0.80805949  0.59071985  1
  C  C81  1  0.96714060  0.80805949  0.09071985  1
  C  C82  1  0.84091889  0.03285940  0.09071985  1
  C  C83  1  0.19194051  0.15908111  0.09071985  1
  C  C84  1  0.67964476  0.15359660  0.74370529  1
  C  C85  1  0.47395285  0.32035524  0.74370529  1
  C  C86  1  0.84640340  0.52604715  0.74370529  1
  C  C87  1  0.67964476  0.52604715  0.24370529  1
  C  C88  1  0.84640340  0.32035524  0.24370529  1
  C  C89  1  0.47395285  0.15359660  0.24370529  1
  C  C90  1  0.63380760  0.49241411  0.92405285  1
  C  C91  1  0.85860751  0.36619240  0.92405285  1
  C  C92  1  0.50758589  0.14139249  0.92405285  1
  C  C93  1  0.63380760  0.14139249  0.42405285  1
  C  C94  1  0.50758589  0.36619240  0.42405285  1
  C  C95  1  0.85860751  0.49241411  0.42405285  1
  C  C96  1  0.34631076  0.48693060  0.07703929  1
  C  C97  1  0.14061885  0.65368924  0.07703929  1
  C  C98  1  0.51306940  0.85938115  0.07703929  1
  C  C99  1  0.34631076  0.85938115  0.57703929  1
  C  C100  1  0.51306940  0.65368924  0.57703929  1
  C  C101  1  0.14061885  0.48693060  0.57703929  1
  C  C102  1  0.30047360  0.82574811  0.25738685  1
  C  C103  1  0.52527351  0.69952640  0.25738685  1
  C  C104  1  0.17425189  0.47472649  0.25738685  1
  C  C105  1  0.30047360  0.47472649  0.75738685  1
  C  C106  1  0.17425189  0.69952640  0.75738685  1
  C  C107  1  0.52527351  0.82574811  0.75738685  1
