# generated using pymatgen
data_Cu3Ni4C33
_symmetry_space_group_name_H-M   'P 1'
_cell_length_a   8.80771265
_cell_length_b   8.79978163
_cell_length_c   21.89846508
_cell_angle_alpha   91.41767420
_cell_angle_beta   89.63196840
_cell_angle_gamma   120.29318181
_symmetry_Int_Tables_number   1
_chemical_formula_structural   Cu3Ni4C33
_chemical_formula_sum   'Cu9 Ni12 C99'
_cell_volume   1465.02509504
_cell_formula_units_Z   3
loop_
 _symmetry_equiv_pos_site_id
 _symmetry_equiv_pos_as_xyz
  1  'x, y, z'
loop_
 _atom_site_type_symbol
 _atom_site_label
 _atom_site_symmetry_multiplicity
 _atom_site_fract_x
 _atom_site_fract_y
 _atom_site_fract_z
 _atom_site_occupancy
  C  C0  1  0.99234252  0.36159677  0.75372475  1
  C  C1  1  0.39231062  0.01369795  0.75147022  1
  C  C2  1  0.31433011  0.33640452  0.58731555  1
  C  C3  1  0.02810466  0.69782213  0.57495789  1
  C  C4  1  0.65831908  0.96847876  0.59257569  1
  C  C5  1  0.31423440  0.97555623  0.08550181  1
  C  C6  1  0.65758710  0.68188309  0.08589484  1
  C  C7  1  0.02451543  0.33724547  0.08576245  1
  C  C8  1  0.33699949  0.30177388  0.92511796  1
  C  C9  1  0.96407725  0.29053608  0.41322604  1
  C  C10  1  0.32288334  0.03611825  0.41274246  1
  C  C11  1  0.71365436  0.68041211  0.41348398  1
  C  C12  1  0.00002645  0.99870382  0.49464664  1
  C  C13  1  0.98916166  0.98812464  0.99756153  1
  C  C14  1  0.66640398  0.32897013  0.83455341  1
  C  C15  1  0.66842962  0.33531171  0.32705121  1
  C  C16  1  0.33451007  0.66751181  0.16636329  1
  C  C17  1  0.36277321  0.66994253  0.66933166  1
  C  C18  1  0.00098049  0.99963197  0.35490686  1
  C  C19  1  0.64879812  0.32745758  0.68829780  1
  C  C20  1  0.66198088  0.33239970  0.18036451  1
  Ni  Ni21  1  0.29027556  0.29469095  0.75249939  1
  Ni  Ni22  1  0.71450123  0.99064281  0.75392463  1
  Ni  Ni23  1  0.37452353  0.04082934  0.58405024  1
  Ni  Ni24  1  0.66504947  0.62484261  0.58315399  1
  Ni  Ni25  1  0.94848763  0.61255645  0.08455300  1
  Ni  Ni26  1  0.66066525  0.03546460  0.08460802  1
  Ni  Ni27  1  0.38051620  0.33897839  0.08192051  1
  Ni  Ni28  1  0.03965746  0.38806761  0.91512749  1
  Ni  Ni29  1  0.33151180  0.95317695  0.91583869  1
  Ni  Ni30  1  0.61788224  0.96161109  0.41685648  1
  Ni  Ni31  1  0.33665024  0.38891026  0.41733833  1
  Ni  Ni32  1  0.04281072  0.65596019  0.41817394  1
  Cu  Cu33  1  0.01680412  0.02823443  0.85683606  1
  Cu  Cu34  1  0.99543417  0.99401568  0.64981260  1
  Cu  Cu35  1  0.00271915  0.00098266  0.14163394  1
  Cu  Cu36  1  0.67272595  0.31095737  0.98409135  1
  Cu  Cu37  1  0.65043299  0.34032486  0.47623073  1
  Cu  Cu38  1  0.31708790  0.66677671  0.02012184  1
  Cu  Cu39  1  0.35091048  0.68334976  0.51586755  1
  Cu  Cu40  1  0.33074555  0.66393865  0.32040189  1
  Cu  Cu41  1  0.34254021  0.66794122  0.81513538  1
  C  C42  1  0.28872005  0.99099975  0.25072939  1
  C  C43  1  0.69911927  0.70933009  0.25118494  1
  C  C44  1  0.01121430  0.29903878  0.25147402  1
  C  C45  1  0.00091413  0.71418324  0.74928301  1
  C  C46  1  0.95615836  0.33107649  0.58487357  1
  C  C47  1  0.62979831  0.67221287  0.91470592  1
  C  C48  1  0.19767220  0.00029846  0.30555599  1
  C  C49  1  0.79926279  0.80284940  0.30618290  1
  C  C50  1  0.00477002  0.20122184  0.30530667  1
  C  C51  1  0.20462746  0.17384324  0.81303573  1
  C  C52  1  0.98175148  0.80093696  0.80391940  1
  C  C53  1  0.84460465  0.01587123  0.81062481  1
  C  C54  1  0.79562435  0.96018911  0.68804631  1
  C  C55  1  0.15554273  0.19919080  0.69152996  1
  C  C56  1  0.02763255  0.81849669  0.69143869  1
  C  C57  1  0.78559687  0.81164927  0.19398156  1
  C  C58  1  0.02833842  0.21072438  0.19278552  1
  C  C59  1  0.18365556  0.97333440  0.19260958  1
  C  C60  1  0.87337235  0.34768383  0.64030364  1
  C  C61  1  0.49642300  0.10465072  0.64365424  1
  C  C62  1  0.62052730  0.49432373  0.63777036  1
  C  C63  1  0.88639396  0.48952553  0.14179514  1
  C  C64  1  0.59483535  0.10367351  0.14046049  1
  C  C65  1  0.50585268  0.39795505  0.13983563  1
  C  C66  1  0.45913349  0.28376323  0.02102055  1
  C  C67  1  0.81303776  0.52873694  0.02499374  1
  C  C68  1  0.72634068  0.16748723  0.02557879  1
  C  C69  1  0.45842602  0.17409527  0.52452390  1
  C  C70  1  0.71336954  0.54747515  0.51989724  1
  C  C71  1  0.85309829  0.30959295  0.52842677  1
  C  C72  1  0.55041716  0.69648885  0.97110604  1
  C  C73  1  0.17517747  0.47433647  0.97318872  1
  C  C74  1  0.30529531  0.83904444  0.97638489  1
  C  C75  1  0.54552319  0.84254930  0.47815247  1
  C  C76  1  0.30036194  0.47313653  0.47988468  1
  C  C77  1  0.16650853  0.69090229  0.47877439  1
  C  C78  1  0.12467932  0.60445314  0.35783443  1
  C  C79  1  0.47438312  0.87352426  0.35953595  1
  C  C80  1  0.39111893  0.52385041  0.35944777  1
  C  C81  1  0.13313325  0.50185338  0.85326878  1
  C  C82  1  0.36060122  0.86434849  0.85300025  1
  C  C83  1  0.51329171  0.64145767  0.85973183  1
  C  C84  1  0.02129923  0.82606074  0.41245812  1
  C  C85  1  0.80986276  0.98688132  0.40918992  1
  C  C86  1  0.17048078  0.19423746  0.41171330  1
  C  C87  1  0.02749540  0.19154016  0.91343340  1
  C  C88  1  0.15387635  0.97738391  0.90994579  1
  C  C89  1  0.80583111  0.83043689  0.90960779  1
  C  C90  1  0.97416419  0.16861121  0.58438557  1
  C  C91  1  0.17627839  0.02251547  0.59162316  1
  C  C92  1  0.84547486  0.82499507  0.58856943  1
  C  C93  1  0.97204547  0.81466373  0.09227477  1
  C  C94  1  0.83924492  0.01656180  0.09426042  1
  C  C95  1  0.18018270  0.15665247  0.09068815  1
  C  C96  1  0.70202983  0.16766714  0.75175260  1
  C  C97  1  0.47763256  0.30911446  0.74986329  1
  C  C98  1  0.85099707  0.53614258  0.74303174  1
  C  C99  1  0.68006073  0.53402996  0.24885195  1
  C  C100  1  0.85526975  0.31679967  0.24913023  1
  C  C101  1  0.46343264  0.14913511  0.24904740  1
  C  C102  1  0.63931304  0.51017450  0.91540947  1
  C  C103  1  0.84592125  0.36672834  0.92328068  1
  C  C104  1  0.50683853  0.15423225  0.92233817  1
  C  C105  1  0.62738121  0.15264205  0.42590844  1
  C  C106  1  0.51678463  0.37538182  0.42000451  1
  C  C107  1  0.84915257  0.47464207  0.42393091  1
  C  C108  1  0.34243768  0.50162725  0.07009605  1
  C  C109  1  0.15333104  0.65596431  0.07479595  1
  C  C110  1  0.49872045  0.83363366  0.06951868  1
  C  C111  1  0.34178301  0.83749457  0.57424210  1
  C  C112  1  0.49133110  0.65127153  0.57576140  1
  C  C113  1  0.13599007  0.48935577  0.58314055  1
  C  C114  1  0.29806761  0.82387913  0.25043514  1
  C  C115  1  0.52072777  0.69944990  0.25228002  1
  C  C116  1  0.18085677  0.47802030  0.25188450  1
  C  C117  1  0.29276689  0.48489462  0.75716865  1
  C  C118  1  0.16742640  0.70578717  0.74961207  1
  C  C119  1  0.51348553  0.81587057  0.75816643  1
