# generated using pymatgen
data_Cu3Ni7C31
_symmetry_space_group_name_H-M   'P 1'
_cell_length_a   18.90383254
_cell_length_b   9.44822060
_cell_length_c   23.10967205
_cell_angle_alpha   89.92362875
_cell_angle_beta   90.22007168
_cell_angle_gamma   120.10217300
_symmetry_Int_Tables_number   1
_chemical_formula_structural   Cu3Ni7C31
_chemical_formula_sum   'Cu18 Ni42 C186'
_cell_volume   3570.86095694
_cell_formula_units_Z   6
loop_
 _symmetry_equiv_pos_site_id
 _symmetry_equiv_pos_as_xyz
  1  'x, y, z'
loop_
 _atom_site_type_symbol
 _atom_site_label
 _atom_site_symmetry_multiplicity
 _atom_site_fract_x
 _atom_site_fract_y
 _atom_site_fract_z
 _atom_site_occupancy
  Ni  Ni0  1  0.80863866  0.00428943  0.24799281  1
  Ni  Ni1  1  0.68751271  0.34255403  0.23899890  1
  Ni  Ni2  1  0.50381863  0.65255570  0.24245856  1
  Ni  Ni3  1  0.30485661  0.61030999  0.74751411  1
  Ni  Ni4  1  0.00703520  0.37526691  0.74106796  1
  Ni  Ni5  1  0.17272454  0.00781839  0.73634502  1
  Ni  Ni6  1  0.15163944  0.31662004  0.57327409  1
  Ni  Ni7  1  0.67763440  0.37024612  0.58703694  1
  Ni  Ni8  1  0.01261978  0.69551627  0.57134973  1
  Ni  Ni9  1  0.51812206  0.66359592  0.59418120  1
  Ni  Ni10  1  0.32313818  0.00064388  0.58702715  1
  Ni  Ni11  1  0.82335445  0.96698180  0.59527289  1
  Ni  Ni12  1  0.17306651  0.98082284  0.07981279  1
  Ni  Ni13  1  0.65881473  0.99795132  0.06512543  1
  Ni  Ni14  1  0.31661942  0.67547180  0.08885564  1
  Ni  Ni15  1  0.82752675  0.65014063  0.07920604  1
  Ni  Ni16  1  0.01882279  0.37278101  0.08811299  1
  Ni  Ni17  1  0.51002746  0.32048788  0.06334449  1
  Ni  Ni18  1  0.49318949  0.66930449  0.91796469  1
  Ni  Ni19  1  0.97834528  0.66233192  0.91052599  1
  Ni  Ni20  1  0.35937275  0.05682357  0.92613608  1
  Ni  Ni21  1  0.84413849  0.04042302  0.90722775  1
  Ni  Ni22  1  0.16731297  0.29541530  0.91294676  1
  Ni  Ni23  1  0.65985619  0.28261050  0.92623777  1
  Ni  Ni24  1  0.48079921  0.29886798  0.42893801  1
  Ni  Ni25  1  0.99418351  0.31843307  0.42555355  1
  Ni  Ni26  1  0.15353080  0.02831751  0.43318389  1
  Ni  Ni27  1  0.67016240  0.04150305  0.42297556  1
  Ni  Ni28  1  0.34068656  0.65039080  0.41785857  1
  Ni  Ni29  1  0.86133124  0.66779266  0.42728353  1
  Ni  Ni30  1  0.00365424  0.97730528  0.50233994  1
  Ni  Ni31  1  0.51680832  0.02997614  0.51096340  1
  Ni  Ni32  1  0.01503814  0.00186329  0.00159225  1
  Ni  Ni33  1  0.50546791  0.02716971  0.99077808  1
  Ni  Ni34  1  0.33747877  0.33117862  0.83088128  1
  Ni  Ni35  1  0.82886509  0.33784338  0.82374092  1
  Ni  Ni36  1  0.30940049  0.31451223  0.33290859  1
  Ni  Ni37  1  0.84226462  0.34483163  0.33395617  1
  Ni  Ni38  1  0.16810995  0.67657179  0.15195878  1
  Ni  Ni39  1  0.66637378  0.65845035  0.16248826  1
  Ni  Ni40  1  0.15698730  0.67366144  0.66795792  1
  Ni  Ni41  1  0.67188531  0.66520678  0.65376811  1
  Cu  Cu42  1  0.00405439  0.00218131  0.35212942  1
  Cu  Cu43  1  0.50485969  0.00264897  0.34448269  1
  Cu  Cu44  1  0.00350197  0.99432972  0.84003823  1
  Cu  Cu45  1  0.50420507  0.00662996  0.85094720  1
  Cu  Cu46  1  0.33544538  0.32715461  0.68133122  1
  Cu  Cu47  1  0.82981077  0.33929118  0.68172631  1
  Cu  Cu48  1  0.32498526  0.32046833  0.18046101  1
  Cu  Cu49  1  0.83681171  0.34382709  0.18060516  1
  Cu  Cu50  1  0.33166503  0.32253387  0.99024790  1
  Cu  Cu51  1  0.82971999  0.33858466  0.98769461  1
  Cu  Cu52  1  0.32757878  0.32071782  0.49046307  1
  Cu  Cu53  1  0.83206556  0.34348081  0.49325922  1
  Cu  Cu54  1  0.16627213  0.66778121  0.01528892  1
  Cu  Cu55  1  0.66296520  0.66119750  0.01366098  1
  Cu  Cu56  1  0.16379576  0.66634383  0.51485691  1
  Cu  Cu57  1  0.66712818  0.66819266  0.51738285  1
  Cu  Cu58  1  0.66508665  0.67200108  0.31419836  1
  Cu  Cu59  1  0.16139390  0.65974458  0.81200881  1
  C  C60  1  0.00175585  0.98362356  0.65551530  1
  C  C61  1  0.50778340  0.01787429  0.65085967  1
  C  C62  1  0.00784503  0.99906547  0.14956392  1
  C  C63  1  0.50223934  0.00751635  0.15027487  1
  C  C64  1  0.16064489  0.65066856  0.31838017  1
  C  C65  1  0.66206978  0.67234562  0.81898292  1
  C  C66  1  0.65192402  0.99779391  0.25237047  1
  C  C67  1  0.15282841  0.30287355  0.75286540  1
  C  C68  1  0.99823162  0.68606469  0.75626327  1
  C  C69  1  0.48468224  0.32604249  0.57847784  1
  C  C70  1  0.17588741  0.01767350  0.58651120  1
  C  C71  1  0.67939279  0.02946395  0.57938645  1
  C  C72  1  0.83827958  0.65271632  0.58029662  1
  C  C73  1  0.98460598  0.64263400  0.07818944  1
  C  C74  1  0.33754077  0.02731268  0.08139689  1
  C  C75  1  0.17981074  0.33148671  0.07955996  1
  C  C76  1  0.67763303  0.33666734  0.08804496  1
  C  C77  1  0.51357185  0.36847522  0.91589620  1
  C  C78  1  0.67003861  0.97347706  0.92013200  1
  C  C79  1  0.16986627  0.36793253  0.42025772  1
  C  C80  1  0.01355894  0.65829248  0.41633865  1
  C  C81  1  0.14820004  0.98599756  0.25197962  1
  C  C82  1  0.34716756  0.69911360  0.25224195  1
  C  C83  1  0.85125286  0.71150066  0.24988289  1
  C  C84  1  0.00437412  0.30101555  0.25147127  1
  C  C85  1  0.50125668  0.30114086  0.24983750  1
  C  C86  1  0.64635566  0.31038863  0.75239510  1
  C  C87  1  0.50467957  0.70803398  0.75201402  1
  C  C88  1  0.35380666  0.99322495  0.75040604  1
  C  C89  1  0.84368002  0.98834466  0.75229559  1
  C  C90  1  0.98674761  0.32340417  0.58670981  1
  C  C91  1  0.34037076  0.65276828  0.58708694  1
  C  C92  1  0.48658065  0.64726980  0.08971682  1
  C  C93  1  0.83942469  0.02689406  0.08872901  1
  C  C94  1  0.31779000  0.66360565  0.91582784  1
  C  C95  1  0.81307138  0.67059183  0.91331431  1
  C  C96  1  0.01199828  0.35537991  0.91786528  1
  C  C97  1  0.16720209  0.97280219  0.91597496  1
  C  C98  1  0.31282329  0.95790523  0.41122997  1
  C  C99  1  0.81692611  0.97399546  0.41383200  1
  C  C100  1  0.66511960  0.36357878  0.41319344  1
  C  C101  1  0.51149623  0.66284198  0.41433813  1
  C  C102  1  0.10789450  -0.00598627  0.30465326  1
  C  C103  1  0.61317079  0.01047925  0.31367549  1
  C  C104  1  0.39171840  0.77963416  0.30650382  1
  C  C105  1  0.89058724  0.79121194  0.30468009  1
  C  C106  1  0.49128602  0.21553013  0.30559335  1
  C  C107  1  0.99729822  0.21052287  0.30475358  1
  C  C108  1  0.11441937  0.21529326  0.81460547  1
  C  C109  1  0.60846127  0.22353118  0.80454253  1
  C  C110  1  0.49705554  0.78180862  0.80504189  1
  C  C111  1  0.99176668  0.75915237  0.81827632  1
  C  C112  1  0.39386068  -0.00210605  0.80506270  1
  C  C113  1  0.88909363  0.00352345  0.80656817  1
  C  C114  1  0.40378787  0.98938648  0.70090235  1
  C  C115  1  0.88949130  0.97587215  0.70103094  1
  C  C116  1  0.08763332  0.18109529  0.70044323  1
  C  C117  1  0.59530991  0.21730784  0.70012932  1
  C  C118  1  -0.00241762  0.81295083  0.70370442  1
  C  C119  1  0.51356100  0.81352254  0.70052782  1
  C  C120  1  0.39285486  0.80203789  0.20122518  1
  C  C121  1  0.90081557  0.81521777  0.20027700  1
  C  C122  1  0.01243675  0.21284906  0.20011971  1
  C  C123  1  0.49869356  0.19265737  0.20135532  1
  C  C124  1  0.09768157  0.97911519  0.19985358  1
  C  C125  1  0.58546821  0.99029311  0.20078172  1
  C  C126  1  0.43905981  0.38056266  0.62516397  1
  C  C127  1  0.94591537  0.34381824  0.63746408  1
  C  C128  1  0.23618118  0.10874489  0.64084353  1
  C  C129  1  0.75080395  0.12455490  0.62722416  1
  C  C130  1  0.32608491  0.54734349  0.63765333  1
  C  C131  1  0.81795911  0.51127299  0.62762679  1
  C  C132  1  0.44899435  0.55277609  0.14255159  1
  C  C133  1  0.93996576  0.50044260  0.12646249  1
  C  C134  1  0.32198466  0.12898230  0.13107973  1
  C  C135  1  0.82523960  0.10044003  0.14060938  1
  C  C136  1  0.24859846  0.37993775  0.12945297  1
  C  C137  1  0.73417731  0.36376548  0.14438199  1
  C  C138  1  0.20388097  0.27249563  0.01971975  1
  C  C139  1  0.71324356  0.29433059  0.02972002  1
  C  C140  1  0.43796366  0.56976784  0.03739685  1
  C  C141  1  0.93024640  0.59406282  0.01800065  1
  C  C142  1  0.36498402  0.13450735  0.02103689  1
  C  C143  1  0.85364389  0.12856466  0.03644799  1
  C  C144  1  0.21083834  0.12491449  0.52631256  1
  C  C145  1  0.70108937  0.13171693  0.51815984  1
  C  C146  1  0.35596849  0.58366439  0.53363247  1
  C  C147  1  0.86267866  0.59747718  0.51905337  1
  C  C148  1  0.43093807  0.26924291  0.51784797  1
  C  C149  1  0.94003046  0.30689608  0.53219371  1
  C  C150  1  0.27792250  0.68083122  0.96803201  1
  C  C151  1  0.77611567  0.67764976  0.96920767  1
  C  C152  1  0.06021207  0.43565283  0.97042912  1
  C  C153  1  0.56094858  0.44635935  0.97663376  1
  C  C154  1  0.16585660  0.88547273  0.96941669  1
  C  C155  1  0.66598634  0.88283809  0.98092245  1
  C  C156  1  0.27786273  0.87252684  0.46582844  1
  C  C157  1  0.77437097  0.87072290  0.46440614  1
  C  C158  1  0.16760138  0.45238944  0.48080048  1
  C  C159  1  0.66289936  0.45408741  0.46441588  1
  C  C160  1  0.06274017  0.67909540  0.47640443  1
  C  C161  1  0.56347652  0.68078699  0.46484806  1
  C  C162  1  0.07593962  0.65663808  0.36175190  1
  C  C163  1  0.55057261  0.65243180  0.36021134  1
  C  C164  1  0.26083049  0.85938900  0.36110137  1
  C  C165  1  0.77176453  0.89389186  0.35947903  1
  C  C166  1  0.17328588  0.49575492  0.36500266  1
  C  C167  1  0.66645385  0.44934268  0.35921315  1
  C  C168  1  0.05488467  0.45077109  0.86548696  1
  C  C169  1  0.57713809  0.49453057  0.86245094  1
  C  C170  1  0.16948208  0.88327525  0.86425259  1
  C  C171  1  0.67241712  0.85018450  0.86598687  1
  C  C172  1  0.27056509  0.65352956  0.86277354  1
  C  C173  1  0.76052628  0.66603324  0.86406659  1
  C  C174  1  0.00240002  0.81888877  0.41143156  1
  C  C175  1  0.49830380  0.80709326  0.41406414  1
  C  C176  1  0.39662619  0.98002786  0.40616456  1
  C  C177  1  0.90112412  0.99719350  0.41247512  1
  C  C178  1  0.08660176  0.19051320  0.41495937  1
  C  C179  1  0.58825419  0.19744068  0.41568499  1
  C  C180  1  -0.00121909  0.18548991  0.91586346  1
  C  C181  1  0.50257537  0.18548291  0.91179454  1
  C  C182  1  0.09185227  0.98841532  0.91704166  1
  C  C183  1  0.58637214  0.98365509  0.91519697  1
  C  C184  1  0.40205578  0.80894116  0.91353860  1
  C  C185  1  0.89510063  0.82051184  0.91009724  1
  C  C186  1  0.48545948  0.15151426  0.59803635  1
  C  C187  1  0.99163750  0.17051625  0.59198099  1
  C  C188  1  0.08369086  0.00273271  0.59445178  1
  C  C189  1  0.58869740  0.01885689  0.59902295  1
  C  C190  1  0.41818630  0.81599139  0.59695298  1
  C  C191  1  0.91785068  0.83795103  0.59484379  1
  C  C192  1  0.49174836  0.81385952  0.09424442  1
  C  C193  1  0.98739640  0.82092026  0.09831317  1
  C  C194  1  0.41618151  0.99697204  0.09748696  1
  C  C195  1  0.91634462  0.01681752  0.09770610  1
  C  C196  1  0.08796312  0.16160635  0.09847054  1
  C  C197  1  0.58338562  0.16634312  0.09553580  1
  C  C198  1  0.34150853  0.13644504  0.74651504  1
  C  C199  1  0.83498864  0.13325511  0.74653150  1
  C  C200  1  0.24474559  0.32389774  0.74794220  1
  C  C201  1  0.72948268  0.32814142  0.74670958  1
  C  C202  1  0.43109830  0.54527217  0.74470184  1
  C  C203  1  0.92597161  0.49531073  0.74990886  1
  C  C204  1  0.34420278  0.53913959  0.24885601  1
  C  C205  1  0.84030166  0.54495721  0.24768069  1
  C  C206  1  0.43705481  0.34515780  0.24361370  1
  C  C207  1  0.93033365  0.31509964  0.24533875  1
  C  C208  1  0.23041235  0.13339225  0.24859448  1
  C  C209  1  0.74378232  0.15860409  0.24708303  1
  C  C210  1  0.32401326  0.51247455  0.91898287  1
  C  C211  1  0.81917074  0.51968631  0.91019272  1
  C  C212  1  0.42698280  0.36815534  0.90995929  1
  C  C213  1  0.93042265  0.34524962  0.92002313  1
  C  C214  1  0.24174622  0.13909914  0.91464487  1
  C  C215  1  0.75359256  0.15187630  0.91258236  1
  C  C216  1  0.31842383  0.12154643  0.40910230  1
  C  C217  1  0.82223114  0.13613977  0.41818909  1
  C  C218  1  0.25395882  0.35866033  0.41311475  1
  C  C219  1  0.73877805  0.34444503  0.41399563  1
  C  C220  1  0.43013130  0.51048863  0.41883457  1
  C  C221  1  0.92702017  0.48515250  0.41132408  1
  C  C222  1  0.15911078  0.47933699  0.07736145  1
  C  C223  1  0.66397146  0.49427083  0.08456029  1
  C  C224  1  0.07953622  0.69027475  0.07559325  1
  C  C225  1  0.57175967  0.67919470  0.08562217  1
  C  C226  1  0.25781410  0.84457031  0.07828394  1
  C  C227  1  0.77038652  0.85791103  0.08203776  1
  C  C228  1  0.16357827  0.83310187  0.58483480  1
  C  C229  1  0.65623705  0.83868307  0.57805880  1
  C  C230  1  0.27262085  0.68508275  0.58023906  1
  C  C231  1  0.75960386  0.68039454  0.57858953  1
  C  C232  1  0.07115085  0.46549903  0.58371091  1
  C  C233  1  0.58036055  0.46599430  0.57599552  1
  C  C234  1  0.15516737  0.83356995  0.25097314  1
  C  C235  1  0.65353935  0.82485259  0.24430916  1
  C  C236  1  0.26356422  0.67946010  0.25324496  1
  C  C237  1  0.76873355  0.69900756  0.24497545  1
  C  C238  1  0.07995191  0.46924770  0.25385717  1
  C  C239  1  0.58339449  0.45324456  0.24656146  1
  C  C240  1  0.15808411  0.48166879  0.74458103  1
  C  C241  1  0.65387353  0.47747238  0.75119456  1
  C  C242  1  0.08872794  0.70285074  0.74591090  1
  C  C243  1  0.58057569  0.69157061  0.75439431  1
  C  C244  1  0.27263043  0.83791306  0.74576612  1
  C  C245  1  0.76135661  0.83433227  0.75426761  1
