# generated using pymatgen
data_Cu3Ni2C33
_symmetry_space_group_name_H-M   'P 1'
_cell_length_a   8.72677816
_cell_length_b   8.68376814
_cell_length_c   22.12786423
_cell_angle_alpha   90.00374817
_cell_angle_beta   88.84967830
_cell_angle_gamma   119.70275813
_symmetry_Int_Tables_number   1
_chemical_formula_structural   Cu3Ni2C33
_chemical_formula_sum   'Cu9 Ni6 C99'
_cell_volume   1456.16187492
_cell_formula_units_Z   3
loop_
 _symmetry_equiv_pos_site_id
 _symmetry_equiv_pos_as_xyz
  1  'x, y, z'
loop_
 _atom_site_type_symbol
 _atom_site_label
 _atom_site_symmetry_multiplicity
 _atom_site_fract_x
 _atom_site_fract_y
 _atom_site_fract_z
 _atom_site_occupancy
  C  C0  1  0.99771002  0.64012720  0.25234217  1
  C  C1  1  0.99685060  0.36094592  0.74521928  1
  C  C2  1  0.66521387  0.97232450  0.58752303  1
  C  C3  1  0.66864837  0.69946582  0.08249581  1
  C  C4  1  0.33402542  0.30229156  0.90939834  1
  C  C5  1  0.32724505  0.02806676  0.41959457  1
  C  C6  1  0.00633555  0.99856507  0.50153235  1
  C  C7  1  0.99367058  0.99092100  0.99722961  1
  C  C8  1  0.65989620  0.32803471  0.82545928  1
  C  C9  1  0.66439656  0.33999622  0.33320767  1
  C  C10  1  0.33347031  0.67100134  0.16808767  1
  C  C11  1  0.33036304  0.66805374  0.66213885  1
  C  C12  1  0.01360942  0.02480374  0.64528194  1
  C  C13  1  0.99893536  0.97862267  0.15075691  1
  C  C14  1  0.68102625  0.35723219  0.97971111  1
  C  C15  1  0.67884311  0.33627125  0.48519829  1
  C  C16  1  0.33165840  0.67251106  0.31212086  1
  C  C17  1  0.35737209  0.66597674  0.80769827  1
  Ni  Ni18  1  0.00007230  0.97685323  0.35054604  1
  Ni  Ni19  1  0.98334258  0.98941684  0.84511543  1
  Ni  Ni20  1  0.65021095  0.30453229  0.68600153  1
  Ni  Ni21  1  0.67087009  0.34085226  0.19010422  1
  Ni  Ni22  1  0.33081046  0.67445476  0.01661822  1
  Ni  Ni23  1  0.30291862  0.66631093  0.52285533  1
  Cu  Cu24  1  0.30189507  0.01459574  0.25192000  1
  Cu  Cu25  1  0.70506233  0.70531791  0.25247236  1
  Cu  Cu26  1  0.29592124  0.27928064  0.75327006  1
  Cu  Cu27  1  0.71717768  0.00643237  0.74931139  1
  Cu  Cu28  1  0.96052161  0.34493586  0.58751506  1
  Cu  Cu29  1  0.37599322  0.04091077  0.58254453  1
  Cu  Cu30  1  0.96858609  0.61897152  0.08566007  1
  Cu  Cu31  1  0.63174160  0.68491381  0.91871318  1
  Cu  Cu32  1  0.03684966  0.66501951  0.41779865  1
  C  C33  1  0.99750874  0.28040857  0.25065994  1
  C  C34  1  0.99902619  0.71301963  0.75097670  1
  C  C35  1  0.66378665  0.61870414  0.58440813  1
  C  C36  1  0.66499354  0.04870474  0.08347653  1
  C  C37  1  0.37500134  0.33296437  0.08351659  1
  C  C38  1  0.04537997  0.37868469  0.91807349  1
  C  C39  1  0.33228622  0.95302279  0.91759848  1
  C  C40  1  0.62853145  0.95285612  0.41636532  1
  C  C41  1  0.32866499  0.38040906  0.41711674  1
  C  C42  1  0.20841604  0.04199698  0.31116932  1
  C  C43  1  0.83954987  0.80300977  0.30614655  1
  C  C44  1  0.97201826  0.17408996  0.30523980  1
  C  C45  1  0.19959964  0.16431421  0.81479008  1
  C  C46  1  0.97343864  0.79529438  0.80662024  1
  C  C47  1  0.83762800  0.03876566  0.80760172  1
  C  C48  1  0.79609381  0.96146852  0.68857720  1
  C  C49  1  0.16148194  0.19840705  0.69554962  1
  C  C50  1  0.03246158  0.82254674  0.69674370  1
  C  C51  1  0.79310422  0.82860929  0.18910364  1
  C  C52  1  0.02656032  0.20210708  0.19483536  1
  C  C53  1  0.16210515  0.96458014  0.19390144  1
  C  C54  1  0.86515378  0.37056178  0.64653446  1
  C  C55  1  0.50388213  0.13075384  0.63865896  1
  C  C56  1  0.63548030  0.50938820  0.63824886  1
  C  C57  1  0.86348641  0.49547059  0.14318776  1
  C  C58  1  0.63760136  0.12965420  0.13780069  1
  C  C59  1  0.49041153  0.36348662  0.13521585  1
  C  C60  1  0.45429543  0.30264687  0.02681956  1
  C  C61  1  0.83118535  0.52847181  0.02702892  1
  C  C62  1  0.68650006  0.15467067  0.02802096  1
  C  C63  1  0.46266010  0.16348132  0.51999675  1
  C  C64  1  0.69471519  0.53744525  0.52844479  1
  C  C65  1  0.82938552  0.30115197  0.52820197  1
  C  C66  1  0.52832015  0.69550496  0.97943154  1
  C  C67  1  0.15810260  0.46681753  0.97081720  1
  C  C68  1  0.30516351  0.84300195  0.97266049  1
  C  C69  1  0.55022414  0.84577309  0.47166475  1
  C  C70  1  0.31048252  0.46830477  0.47143496  1
  C  C71  1  0.17490346  0.70721171  0.47133101  1
  C  C72  1  0.13386224  0.63739094  0.35615672  1
  C  C73  1  0.51153626  0.86885230  0.36315197  1
  C  C74  1  0.35823690  0.49008042  0.36136476  1
  C  C75  1  0.11678702  0.48486805  0.86238383  1
  C  C76  1  0.35878174  0.87155413  0.86333957  1
  C  C77  1  0.49428643  0.62976356  0.86190193  1
  C  C78  1  0.02628418  0.84781476  0.41049583  1
  C  C79  1  0.80730855  0.97913959  0.40654317  1
  C  C80  1  0.16716705  0.20290054  0.41166351  1
  C  C81  1  0.03105687  0.20204388  0.91472449  1
  C  C82  1  0.17655651  0.97776703  0.91449019  1
  C  C83  1  0.82903921  0.84776617  0.90815534  1
  C  C84  1  0.96627478  0.15629694  0.58869450  1
  C  C85  1  0.17716614  0.01309626  0.59061543  1
  C  C86  1  0.82321070  0.79712255  0.58712094  1
  C  C87  1  0.97400599  0.81403998  0.08815024  1
  C  C88  1  0.82545383  0.02877209  0.08654970  1
  C  C89  1  0.19719054  0.17764946  0.08963878  1
  C  C90  1  0.69924312  0.18265051  0.74430952  1
  C  C91  1  0.49335815  0.31863324  0.74146197  1
  C  C92  1  0.84177732  0.53613514  0.74706386  1
  C  C93  1  0.69854646  0.51725973  0.24155804  1
  C  C94  1  0.84082625  0.30500856  0.24467142  1
  C  C95  1  0.49433279  0.17705233  0.23714959  1
  C  C96  1  0.63842266  0.49290299  0.92591627  1
  C  C97  1  0.86307285  0.35350503  0.92611661  1
  C  C98  1  0.49222647  0.13360902  0.92418732  1
  C  C99  1  0.63647643  0.12938754  0.41998181  1
  C  C100  1  0.48481228  0.35335665  0.41956867  1
  C  C101  1  0.84061390  0.48834209  0.42289648  1
  C  C102  1  0.36281532  0.49776775  0.07665863  1
  C  C103  1  0.16118369  0.64265239  0.07212621  1
  C  C104  1  0.50819571  0.86532209  0.07831720  1
  C  C105  1  0.37236994  0.85197095  0.57339805  1
  C  C106  1  0.50846371  0.64179883  0.57528661  1
  C  C107  1  0.15702201  0.50552656  0.57648423  1
  C  C108  1  0.30511067  0.82502140  0.25653828  1
  C  C109  1  0.50927897  0.68318272  0.25809582  1
  C  C110  1  0.15605171  0.46286398  0.25404942  1
  C  C111  1  0.29807993  0.47433102  0.75916889  1
  C  C112  1  0.15649802  0.68792800  0.75868959  1
  C  C113  1  0.51618290  0.83110192  0.75775252  1
