# generated using pymatgen
data_CuNiC9
_symmetry_space_group_name_H-M   'P 1'
_cell_length_a   6.29244729
_cell_length_b   6.34952443
_cell_length_c   6.34952391
_cell_angle_alpha   56.29552364
_cell_angle_beta   60.29691616
_cell_angle_gamma   60.29692203
_symmetry_Int_Tables_number   1
_chemical_formula_structural   CuNiC9
_chemical_formula_sum   'Cu1 Ni1 C9'
_cell_volume   174.56936577
_cell_formula_units_Z   1
loop_
 _symmetry_equiv_pos_site_id
 _symmetry_equiv_pos_as_xyz
  1  'x, y, z'
loop_
 _atom_site_type_symbol
 _atom_site_label
 _atom_site_symmetry_multiplicity
 _atom_site_fract_x
 _atom_site_fract_y
 _atom_site_fract_z
 _atom_site_occupancy
  C  C0  1  0.68812400  0.81187600  0.81187600  1
  C  C1  1  0.31187600  0.18812400  0.18812400  1
  C  C2  1  0.00000000  0.00000000  0.00000000  1
  Ni  Ni3  1  0.00000000  0.50000000  0.50000000  1
  Cu  Cu4  1  0.50000000  0.50000000  0.50000000  1
  C  C5  1  0.26890100  0.73109900  0.73109900  1
  C  C6  1  0.23905400  0.72932500  0.27067500  1
  C  C7  1  0.76094600  0.27067500  0.72932500  1
  C  C8  1  0.23905400  0.27067500  0.72932500  1
  C  C9  1  0.73109900  0.26890100  0.26890100  1
  C  C10  1  0.76094600  0.72932500  0.27067500  1
