# generated using pymatgen
data_Cu7Ni10C61
_symmetry_space_group_name_H-M   'P 1'
_cell_length_a   18.53994667
_cell_length_b   9.28189283
_cell_length_c   23.63669455
_cell_angle_alpha   89.96662375
_cell_angle_beta   90.06761643
_cell_angle_gamma   120.14945702
_symmetry_Int_Tables_number   1
_chemical_formula_structural   Cu7Ni10C61
_chemical_formula_sum   'Cu21 Ni30 C183'
_cell_volume   3517.27294073
_cell_formula_units_Z   3
loop_
 _symmetry_equiv_pos_site_id
 _symmetry_equiv_pos_as_xyz
  1  'x, y, z'
loop_
 _atom_site_type_symbol
 _atom_site_label
 _atom_site_symmetry_multiplicity
 _atom_site_fract_x
 _atom_site_fract_y
 _atom_site_fract_z
 _atom_site_occupancy
  Ni  Ni0  1  0.31732726  0.99930594  0.25234868  1
  Ni  Ni1  1  0.68343992  0.36485062  0.25223766  1
  Ni  Ni2  1  0.31443905  0.63140093  0.75403787  1
  Ni  Ni3  1  0.81444818  0.63120824  0.75364009  1
  Ni  Ni4  1  0.15248833  0.33415477  0.58218816  1
  Ni  Ni5  1  0.65239369  0.33454395  0.58235964  1
  Ni  Ni6  1  0.01387102  0.69640912  0.58297860  1
  Ni  Ni7  1  0.51477332  0.69556190  0.58258376  1
  Ni  Ni8  1  0.33250406  0.96915854  0.58224216  1
  Ni  Ni9  1  0.83369431  0.97124518  0.58208963  1
  Ni  Ni10  1  0.15234241  0.97086189  0.08206396  1
  Ni  Ni11  1  0.65287578  0.97207421  0.08304391  1
  Ni  Ni12  1  0.33290340  0.69482310  0.08286025  1
  Ni  Ni13  1  0.83303692  0.69507751  0.08255830  1
  Ni  Ni14  1  0.01420795  0.33325849  0.08201717  1
  Ni  Ni15  1  0.51439280  0.33308454  0.08312303  1
  Ni  Ni16  1  0.66759885  0.03277750  0.41440373  1
  Ni  Ni17  1  0.34736596  0.66536703  0.41360186  1
  Ni  Ni18  1  0.00012658  0.99930711  0.49477949  1
  Ni  Ni19  1  0.49970752  0.01181299  0.49443275  1
  Ni  Ni20  1  0.99995155  0.00007003  0.99701689  1
  Ni  Ni21  1  0.50003766  0.99968759  0.99716902  1
  Ni  Ni22  1  0.33340451  0.32262807  0.83671790  1
  Ni  Ni23  1  0.83345775  0.32277694  0.83675074  1
  Ni  Ni24  1  0.33375551  0.33417401  0.33263098  1
  Ni  Ni25  1  0.84372024  0.34355371  0.33322468  1
  Ni  Ni26  1  0.16277216  0.65448732  0.17110974  1
  Ni  Ni27  1  0.66555466  0.67885207  0.17128332  1
  Ni  Ni28  1  0.16084599  0.66668887  0.67123531  1
  Ni  Ni29  1  0.66086800  0.66609700  0.67130393  1
  Cu  Cu30  1  0.49972200  0.00499192  0.34925205  1
  Cu  Cu31  1  0.00187738  0.00373553  0.65327742  1
  Cu  Cu32  1  0.50179476  0.00303926  0.65261068  1
  Cu  Cu33  1  0.99981972  0.99905072  0.15310185  1
  Cu  Cu34  1  0.50024090  0.99698734  0.15280438  1
  Cu  Cu35  1  0.33371459  0.32533025  0.68960462  1
  Cu  Cu36  1  0.83365609  0.32540200  0.68992670  1
  Cu  Cu37  1  0.33167609  0.34082638  0.18611936  1
  Cu  Cu38  1  0.83931950  0.33307617  0.18797136  1
  Cu  Cu39  1  0.33327469  0.33405819  0.97840014  1
  Cu  Cu40  1  0.83325964  0.33414101  0.97851544  1
  Cu  Cu41  1  0.33230739  0.32362190  0.48027671  1
  Cu  Cu42  1  0.83804182  0.34301887  0.47971557  1
  Cu  Cu43  1  0.16653635  0.66720942  0.00821006  1
  Cu  Cu44  1  0.66651227  0.66649347  0.00862324  1
  Cu  Cu45  1  0.16127920  0.66179675  0.51019621  1
  Cu  Cu46  1  0.66973754  0.66703084  0.51119402  1
  Cu  Cu47  1  0.16265999  0.65976547  0.31634654  1
  Cu  Cu48  1  0.66460534  0.66916561  0.31668942  1
  Cu  Cu49  1  0.16292483  0.66729395  0.81774390  1
  Cu  Cu50  1  0.66295730  0.66734461  0.81778148  1
  C  C51  1  0.00025294  0.99941452  0.34956396  1
  C  C52  1  0.00128438  0.00272940  0.85191942  1
  C  C53  1  0.50130163  0.00268932  0.85188803  1
  C  C54  1  0.14663817  -0.00008217  0.25163571  1
  C  C55  1  0.65115644  0.00209564  0.24998194  1
  C  C56  1  0.34840740  0.70120006  0.25085543  1
  C  C57  1  0.85353091  0.70582446  0.25187284  1
  C  C58  1  0.99976613  0.28891734  0.25140231  1
  C  C59  1  0.49993613  0.29981233  0.24757170  1
  C  C60  1  0.14679724  0.29392476  0.75214688  1
  C  C61  1  0.64661192  0.29353162  0.75208104  1
  C  C62  1  -0.00044743  0.71086485  0.75141421  1
  C  C63  1  0.49955209  0.71099326  0.75133096  1
  C  C64  1  0.35531461  0.99809333  0.75224007  1
  C  C65  1  0.85516785  0.99794641  0.75232368  1
  C  C66  1  0.48234610  0.33529636  0.58390059  1
  C  C67  1  0.98149534  0.33416303  0.58397857  1
  C  C68  1  0.18501548  0.03467174  0.58378797  1
  C  C69  1  0.68610222  0.03704920  0.58164390  1
  C  C70  1  0.33205993  0.62806024  0.58358326  1
  C  C71  1  0.83303082  0.62927985  0.58632457  1
  C  C72  1  0.48212803  0.62900401  0.08226432  1
  C  C73  1  0.98270046  0.62974323  0.08245430  1
  C  C74  1  0.33199522  0.03523838  0.08440933  1
  C  C75  1  0.83266558  0.03601985  0.08240144  1
  C  C76  1  0.18448311  0.33491011  0.08175282  1
  C  C77  1  0.68634314  0.33610197  0.08478020  1
  C  C78  1  0.32069328  0.67426318  0.91305339  1
  C  C79  1  0.82062691  0.67422923  0.91306077  1
  C  C80  1  0.01598623  0.35808948  0.91540556  1
  C  C81  1  0.51605196  0.35795131  0.91543066  1
  C  C82  1  0.16315728  0.96797830  0.91521560  1
  C  C83  1  0.66311585  0.96770171  0.91524301  1
  C  C84  1  0.31647337  0.96266552  0.41593453  1
  C  C85  1  0.82098120  0.96763298  0.41551789  1
  C  C86  1  0.16268511  0.35909792  0.41572531  1
  C  C87  1  0.66669104  0.36302540  0.41608763  1
  C  C88  1  0.01665269  0.67733804  0.41483637  1
  C  C89  1  0.51625734  0.66930701  0.41827551  1
  C  C90  1  0.09197756  0.00953971  0.30200741  1
  C  C91  1  0.60761042  0.02292577  0.30289924  1
  C  C92  1  0.40028277  0.78666171  0.30446732  1
  C  C93  1  0.91329778  0.81553777  0.30231068  1
  C  C94  1  0.48769980  0.18588525  0.29850290  1
  C  C95  1  0.99554689  0.16882166  0.30192142  1
  C  C96  1  0.09335704  0.17577589  0.80217499  1
  C  C97  1  0.59324430  0.17567683  0.80219797  1
  C  C98  1  0.49354505  0.81844982  0.80138225  1
  C  C99  1  0.99356397  0.81850603  0.80143298  1
  C  C100  1  0.41494214  0.01132823  0.80242164  1
  C  C101  1  0.91490527  0.01138476  0.80242848  1
  C  C102  1  0.39213025  0.97658356  0.69633894  1
  C  C103  1  0.89183564  0.97655085  0.69637073  1
  C  C104  1  0.10096797  0.22108604  0.69587671  1
  C  C105  1  0.60071622  0.22027421  0.69584321  1
  C  C106  1  0.00846902  0.80191806  0.69507547  1
  C  C107  1  0.50858001  0.80216513  0.69497564  1
  C  C108  1  0.39101797  0.80602304  0.19686802  1
  C  C109  1  0.89068849  0.79928087  0.19611640  1
  C  C110  1  0.00772139  0.21427666  0.19526250  1
  C  C111  1  0.51181934  0.22124958  0.19289124  1
  C  C112  1  0.10025335  0.98271043  0.19581750  1
  C  C113  1  0.60041975  0.98332607  0.19547722  1
  C  C114  1  0.44107911  0.36203458  0.63653493  1
  C  C115  1  0.94030810  0.36093077  0.63652249  1
  C  C116  1  0.24030795  0.11718595  0.63628673  1
  C  C117  1  0.74221888  0.12393732  0.63346078  1
  C  C118  1  0.31984255  0.52093776  0.63718737  1
  C  C119  1  0.82019394  0.52468551  0.64050586  1
  C  C120  1  0.44163854  0.52076161  0.13526313  1
  C  C121  1  0.94311701  0.52141083  0.13567707  1
  C  C122  1  0.31791408  0.10978863  0.13943267  1
  C  C123  1  0.81898901  0.11686793  0.13541568  1
  C  C124  1  0.23852777  0.36358085  0.13487892  1
  C  C125  1  0.73827261  0.36340666  0.13961851  1
  C  C126  1  0.22590165  0.30598848  0.03031047  1
  C  C127  1  0.72940609  0.30810934  0.03387933  1
  C  C128  1  0.42645718  0.54716400  0.03045028  1
  C  C129  1  0.92659866  0.54760325  0.03087190  1
  C  C130  1  0.34610235  0.15067971  0.03388663  1
  C  C131  1  0.84748201  0.14753568  0.03067678  1
  C  C132  1  0.22535356  0.14483330  0.53166784  1
  C  C133  1  0.72480660  0.14036185  0.52740378  1
  C  C134  1  0.34522412  0.54666030  0.53051451  1
  C  C135  1  0.84651512  0.54385195  0.53495926  1
  C  C136  1  0.42697546  0.30537201  0.53176692  1
  C  C137  1  0.92718439  0.30566410  0.53142472  1
  C  C138  1  0.28496851  0.70708006  0.96787013  1
  C  C139  1  0.78488799  0.70688596  0.96790376  1
  C  C140  1  0.06626722  0.42446827  0.97118557  1
  C  C141  1  0.56637909  0.42430949  0.97122355  1
  C  C142  1  0.14567234  0.86737353  0.97097283  1
  C  C143  1  0.64570975  0.86675463  0.97091618  1
  C  C144  1  0.27349029  0.85672137  0.47018201  1
  C  C145  1  0.78860219  0.86986923  0.47197190  1
  C  C146  1  0.14537035  0.42419086  0.47180162  1
  C  C147  1  0.65884218  0.44635446  0.47109490  1
  C  C148  1  0.06457894  0.70897998  0.47172053  1
  C  C149  1  0.56779269  0.69192845  0.47326429  1
  C  C150  1  0.06295418  0.65375522  0.36614082  1
  C  C151  1  0.56145819  0.64950044  0.36732454  1
  C  C152  1  0.26496997  0.87612475  0.36271270  1
  C  C153  1  0.75966146  0.87521496  0.36748304  1
  C  C154  1  0.17822720  0.48042081  0.36739806  1
  C  C155  1  0.67445249  0.46664460  0.36314719  1
  C  C156  1  0.06240598  0.47258038  0.86572709  1
  C  C157  1  0.56228004  0.47264050  0.86574289  1
  C  C158  1  0.17432235  0.87577043  0.86554362  1
  C  C159  1  0.67447937  0.87617369  0.86548589  1
  C  C160  1  0.26628274  0.65252978  0.86112698  1
  C  C161  1  0.76626499  0.65249397  0.86116080  1
  C  C162  1  0.00819429  0.83810187  0.40318395  1
  C  C163  1  0.51087612  0.83125733  0.41383818  1
  C  C164  1  0.40173323  0.96788708  0.41425796  1
  C  C165  1  0.90937318  0.98731202  0.40307317  1
  C  C166  1  0.08437495  0.18188380  0.40330854  1
  C  C167  1  0.58898171  0.18472462  0.41440830  1
  C  C168  1  0.00880132  0.18090735  0.90342667  1
  C  C169  1  0.50887363  0.18087497  0.90344263  1
  C  C170  1  0.08204348  0.98314107  0.90303559  1
  C  C171  1  0.58198929  0.98297273  0.90302790  1
  C  C172  1  0.41024038  0.83736572  0.90302458  1
  C  C173  1  0.91023251  0.83729834  0.90300064  1
  C  C174  1  0.49232672  0.17805341  0.58874424  1
  C  C175  1  0.99210237  0.17793724  0.58881957  1
  C  C176  1  0.09647090  0.01516830  0.58882521  1
  C  C177  1  0.59762774  0.01774812  0.58774028  1
  C  C178  1  0.41085115  0.80635353  0.58838585  1
  C  C179  1  0.91161606  0.80768910  0.58934038  1
  C  C180  1  0.49244044  0.80674981  0.08771503  1
  C  C181  1  0.99284705  0.80714989  0.08821543  1
  C  C182  1  0.41067212  0.01438726  0.08828311  1
  C  C183  1  0.91101531  0.01442164  0.08812870  1
  C  C184  1  0.09558955  0.17734926  0.08767347  1
  C  C185  1  0.59701602  0.17836561  0.08846493  1
  C  C186  1  0.34861312  0.15600053  0.75200615  1
  C  C187  1  0.84838965  0.15572987  0.75205873  1
  C  C188  1  0.23390043  0.30943281  0.75189543  1
  C  C189  1  0.73364193  0.30863287  0.75193819  1
  C  C190  1  0.41529411  0.54422330  0.75138445  1
  C  C191  1  0.91543912  0.54396270  0.75158202  1
  C  C192  1  0.33833871  0.52674768  0.24730800  1
  C  C193  1  0.84692045  0.53308248  0.25249325  1
  C  C194  1  0.41884118  0.30851209  0.24458750  1
  C  C195  1  0.91892807  0.29620244  0.25361605  1
  C  C196  1  0.23394625  0.15783301  0.25270829  1
  C  C197  1  0.73549155  0.16936979  0.24647643  1
  C  C198  1  0.33355019  0.52467255  0.91898403  1
  C  C199  1  0.83347848  0.52459187  0.91900775  1
  C  C200  1  0.42784517  0.33043119  0.91981022  1
  C  C201  1  0.92789717  0.33111226  0.91970507  1
  C  C202  1  0.23805878  0.14372718  0.91965887  1
  C  C203  1  0.73774319  0.14399680  0.91984806  1
  C  C204  1  0.32733420  0.13761990  0.41983939  1
  C  C205  1  0.82753288  0.13950774  0.42058391  1
  C  C206  1  0.24265571  0.34805725  0.42108702  1
  C  C207  1  0.74358495  0.33825043  0.41925507  1
  C  C208  1  0.42607660  0.51963474  0.42120954  1
  C  C209  1  0.92871927  0.52579002  0.41901449  1
  C  C210  1  0.17529177  0.49320757  0.07572977  1
  C  C211  1  0.67710741  0.49421259  0.07708724  1
  C  C212  1  0.07123535  0.64895279  0.07614168  1
  C  C213  1  0.57087308  0.64862207  0.07625883  1
  C  C214  1  0.25304771  0.85806811  0.07662863  1
  C  C215  1  0.75331852  0.85870136  0.07621740  1
  C  C216  1  0.17492819  0.85729440  0.57812898  1
  C  C217  1  0.67629052  0.85953243  0.57789316  1
  C  C218  1  0.25275707  0.64641281  0.57768052  1
  C  C219  1  0.75394186  0.64758093  0.57983429  1
  C  C220  1  0.06990364  0.49295972  0.57863508  1
  C  C221  1  0.57111204  0.49301785  0.57820159  1
  C  C222  1  0.15795677  0.84727182  0.25749873  1
  C  C223  1  0.66206735  0.84860730  0.25367080  1
  C  C224  1  0.26353002  0.69740910  0.25322400  1
  C  C225  1  0.76518519  0.68002902  0.25854923  1
  C  C226  1  0.07742542  0.46050580  0.25773948  1
  C  C227  1  0.58128930  0.47035436  0.25329662  1
  C  C228  1  0.15971376  0.47114625  0.75747099  1
  C  C229  1  0.65966069  0.47086671  0.75743938  1
  C  C230  1  0.07527148  0.68734504  0.75696573  1
  C  C231  1  0.57521653  0.68729740  0.75694859  1
  C  C232  1  0.27030025  0.83612549  0.75807283  1
  C  C233  1  0.77018494  0.83607932  0.75814584  1
