# generated using pymatgen
data_Cu5(Ni2C15)2
_symmetry_space_group_name_H-M   'P 1'
_cell_length_a   9.09164046
_cell_length_b   9.07932379
_cell_length_c   22.75269433
_cell_angle_alpha   90.22979319
_cell_angle_beta   89.98126891
_cell_angle_gamma   120.06416283
_symmetry_Int_Tables_number   1
_chemical_formula_structural   Cu5(Ni2C15)2
_chemical_formula_sum   'Cu15 Ni12 C90'
_cell_volume   1625.45051440
_cell_formula_units_Z   3
loop_
 _symmetry_equiv_pos_site_id
 _symmetry_equiv_pos_as_xyz
  1  'x, y, z'
loop_
 _atom_site_type_symbol
 _atom_site_label
 _atom_site_symmetry_multiplicity
 _atom_site_fract_x
 _atom_site_fract_y
 _atom_site_fract_z
 _atom_site_occupancy
  C  C0  1  0.64396773  0.99894836  0.25038578  1
  C  C1  1  0.99707973  0.36141915  0.74914406  1
  C  C2  1  0.36332298  0.99990933  0.75045753  1
  C  C3  1  0.02963471  0.69787605  0.58212085  1
  C  C4  1  0.66826011  0.97156849  0.58423316  1
  C  C5  1  0.30435403  0.97279933  0.08003715  1
  C  C6  1  0.02801622  0.33405321  0.08409119  1
  C  C7  1  0.97802369  0.66662246  0.91693772  1
  C  C8  1  0.70199671  0.67318236  0.41858518  1
  C  C9  1  0.02353541  0.02198681  0.50036305  1
  C  C10  1  0.99666692  0.01184958  0.99850268  1
  C  C11  1  0.65137257  0.32234400  0.83410457  1
  C  C12  1  0.69248963  0.34448086  0.33320785  1
  C  C13  1  0.33845486  0.64021340  0.16786627  1
  C  C14  1  0.34996381  0.64814209  0.66643252  1
  Ni  Ni15  1  0.99461642  0.99710625  0.34948365  1
  Ni  Ni16  1  0.00488404  0.00970833  0.84951620  1
  Ni  Ni17  1  0.00167172  0.00200907  0.65142740  1
  Ni  Ni18  1  0.99077704  0.99289780  0.15093339  1
  Ni  Ni19  1  0.66620851  0.34167954  0.68191881  1
  Ni  Ni20  1  0.67297769  0.34746718  0.18269080  1
  Ni  Ni21  1  0.66260846  0.32764959  0.98373818  1
  Ni  Ni22  1  0.66916347  0.32631054  0.48331584  1
  Ni  Ni23  1  0.33905436  0.66583889  0.01590665  1
  Ni  Ni24  1  0.32746914  0.66629920  0.51529222  1
  Ni  Ni25  1  0.32151668  0.66050721  0.31698329  1
  Ni  Ni26  1  0.33732628  0.66854842  0.81764507  1
  Cu  Cu27  1  0.69472472  0.69648934  0.25347785  1
  Cu  Cu28  1  0.99956591  0.29883571  0.24769637  1
  Cu  Cu29  1  0.30026647  0.29998994  0.75059709  1
  Cu  Cu30  1  0.99861236  0.70065817  0.75161132  1
  Cu  Cu31  1  0.70005271  0.00000311  0.74774955  1
  Cu  Cu32  1  0.96796921  0.33342230  0.58555448  1
  Cu  Cu33  1  0.36849928  0.03651781  0.58438722  1
  Cu  Cu34  1  0.66559468  0.63286053  0.58005248  1
  Cu  Cu35  1  0.96718394  0.63410854  0.07989283  1
  Cu  Cu36  1  0.66549650  0.03578330  0.08584585  1
  Cu  Cu37  1  0.36766375  0.33143917  0.08417666  1
  Cu  Cu38  1  0.03123205  0.36572499  0.91717649  1
  Cu  Cu39  1  0.33273007  0.96818690  0.91647195  1
  Cu  Cu40  1  0.63019133  0.96512800  0.41509654  1
  Cu  Cu41  1  0.03042468  0.66788783  0.41832285  1
  C  C42  1  0.30065978  0.00167098  0.24887963  1
  C  C43  1  0.63641725  0.66717373  0.91653278  1
  C  C44  1  0.33365832  0.36579345  0.41660597  1
  C  C45  1  0.21329931  0.01751853  0.30111266  1
  C  C46  1  0.79379713  0.77196910  0.31164518  1
  C  C47  1  0.97443647  0.18086346  0.30022560  1
  C  C48  1  0.22377613  0.18582086  0.80505732  1
  C  C49  1  0.97933086  0.78390916  0.80818136  1
  C  C50  1  0.81966811  0.02995938  0.79992893  1
  C  C51  1  0.77239926  0.97649122  0.68898532  1
  C  C52  1  0.18377862  0.22159695  0.69636114  1
  C  C53  1  0.02452449  0.80855421  0.69583110  1
  C  C54  1  0.78589643  0.81545484  0.20117707  1
  C  C55  1  0.02279545  0.22347762  0.18946612  1
  C  C56  1  0.20715313  0.98478033  0.19354722  1
  C  C57  1  0.89268275  0.36427307  0.64256236  1
  C  C58  1  0.47152634  0.11249953  0.64171098  1
  C  C59  1  0.64229940  0.52618391  0.63476896  1
  C  C60  1  0.88340960  0.51520703  0.13261691  1
  C  C61  1  0.63428680  0.11168237  0.14284850  1
  C  C62  1  0.47172199  0.35575488  0.14015045  1
  C  C63  1  0.44845010  0.30068012  0.02934094  1
  C  C64  1  0.86688350  0.56081901  0.02203321  1
  C  C65  1  0.70039792  0.15537946  0.03319183  1
  C  C66  1  0.45459196  0.14629813  0.53026219  1
  C  C67  1  0.69049509  0.55307203  0.52314847  1
  C  C68  1  0.84864427  0.30001835  0.53275262  1
  C  C69  1  0.55783284  0.68685700  0.97053154  1
  C  C70  1  0.13581695  0.44927929  0.97367108  1
  C  C71  1  0.31315885  0.85949540  0.97170084  1
  C  C72  1  0.54539487  0.85240126  0.46991082  1
  C  C73  1  0.30737171  0.44208415  0.47038274  1
  C  C74  1  0.12251320  0.68317498  0.47725702  1
  C  C75  1  0.11852348  0.64285976  0.36482856  1
  C  C76  1  0.52920905  0.87744165  0.35832580  1
  C  C77  1  0.35915963  0.47248069  0.36415704  1
  C  C78  1  0.11911857  0.47428945  0.86184015  1
  C  C79  1  0.35301681  0.88457344  0.85979676  1
  C  C80  1  0.53663673  0.64776873  0.86314929  1
  C  C81  1  0.01541053  0.83176230  0.41350468  1
  C  C82  1  0.81002225  0.98133650  0.41338757  1
  C  C83  1  0.18358397  0.19180534  0.41106864  1
  C  C84  1  0.00257420  0.18299390  0.91350045  1
  C  C85  1  0.16195734  0.97094665  0.91414862  1
  C  C86  1  0.81058535  0.81970432  0.91356263  1
  C  C87  1  0.98389782  0.17170551  0.58912007  1
  C  C88  1  0.18373901  0.00385505  0.58784599  1
  C  C89  1  0.83128457  0.81191246  0.58508418  1
  C  C90  1  0.99609032  0.81679580  0.08792129  1
  C  C91  1  0.82627007  0.01819027  0.08932885  1
  C  C92  1  0.18691701  0.16767494  0.08815509  1
  C  C93  1  0.68209453  0.16303122  0.74588583  1
  C  C94  1  0.47659595  0.31537793  0.74396314  1
  C  C95  1  0.84415004  0.51769385  0.74739488  1
  C  C96  1  0.67094628  0.51650190  0.24726259  1
  C  C97  1  0.83083262  0.30599440  0.24584542  1
  C  C98  1  0.47512855  0.15344728  0.24795833  1
  C  C99  1  0.65736289  0.51418702  0.91920502  1
  C  C100  1  0.85706845  0.36165268  0.91977770  1
  C  C101  1  0.48769727  0.15020066  0.91994521  1
  C  C102  1  0.64738931  0.14311699  0.41883043  1
  C  C103  1  0.49160079  0.35555726  0.42074100  1
  C  C104  1  0.84475638  0.51261063  0.41951035  1
  C  C105  1  0.33829145  0.48587717  0.07888543  1
  C  C106  1  0.14800450  0.65290280  0.07690993  1
  C  C107  1  0.50223420  0.85971635  0.07834738  1
  C  C108  1  0.35496995  0.85759106  0.57932626  1
  C  C109  1  0.51259605  0.66436694  0.57625947  1
  C  C110  1  0.14389537  0.49702608  0.57873921  1
  C  C111  1  0.32080756  0.84770982  0.25199848  1
  C  C112  1  0.51852697  0.68861316  0.25552231  1
  C  C113  1  0.15489717  0.48014284  0.25394691  1
  C  C114  1  0.31534882  0.47740687  0.75714263  1
  C  C115  1  0.16270398  0.68457681  0.75422862  1
  C  C116  1  0.51804874  0.84462061  0.75450437  1
