# generated using pymatgen
data_Cu(NiC18)2
_symmetry_space_group_name_H-M   'P 1'
_cell_length_a   8.93349294
_cell_length_b   9.00396811
_cell_length_c   22.35143884
_cell_angle_alpha   89.87347425
_cell_angle_beta   89.81631807
_cell_angle_gamma   119.89041186
_symmetry_Int_Tables_number   1
_chemical_formula_structural   Cu(NiC18)2
_chemical_formula_sum   'Cu3 Ni6 C108'
_cell_volume   1558.70336385
_cell_formula_units_Z   3
loop_
 _symmetry_equiv_pos_site_id
 _symmetry_equiv_pos_as_xyz
  1  'x, y, z'
loop_
 _atom_site_type_symbol
 _atom_site_label
 _atom_site_symmetry_multiplicity
 _atom_site_fract_x
 _atom_site_fract_y
 _atom_site_fract_z
 _atom_site_occupancy
  C  C0  1  0.62120929  0.00304583  0.25080154  1
  C  C1  1  0.99838787  0.61519138  0.24907344  1
  C  C2  1  0.34743167  0.99933002  0.75185171  1
  C  C3  1  0.29537533  0.31184677  0.58591845  1
  C  C4  1  0.02252404  0.70927230  0.58814116  1
  C  C5  1  0.68395823  0.97684443  0.59027008  1
  C  C6  1  0.64971981  0.68845810  0.07764791  1
  C  C7  1  0.04212212  0.35161229  0.07926735  1
  C  C8  1  0.98015570  0.68224068  0.91143983  1
  C  C9  1  0.00573152  0.00069639  0.50615492  1
  C  C10  1  0.01142067  0.01292808  0.98685272  1
  C  C11  1  0.66971134  0.32956001  0.83276719  1
  C  C12  1  0.65514591  0.33535030  0.33974526  1
  C  C13  1  0.32768165  0.66593485  0.16422436  1
  C  C14  1  0.33662452  0.65714513  0.66995867  1
  C  C15  1  0.00371112  0.00306457  0.35798802  1
  C  C16  1  0.00368709  0.99740288  0.14455661  1
  C  C17  1  0.66786466  0.32835410  0.68590736  1
  C  C18  1  0.66401169  0.33147104  0.98049480  1
  C  C19  1  0.33461829  0.67044491  0.51515759  1
  C  C20  1  0.34033581  0.66766791  0.81554168  1
  Ni  Ni21  1  0.99740429  0.01273079  0.84742792  1
  Ni  Ni22  1  0.99718947  0.99806658  0.65660513  1
  Ni  Ni23  1  0.66511013  0.33509341  0.18378238  1
  Ni  Ni24  1  0.65974917  0.32978528  0.48040385  1
  Ni  Ni25  1  0.32783568  0.67412947  0.01601763  1
  Ni  Ni26  1  0.33412289  0.65928657  0.31651973  1
  Cu  Cu27  1  0.71274199  0.99981538  0.74898028  1
  Cu  Cu28  1  0.36845114  0.03970707  0.58070940  1
  Cu  Cu29  1  0.96375461  0.62420662  0.08685096  1
  C  C30  1  0.29354915  0.00396561  0.25106961  1
  C  C31  1  0.70948692  0.71130171  0.25154378  1
  C  C32  1  0.00326834  0.29035476  0.25016877  1
  C  C33  1  0.29474410  0.29603016  0.74909154  1
  C  C34  1  0.99786562  0.70096625  0.75209598  1
  C  C35  1  0.95917418  0.33509836  0.57936522  1
  C  C36  1  0.66606967  0.62203358  0.57980101  1
  C  C37  1  0.66344242  0.04026590  0.08741396  1
  C  C38  1  0.37702742  0.33281060  0.08562547  1
  C  C39  1  0.62728425  0.66666250  0.92172172  1
  C  C40  1  0.04261139  0.37024069  0.92055235  1
  C  C41  1  0.33173598  0.96106061  0.91737636  1
  C  C42  1  0.62557688  0.96386498  0.41135862  1
  C  C43  1  0.33829542  0.37663292  0.41384340  1
  C  C44  1  0.03538985  0.66153626  0.41209244  1
  C  C45  1  0.19185277  0.01671142  0.30614383  1
  C  C46  1  0.83155764  0.81622990  0.30490219  1
  C  C47  1  0.98920934  0.17130960  0.30448952  1
  C  C48  1  0.22381803  0.17413482  0.80156543  1
  C  C49  1  0.97012662  0.77522993  0.80861173  1
  C  C50  1  0.82196778  0.03797809  0.80793275  1
  C  C51  1  0.77137534  0.96286437  0.68533599  1
  C  C52  1  0.19747455  0.23335251  0.68979649  1
  C  C53  1  0.04508259  0.81314727  0.69509334  1
  C  C54  1  0.80866259  0.82626096  0.19364809  1
  C  C55  1  0.01655124  0.19356249  0.19290857  1
  C  C56  1  0.17371493  0.98703686  0.19531388  1
  C  C57  1  0.87225908  0.36747668  0.63666225  1
  C  C58  1  0.49625338  0.13003575  0.64128227  1
  C  C59  1  0.63464763  0.50482844  0.63663543  1
  C  C60  1  0.87965521  0.51337450  0.14643625  1
  C  C61  1  0.63955227  0.11510302  0.14498527  1
  C  C62  1  0.48668793  0.36107616  0.14004269  1
  C  C63  1  0.46430672  0.30143007  0.02859196  1
  C  C64  1  0.82839831  0.52754628  0.02739722  1
  C  C65  1  0.69238764  0.16480051  0.03226207  1
  C  C66  1  0.45676487  0.16354992  0.52611141  1
  C  C67  1  0.70019931  0.54434113  0.52587741  1
  C  C68  1  0.84784709  0.30776760  0.52598696  1
  C  C69  1  0.54417703  0.68289089  0.97853646  1
  C  C70  1  0.13654618  0.45047265  0.97846693  1
  C  C71  1  0.30240186  0.84893408  0.97129844  1
  C  C72  1  0.53051068  0.83961276  0.46860899  1
  C  C73  1  0.30724645  0.46470918  0.47203928  1
  C  C74  1  0.16029784  0.69054360  0.46910606  1
  C  C75  1  0.12163744  0.64747881  0.35547725  1
  C  C76  1  0.52297695  0.87879859  0.35538067  1
  C  C77  1  0.35326785  0.48160901  0.35914889  1
  C  C78  1  0.13561695  0.49719477  0.86621902  1
  C  C79  1  0.35890824  0.87216067  0.85980614  1
  C  C80  1  0.50845644  0.64752369  0.86618675  1
  C  C81  1  0.03114455  0.83659875  0.41118400  1
  C  C82  1  0.80520880  0.96661445  0.41048796  1
  C  C83  1  0.16321848  0.19495330  0.41102283  1
  C  C84  1  0.01766490  0.19333634  0.91230239  1
  C  C85  1  0.17314360  0.98039298  0.90819913  1
  C  C86  1  0.81176430  0.81176260  0.91366034  1
  C  C87  1  0.98986733  0.18376928  0.58816889  1
  C  C88  1  0.17384625  0.00487118  0.59097587  1
  C  C89  1  0.81618710  0.80574635  0.58737484  1
  C  C90  1  0.96479899  0.81202609  0.08928371  1
  C  C91  1  0.84330802  0.04070205  0.08840430  1
  C  C92  1  0.19266711  0.16679857  0.08893383  1
  C  C93  1  0.67412299  0.16666343  0.74201697  1
  C  C94  1  0.48426451  0.32428501  0.74085452  1
  C  C95  1  0.83898942  0.51859492  0.74152155  1
  C  C96  1  0.70621674  0.54152426  0.25045006  1
  C  C97  1  0.83251006  0.29246451  0.25149144  1
  C  C98  1  0.46987915  0.16238076  0.24856481  1
  C  C99  1  0.63430484  0.49192667  0.92186068  1
  C  C100  1  0.85909156  0.36489452  0.92297414  1
  C  C101  1  0.50277873  0.14001901  0.92234521  1
  C  C102  1  0.65495275  0.14066743  0.42089614  1
  C  C103  1  0.48862851  0.34876606  0.42070643  1
  C  C104  1  0.85909594  0.51205380  0.42246453  1
  C  C105  1  0.35037762  0.48565973  0.07697899  1
  C  C106  1  0.15056177  0.64488465  0.07837864  1
  C  C107  1  0.52273342  0.85674938  0.07825836  1
  C  C108  1  0.36099803  0.84780468  0.57569974  1
  C  C109  1  0.49200837  0.63124947  0.57583136  1
  C  C110  1  0.14162854  0.50642212  0.57671741  1
  C  C111  1  0.29615245  0.83513064  0.25028936  1
  C  C112  1  0.53936630  0.71150726  0.25132361  1
  C  C113  1  0.16115968  0.46787625  0.25067494  1
  C  C114  1  0.31859044  0.47878942  0.76116354  1
  C  C115  1  0.16254626  0.67743821  0.76008164  1
  C  C116  1  0.50718441  0.83342289  0.75932381  1
