# generated using pymatgen
data_Cu4Ni2C13
_symmetry_space_group_name_H-M   'P 1'
_cell_length_a   6.14282300
_cell_length_b   6.93440558
_cell_length_c   6.93440558
_cell_angle_alpha   92.97421913
_cell_angle_beta   90.00000000
_cell_angle_gamma   90.00000000
_symmetry_Int_Tables_number   1
_chemical_formula_structural   Cu4Ni2C13
_chemical_formula_sum   'Cu4 Ni2 C13'
_cell_volume   294.98578199
_cell_formula_units_Z   1
loop_
 _symmetry_equiv_pos_site_id
 _symmetry_equiv_pos_as_xyz
  1  'x, y, z'
loop_
 _atom_site_type_symbol
 _atom_site_label
 _atom_site_symmetry_multiplicity
 _atom_site_fract_x
 _atom_site_fract_y
 _atom_site_fract_z
 _atom_site_occupancy
  Ni  Ni0  1  0.00000000  0.45290600  0.54594000  1
  Ni  Ni1  1  0.00000000  0.04594000  0.95290600  1
  Cu  Cu2  1  0.50000000  0.83851300  0.33851300  1
  Cu  Cu3  1  0.50000000  0.68041800  0.82341600  1
  Cu  Cu4  1  0.50000000  0.32341600  0.18041800  1
  Cu  Cu5  1  0.50000000  0.17346600  0.67346600  1
  C  C6  1  0.00000000  0.77125600  0.27125600  1
  C  C7  1  0.00000000  0.49458000  0.99458000  1
  C  C8  1  0.00000000  0.01619500  0.51619500  1
  C  C9  1  0.24785800  0.65326800  0.15326800  1
  C  C10  1  0.24974800  0.35585900  0.85585900  1
  C  C11  1  0.25020100  0.13466900  0.35345000  1
  C  C12  1  0.25020100  0.85345000  0.63466900  1
  C  C13  1  0.75214200  0.65326800  0.15326800  1
  C  C14  1  0.74979900  0.85345000  0.63466900  1
  C  C15  1  0.74979900  0.13466900  0.35345000  1
  C  C16  1  0.75025200  0.35585900  0.85585900  1
  C  C17  1  0.50000000  0.00424800  0.99160500  1
  C  C18  1  0.50000000  0.49160500  0.50424800  1
