# generated using pymatgen
data_Cu7Ni2C3
_symmetry_space_group_name_H-M   'P 1'
_cell_length_a   12.62934826
_cell_length_b   12.62934826
_cell_length_c   4.17751800
_cell_angle_alpha   90.00000000
_cell_angle_beta   90.00000000
_cell_angle_gamma   161.10919695
_symmetry_Int_Tables_number   1
_chemical_formula_structural   Cu7Ni2C3
_chemical_formula_sum   'Cu7 Ni2 C3'
_cell_volume   215.73015017
_cell_formula_units_Z   1
loop_
 _symmetry_equiv_pos_site_id
 _symmetry_equiv_pos_as_xyz
  1  'x, y, z'
loop_
 _atom_site_type_symbol
 _atom_site_label
 _atom_site_symmetry_multiplicity
 _atom_site_fract_x
 _atom_site_fract_y
 _atom_site_fract_z
 _atom_site_occupancy
  C  C0  1  0.18581300  0.81418700  0.00000000  1
  C  C1  1  0.81418700  0.18581300  0.00000000  1
  C  C2  1  0.50000000  0.50000000  0.50000000  1
  Ni  Ni3  1  0.37229600  0.62770400  0.50000000  1
  Ni  Ni4  1  0.62770400  0.37229600  0.50000000  1
  Cu  Cu5  1  0.27971100  0.72028900  0.50000000  1
  Cu  Cu6  1  0.00000000  0.00000000  0.00000000  1
  Cu  Cu7  1  0.58803200  0.41196800  0.00000000  1
  Cu  Cu8  1  0.41196800  0.58803200  0.00000000  1
  Cu  Cu9  1  0.91289200  0.08710800  0.50000000  1
  Cu  Cu10  1  0.08710800  0.91289200  0.50000000  1
  Cu  Cu11  1  0.72028900  0.27971100  0.50000000  1
