# generated using pymatgen
data_CuNiC18
_symmetry_space_group_name_H-M   'P 1'
_cell_length_a   8.93893801
_cell_length_b   8.92004998
_cell_length_c   22.08930200
_cell_angle_alpha   90.00376803
_cell_angle_beta   89.94642059
_cell_angle_gamma   119.79164436
_symmetry_Int_Tables_number   1
_chemical_formula_structural   CuNiC18
_chemical_formula_sum   'Cu6 Ni6 C108'
_cell_volume   1528.52868149
_cell_formula_units_Z   6
loop_
 _symmetry_equiv_pos_site_id
 _symmetry_equiv_pos_as_xyz
  1  'x, y, z'
loop_
 _atom_site_type_symbol
 _atom_site_label
 _atom_site_symmetry_multiplicity
 _atom_site_fract_x
 _atom_site_fract_y
 _atom_site_fract_z
 _atom_site_occupancy
  C  C0  1  0.00047026  0.00068930  0.50058616  1
  C  C1  1  0.99823230  0.99818355  0.00178840  1
  C  C2  1  0.62922060  0.31251903  0.83176073  1
  C  C3  1  0.68796630  0.37086067  0.33352084  1
  C  C4  1  0.33182294  0.66669300  0.17020849  1
  C  C5  1  0.33323398  0.66616845  0.66548084  1
  C  C6  1  0.63897127  0.00155165  0.24973275  1
  C  C7  1  0.36130390  0.35931700  0.24956149  1
  C  C8  1  0.63804465  0.63449125  0.74687868  1
  C  C9  1  0.99663582  0.36150597  0.74664103  1
  C  C10  1  0.03608997  0.70326646  0.58418133  1
  C  C11  1  0.66470769  0.96625896  0.58378486  1
  C  C12  1  0.30117296  0.96972107  0.08632403  1
  C  C13  1  0.02721715  0.33285878  0.08631536  1
  C  C14  1  0.97024501  0.66501688  0.91751599  1
  C  C15  1  0.69498048  0.02780970  0.91674498  1
  C  C16  1  0.97227218  0.30231409  0.41686680  1
  C  C17  1  0.33443152  0.03327487  0.41775199  1
  Ni  Ni18  1  0.99103349  0.98805914  0.34683141  1
  Ni  Ni19  1  0.01243004  0.00945441  0.84617215  1
  Ni  Ni20  1  0.66293964  0.33969384  0.98748378  1
  Ni  Ni21  1  0.34115580  0.66391478  0.02013034  1
  Ni  Ni22  1  0.33597863  0.65937957  0.51842236  1
  Ni  Ni23  1  0.33445016  0.67037176  0.81300069  1
  Cu  Cu24  1  0.00927558  0.00720923  0.64691933  1
  Cu  Cu25  1  0.99447062  0.99186780  0.15358625  1
  Cu  Cu26  1  0.65989759  0.32945876  0.68132225  1
  Cu  Cu27  1  0.67076275  0.34013866  0.18371541  1
  Cu  Cu28  1  0.66244698  0.33805490  0.48269193  1
  Cu  Cu29  1  0.32898565  0.66414429  0.31692516  1
  C  C30  1  0.30191221  0.99767914  0.24932944  1
  C  C31  1  0.69869091  0.69749405  0.24896497  1
  C  C32  1  0.99937766  0.30344772  0.24929197  1
  C  C33  1  0.30177401  0.29351804  0.74485590  1
  C  C34  1  0.99470063  0.69882000  0.74464465  1
  C  C35  1  0.70625572  0.00645401  0.74451281  1
  C  C36  1  0.95149129  0.32687567  0.58370373  1
  C  C37  1  0.37291206  0.04881043  0.58164875  1
  C  C38  1  0.67385682  0.62735313  0.58559231  1
  C  C39  1  0.96076790  0.63660212  0.08547424  1
  C  C40  1  0.67436700  0.03929487  0.08797319  1
  C  C41  1  0.36120289  0.32342420  0.09096711  1
  C  C42  1  0.63549269  0.66721938  0.91200071  1
  C  C43  1  0.03179589  0.36469321  0.91768855  1
  C  C44  1  0.33427488  0.96656784  0.92018364  1
  C  C45  1  0.62809560  0.96650285  0.41718130  1
  C  C46  1  0.34058909  0.37347331  0.41299894  1
  C  C47  1  0.03604668  0.66021585  0.41924231  1
  C  C48  1  0.22848257  0.03771472  0.30658950  1
  C  C49  1  0.80004369  0.76112537  0.30824787  1
  C  C50  1  0.95818333  0.19090557  0.30720848  1
  C  C51  1  0.23573250  0.20007937  0.80579861  1
  C  C52  1  0.96867484  0.77530264  0.80404112  1
  C  C53  1  0.81040864  0.03804827  0.80408926  1
  C  C54  1  0.80204216  0.98053926  0.69016186  1
  C  C55  1  0.17565234  0.20013132  0.69260128  1
  C  C56  1  0.01462384  0.81186220  0.68891155  1
  C  C57  1  0.79050293  0.82735229  0.19690994  1
  C  C58  1  0.03352196  0.21161458  0.19530955  1
  C  C59  1  0.18758066  0.97292412  0.19346595  1
  C  C60  1  0.86605585  0.35381571  0.64062074  1
  C  C61  1  0.49322603  0.13954786  0.63506223  1
  C  C62  1  0.65569162  0.52803713  0.64455754  1
  C  C63  1  0.85786427  0.50473370  0.13498207  1
  C  C64  1  0.64679921  0.13424447  0.14195938  1
  C  C65  1  0.47002259  0.34287439  0.14727074  1
  C  C66  1  0.43769747  0.28946994  0.03357849  1
  C  C67  1  0.87460669  0.57293291  0.02273466  1
  C  C68  1  0.70650711  0.14365361  0.02825623  1
  C  C69  1  0.45080842  0.14596793  0.52119311  1
  C  C70  1  0.69759254  0.53581116  0.53027195  1
  C  C71  1  0.83988912  0.29929517  0.52599588  1
  C  C72  1  0.54688587  0.69701733  0.96667245  1
  C  C73  1  0.13073068  0.44996706  0.97672860  1
  C  C74  1  0.31015547  0.86468652  0.97996857  1
  C  C75  1  0.55373025  0.86929556  0.47709688  1
  C  C76  1  0.29583819  0.44758686  0.46836068  1
  C  C77  1  0.13757122  0.69389316  0.47927853  1
  C  C78  1  0.13066452  0.62741781  0.36615211  1
  C  C79  1  0.51257714  0.87143567  0.36146950  1
  C  C80  1  0.36071844  0.47824245  0.35433776  1
  C  C81  1  0.11746378  0.47094785  0.85985489  1
  C  C82  1  0.36430179  0.87791682  0.86525228  1
  C  C83  1  0.54234710  0.64966394  0.85135426  1
  C  C84  1  0.02389245  0.82549902  0.41141323  1
  C  C85  1  0.81457986  0.99859630  0.41253254  1
  C  C86  1  0.18072250  0.18723509  0.40863781  1
  C  C87  1  0.00501999  0.18030982  0.91540121  1
  C  C88  1  0.16631304  0.97367557  0.91459272  1
  C  C89  1  0.81795073  0.83219141  0.91120076  1
  C  C90  1  0.96627299  0.16039037  0.58781791  1
  C  C91  1  0.18774090  0.02317298  0.58733074  1
  C  C92  1  0.83976072  0.81191930  0.58688896  1
  C  C93  1  0.98600848  0.81974389  0.09415549  1
  C  C94  1  0.83891631  0.02507916  0.09520862  1
  C  C95  1  0.17744553  0.16003274  0.09523324  1
  C  C96  1  0.68770546  0.16913502  0.73875905  1
  C  C97  1  0.48581223  0.32099749  0.73829691  1
  C  C98  1  0.83060664  0.51560074  0.74131143  1
  C  C99  1  0.66862697  0.51209392  0.23976016  1
  C  C100  1  0.83797911  0.32275619  0.24051866  1
  C  C101  1  0.48674359  0.15878259  0.24298222  1
  C  C102  1  0.65777726  0.50769836  0.91783452  1
  C  C103  1  0.85057795  0.35041401  0.91926594  1
  C  C104  1  0.49859432  0.14558562  0.92229624  1
  C  C105  1  0.63896247  0.14779089  0.41913522  1
  C  C106  1  0.50511818  0.35852767  0.42040298  1
  C  C107  1  0.85683731  0.49290064  0.42328741  1
  C  C108  1  0.33662215  0.48328438  0.08710435  1
  C  C109  1  0.14356562  0.65242206  0.08616488  1
  C  C110  1  0.50717681  0.86139840  0.08584337  1
  C  C111  1  0.35288832  0.86357434  0.58152643  1
  C  C112  1  0.51648561  0.65665291  0.58288767  1
  C  C113  1  0.13075181  0.49255849  0.58156384  1
  C  C114  1  0.32365490  0.83574128  0.25622987  1
  C  C115  1  0.51719038  0.68445351  0.25380054  1
  C  C116  1  0.16774621  0.48072470  0.25544672  1
  C  C117  1  0.31669299  0.47613542  0.74659947  1
  C  C118  1  0.15301943  0.67131777  0.74665842  1
  C  C119  1  0.52929612  0.83815970  0.74646564  1
