# generated using pymatgen
data_Cu3Ni2C5
_symmetry_space_group_name_H-M   'P 1'
_cell_length_a   10.94031200
_cell_length_b   10.94031200
_cell_length_c   5.48139100
_cell_angle_alpha   90.00000000
_cell_angle_beta   90.00000000
_cell_angle_gamma   90.00000000
_symmetry_Int_Tables_number   1
_chemical_formula_structural   Cu3Ni2C5
_chemical_formula_sum   'Cu12 Ni8 C20'
_cell_volume   656.07002747
_cell_formula_units_Z   4
loop_
 _symmetry_equiv_pos_site_id
 _symmetry_equiv_pos_as_xyz
  1  'x, y, z'
loop_
 _atom_site_type_symbol
 _atom_site_label
 _atom_site_symmetry_multiplicity
 _atom_site_fract_x
 _atom_site_fract_y
 _atom_site_fract_z
 _atom_site_occupancy
  Ni  Ni0  1  0.23558200  0.07368800  0.50000000  1
  Ni  Ni1  1  0.76441800  0.92631200  0.50000000  1
  Ni  Ni2  1  0.92631200  0.23558200  0.50000000  1
  Ni  Ni3  1  0.07368800  0.76441800  0.50000000  1
  Ni  Ni4  1  0.57368800  0.73558200  0.00000000  1
  Ni  Ni5  1  0.73558200  0.42631200  0.00000000  1
  Ni  Ni6  1  0.26441800  0.57368800  0.00000000  1
  Ni  Ni7  1  0.42631200  0.26441800  0.00000000  1
  C  C8  1  0.50000000  0.50000000  0.76528600  1
  C  C9  1  0.00000000  0.00000000  0.73471400  1
  C  C10  1  0.50000000  0.50000000  0.23471400  1
  C  C11  1  0.00000000  0.00000000  0.26528600  1
  C  C12  1  0.67417700  0.17417700  0.75000000  1
  C  C13  1  0.17417700  0.32582300  0.75000000  1
  C  C14  1  0.82582300  0.67417700  0.75000000  1
  C  C15  1  0.32582300  0.82582300  0.75000000  1
  C  C16  1  0.32582300  0.82582300  0.25000000  1
  C  C17  1  0.82582300  0.67417700  0.25000000  1
  C  C18  1  0.17417700  0.32582300  0.25000000  1
  C  C19  1  0.67417700  0.17417700  0.25000000  1
  C  C20  1  0.47543400  0.18425000  0.50000000  1
  C  C21  1  0.52456600  0.81575000  0.50000000  1
  C  C22  1  0.81575000  0.47543400  0.50000000  1
  C  C23  1  0.31575000  0.02456600  0.00000000  1
  C  C24  1  0.68425000  0.97543400  0.00000000  1
  C  C25  1  0.97543400  0.31575000  0.00000000  1
  C  C26  1  0.02456600  0.68425000  0.00000000  1
  C  C27  1  0.18425000  0.52456600  0.50000000  1
  Cu  Cu28  1  0.14197500  0.87561100  0.00000000  1
  Cu  Cu29  1  0.50000000  0.00000000  0.75000000  1
  Cu  Cu30  1  0.00000000  0.50000000  0.25000000  1
  Cu  Cu31  1  0.50000000  0.00000000  0.25000000  1
  Cu  Cu32  1  0.35802500  0.37561100  0.50000000  1
  Cu  Cu33  1  0.64197500  0.62438900  0.50000000  1
  Cu  Cu34  1  0.62438900  0.35802500  0.50000000  1
  Cu  Cu35  1  0.37561100  0.64197500  0.50000000  1
  Cu  Cu36  1  0.87561100  0.85802500  0.00000000  1
  Cu  Cu37  1  0.85802500  0.12438900  0.00000000  1
  Cu  Cu38  1  0.12438900  0.14197500  0.00000000  1
  Cu  Cu39  1  0.00000000  0.50000000  0.75000000  1
