# generated using pymatgen
data_Cu2NiC14
_symmetry_space_group_name_H-M   'P 1'
_cell_length_a   3.55182400
_cell_length_b   5.33568078
_cell_length_c   9.85427700
_cell_angle_alpha   90.00000000
_cell_angle_beta   90.00000000
_cell_angle_gamma   109.44399971
_symmetry_Int_Tables_number   1
_chemical_formula_structural   Cu2NiC14
_chemical_formula_sum   'Cu2 Ni1 C14'
_cell_volume   176.10134585
_cell_formula_units_Z   1
loop_
 _symmetry_equiv_pos_site_id
 _symmetry_equiv_pos_as_xyz
  1  'x, y, z'
loop_
 _atom_site_type_symbol
 _atom_site_label
 _atom_site_symmetry_multiplicity
 _atom_site_fract_x
 _atom_site_fract_y
 _atom_site_fract_z
 _atom_site_occupancy
  Ni  Ni0  1  0.48425400  0.96666200  0.75000000  1
  Cu  Cu1  1  0.20155000  0.40382200  0.75000000  1
  Cu  Cu2  1  0.80084800  0.60282900  0.25000000  1
  C  C3  1  0.11748200  0.23606800  0.43221400  1
  C  C4  1  0.85874400  0.71770900  0.54484000  1
  C  C5  1  0.11748200  0.23606800  0.06778600  1
  C  C6  1  0.85874400  0.71770900  0.95516000  1
  C  C7  1  0.34314300  0.68654900  0.58953200  1
  C  C8  1  0.69065600  0.38226900  0.44698400  1
  C  C9  1  0.69065600  0.38226900  0.05301600  1
  C  C10  1  0.34314300  0.68654900  0.91046800  1
  C  C11  1  0.04621700  0.09316600  0.61813900  1
  C  C12  1  0.94707500  0.89447000  0.38367000  1
  C  C13  1  0.77403700  0.54851600  0.75000000  1
  C  C14  1  0.19696100  0.39520600  0.25000000  1
  C  C15  1  0.04621700  0.09316600  0.88186100  1
  C  C16  1  0.94707500  0.89447000  0.11633000  1
