# generated using pymatgen
data_Cu(NiC11)3
_symmetry_space_group_name_H-M   'P 1'
_cell_length_a   17.86611364
_cell_length_b   8.95568233
_cell_length_c   22.86631560
_cell_angle_alpha   90.08913758
_cell_angle_beta   89.85989892
_cell_angle_gamma   120.05531992
_symmetry_Int_Tables_number   1
_chemical_formula_structural   Cu(NiC11)3
_chemical_formula_sum   'Cu6 Ni18 C198'
_cell_volume   3166.73632513
_cell_formula_units_Z   6
loop_
 _symmetry_equiv_pos_site_id
 _symmetry_equiv_pos_as_xyz
  1  'x, y, z'
loop_
 _atom_site_type_symbol
 _atom_site_label
 _atom_site_symmetry_multiplicity
 _atom_site_fract_x
 _atom_site_fract_y
 _atom_site_fract_z
 _atom_site_occupancy
  Ni  Ni0  1  0.32112681  0.01258236  0.25154903  1
  Ni  Ni1  1  0.68465823  0.36990774  0.24737918  1
  Ni  Ni2  1  0.49330485  0.62159576  0.24980265  1
  Ni  Ni3  1  0.82066421  0.62988490  0.75005979  1
  Ni  Ni4  1  0.99358131  0.36469909  0.74803964  1
  Ni  Ni5  1  0.18615103  0.00375495  0.74458222  1
  Ni  Ni6  1  0.00267965  0.00781106  0.49960463  1
  Ni  Ni7  1  0.50467692  0.99917666  0.49710393  1
  Ni  Ni8  1  0.00502360  0.01353232  0.99495605  1
  Ni  Ni9  1  0.50262034  0.99746777  0.99839825  1
  Ni  Ni10  1  0.33830806  0.33163438  0.83227486  1
  Ni  Ni11  1  0.83077068  0.32480023  0.82722111  1
  Ni  Ni12  1  0.33041039  0.33916482  0.33175846  1
  Ni  Ni13  1  0.83792445  0.34402594  0.33577774  1
  Ni  Ni14  1  0.16711471  0.65818353  0.16668303  1
  Ni  Ni15  1  0.67059857  0.66927807  0.16470665  1
  Ni  Ni16  1  0.17230095  0.67264847  0.66322000  1
  Ni  Ni17  1  0.66144646  0.66860782  0.66244174  1
  Cu  Cu18  1  0.49850403  0.99910479  0.35687925  1
  Cu  Cu19  1  0.99861033  0.99843066  0.85571731  1
  Cu  Cu20  1  0.33706411  0.33135830  0.68032806  1
  Cu  Cu21  1  0.82940078  0.31593837  0.68714591  1
  Cu  Cu22  1  0.32923579  0.34319830  0.18774209  1
  Cu  Cu23  1  0.83180274  0.33554743  0.18264874  1
  C  C24  1  0.00189344  0.98796167  0.35876749  1
  C  C25  1  0.50188831  0.01555910  0.85691538  1
  C  C26  1  0.99784620  0.99227401  0.64367217  1
  C  C27  1  0.49860548  0.01361719  0.63997271  1
  C  C28  1  0.99980457  0.99692290  0.14501034  1
  C  C29  1  0.49766671  0.00258244  0.14425298  1
  C  C30  1  0.33059842  0.34451329  0.97618727  1
  C  C31  1  0.82861297  0.31166208  0.97790635  1
  C  C32  1  0.33432792  0.34565097  0.48212364  1
  C  C33  1  0.83020599  0.31543154  0.47668391  1
  C  C34  1  0.16781990  0.65808875  0.01509311  1
  C  C35  1  0.66020351  0.66430974  0.02428621  1
  C  C36  1  0.16050660  0.65479924  0.52459618  1
  C  C37  1  0.66175110  0.66925941  0.51748638  1
  C  C38  1  0.16464644  0.66077685  0.31355422  1
  C  C39  1  0.66914898  0.65890218  0.31737959  1
  C  C40  1  0.16915587  0.67940279  0.81575468  1
  C  C41  1  0.66175758  0.66655146  0.81064516  1
  C  C42  1  0.14335005  0.99754537  0.25049585  1
  C  C43  1  0.35483503  0.71113042  0.25165792  1
  C  C44  1  0.85634611  0.71080557  0.25074512  1
  C  C45  1  0.50033204  0.29125969  0.25100211  1
  C  C46  1  0.64335753  0.28630181  0.74963957  1
  C  C47  1  0.00013506  0.71040555  0.75101584  1
  C  C48  1  0.35687241  0.00314111  0.75006592  1
  C  C49  1  0.85523714  0.99905524  0.75168360  1
  C  C50  1  0.47964290  0.34055458  0.58188338  1
  C  C51  1  0.97408826  0.32784816  0.58570540  1
  C  C52  1  0.18893354  0.04346704  0.58366236  1
  C  C53  1  0.68827591  0.04109931  0.58395414  1
  C  C54  1  0.33323735  0.62388751  0.58618852  1
  C  C55  1  0.47403254  0.62029332  0.08564144  1
  C  C56  1  0.83375362  0.04164982  0.08501323  1
  C  C57  1  0.18760359  0.33537121  0.08374194  1
  C  C58  1  0.68845324  0.33432696  0.08370522  1
  C  C59  1  0.31284588  0.67021941  0.91428575  1
  C  C60  1  0.01944578  0.37372728  0.91488699  1
  C  C61  1  0.52240266  0.38276217  0.91800506  1
  C  C62  1  0.16512627  0.95874180  0.92011643  1
  C  C63  1  0.66429088  0.94894505  0.91592590  1
  C  C64  1  0.81109199  0.95129429  0.41661505  1
  C  C65  1  0.16805112  0.37779969  0.41665576  1
  C  C66  1  0.66608172  0.37179772  0.42006904  1
  C  C67  1  0.02209902  0.66017829  0.41843691  1
  C  C68  1  0.51786803  0.66392084  0.41486475  1
  C  C69  1  0.64477689  0.99929357  0.24949896  1
  C  C70  1  0.99965290  0.28537536  0.25074030  1
  C  C71  1  0.14501512  0.29076773  0.74994401  1
  C  C72  1  0.49831169  0.71393871  0.75135804  1
  C  C73  1  0.83231591  0.62173583  0.58335960  1
  C  C74  1  0.97962017  0.62451511  0.08259753  1
  C  C75  1  0.33162104  0.04150037  0.08330104  1
  C  C76  1  0.80881429  0.66355991  0.91769658  1
  C  C77  1  0.30851880  0.95350366  0.41742846  1
  C  C78  1  0.09445758  0.02479000  0.30667734  1
  C  C79  1  0.60707825  0.02952045  0.30158503  1
  C  C80  1  0.41680301  0.80169434  0.30608756  1
  C  C81  1  0.91694471  0.81478514  0.30685514  1
  C  C82  1  0.48735019  0.17045176  0.30564041  1
  C  C83  1  0.98837288  0.18190281  0.30328927  1
  C  C84  1  0.10607965  0.18506894  0.80212201  1
  C  C85  1  0.59564812  0.16590566  0.80747458  1
  C  C86  1  0.49017985  0.79790650  0.80479363  1
  C  C87  1  0.98742579  0.80371757  0.80656768  1
  C  C88  1  0.41656711  0.01799379  0.80733184  1
  C  C89  1  0.91615441  0.03189910  0.80699955  1
  C  C90  1  0.40267827  0.97124687  0.69299649  1
  C  C91  1  0.90246016  0.96347312  0.69361548  1
  C  C92  1  0.08916994  0.20882496  0.69677567  1
  C  C93  1  0.58136619  0.19223942  0.69329799  1
  C  C94  1  0.01951543  0.84071418  0.69313477  1
  C  C95  1  0.51507684  0.81844796  0.69827725  1
  C  C96  1  0.40276455  0.84110772  0.19307988  1
  C  C97  1  0.90325372  0.83364931  0.19253332  1
  C  C98  1  0.01474768  0.20768375  0.19692172  1
  C  C99  1  0.51947454  0.19825692  0.19254167  1
  C  C100  1  0.08115792  0.97075421  0.19310740  1
  C  C101  1  0.58942767  0.97102938  0.19608351  1
  C  C102  1  0.44201254  0.37404836  0.64068681  1
  C  C103  1  0.94151420  0.37010046  0.64495682  1
  C  C104  1  0.24009055  0.11361796  0.64458930  1
  C  C105  1  0.74612313  0.12321335  0.64036219  1
  C  C106  1  0.31307076  0.50483593  0.64238596  1
  C  C107  1  0.82077972  0.52716023  0.63756210  1
  C  C108  1  0.44109730  0.51231190  0.14455359  1
  C  C109  1  0.94282623  0.52337586  0.13564662  1
  C  C110  1  0.31915246  0.11201133  0.13738497  1
  C  C111  1  0.81861516  0.13022974  0.14092245  1
  C  C112  1  0.24498321  0.37045128  0.14032562  1
  C  C113  1  0.74222945  0.36675512  0.14360203  1
  C  C114  1  0.23371046  0.30500816  0.02544010  1
  C  C115  1  0.74009985  0.31036192  0.02736321  1
  C  C116  1  0.41465208  0.52454214  0.02752572  1
  C  C117  1  0.92572505  0.54459547  0.03022278  1
  C  C118  1  0.34626680  0.14922923  0.03109030  1
  C  C119  1  0.84919210  0.16700639  0.02628307  1
  C  C120  1  0.23609162  0.16850744  0.52668530  1
  C  C121  1  0.73442955  0.16585710  0.52577673  1
  C  C122  1  0.34906090  0.53365903  0.52679704  1
  C  C123  1  0.84754117  0.54319431  0.53123604  1
  C  C124  1  0.41720664  0.30657577  0.52493583  1
  C  C125  1  0.91516606  0.30495911  0.52745423  1
  C  C126  1  0.26671769  0.69557071  0.97290111  1
  C  C127  1  0.76577380  0.68634549  0.96934412  1
  C  C128  1  0.08259521  0.47744287  0.97190753  1
  C  C129  1  0.58472561  0.47289392  0.97375021  1
  C  C130  1  0.15647790  0.83470208  0.97567308  1
  C  C131  1  0.65516141  0.83346156  0.97276110  1
  C  C132  1  0.26537301  0.84436387  0.46853723  1
  C  C133  1  0.76696011  0.83462984  0.47383766  1
  C  C134  1  0.15471096  0.47625148  0.47198456  1
  C  C135  1  0.65714727  0.47911278  0.47413747  1
  C  C136  1  0.08492728  0.69657118  0.47350228  1
  C  C137  1  0.58134148  0.68865590  0.47121890  1
  C  C138  1  0.06965780  0.63797962  0.35961988  1
  C  C139  1  0.56746224  0.63807988  0.35642343  1
  C  C140  1  0.25528254  0.87010577  0.36187773  1
  C  C141  1  0.74991034  0.86289227  0.35870573  1
  C  C142  1  0.18121760  0.50117906  0.35865900  1
  C  C143  1  0.68305200  0.49494556  0.35930222  1
  C  C144  1  0.06681528  0.49673328  0.85702034  1
  C  C145  1  0.56984107  0.50240632  0.86026390  1
  C  C146  1  0.18225928  0.86806292  0.86049380  1
  C  C147  1  0.68188289  0.86109315  0.85856091  1
  C  C148  1  0.24924751  0.63517786  0.85879840  1
  C  C149  1  0.75616016  0.63558830  0.86298668  1
  C  C150  1  0.01319387  0.83403103  0.41039138  1
  C  C151  1  0.51040831  0.83343591  0.41243593  1
  C  C152  1  0.39349401  0.97009732  0.41195376  1
  C  C153  1  0.90739027  0.97913243  0.40686104  1
  C  C154  1  0.08064045  0.19044660  0.40682423  1
  C  C155  1  0.58214162  0.18792608  0.41276745  1
  C  C156  1  0.00932969  0.18738633  0.91398306  1
  C  C157  1  0.51320379  0.19146724  0.91037743  1
  C  C158  1  0.08117089  0.97507231  0.91427121  1
  C  C159  1  0.58044635  0.97143576  0.90817700  1
  C  C160  1  0.40798109  0.83662619  0.90828866  1
  C  C161  1  0.89430870  0.81622553  0.91301697  1
  C  C162  1  0.48799569  0.16466458  0.58743294  1
  C  C163  1  0.98676764  0.15712130  0.59221181  1
  C  C164  1  0.09092034  0.02177701  0.59081277  1
  C  C165  1  0.59158886  0.01819046  0.59183015  1
  C  C166  1  0.42011409  0.81388944  0.59231558  1
  C  C167  1  0.91351148  0.80048108  0.58813815  1
  C  C168  1  0.48718222  0.81676564  0.09187326  1
  C  C169  1  0.98787579  0.80029139  0.08842544  1
  C  C170  1  0.41186330  0.02308048  0.08781019  1
  C  C171  1  0.92036528  0.02281624  0.09175306  1
  C  C172  1  0.09059708  0.16170107  0.09175974  1
  C  C173  1  0.59176548  0.15988535  0.09011901  1
  C  C174  1  0.33941544  0.16417607  0.74952590  1
  C  C175  1  0.84565514  0.16705386  0.74622984  1
  C  C176  1  0.23156533  0.31144098  0.74377769  1
  C  C177  1  0.74154048  0.32832560  0.74634544  1
  C  C178  1  0.42347441  0.54022565  0.74806402  1
  C  C179  1  0.91666903  0.52226133  0.74413119  1
  C  C180  1  0.34539457  0.52423897  0.24566426  1
  C  C181  1  0.84163218  0.51629884  0.24699026  1
  C  C182  1  0.41638939  0.31067739  0.24315748  1
  C  C183  1  0.92497405  0.30949889  0.24408764  1
  C  C184  1  0.24069210  0.15365371  0.24518669  1
  C  C185  1  0.73161420  0.15335335  0.24265240  1
  C  C186  1  0.31968927  0.49561536  0.92239016  1
  C  C187  1  0.81707818  0.50594541  0.92406587  1
  C  C188  1  0.42657812  0.35773802  0.92652702  1
  C  C189  1  0.92760724  0.37313798  0.92643927  1
  C  C190  1  0.25557548  0.14326449  0.92722187  1
  C  C191  1  0.75109482  0.14413680  0.92391858  1
  C  C192  1  0.31430844  0.12382615  0.42079159  1
  C  C193  1  0.81984134  0.14277393  0.42247395  1
  C  C194  1  0.25235161  0.35454150  0.42319654  1
  C  C195  1  0.75631512  0.36676168  0.42597692  1
  C  C196  1  0.42558449  0.48342057  0.42263430  1
  C  C197  1  0.92641342  0.49427110  0.42558759  1
  C  C198  1  0.17406098  0.50507116  0.07405762  1
  C  C199  1  0.67774060  0.50297616  0.07261230  1
  C  C200  1  0.06842168  0.64983120  0.07599042  1
  C  C201  1  0.57246882  0.64980508  0.07419442  1
  C  C202  1  0.25542512  0.86395322  0.07623034  1
  C  C203  1  0.75119073  0.85110002  0.07185332  1
  C  C204  1  0.17686958  0.85168485  0.57189907  1
  C  C205  1  0.67854762  0.85057932  0.57329442  1
  C  C206  1  0.25135698  0.65251200  0.57141270  1
  C  C207  1  0.75738898  0.64837536  0.57647826  1
  C  C208  1  0.07239159  0.49460166  0.57448056  1
  C  C209  1  0.57829833  0.50320596  0.57377439  1
  C  C210  1  0.15088780  0.82068871  0.25905637  1
  C  C211  1  0.65041766  0.83877646  0.25337121  1
  C  C212  1  0.25962290  0.70326491  0.25684739  1
  C  C213  1  0.75902255  0.69163525  0.25682026  1
  C  C214  1  0.08056165  0.46106376  0.25559669  1
  C  C215  1  0.58926032  0.48712909  0.25495344  1
  C  C216  1  0.14942806  0.46236815  0.75448569  1
  C  C217  1  0.65125405  0.47907577  0.76031076  1
  C  C218  1  0.08915227  0.69205937  0.75575490  1
  C  C219  1  0.57985359  0.69658218  0.75764085  1
  C  C220  1  0.25938247  0.82561829  0.75823254  1
  C  C221  1  0.75993812  0.81622178  0.75804437  1
