# generated using pymatgen
data_Cu7(NiC3)2
_symmetry_space_group_name_H-M   'P 1'
_cell_length_a   12.57401400
_cell_length_b   17.35977200
_cell_length_c   20.07002539
_cell_angle_alpha   77.28194911
_cell_angle_beta   90.00000000
_cell_angle_gamma   90.00000000
_symmetry_Int_Tables_number   1
_chemical_formula_structural   Cu7(NiC3)2
_chemical_formula_sum   'Cu56 Ni16 C48'
_cell_volume   4273.44061905
_cell_formula_units_Z   8
loop_
 _symmetry_equiv_pos_site_id
 _symmetry_equiv_pos_as_xyz
  1  'x, y, z'
loop_
 _atom_site_type_symbol
 _atom_site_label
 _atom_site_symmetry_multiplicity
 _atom_site_fract_x
 _atom_site_fract_y
 _atom_site_fract_z
 _atom_site_occupancy
  C  C0  1  0.04977500  0.35028300  0.31472900  1
  C  C1  1  0.54977500  0.64971700  0.18527100  1
  C  C2  1  0.95022500  0.64971700  0.68527100  1
  C  C3  1  0.45022500  0.35028300  0.81472900  1
  C  C4  1  0.11482300  0.87619500  0.05406800  1
  C  C5  1  0.61482300  0.12380500  0.44593200  1
  C  C6  1  0.88517700  0.12380500  0.94593200  1
  C  C7  1  0.38517700  0.87619500  0.55406800  1
  C  C8  1  0.83751800  0.25511200  0.74084600  1
  C  C9  1  0.33751800  0.74488800  0.75915400  1
  C  C10  1  0.16248200  0.74488800  0.25915400  1
  C  C11  1  0.66248200  0.25511200  0.24084600  1
  C  C12  1  0.32645600  0.19314900  0.47704000  1
  C  C13  1  0.82645600  0.80685100  0.02296000  1
  C  C14  1  0.67354400  0.80685100  0.52296000  1
  C  C15  1  0.17354400  0.19314900  0.97704000  1
  C  C16  1  0.07854200  0.37522000  0.83035800  1
  C  C17  1  0.57854200  0.62478000  0.66964200  1
  C  C18  1  0.92145800  0.62478000  0.16964200  1
  C  C19  1  0.42145800  0.37522000  0.33035800  1
  C  C20  1  0.06034800  0.36029400  0.57857700  1
  C  C21  1  0.56034800  0.63970600  0.92142300  1
  C  C22  1  0.93965200  0.63970600  0.42142300  1
  C  C23  1  0.43965200  0.36029400  0.07857700  1
  C  C24  1  0.22026500  0.00990300  0.87050900  1
  C  C25  1  0.72026500  0.99009700  0.62949100  1
  C  C26  1  0.77973500  0.99009700  0.12949100  1
  C  C27  1  0.27973500  0.00990300  0.37050900  1
  C  C28  1  0.04995600  0.78063100  0.84800700  1
  C  C29  1  0.54995600  0.21936900  0.65199300  1
  C  C30  1  0.95004400  0.21936900  0.15199300  1
  C  C31  1  0.45004400  0.78063100  0.34800700  1
  C  C32  1  0.76901100  0.45436900  0.30467300  1
  C  C33  1  0.26901100  0.54563100  0.19532700  1
  C  C34  1  0.23098900  0.54563100  0.69532700  1
  C  C35  1  0.73098900  0.45436900  0.80467300  1
  C  C36  1  0.99722000  0.03023700  0.73324900  1
  C  C37  1  0.49722000  0.96976300  0.76675100  1
  C  C38  1  0.00278000  0.96976300  0.26675100  1
  C  C39  1  0.50278000  0.03023700  0.23324900  1
  C  C40  1  0.97216900  0.13630300  0.46741400  1
  C  C41  1  0.47216900  0.86369700  0.03258600  1
  C  C42  1  0.02783100  0.86369700  0.53258600  1
  C  C43  1  0.52783100  0.13630300  0.96741400  1
  C  C44  1  0.39103700  0.43363900  0.55328000  1
  C  C45  1  0.89103700  0.56636100  0.94672000  1
  C  C46  1  0.60896300  0.56636100  0.44672000  1
  C  C47  1  0.10896300  0.43363900  0.05328000  1
  Ni  Ni48  1  0.23564900  0.21482300  0.74341700  1
  Ni  Ni49  1  0.73564900  0.78517700  0.75658300  1
  Ni  Ni50  1  0.76435100  0.78517700  0.25658300  1
  Ni  Ni51  1  0.26435100  0.21482300  0.24341700  1
  Ni  Ni52  1  0.27299800  0.03594800  0.62755400  1
  Ni  Ni53  1  0.77299800  0.96405200  0.87244600  1
  Ni  Ni54  1  0.72700200  0.96405200  0.37244600  1
  Ni  Ni55  1  0.22700200  0.03594800  0.12755400  1
  Ni  Ni56  1  0.21566900  0.51724200  0.39333400  1
  Ni  Ni57  1  0.71566900  0.48275800  0.10666600  1
  Ni  Ni58  1  0.78433100  0.48275800  0.60666600  1
  Ni  Ni59  1  0.28433100  0.51724200  0.89333400  1
  Ni  Ni60  1  0.25731300  0.69810300  0.50893000  1
  Ni  Ni61  1  0.75731300  0.30189700  0.99107000  1
  Ni  Ni62  1  0.74268700  0.30189700  0.49107000  1
  Ni  Ni63  1  0.24268700  0.69810300  0.00893000  1
  Cu  Cu64  1  0.18220800  0.01794800  0.51876300  1
  Cu  Cu65  1  0.68220800  0.98205200  0.98123700  1
  Cu  Cu66  1  0.81779200  0.98205200  0.48123700  1
  Cu  Cu67  1  0.31779200  0.01794800  0.01876300  1
  Cu  Cu68  1  0.17570300  0.16865100  0.63219200  1
  Cu  Cu69  1  0.67570300  0.83134900  0.86780800  1
  Cu  Cu70  1  0.82429700  0.83134900  0.36780800  1
  Cu  Cu71  1  0.32429700  0.16865100  0.13219200  1
  Cu  Cu72  1  0.21725200  0.36856600  0.44145400  1
  Cu  Cu73  1  0.71725200  0.63143400  0.05854600  1
  Cu  Cu74  1  0.78274800  0.63143400  0.55854600  1
  Cu  Cu75  1  0.28274800  0.36856600  0.94145400  1
  Cu  Cu76  1  0.16812000  0.56007400  0.50889800  1
  Cu  Cu77  1  0.66812000  0.43992600  0.99110200  1
  Cu  Cu78  1  0.83188000  0.43992600  0.49110200  1
  Cu  Cu79  1  0.33188000  0.56007400  0.00889800  1
  Cu  Cu80  1  0.24016200  0.93195300  0.73472400  1
  Cu  Cu81  1  0.74016200  0.06804700  0.76527600  1
  Cu  Cu82  1  0.75983800  0.06804700  0.26527600  1
  Cu  Cu83  1  0.25983800  0.93195300  0.23472400  1
  Cu  Cu84  1  0.07332100  0.18176700  0.82090000  1
  Cu  Cu85  1  0.57332100  0.81823300  0.67910000  1
  Cu  Cu86  1  0.92667900  0.81823300  0.17910000  1
  Cu  Cu87  1  0.42667900  0.18176700  0.32090000  1
  Cu  Cu88  1  0.40471400  0.15311300  0.79902700  1
  Cu  Cu89  1  0.90471400  0.84688700  0.70097300  1
  Cu  Cu90  1  0.59528600  0.84688700  0.20097300  1
  Cu  Cu91  1  0.09528600  0.15311300  0.29902700  1
  Cu  Cu92  1  0.06545100  0.55513500  0.30797800  1
  Cu  Cu93  1  0.56545100  0.44486500  0.19202200  1
  Cu  Cu94  1  0.93454900  0.44486500  0.69202200  1
  Cu  Cu95  1  0.43454900  0.55513500  0.80797800  1
  Cu  Cu96  1  0.46849700  0.06044300  0.59681800  1
  Cu  Cu97  1  0.96849700  0.93955700  0.90318200  1
  Cu  Cu98  1  0.53150300  0.93955700  0.40318200  1
  Cu  Cu99  1  0.03150300  0.06044300  0.09681800  1
  Cu  Cu100  1  0.25896000  0.36234900  0.69742400  1
  Cu  Cu101  1  0.75896000  0.63765100  0.80257600  1
  Cu  Cu102  1  0.74104000  0.63765100  0.30257600  1
  Cu  Cu103  1  0.24104000  0.36234900  0.19742400  1
  Cu  Cu104  1  0.39102500  0.57189600  0.34025400  1
  Cu  Cu105  1  0.89102500  0.42810400  0.15974600  1
  Cu  Cu106  1  0.60897500  0.42810400  0.65974600  1
  Cu  Cu107  1  0.10897500  0.57189600  0.84025400  1
  Cu  Cu108  1  0.81079000  0.27084800  0.38002200  1
  Cu  Cu109  1  0.31079000  0.72915200  0.11997800  1
  Cu  Cu110  1  0.18921000  0.72915200  0.61997800  1
  Cu  Cu111  1  0.68921000  0.27084800  0.88002200  1
  Cu  Cu112  1  0.54201600  0.31812500  0.48239000  1
  Cu  Cu113  1  0.04201600  0.68187500  0.01761000  1
  Cu  Cu114  1  0.45798400  0.68187500  0.51761000  1
  Cu  Cu115  1  0.95798400  0.31812500  0.98239000  1
  Cu  Cu116  1  0.80552000  0.19709200  0.59222800  1
  Cu  Cu117  1  0.30552000  0.80290800  0.90777200  1
  Cu  Cu118  1  0.19448000  0.80290800  0.40777200  1
  Cu  Cu119  1  0.69448000  0.19709200  0.09222800  1
