# generated using pymatgen
data_Cu3Ni3C35
_symmetry_space_group_name_H-M   'P 1'
_cell_length_a   18.80376032
_cell_length_b   9.39551820
_cell_length_c   22.97475905
_cell_angle_alpha   89.96883485
_cell_angle_beta   90.04805597
_cell_angle_gamma   119.92580209
_symmetry_Int_Tables_number   1
_chemical_formula_structural   Cu3Ni3C35
_chemical_formula_sum   'Cu18 Ni18 C210'
_cell_volume   3517.79969887
_cell_formula_units_Z   6
loop_
 _symmetry_equiv_pos_site_id
 _symmetry_equiv_pos_as_xyz
  1  'x, y, z'
loop_
 _atom_site_type_symbol
 _atom_site_label
 _atom_site_symmetry_multiplicity
 _atom_site_fract_x
 _atom_site_fract_y
 _atom_site_fract_z
 _atom_site_occupancy
  C  C0  1  0.19572811  0.35579847  0.24477107  1
  C  C1  1  0.69080978  0.35271261  0.24393013  1
  C  C2  1  0.99348758  0.64997031  0.25365658  1
  C  C3  1  0.49216066  0.63849999  0.23956776  1
  C  C4  1  0.31615343  0.63336933  0.74792718  1
  C  C5  1  0.81390213  0.62500947  0.73400156  1
  C  C6  1  0.18965558  0.03306910  0.74507302  1
  C  C7  1  0.69194863  0.03272889  0.74500457  1
  C  C8  1  0.15415880  0.31965354  0.57527890  1
  C  C9  1  0.67243770  0.35244802  0.57632209  1
  C  C10  1  0.00937497  0.70281064  0.57962999  1
  C  C11  1  0.51879052  0.70329728  0.58232725  1
  C  C12  1  0.31970526  0.97480314  0.59525474  1
  C  C13  1  0.81941472  0.95549380  0.59262468  1
  C  C14  1  0.15814734  0.98322647  0.07621423  1
  C  C15  1  0.64627778  0.96292434  0.07132540  1
  C  C16  1  0.81550540  0.66018867  0.09383180  1
  C  C17  1  0.01879030  0.33264779  0.08031496  1
  C  C18  1  0.52293365  0.35728118  0.08926310  1
  C  C19  1  0.49754749  0.68684140  0.92437758  1
  C  C20  1  0.99587560  0.68852653  0.91719250  1
  C  C21  1  0.84359265  0.03253852  0.90236356  1
  C  C22  1  0.16356061  0.27775737  0.90470308  1
  C  C23  1  0.66239650  0.27072732  0.91316075  1
  C  C24  1  0.49755258  0.30918514  0.41757599  1
  C  C25  1  0.99200761  0.30043100  0.42119968  1
  C  C26  1  0.16329107  0.05670858  0.41338510  1
  C  C27  1  0.66588898  0.05847253  0.41355094  1
  C  C28  1  0.34731218  0.65360787  0.40195657  1
  C  C29  1  0.84645428  0.65291968  0.41538534  1
  C  C30  1  0.00768827  0.00077511  0.50310426  1
  C  C31  1  0.52323290  0.02903251  0.49790235  1
  C  C32  1  0.01489870  0.00986821  0.99668684  1
  C  C33  1  0.50714376  0.99783220  0.00177875  1
  C  C34  1  0.32951540  0.29103830  0.82803230  1
  C  C35  1  0.82229538  0.30128217  0.82419981  1
  C  C36  1  0.32022906  0.32643106  0.32336865  1
  C  C37  1  0.81438835  0.32223823  0.32686481  1
  C  C38  1  0.18947182  0.67508824  0.16465457  1
  C  C39  1  0.66151825  0.66452933  0.16126794  1
  C  C40  1  0.16241726  0.67091856  0.66683328  1
  C  C41  1  0.67560361  0.67404662  0.66061650  1
  C  C42  1  0.00156602  0.00039218  0.34687681  1
  C  C43  1  0.50171013  0.99915733  0.34469795  1
  C  C44  1  0.00351115  0.01096553  0.84473249  1
  C  C45  1  0.50016202  0.00893059  0.84975167  1
  C  C46  1  0.33089397  0.32227073  0.68442871  1
  C  C47  1  0.82958039  0.32581377  0.68173423  1
  C  C48  1  0.33067279  0.33586976  0.18251674  1
  C  C49  1  0.82725858  0.32385885  0.18355705  1
  C  C50  1  0.81954533  0.31456910  0.98409509  1
  C  C51  1  0.32160158  0.32460130  0.48355551  1
  C  C52  1  0.82273508  0.33737611  0.48809044  1
  C  C53  1  0.17209795  0.67092190  0.01641056  1
  C  C54  1  0.66433124  0.66717905  0.01626842  1
  C  C55  1  0.16662484  0.66605659  0.51573387  1
  C  C56  1  0.67013189  0.66643956  0.51676434  1
  C  C57  1  0.00017485  0.01000332  0.65411156  1
  C  C58  1  0.50543522  0.02194530  0.65683322  1
  C  C59  1  0.00495452  0.99415562  0.15512798  1
  C  C60  1  0.50032208  0.97410171  0.15012705  1
  C  C61  1  0.32489785  0.32823515  0.98643082  1
  C  C62  1  0.17619128  0.67227820  0.31096251  1
  C  C63  1  0.67502849  0.66885853  0.30953063  1
  C  C64  1  0.17257487  0.68165403  0.81224650  1
  C  C65  1  0.66993315  0.67615646  0.81082226  1
  Ni  Ni66  1  0.15182623  0.99184311  0.25469158  1
  Ni  Ni67  1  0.64956029  0.98986735  0.25340294  1
  Ni  Ni68  1  0.35119564  0.70325216  0.25432821  1
  Ni  Ni69  1  0.85148659  0.70153130  0.25191197  1
  Ni  Ni70  1  0.15125488  0.31139833  0.75242490  1
  Ni  Ni71  1  0.65183286  0.30831838  0.75627131  1
  Ni  Ni72  1  0.34981173  0.99669673  0.75038983  1
  Ni  Ni73  1  0.84992652  0.00055782  0.75547257  1
  Ni  Ni74  1  0.17604355  0.02160566  0.58509889  1
  Ni  Ni75  1  0.67283829  0.02223563  0.58523772  1
  Ni  Ni76  1  0.84006089  0.65173360  0.58554150  1
  Ni  Ni77  1  0.47999053  0.62872388  0.08370412  1
  Ni  Ni78  1  0.17675730  0.32602858  0.08761836  1
  Ni  Ni79  1  0.67516343  0.32618178  0.08568217  1
  Ni  Ni80  1  0.16798303  0.96736531  0.92040088  1
  Ni  Ni81  1  0.66673395  0.96574391  0.91609026  1
  Ni  Ni82  1  0.16543707  0.36960904  0.41719082  1
  Ni  Ni83  1  0.66438334  0.36714111  0.41597015  1
  Cu  Cu84  1  0.00528390  0.30331277  0.24963203  1
  Cu  Cu85  1  0.50340312  0.30414250  0.25150334  1
  Cu  Cu86  1  0.00448178  0.70723171  0.75171506  1
  Cu  Cu87  1  0.50369620  0.70989112  0.75057603  1
  Cu  Cu88  1  0.48211477  0.32469785  0.58276085  1
  Cu  Cu89  1  0.98429413  0.32837962  0.58335205  1
  Cu  Cu90  1  0.33951648  0.64670623  0.58490975  1
  Cu  Cu91  1  0.98382623  0.64015172  0.08454417  1
  Cu  Cu92  1  0.33619188  0.04464766  0.08351458  1
  Cu  Cu93  1  0.84245446  0.03510106  0.08326475  1
  Cu  Cu94  1  0.31322489  0.65506662  0.91507757  1
  Cu  Cu95  1  0.81434667  0.66639033  0.91547363  1
  Cu  Cu96  1  0.02046192  0.37915874  0.91685555  1
  Cu  Cu97  1  0.51562653  0.37607013  0.91702121  1
  Cu  Cu98  1  0.31400373  0.96237020  0.41584087  1
  Cu  Cu99  1  0.81364200  0.96378364  0.41437873  1
  Cu  Cu100  1  0.01902929  0.66132607  0.41428738  1
  Cu  Cu101  1  0.51897360  0.66260118  0.41612708  1
  C  C102  1  0.11136214  0.01880117  0.31205504  1
  C  C103  1  0.61292922  0.02159464  0.31185038  1
  C  C104  1  0.39305941  0.77674493  0.31592216  1
  C  C105  1  0.89902810  0.78092197  0.31131229  1
  C  C106  1  0.49462406  0.21563503  0.30623846  1
  C  C107  1  0.99152689  0.21094625  0.30350353  1
  C  C108  1  0.11860223  0.20036009  0.81030122  1
  C  C109  1  0.61431605  0.19548908  0.81261563  1
  C  C110  1  0.49152453  0.77639594  0.80484726  1
  C  C111  1  0.99229002  0.77440615  0.80608585  1
  C  C112  1  0.39740499  0.98858521  0.80563095  1
  C  C113  1  0.89197389  0.00272936  0.81623579  1
  C  C114  1  0.39380254  0.97079144  0.68987601  1
  C  C115  1  0.90063220  0.97456131  0.70010658  1
  C  C116  1  0.09060890  0.20763409  0.69613629  1
  C  C117  1  0.59056962  0.20635075  0.69826048  1
  C  C118  1  0.01714354  0.82112891  0.70149156  1
  C  C119  1  0.51557281  0.82444905  0.70010688  1
  C  C120  1  0.40343276  0.82946552  0.19991648  1
  C  C121  1  0.90200039  0.82316616  0.19402203  1
  C  C122  1  0.01507785  0.21036872  0.19873215  1
  C  C123  1  0.51345833  0.21758085  0.20045566  1
  C  C124  1  0.08645382  0.96779282  0.19760812  1
  C  C125  1  0.58538491  0.96266661  0.19631530  1
  C  C126  1  0.44063499  0.35089275  0.63213322  1
  C  C127  1  0.94225726  0.35071504  0.63249333  1
  C  C128  1  0.23875433  0.10771944  0.63891668  1
  C  C129  1  0.73157998  0.10403334  0.64095845  1
  C  C130  1  0.33039175  0.54634760  0.63673119  1
  C  C131  1  0.82947513  0.53946466  0.64169691  1
  C  C132  1  0.44516300  0.52012699  0.14128950  1
  C  C133  1  0.94450059  0.53729427  0.13569279  1
  C  C134  1  0.32290315  0.11515213  0.13542208  1
  C  C135  1  0.83242578  0.12010887  0.13290216  1
  C  C136  1  0.22336358  0.33926850  0.14662737  1
  C  C137  1  0.73655163  0.36123167  0.14006365  1
  C  C138  1  0.22901676  0.30108137  0.03057140  1
  C  C139  1  0.70876251  0.28283552  0.02590831  1
  C  C140  1  0.41938974  0.52570673  0.02532798  1
  C  C141  1  0.93605089  0.56622229  0.03066394  1
  C  C142  1  0.34311750  0.15105820  0.03101053  1
  C  C143  1  0.85664422  0.13223384  0.02892610  1
  C  C144  1  0.21095597  0.12867394  0.52475974  1
  C  C145  1  0.70654984  0.13359893  0.52589340  1
  C  C146  1  0.35130828  0.57034489  0.53189902  1
  C  C147  1  0.86173835  0.58330073  0.52607337  1
  C  C148  1  0.43501000  0.29771837  0.52813186  1
  C  C149  1  0.93903479  0.30427660  0.52779358  1
  C  C150  1  0.27489473  0.67571956  0.96698745  1
  C  C151  1  0.77684953  0.68181187  0.96952009  1
  C  C152  1  0.06491399  0.44854729  0.97206658  1
  C  C153  1  0.56155583  0.44654136  0.97128788  1
  C  C154  1  0.15448623  0.86396172  0.97937696  1
  C  C155  1  0.66404473  0.87344417  0.97576212  1
  C  C156  1  0.27667954  0.87310113  0.47009008  1
  C  C157  1  0.77643477  0.87573705  0.46890167  1
  C  C158  1  0.15967345  0.45040231  0.47793820  1
  C  C159  1  0.65423483  0.44606703  0.47564749  1
  C  C160  1  0.06604209  0.68076743  0.46808983  1
  C  C161  1  0.56493726  0.68081383  0.47041764  1
  C  C162  1  0.06660121  0.65723477  0.36240988  1
  C  C163  1  0.56563136  0.65500867  0.36463760  1
  C  C164  1  0.25859138  0.86665423  0.36534645  1
  C  C165  1  0.75886646  0.86714695  0.36399543  1
  C  C166  1  0.16908124  0.49403174  0.36180941  1
  C  C167  1  0.66843262  0.49075421  0.36025701  1
  C  C168  1  0.07022172  0.48556480  0.86716157  1
  C  C169  1  0.56169437  0.48470138  0.86660880  1
  C  C170  1  0.17463047  0.86048961  0.86312534  1
  C  C171  1  0.66944655  0.84979172  0.86011813  1
  C  C172  1  0.26159894  0.63799661  0.86216720  1
  C  C173  1  0.75999879  0.65194793  0.86441929  1
  C  C174  1  0.00495843  0.80323087  0.41190857  1
  C  C175  1  0.50500140  0.80495893  0.41323748  1
  C  C176  1  0.39604146  0.97953155  0.41045967  1
  C  C177  1  0.89579304  0.97989658  0.40954878  1
  C  C178  1  0.08181315  0.18783836  0.41536070  1
  C  C179  1  0.58168316  0.18383065  0.41378073  1
  C  C180  1  0.00799055  0.21034288  0.91229246  1
  C  C181  1  0.50472218  0.21030309  0.91138409  1
  C  C182  1  0.08588917  0.98764721  0.91521968  1
  C  C183  1  0.58256860  0.97836884  0.91627536  1
  C  C184  1  0.39830859  0.78718261  0.90956265  1
  C  C185  1  0.89751082  0.81272022  0.91069346  1
  C  C186  1  0.48686649  0.16845799  0.59147356  1
  C  C187  1  0.99088189  0.17439749  0.59096142  1
  C  C188  1  0.08557161  0.01338298  0.59559359  1
  C  C189  1  0.57829974  0.00649071  0.59500433  1
  C  C190  1  0.41436693  0.81377104  0.59016172  1
  C  C191  1  0.92169583  0.84110719  0.59454849  1
  C  C192  1  0.48606102  0.81448766  0.08687454  1
  C  C193  1  0.98770198  0.80604952  0.09070050  1
  C  C194  1  0.41420420  0.04011410  0.08527854  1
  C  C195  1  0.91889432  0.02086233  0.09077403  1
  C  C196  1  0.08440725  0.14588032  0.08771940  1
  C  C197  1  0.58097005  0.16183695  0.09648433  1
  C  C198  1  0.33168625  0.14708787  0.74873388  1
  C  C199  1  0.83228748  0.15002568  0.74892980  1
  C  C200  1  0.24564563  0.35134545  0.74357107  1
  C  C201  1  0.74451535  0.34166433  0.74799800  1
  C  C202  1  0.43270550  0.54855415  0.73934645  1
  C  C203  1  0.93521273  0.54338690  0.74191011  1
  C  C204  1  0.34098883  0.52187269  0.24878470  1
  C  C205  1  0.84447362  0.52251690  0.24580751  1
  C  C206  1  0.43544896  0.33685475  0.24566986  1
  C  C207  1  0.93907578  0.33864457  0.23892060  1
  C  C208  1  0.24116225  0.14776040  0.24620401  1
  C  C209  1  0.73942840  0.14769130  0.24485111  1
  C  C210  1  0.31335383  0.49273393  0.91903098  1
  C  C211  1  0.82193153  0.51621190  0.91541185  1
  C  C212  1  0.43381843  0.37033093  0.91966303  1
  C  C213  1  0.93998728  0.37395191  0.91702395  1
  C  C214  1  0.25222061  0.15667685  0.92326984  1
  C  C215  1  0.75218838  0.14454254  0.90908301  1
  C  C216  1  0.32077208  0.12664923  0.41506903  1
  C  C217  1  0.82148555  0.12898650  0.41371792  1
  C  C218  1  0.25083290  0.36135857  0.41038951  1
  C  C219  1  0.75007538  0.36011254  0.41066352  1
  C  C220  1  0.43809872  0.50609987  0.41736434  1
  C  C221  1  0.93955102  0.50352791  0.41469731  1
  C  C222  1  0.15686184  0.47419179  0.07922082  1
  C  C223  1  0.66696124  0.49209173  0.08219708  1
  C  C224  1  0.06898195  0.67076275  0.08091423  1
  C  C225  1  0.57442211  0.66864248  0.07755209  1
  C  C226  1  0.26401520  0.87823094  0.07604580  1
  C  C227  1  0.77060455  0.86723201  0.07917086  1
  C  C228  1  0.15965321  0.83193889  0.58319523  1
  C  C229  1  0.65611104  0.83383519  0.58134357  1
  C  C230  1  0.26541749  0.66544125  0.58088046  1
  C  C231  1  0.75760454  0.66996975  0.58297811  1
  C  C232  1  0.06925057  0.47015270  0.58089985  1
  C  C233  1  0.56642144  0.46505572  0.57962918  1
  C  C234  1  0.14535698  0.80708119  0.25655986  1
  C  C235  1  0.64631206  0.80855868  0.25675151  1
  C  C236  1  0.25547224  0.67960193  0.25361644  1
  C  C237  1  0.75630032  0.67700924  0.25281174  1
  C  C238  1  0.08510850  0.46458261  0.25229383  1
  C  C239  1  0.58300430  0.47082751  0.25394679  1
  C  C240  1  0.15484511  0.49242435  0.75976362  1
  C  C241  1  0.65462267  0.48785040  0.75929212  1
  C  C242  1  0.08402836  0.70294441  0.75518474  1
  C  C243  1  0.58153458  0.70098043  0.75286232  1
  C  C244  1  0.25460915  0.82109071  0.75304818  1
  C  C245  1  0.75604328  0.82143250  0.75462793  1
