# generated using pymatgen
data_Cu12Ni3C2
_symmetry_space_group_name_H-M   'P 1'
_cell_length_a   8.71413008
_cell_length_b   8.71412980
_cell_length_c   22.43734139
_cell_angle_alpha   90.00000000
_cell_angle_beta   90.00000000
_cell_angle_gamma   120.00000106
_symmetry_Int_Tables_number   1
_chemical_formula_structural   Cu12Ni3C2
_chemical_formula_sum   'Cu72 Ni18 C12'
_cell_volume   1475.53693910
_cell_formula_units_Z   6
loop_
 _symmetry_equiv_pos_site_id
 _symmetry_equiv_pos_as_xyz
  1  'x, y, z'
loop_
 _atom_site_type_symbol
 _atom_site_label
 _atom_site_symmetry_multiplicity
 _atom_site_fract_x
 _atom_site_fract_y
 _atom_site_fract_z
 _atom_site_occupancy
  C  C0  1  0.00000000  0.00000000  0.35305078  1
  C  C1  1  0.00000000  0.00000000  0.85305078  1
  C  C2  1  0.00000000  0.00000000  0.64523006  1
  C  C3  1  0.00000000  0.00000000  0.14523006  1
  C  C4  1  0.66666700  0.33333300  0.68750078  1
  C  C5  1  0.66666700  0.33333300  0.18750078  1
  C  C6  1  0.33333300  0.66666700  0.02202532  1
  C  C7  1  0.33333300  0.66666700  0.52202532  1
  C  C8  1  0.66666700  0.33333300  0.98169089  1
  C  C9  1  0.66666700  0.33333300  0.48169089  1
  C  C10  1  0.33333300  0.66666700  0.30786700  1
  C  C11  1  0.33333300  0.66666700  0.80786700  1
  Ni  Ni12  1  0.28975117  0.00867968  0.24976157  1
  Ni  Ni13  1  0.71892851  0.71024883  0.24976157  1
  Ni  Ni14  1  0.99132032  0.28107149  0.24976157  1
  Ni  Ni15  1  0.28975117  0.28107149  0.74976157  1
  Ni  Ni16  1  0.99132032  0.71024883  0.74976157  1
  Ni  Ni17  1  0.71892851  0.00867968  0.74976157  1
  Ni  Ni18  1  0.96206975  0.33502775  0.58605864  1
  Ni  Ni19  1  0.37295900  0.03793025  0.58605864  1
  Ni  Ni20  1  0.66497225  0.62704100  0.58605864  1
  Ni  Ni21  1  0.96206975  0.62704100  0.08605864  1
  Ni  Ni22  1  0.66497225  0.03793025  0.08605864  1
  Ni  Ni23  1  0.37295900  0.33502775  0.08605864  1
  Ni  Ni24  1  0.62493576  0.67184622  0.91783328  1
  Ni  Ni25  1  0.04690945  0.37506424  0.91783328  1
  Ni  Ni26  1  0.32815378  0.95309055  0.91783328  1
  Ni  Ni27  1  0.62493576  0.95309055  0.41783328  1
  Ni  Ni28  1  0.32815378  0.37506424  0.41783328  1
  Ni  Ni29  1  0.04690945  0.67184622  0.41783328  1
  Cu  Cu30  1  0.20965189  0.02819912  0.30407861  1
  Cu  Cu31  1  0.81854723  0.79034811  0.30407861  1
  Cu  Cu32  1  0.97180088  0.18145277  0.30407861  1
  Cu  Cu33  1  0.20965189  0.18145277  0.80407861  1
  Cu  Cu34  1  0.97180088  0.79034811  0.80407861  1
  Cu  Cu35  1  0.81854723  0.02819912  0.80407861  1
  Cu  Cu36  1  0.78538428  0.96314940  0.69702611  1
  Cu  Cu37  1  0.17776512  0.21461572  0.69702611  1
  Cu  Cu38  1  0.03685060  0.82223488  0.69702611  1
  Cu  Cu39  1  0.78538428  0.82223488  0.19702611  1
  Cu  Cu40  1  0.03685060  0.21461572  0.19702611  1
  Cu  Cu41  1  0.17776512  0.96314940  0.19702611  1
  Cu  Cu42  1  0.87393947  0.36437127  0.63604095  1
  Cu  Cu43  1  0.49043279  0.12606053  0.63604095  1
  Cu  Cu44  1  0.63562873  0.50956721  0.63604095  1
  Cu  Cu45  1  0.87393947  0.50956721  0.13604095  1
  Cu  Cu46  1  0.63562873  0.12606053  0.13604095  1
  Cu  Cu47  1  0.49043279  0.36437127  0.13604095  1
  Cu  Cu48  1  0.46667164  0.30535503  0.02929164  1
  Cu  Cu49  1  0.83868438  0.53332836  0.02929164  1
  Cu  Cu50  1  0.69464497  0.16131562  0.02929164  1
  Cu  Cu51  1  0.46667164  0.16131562  0.52929164  1
  Cu  Cu52  1  0.69464497  0.53332836  0.52929164  1
  Cu  Cu53  1  0.83868438  0.30535503  0.52929164  1
  Cu  Cu54  1  0.54064787  0.69520191  0.96981966  1
  Cu  Cu55  1  0.15455304  0.45935213  0.96981966  1
  Cu  Cu56  1  0.30479809  0.84544696  0.96981966  1
  Cu  Cu57  1  0.54064787  0.84544696  0.46981966  1
  Cu  Cu58  1  0.30479809  0.45935213  0.46981966  1
  Cu  Cu59  1  0.15455304  0.69520191  0.46981966  1
  Cu  Cu60  1  0.12729498  0.63484962  0.36318569  1
  Cu  Cu61  1  0.50755364  0.87270502  0.36318569  1
  Cu  Cu62  1  0.36515038  0.49244636  0.36318569  1
  Cu  Cu63  1  0.12729498  0.49244636  0.86318569  1
  Cu  Cu64  1  0.36515038  0.87270502  0.86318569  1
  Cu  Cu65  1  0.50755364  0.63484962  0.86318569  1
  Cu  Cu66  1  0.02232013  0.82193035  0.40718068  1
  Cu  Cu67  1  0.79961023  0.97767987  0.40718068  1
  Cu  Cu68  1  0.17806965  0.20038977  0.40718068  1
  Cu  Cu69  1  0.02232013  0.20038977  0.90718068  1
  Cu  Cu70  1  0.17806965  0.97767987  0.90718068  1
  Cu  Cu71  1  0.79961023  0.82193035  0.90718068  1
  Cu  Cu72  1  0.97107534  0.17324123  0.58998240  1
  Cu  Cu73  1  0.20216588  0.02892466  0.58998240  1
  Cu  Cu74  1  0.82675877  0.79783412  0.58998240  1
  Cu  Cu75  1  0.97107534  0.79783412  0.08998240  1
  Cu  Cu76  1  0.82675877  0.02892466  0.08998240  1
  Cu  Cu77  1  0.20216588  0.17324123  0.08998240  1
  Cu  Cu78  1  0.68540602  0.15426540  0.74193663  1
  Cu  Cu79  1  0.46886039  0.31459398  0.74193663  1
  Cu  Cu80  1  0.84573460  0.53113961  0.74193663  1
  Cu  Cu81  1  0.68540602  0.53113961  0.24193663  1
  Cu  Cu82  1  0.84573460  0.31459398  0.24193663  1
  Cu  Cu83  1  0.46886039  0.15426540  0.24193663  1
  Cu  Cu84  1  0.63936000  0.50599381  0.92484960  1
  Cu  Cu85  1  0.86663481  0.36064000  0.92484960  1
  Cu  Cu86  1  0.49400619  0.13336519  0.92484960  1
  Cu  Cu87  1  0.63936000  0.13336519  0.42484960  1
  Cu  Cu88  1  0.49400619  0.36064000  0.42484960  1
  Cu  Cu89  1  0.86663481  0.50599381  0.42484960  1
  Cu  Cu90  1  0.36057782  0.49111157  0.07316413  1
  Cu  Cu91  1  0.13053275  0.63942218  0.07316413  1
  Cu  Cu92  1  0.50888843  0.86946725  0.07316413  1
  Cu  Cu93  1  0.36057782  0.86946725  0.57316413  1
  Cu  Cu94  1  0.50888843  0.63942218  0.57316413  1
  Cu  Cu95  1  0.13053275  0.49111157  0.57316413  1
  Cu  Cu96  1  0.30904597  0.83936339  0.26066880  1
  Cu  Cu97  1  0.53031641  0.69095403  0.26066880  1
  Cu  Cu98  1  0.16063661  0.46968359  0.26066880  1
  Cu  Cu99  1  0.30904597  0.46968359  0.76066880  1
  Cu  Cu100  1  0.16063661  0.69095403  0.76066880  1
  Cu  Cu101  1  0.53031641  0.83936339  0.76066880  1
