# generated using pymatgen
data_Cu(NiC8)2
_symmetry_space_group_name_H-M   'P 1'
_cell_length_a   9.20283243
_cell_length_b   9.17738588
_cell_length_c   23.40891230
_cell_angle_alpha   90.75507795
_cell_angle_beta   89.79985533
_cell_angle_gamma   120.01420687
_symmetry_Int_Tables_number   1
_chemical_formula_structural   Cu(NiC8)2
_chemical_formula_sum   'Cu6 Ni12 C96'
_cell_volume   1711.78685628
_cell_formula_units_Z   6
loop_
 _symmetry_equiv_pos_site_id
 _symmetry_equiv_pos_as_xyz
  1  'x, y, z'
loop_
 _atom_site_type_symbol
 _atom_site_label
 _atom_site_symmetry_multiplicity
 _atom_site_fract_x
 _atom_site_fract_y
 _atom_site_fract_z
 _atom_site_occupancy
  Ni  Ni0  1  0.00151284  0.62439776  0.25070719  1
  Ni  Ni1  1  0.37245894  0.99182265  0.75572923  1
  Ni  Ni2  1  0.65567266  0.97361325  0.59643040  1
  Ni  Ni3  1  0.02906216  0.34208988  0.09450898  1
  Ni  Ni4  1  0.98396518  0.67933394  0.92766236  1
  Ni  Ni5  1  0.32077406  0.00674803  0.43201415  1
  Ni  Ni6  1  0.02170944  0.97407126  0.50272289  1
  Ni  Ni7  1  0.01873371  0.98428775  0.00179854  1
  Ni  Ni8  1  0.65714059  0.28928486  0.83928878  1
  Ni  Ni9  1  0.71717801  0.34652478  0.33454054  1
  Ni  Ni10  1  0.32549897  0.65636631  0.16344919  1
  Ni  Ni11  1  0.34575325  0.67613213  0.66748549  1
  Cu  Cu12  1  0.99433892  0.00927943  0.35139376  1
  Cu  Cu13  1  0.00621685  0.99924678  0.65096225  1
  Cu  Cu14  1  0.66570209  0.32413931  0.68589219  1
  Cu  Cu15  1  0.66777342  0.32904210  0.18143565  1
  Cu  Cu16  1  0.67437516  0.34149690  0.48291142  1
  Cu  Cu17  1  0.31576234  0.64524395  0.31375314  1
  C  C18  1  0.99693953  0.00764294  0.85087748  1
  C  C19  1  0.00097914  0.99483789  0.14705135  1
  C  C20  1  0.65929915  0.33287956  0.98372709  1
  C  C21  1  0.32641584  0.68722290  0.01411988  1
  C  C22  1  0.31478756  0.66886675  0.51667227  1
  C  C23  1  0.35847282  0.69106765  0.82001938  1
  C  C24  1  0.00036422  0.29648392  0.24206667  1
  C  C25  1  0.70090812  0.99584731  0.74978800  1
  C  C26  1  0.36180314  0.02409803  0.58006317  1
  C  C27  1  0.96659617  0.63535603  0.08035322  1
  C  C28  1  0.32955281  0.97804659  0.91325097  1
  C  C29  1  0.02810125  0.66964735  0.41232292  1
  C  C30  1  0.29655757  0.99933179  0.25109552  1
  C  C31  1  0.70312021  0.70482872  0.24737941  1
  C  C32  1  0.29882940  0.30584855  0.75407802  1
  C  C33  1  0.00519839  0.70007521  0.75529673  1
  C  C34  1  0.97366226  0.33588698  0.58327220  1
  C  C35  1  0.65814301  0.63472249  0.58350012  1
  C  C36  1  0.66662040  0.02909241  0.07918114  1
  C  C37  1  0.36238715  0.33763649  0.08048410  1
  C  C38  1  0.62796890  0.66412424  0.91909353  1
  C  C39  1  0.04514079  0.37852113  0.91685471  1
  C  C40  1  0.62491327  0.95561719  0.41968734  1
  C  C41  1  0.33489958  0.37139885  0.42081403  1
  C  C42  1  0.21836986  0.01452925  0.30426461  1
  C  C43  1  0.80931691  0.78510706  0.29846984  1
  C  C44  1  0.99771774  0.19273819  0.29765401  1
  C  C45  1  0.22499676  0.19317592  0.80399814  1
  C  C46  1  0.98640605  0.77420877  0.80968920  1
  C  C47  1  0.81432399  0.00907225  0.80519372  1
  C  C48  1  0.78421763  0.98956153  0.68859522  1
  C  C49  1  0.19845525  0.22524605  0.70181838  1
  C  C50  1  0.03264143  0.81560379  0.70697547  1
  C  C51  1  0.78418988  0.80084637  0.19506415  1
  C  C52  1  0.00522648  0.20387291  0.18150381  1
  C  C53  1  0.18394360  0.96673096  0.20083463  1
  C  C54  1  0.89447682  0.36249880  0.63464907  1
  C  C55  1  0.48031115  0.12446413  0.63625644  1
  C  C56  1  0.65259830  0.54180100  0.63533270  1
  C  C57  1  0.87434220  0.51669186  0.13553742  1
  C  C58  1  0.63940010  0.10313840  0.13189666  1
  C  C59  1  0.45583750  0.34767683  0.13295524  1
  C  C60  1  0.44033411  0.31112682  0.02902916  1
  C  C61  1  0.85897713  0.54522808  0.02091630  1
  C  C62  1  0.68170305  0.13276434  0.02894037  1
  C  C63  1  0.45470258  0.12637642  0.52180686  1
  C  C64  1  0.68186878  0.55535324  0.53171896  1
  C  C65  1  0.87443685  0.32243310  0.53170224  1
  C  C66  1  0.53775575  0.67431233  0.97018881  1
  C  C67  1  0.13824745  0.44951087  0.97163771  1
  C  C68  1  0.28193439  0.84270223  0.96511168  1
  C  C69  1  0.55254205  0.86351073  0.47341069  1
  C  C70  1  0.32996087  0.46017092  0.47298564  1
  C  C71  1  0.15640305  0.70142852  0.46606630  1
  C  C72  1  0.11137636  0.65395724  0.35163553  1
  C  C73  1  0.52242859  0.85922595  0.36958322  1
  C  C74  1  0.35044321  0.46763898  0.36867818  1
  C  C75  1  0.13998188  0.48518592  0.86776521  1
  C  C76  1  0.35728001  0.90264661  0.85239708  1
  C  C77  1  0.53065427  0.63847512  0.86589499  1
  C  C78  1  0.02302523  0.84639803  0.41371928  1
  C  C79  1  0.79870902  0.98862325  0.41617215  1
  C  C80  1  0.17958758  0.20280646  0.41871755  1
  C  C81  1  0.01488446  0.20503354  0.91235620  1
  C  C82  1  0.15204256  0.98567536  0.91001805  1
  C  C83  1  0.79710874  0.81971172  0.91736195  1
  C  C84  1  0.97258607  0.17360827  0.58667214  1
  C  C85  1  0.17257059  0.99600331  0.58476021  1
  C  C86  1  0.80347751  0.81134383  0.58579074  1
  C  C87  1  0.99286245  0.82656183  0.08576390  1
  C  C88  1  0.82672476  0.02611737  0.08208712  1
  C  C89  1  0.18631129  0.19057914  0.08251312  1
  C  C90  1  0.66696366  0.15812668  0.75174712  1
  C  C91  1  0.47001183  0.32778512  0.74755742  1
  C  C92  1  0.85332502  0.53525917  0.74668277  1
  C  C93  1  0.68470254  0.53370835  0.24390200  1
  C  C94  1  0.83593196  0.32481664  0.24492071  1
  C  C95  1  0.46065857  0.15381030  0.24491687  1
  C  C96  1  0.65766122  0.51836401  0.92165316  1
  C  C97  1  0.88045408  0.37584374  0.91792880  1
  C  C98  1  0.49909975  0.16198904  0.92354929  1
  C  C99  1  0.62702976  0.12010234  0.41944823  1
  C  C100  1  0.47984732  0.34206078  0.42126796  1
  C  C101  1  0.84320942  0.50237443  0.41754600  1
  C  C102  1  0.35069617  0.49375006  0.07703871  1
  C  C103  1  0.14990860  0.63998102  0.07827575  1
  C  C104  1  0.52334862  0.85431126  0.07442897  1
  C  C105  1  0.36044424  0.84160420  0.58200513  1
  C  C106  1  0.50176227  0.64397124  0.58019428  1
  C  C107  1  0.14780862  0.47717958  0.57999882  1
  C  C108  1  0.32075521  0.85039147  0.25298489  1
  C  C109  1  0.53707131  0.69045247  0.25244893  1
  C  C110  1  0.16615925  0.48928377  0.24218353  1
  C  C111  1  0.30839113  0.47026584  0.76176410  1
  C  C112  1  0.15688538  0.68076786  0.75621324  1
  C  C113  1  0.51019255  0.82482506  0.75151784  1
