# generated using pymatgen
data_CuNiC8
_symmetry_space_group_name_H-M   'P 1'
_cell_length_a   5.81590233
_cell_length_b   10.08848484
_cell_length_c   5.81786356
_cell_angle_alpha   73.39857837
_cell_angle_beta   119.92004599
_cell_angle_gamma   106.62868708
_symmetry_Int_Tables_number   1
_chemical_formula_structural   CuNiC8
_chemical_formula_sum   'Cu2 Ni2 C16'
_cell_volume   279.25444461
_cell_formula_units_Z   2
loop_
 _symmetry_equiv_pos_site_id
 _symmetry_equiv_pos_as_xyz
  1  'x, y, z'
loop_
 _atom_site_type_symbol
 _atom_site_label
 _atom_site_symmetry_multiplicity
 _atom_site_fract_x
 _atom_site_fract_y
 _atom_site_fract_z
 _atom_site_occupancy
  C  C0  1  0.37473900  0.12432600  0.62509100  1
  C  C1  1  0.87485700  0.62433400  0.12516000  1
  C  C2  1  0.12514400  0.37566700  0.87484200  1
  C  C3  1  0.62526000  0.87567400  0.37490900  1
  Ni  Ni4  1  0.99999800  0.00000100  0.99999800  1
  Ni  Ni5  1  0.49999900  0.49999900  0.50000000  1
  Cu  Cu6  1  0.74980500  0.24999700  0.24984700  1
  Cu  Cu7  1  0.25020000  0.75000200  0.75015400  1
  C  C8  1  0.13053700  0.86946500  0.86931700  1
  C  C9  1  0.63055200  0.36949300  0.36937000  1
  C  C10  1  0.36903300  0.63092000  0.10699400  1
  C  C11  1  0.86903400  0.13102100  0.60685400  1
  C  C12  1  0.60721100  0.86919000  0.86906900  1
  C  C13  1  0.10703200  0.36906000  0.36904100  1
  C  C14  1  0.89296600  0.63093900  0.63095700  1
  C  C15  1  0.39278800  0.13080900  0.13093500  1
  C  C16  1  0.13096600  0.86898200  0.39314400  1
  C  C17  1  0.63096500  0.36908300  0.89300700  1
  C  C18  1  0.36945000  0.63050500  0.63062600  1
  C  C19  1  0.86946400  0.13053300  0.13068400  1
