# generated using pymatgen
data_Cu2NiC16
_symmetry_space_group_name_H-M   'P 1'
_cell_length_a   6.92061323
_cell_length_b   7.22327811
_cell_length_c   9.46199755
_cell_angle_alpha   75.34601463
_cell_angle_beta   80.59847424
_cell_angle_gamma   63.02551829
_symmetry_Int_Tables_number   1
_chemical_formula_structural   Cu2NiC16
_chemical_formula_sum   'Cu2 Ni1 C16'
_cell_volume   407.18159403
_cell_formula_units_Z   1
loop_
 _symmetry_equiv_pos_site_id
 _symmetry_equiv_pos_as_xyz
  1  'x, y, z'
loop_
 _atom_site_type_symbol
 _atom_site_label
 _atom_site_symmetry_multiplicity
 _atom_site_fract_x
 _atom_site_fract_y
 _atom_site_fract_z
 _atom_site_occupancy
  C  C0  1  0.19474940  0.74332248  0.09648262  1
  C  C1  1  0.27842575  0.47371278  0.46707196  1
  C  C2  1  0.22558270  0.47582813  0.84787386  1
  C  C3  1  0.20493882  0.96745162  0.62048864  1
  C  C4  1  0.79506118  0.03254838  0.37951136  1
  C  C5  1  0.77441730  0.52417187  0.15212614  1
  C  C6  1  0.72157425  0.52628722  0.53292804  1
  C  C7  1  0.80525060  0.25667752  0.90351738  1
  Ni  Ni8  1  0.50000000  -0.00000000  -0.00000000  1
  Cu  Cu9  1  0.28179271  0.11750984  0.24113121  1
  Cu  Cu10  1  0.71820729  0.88249016  0.75886879  1
  C  C11  1  0.16895226  0.14121076  0.05810855  1
  C  C12  1  0.07199265  0.28999272  0.36593500  1
  C  C13  1  0.51075525  0.19286067  0.13323453  1
  C  C14  1  0.59339886  0.18079520  0.67289305  1
  C  C15  1  0.40660114  0.81920480  0.32710695  1
  C  C16  1  0.48924475  0.80713933  0.86676547  1
  C  C17  1  0.92800735  0.71000728  0.63406500  1
  C  C18  1  0.83104774  0.85878924  0.94189145  1
