# generated using pymatgen
data_Cu5Ni2C35
_symmetry_space_group_name_H-M   'P 1'
_cell_length_a   9.27748170
_cell_length_b   9.27254493
_cell_length_c   22.55694450
_cell_angle_alpha   89.89863262
_cell_angle_beta   90.02387568
_cell_angle_gamma   119.94031234
_symmetry_Int_Tables_number   1
_chemical_formula_structural   Cu5Ni2C35
_chemical_formula_sum   'Cu15 Ni6 C105'
_cell_volume   1681.51252325
_cell_formula_units_Z   3
loop_
 _symmetry_equiv_pos_site_id
 _symmetry_equiv_pos_as_xyz
  1  'x, y, z'
loop_
 _atom_site_type_symbol
 _atom_site_label
 _atom_site_symmetry_multiplicity
 _atom_site_fract_x
 _atom_site_fract_y
 _atom_site_fract_z
 _atom_site_occupancy
  C  C0  1  0.64488976  0.00309654  0.25328192  1
  C  C1  1  0.35466212  0.35868101  0.24600466  1
  C  C2  1  0.99971199  0.64106363  0.24943267  1
  C  C3  1  0.63731729  0.63612635  0.74560248  1
  C  C4  1  0.99434016  0.35786440  0.74928450  1
  C  C5  1  0.36719159  0.00936835  0.74943180  1
  C  C6  1  0.30179328  0.33953564  0.58759671  1
  C  C7  1  0.04038780  0.70174036  0.58212648  1
  C  C8  1  0.66255414  0.95901962  0.58257451  1
  C  C9  1  0.28264596  0.96312320  0.08007173  1
  C  C10  1  0.67125592  0.69163678  0.08850305  1
  C  C11  1  0.04742622  0.33766783  0.08720461  1
  C  C12  1  0.97608821  0.66988023  0.91595645  1
  C  C13  1  0.70586029  0.04655729  0.90663099  1
  C  C14  1  0.31795199  0.28074102  0.91902970  1
  C  C15  1  0.95851708  0.29312053  0.40978556  1
  C  C16  1  0.32511160  0.01692779  0.41554518  1
  C  C17  1  0.71595705  0.68524096  0.41850170  1
  C  C18  1  0.98841214  0.98665634  0.50059824  1
  C  C19  1  0.02374417  0.01065075  0.99957436  1
  C  C20  1  0.66645001  0.32375059  0.83182148  1
  C  C21  1  0.67599478  0.33129769  0.33175402  1
  C  C22  1  0.32299369  0.65458324  0.16607177  1
  C  C23  1  0.33598729  0.66761495  0.66309645  1
  C  C24  1  0.00000624  0.00096658  0.64847942  1
  C  C25  1  0.66966217  0.33551313  0.68467674  1
  C  C26  1  0.66682218  0.34265738  0.18587362  1
  C  C27  1  0.67447740  0.33176364  0.48382373  1
  C  C28  1  0.33073768  0.67492359  0.31403843  1
  C  C29  1  0.32185044  0.66854750  0.81205858  1
  Ni  Ni30  1  0.99338007  0.99119736  0.34531300  1
  Ni  Ni31  1  0.01066824  0.00791505  0.84617522  1
  Ni  Ni32  1  0.00681597  0.99889139  0.15389033  1
  Ni  Ni33  1  0.66608581  0.33568489  0.98145822  1
  Ni  Ni34  1  0.31053248  0.65190676  0.01661951  1
  Ni  Ni35  1  0.33691242  0.67916577  0.52020512  1
  Cu  Cu36  1  0.30104417  0.00239699  0.25086524  1
  Cu  Cu37  1  0.69751773  0.70034787  0.24952081  1
  Cu  Cu38  1  0.00027835  0.29861682  0.24994618  1
  Cu  Cu39  1  0.30076159  0.29987502  0.75016151  1
  Cu  Cu40  1  0.99626604  0.70496911  0.75132749  1
  Cu  Cu41  1  0.70319231  0.99870020  0.75084335  1
  Cu  Cu42  1  0.96379685  0.33157304  0.58353546  1
  Cu  Cu43  1  0.37200541  0.04386345  0.58340708  1
  Cu  Cu44  1  0.66898575  0.62832542  0.58240163  1
  Cu  Cu45  1  0.96061192  0.63228355  0.08195809  1
  Cu  Cu46  1  0.36953436  0.33361728  0.08100127  1
  Cu  Cu47  1  0.03349499  0.36335875  0.91684595  1
  Cu  Cu48  1  0.33450309  0.96269662  0.91841861  1
  Cu  Cu49  1  0.63284862  0.96469389  0.41775541  1
  Cu  Cu50  1  0.03418976  0.66646177  0.41798582  1
  C  C51  1  0.66846771  0.03856870  0.08335701  1
  C  C52  1  0.62262024  0.66820661  0.91627462  1
  C  C53  1  0.33610961  0.37390799  0.41751077  1
  C  C54  1  0.22631807  0.04911059  0.30841441  1
  C  C55  1  0.81504742  0.76908246  0.30778518  1
  C  C56  1  0.96104360  0.18247267  0.30891781  1
  C  C57  1  0.23413536  0.18699803  0.80984227  1
  C  C58  1  0.95421412  0.77562654  0.81081621  1
  C  C59  1  0.81572769  0.03729612  0.81028829  1
  C  C60  1  0.79686810  0.96917879  0.69392558  1
  C  C61  1  0.17287172  0.20640300  0.69411762  1
  C  C62  1  0.02903694  0.82780913  0.69434618  1
  C  C63  1  0.77356375  0.82333175  0.19250663  1
  C  C64  1  0.03989008  0.22148199  0.19151276  1
  C  C65  1  0.18323945  0.95356029  0.19282209  1
  C  C66  1  0.87404652  0.35951705  0.64122569  1
  C  C67  1  0.48951238  0.13843295  0.64068646  1
  C  C68  1  0.64706235  0.51387224  0.64069607  1
  C  C69  1  0.86123851  0.50982186  0.13880314  1
  C  C70  1  0.64933154  0.12553664  0.13598433  1
  C  C71  1  0.48659960  0.34923133  0.13889522  1
  C  C72  1  0.44732753  0.29885979  0.02125544  1
  C  C73  1  0.85524768  0.55148141  0.02099900  1
  C  C74  1  0.68905906  0.13426629  0.02838777  1
  C  C75  1  0.46248725  0.15770821  0.52365474  1
  C  C76  1  0.69296296  0.53621682  0.52336827  1
  C  C77  1  0.84535417  0.30410128  0.52462996  1
  C  C78  1  0.54668775  0.68710548  0.97189173  1
  C  C79  1  0.14385206  0.43215300  0.97762774  1
  C  C80  1  0.31556181  0.85903118  0.97986940  1
  C  C81  1  0.55725597  0.84956118  0.47681303  1
  C  C82  1  0.31433421  0.44958718  0.47138827  1
  C  C83  1  0.14288736  0.69420018  0.47785737  1
  C  C84  1  0.12871486  0.63780209  0.36072676  1
  C  C85  1  0.51167328  0.86525668  0.36064496  1
  C  C86  1  0.35369725  0.47722604  0.36402647  1
  C  C87  1  0.13646522  0.48675595  0.86029896  1
  C  C88  1  0.35592886  0.86385472  0.86099302  1
  C  C89  1  0.51936108  0.65410778  0.86378091  1
  C  C90  1  0.01958834  0.83607799  0.41354965  1
  C  C91  1  0.82289239  0.99552812  0.41285297  1
  C  C92  1  0.18838841  0.20498075  0.41306459  1
  C  C93  1  0.00457926  0.17428805  0.91258187  1
  C  C94  1  0.16322217  0.97397243  0.91519698  1
  C  C95  1  0.79068141  0.81669766  0.91323757  1
  C  C96  1  0.97452796  0.16072791  0.58734595  1
  C  C97  1  0.18782594  0.02813378  0.58780050  1
  C  C98  1  0.83767457  0.81279890  0.58740211  1
  C  C99  1  0.97421082  0.81586722  0.08616828  1
  C  C100  1  0.81830591  0.02164670  0.08789354  1
  C  C101  1  0.18061952  0.17325239  0.08642220  1
  C  C102  1  0.67821122  0.16205334  0.74385870  1
  C  C103  1  0.48829775  0.32580924  0.74212130  1
  C  C104  1  0.83783713  0.51647307  0.74419836  1
  C  C105  1  0.67488294  0.51270131  0.24174172  1
  C  C106  1  0.83457698  0.31999747  0.24261446  1
  C  C107  1  0.49015972  0.16008827  0.24225135  1
  C  C108  1  0.63382885  0.51339565  0.91620968  1
  C  C109  1  0.85317656  0.35882005  0.91789669  1
  C  C110  1  0.50298841  0.14867361  0.91753730  1
  C  C111  1  0.63783966  0.14717289  0.42004288  1
  C  C112  1  0.49162644  0.36199301  0.41917011  1
  C  C113  1  0.84617519  0.49724998  0.42015502  1
  C  C114  1  0.36941772  0.51281898  0.08100254  1
  C  C115  1  0.14669683  0.65024793  0.08434710  1
  C  C116  1  0.51612619  0.87027263  0.08209758  1
  C  C117  1  0.35499994  0.85985988  0.58387896  1
  C  C118  1  0.50035785  0.64228396  0.58065601  1
  C  C119  1  0.14922436  0.49388659  0.57930397  1
  C  C120  1  0.32224614  0.83657784  0.25882138  1
  C  C121  1  0.50894150  0.67042633  0.25876833  1
  C  C122  1  0.16623945  0.48523378  0.25763272  1
  C  C123  1  0.31775157  0.48499610  0.75572204  1
  C  C124  1  0.16696090  0.69039597  0.75542487  1
  C  C125  1  0.51889026  0.82902030  0.75602174  1
