# generated using pymatgen
data_Cu2Ni5C32
_symmetry_space_group_name_H-M   'P 1'
_cell_length_a   19.01889231
_cell_length_b   9.42436840
_cell_length_c   23.04345385
_cell_angle_alpha   90.29907717
_cell_angle_beta   88.26759972
_cell_angle_gamma   119.88501830
_symmetry_Int_Tables_number   1
_chemical_formula_structural   Cu2Ni5C32
_chemical_formula_sum   'Cu12 Ni30 C192'
_cell_volume   3579.24259384
_cell_formula_units_Z   6
loop_
 _symmetry_equiv_pos_site_id
 _symmetry_equiv_pos_as_xyz
  1  'x, y, z'
loop_
 _atom_site_type_symbol
 _atom_site_label
 _atom_site_symmetry_multiplicity
 _atom_site_fract_x
 _atom_site_fract_y
 _atom_site_fract_z
 _atom_site_occupancy
  Ni  Ni0  1  0.17961801  0.34879816  0.23988030  1
  Ni  Ni1  1  0.67976939  0.35018238  0.23953287  1
  Ni  Ni2  1  0.17944452  0.01167601  0.73835953  1
  Ni  Ni3  1  0.67659923  0.00815748  0.73910490  1
  Ni  Ni4  1  0.65581997  0.34779282  0.58096100  1
  Ni  Ni5  1  0.01789105  0.69853337  0.57315750  1
  Ni  Ni6  1  0.51255676  0.67132065  0.58025973  1
  Ni  Ni7  1  0.32299659  0.98470940  0.58552404  1
  Ni  Ni8  1  0.15538726  0.97084789  0.08158939  1
  Ni  Ni9  1  0.65545736  0.97077994  0.08098033  1
  Ni  Ni10  1  0.32318418  0.66651407  0.08278120  1
  Ni  Ni11  1  0.82361504  0.66785253  0.08238653  1
  Ni  Ni12  1  0.01794199  0.35878472  0.08070406  1
  Ni  Ni13  1  0.51788287  0.35920369  0.08052561  1
  Ni  Ni14  1  0.49265126  0.68311332  0.91083305  1
  Ni  Ni15  1  0.99245089  0.68232050  0.91242383  1
  Ni  Ni16  1  0.34791714  0.65922100  0.40694589  1
  Ni  Ni17  1  0.84658374  0.67266004  0.40580864  1
  Ni  Ni18  1  0.02505330  0.04374893  0.49859316  1
  Ni  Ni19  1  0.52128266  0.01560952  0.49571079  1
  Ni  Ni20  1  0.01768207  0.04302717  0.99300977  1
  Ni  Ni21  1  0.51808846  0.04363601  0.99237655  1
  Ni  Ni22  1  0.34828762  0.33432836  0.83323732  1
  Ni  Ni23  1  0.84651415  0.33097111  0.83558016  1
  Ni  Ni24  1  0.35203633  0.33618711  0.33642602  1
  Ni  Ni25  1  0.85563049  0.33554575  0.33184415  1
  Ni  Ni26  1  0.16707263  0.68592069  0.16463745  1
  Ni  Ni27  1  0.66735121  0.68646235  0.16323099  1
  Ni  Ni28  1  0.18044769  0.64676423  0.66714620  1
  Ni  Ni29  1  0.67595944  0.66919976  0.66169575  1
  Cu  Cu30  1  0.00394592  0.99789413  0.35272992  1
  Cu  Cu31  1  0.50161161  0.99643169  0.35230603  1
  Cu  Cu32  1  0.99585000  0.01255323  0.85105029  1
  Cu  Cu33  1  0.49691907  0.01488820  0.85061675  1
  Cu  Cu34  1  0.33964687  0.34399871  0.68538383  1
  Cu  Cu35  1  0.83808611  0.33427922  0.68690627  1
  Cu  Cu36  1  0.34069531  0.34162430  0.18661308  1
  Cu  Cu37  1  0.84039116  0.34139022  0.18579701  1
  Cu  Cu38  1  0.16793065  0.66556584  0.00848375  1
  Cu  Cu39  1  0.66805169  0.66574219  0.00797148  1
  Cu  Cu40  1  0.16552097  0.66395265  0.51334621  1
  Cu  Cu41  1  0.66653649  0.67700131  0.51450422  1
  C  C42  1  0.99224440  0.97500422  0.64820867  1
  C  C43  1  0.48860153  0.97756743  0.64266249  1
  C  C44  1  0.98969858  -0.00016476  0.14413770  1
  C  C45  1  0.48916865  0.00007542  0.14370606  1
  C  C46  1  0.33393691  0.32274547  0.98308732  1
  C  C47  1  0.83376616  0.32244844  0.98317299  1
  C  C48  1  0.33472507  0.34016545  0.48429623  1
  C  C49  1  0.82630464  0.34372000  0.47816515  1
  C  C50  1  0.15895746  0.63290328  0.31468287  1
  C  C51  1  0.65806392  0.63903136  0.31364070  1
  C  C52  1  0.16106518  0.68509991  0.81545616  1
  C  C53  1  0.65912469  0.68392509  0.81372069  1
  C  C54  1  0.34368422  0.71234928  0.25467877  1
  C  C55  1  0.84434254  0.71210367  0.25518533  1
  C  C56  1  0.00492268  0.29963739  0.25043994  1
  C  C57  1  0.50469630  0.29969327  0.25069678  1
  C  C58  1  0.00412986  0.70444802  0.75566923  1
  C  C59  1  0.50297333  0.71070690  0.75395874  1
  C  C60  1  0.34277850  0.97809061  0.75013150  1
  C  C61  1  0.84284366  0.97691788  0.75130600  1
  C  C62  1  0.47912036  0.31739908  0.57991918  1
  C  C63  1  0.18068928  0.04646627  0.58694690  1
  C  C64  1  0.67974815  0.04531969  0.58813258  1
  C  C65  1  0.33460344  0.63502021  0.58317819  1
  C  C66  1  0.83709864  0.63695775  0.58294290  1
  C  C67  1  0.48069699  0.64070186  0.07815638  1
  C  C68  1  0.98066418  0.64092164  0.07808400  1
  C  C69  1  0.33505954  0.03592926  0.08276930  1
  C  C70  1  0.83522603  0.03552189  0.08285995  1
  C  C71  1  0.18140866  0.31896329  0.08738545  1
  C  C72  1  0.68131912  0.31926958  0.08749172  1
  C  C73  1  0.01114070  0.37559573  0.92169417  1
  C  C74  1  0.51125307  0.37644092  0.92157819  1
  C  C75  1  0.17426392  0.98720583  0.92063901  1
  C  C76  1  0.67413137  0.98625803  0.92017471  1
  C  C77  1  0.17682182  0.36124112  0.41801963  1
  C  C78  1  0.67073465  0.36793835  0.41952939  1
  C  C79  1  0.01208769  0.64458551  0.42096645  1
  C  C80  1  0.51127813  0.64624786  0.42096129  1
  C  C81  1  0.14296483  0.97219188  0.24418284  1
  C  C82  1  0.64355282  0.97263174  0.24530159  1
  C  C83  1  0.14077175  0.30775888  0.74649320  1
  C  C84  1  0.64477095  0.31650367  0.74588807  1
  C  C85  1  0.97759823  0.30687386  0.58046960  1
  C  C86  1  0.31343602  0.64077128  0.91604499  1
  C  C87  1  0.81388693  0.64059396  0.91661952  1
  C  C88  1  0.30991756  0.97662954  0.41603732  1
  C  C89  1  0.81147870  0.98131477  0.41392646  1
  C  C90  1  0.10484905  0.98766331  0.29802892  1
  C  C91  1  0.60503096  0.98831152  0.29894488  1
  C  C92  1  0.39021203  0.77954616  0.31354201  1
  C  C93  1  0.89068879  0.78079525  0.31398807  1
  C  C94  1  0.51069651  0.20946717  0.30621349  1
  C  C95  1  0.00918788  0.20699690  0.30584361  1
  C  C96  1  0.10863930  0.22164518  0.80221897  1
  C  C97  1  0.60848984  0.21798607  0.79881593  1
  C  C98  1  0.50746270  0.79900814  0.81370691  1
  C  C99  1  0.00362909  0.79103557  0.81455670  1
  C  C100  1  0.39611529  0.00755675  0.80477712  1
  C  C101  1  0.89468323  0.00936374  0.80702847  1
  C  C102  1  0.39785893  0.96397146  0.69065139  1
  C  C103  1  0.90290652  0.96812139  0.69384285  1
  C  C104  1  0.08713730  0.20995628  0.69780035  1
  C  C105  1  0.59630698  0.23153297  0.69397266  1
  C  C106  1  0.01265609  0.83276342  0.69759450  1
  C  C107  1  0.51276478  0.83799444  0.69632148  1
  C  C108  1  0.40291638  0.84150341  0.19676040  1
  C  C109  1  0.90328625  0.84068601  0.19718923  1
  C  C110  1  0.01464093  0.19810392  0.19122505  1
  C  C111  1  0.51476539  0.19846528  0.19149888  1
  C  C112  1  0.09418499  0.96438220  0.19253671  1
  C  C113  1  0.59550355  0.96289757  0.19337987  1
  C  C114  1  0.44611098  0.36819299  0.63606467  1
  C  C115  1  0.94345355  0.32402617  0.63617997  1
  C  C116  1  0.23089550  0.10706337  0.64503325  1
  C  C117  1  0.72453513  0.11848968  0.64728554  1
  C  C118  1  0.31836965  0.53303630  0.64076021  1
  C  C119  1  0.83024559  0.52609113  0.63638285  1
  C  C120  1  0.44542530  0.51665781  0.13239622  1
  C  C121  1  0.94540731  0.51680392  0.13230606  1
  C  C122  1  0.30881345  0.10437240  0.13686289  1
  C  C123  1  0.80859458  0.10372722  0.13690830  1
  C  C124  1  0.23012340  0.35411385  0.14596290  1
  C  C125  1  0.72978876  0.35418213  0.14624559  1
  C  C126  1  0.24150657  0.30249895  0.03287709  1
  C  C127  1  0.74152359  0.30254708  0.03316076  1
  C  C128  1  0.41683299  0.53852999  0.02295370  1
  C  C129  1  0.91690775  0.53828689  0.02286026  1
  C  C130  1  0.35099604  0.16878381  0.02606860  1
  C  C131  1  0.85100312  0.16870314  0.02623498  1
  C  C132  1  0.23965591  0.17588022  0.53137236  1
  C  C133  1  0.74042405  0.17865145  0.53164546  1
  C  C134  1  0.34824624  0.53327513  0.52593430  1
  C  C135  1  0.84912635  0.53530676  0.52321137  1
  C  C136  1  0.41244274  0.29905359  0.52730138  1
  C  C137  1  0.92705337  0.29843723  0.53132278  1
  C  C138  1  0.28647360  0.65731689  0.97523363  1
  C  C139  1  0.78657808  0.65645391  0.97578105  1
  C  C140  1  0.05077742  0.44552859  0.98320483  1
  C  C141  1  0.55084811  0.44536762  0.98322160  1
  C  C142  1  0.16503777  0.88996294  0.97949278  1
  C  C143  1  0.66556851  0.89030860  0.97931534  1
  C  C144  1  0.27921870  0.90306422  0.47452521  1
  C  C145  1  0.78153011  0.89739566  0.47025705  1
  C  C146  1  0.17286038  0.46201972  0.47228436  1
  C  C147  1  0.67299811  0.45658761  0.47861926  1
  C  C148  1  0.05533316  0.67084663  0.48158493  1
  C  C149  1  0.55458901  0.67202967  0.48160406  1
  C  C150  1  0.07399132  0.63543950  0.36618541  1
  C  C151  1  0.57447018  0.64123945  0.36527400  1
  C  C152  1  0.25514932  0.87088654  0.37008727  1
  C  C153  1  0.75800979  0.88500820  0.36613561  1
  C  C154  1  0.18005930  0.48759710  0.35830859  1
  C  C155  1  0.67930133  0.49632618  0.36228443  1
  C  C156  1  0.07542052  0.51438434  0.86754291  1
  C  C157  1  0.57491331  0.51479718  0.86738422  1
  C  C158  1  0.18047270  0.86590498  0.86281398  1
  C  C159  1  0.67963005  0.86560553  0.86223285  1
  C  C160  1  0.25973851  0.64428845  0.87129613  1
  C  C161  1  0.76097308  0.64419526  0.87162938  1
  C  C162  1  0.98473996  0.77960712  0.41305458  1
  C  C163  1  0.48726715  0.78723605  0.41411639  1
  C  C164  1  0.39136236  0.99368034  0.40980495  1
  C  C165  1  0.89427282  0.00664381  0.40627736  1
  C  C166  1  0.10175191  0.17954895  0.41581496  1
  C  C167  1  0.59962905  0.18329472  0.41610802  1
  C  C168  1  0.99431645  0.19203034  0.91707925  1
  C  C169  1  0.49427698  0.19286160  0.91690432  1
  C  C170  1  0.09321388  0.99707666  0.91297930  1
  C  C171  1  0.59329249  0.99769727  0.91346950  1
  C  C172  1  0.39840194  0.77634001  0.90908686  1
  C  C173  1  0.89907529  0.77634118  0.91031126  1
  C  C174  1  0.47332732  0.13412391  0.58790290  1
  C  C175  1  0.98431717  0.15442616  0.58250211  1
  C  C176  1  0.08927522  0.03677024  0.59467071  1
  C  C177  1  0.59206324  0.05367229  0.59073708  1
  C  C178  1  0.43054294  0.80552035  0.58859677  1
  C  C179  1  0.92819381  0.81364668  0.58994140  1
  C  C180  1  0.47495722  0.81298802  0.09073883  1
  C  C181  1  0.97469758  0.81270757  0.09053502  1
  C  C182  1  0.42818244  0.05226232  0.09026037  1
  C  C183  1  0.92808528  0.05144653  0.09051323  1
  C  C184  1  0.09283792  0.13846573  0.09147421  1
  C  C185  1  0.59289977  0.13847655  0.09170837  1
  C  C186  1  0.31587470  0.11442613  0.74480950  1
  C  C187  1  0.81515082  0.11195007  0.74494509  1
  C  C188  1  0.22200761  0.32609197  0.73927611  1
  C  C189  1  0.72749439  0.33926447  0.74116444  1
  C  C190  1  0.43029213  0.52660725  0.75237287  1
  C  C191  1  0.93329036  0.52006659  0.75021805  1
  C  C192  1  0.31857648  0.52379921  0.24545121  1
  C  C193  1  0.81922339  0.52284360  0.24654449  1
  C  C194  1  0.43112347  0.33511477  0.25170363  1
  C  C195  1  0.93128500  0.33521631  0.25080435  1
  C  C196  1  0.22418401  0.11972123  0.24087728  1
  C  C197  1  0.72515463  0.11923257  0.24212370  1
  C  C198  1  0.31379904  0.48222822  0.91328031  1
  C  C199  1  0.81456359  0.48210137  0.91398424  1
  C  C200  1  0.42538934  0.38576723  0.92044251  1
  C  C201  1  0.92546564  0.38517559  0.92034458  1
  C  C202  1  0.26168659  0.16326661  0.92324769  1
  C  C203  1  0.76164987  0.16314808  0.92320797  1
  C  C204  1  0.31550183  0.14007892  0.41486981  1
  C  C205  1  0.81515943  0.14445880  0.41694967  1
  C  C206  1  0.26669349  0.37060256  0.41936351  1
  C  C207  1  0.76313473  0.37327800  0.42002423  1
  C  C208  1  0.42339448  0.46837604  0.42305806  1
  C  C209  1  0.92294722  0.46327373  0.42593498  1
  C  C210  1  0.16250347  0.46629725  0.07673258  1
  C  C211  1  0.66249832  0.46668316  0.07691355  1
  C  C212  1  0.07556984  0.69125740  0.07347853  1
  C  C213  1  0.57562504  0.69102756  0.07344167  1
  C  C214  1  0.27148259  0.84444956  0.07443608  1
  C  C215  1  0.77119386  0.84423544  0.07451389  1
  C  C216  1  0.16028920  0.85884351  0.57707877  1
  C  C217  1  0.65420837  0.85539036  0.58180916  1
  C  C218  1  0.27352939  0.70552097  0.57648593  1
  C  C219  1  0.76130985  0.66491916  0.57940941  1
  C  C220  1  0.06030047  0.45300847  0.57589419  1
  C  C221  1  0.57293414  0.45802353  0.57273300  1
  C  C222  1  0.14824566  0.81995325  0.24682654  1
  C  C223  1  0.64902173  0.81962638  0.24863366  1
  C  C224  1  0.25446680  0.71290631  0.26090531  1
  C  C225  1  0.75456233  0.71057886  0.26141764  1
  C  C226  1  0.09542565  0.48392450  0.25408247  1
  C  C227  1  0.59561101  0.48471802  0.25455623  1
  C  C228  1  0.14541848  0.47067662  0.74896902  1
  C  C229  1  0.64876178  0.47844091  0.75186369  1
  C  C230  1  0.09656745  0.71086285  0.75661740  1
  C  C231  1  0.59509783  0.70995213  0.75554139  1
  C  C232  1  0.25409164  0.79650772  0.75987015  1
  C  C233  1  0.75436266  0.79720780  0.75978108  1
