# generated using pymatgen
data_Cu20(Ni2C5)3
_symmetry_space_group_name_H-M   'P 1'
_cell_length_a   9.43518034
_cell_length_b   9.43518034
_cell_length_c   9.43518034
_cell_angle_alpha   60.00000000
_cell_angle_beta   60.00000000
_cell_angle_gamma   60.00000000
_symmetry_Int_Tables_number   1
_chemical_formula_structural   Cu20(Ni2C5)3
_chemical_formula_sum   'Cu20 Ni6 C15'
_cell_volume   593.93048707
_cell_formula_units_Z   1
loop_
 _symmetry_equiv_pos_site_id
 _symmetry_equiv_pos_as_xyz
  1  'x, y, z'
loop_
 _atom_site_type_symbol
 _atom_site_label
 _atom_site_symmetry_multiplicity
 _atom_site_fract_x
 _atom_site_fract_y
 _atom_site_fract_z
 _atom_site_occupancy
  C  C0  1  0.00000000  0.35010300  0.00000000  1
  C  C1  1  0.25000000  0.25000000  0.25000000  1
  C  C2  1  0.75000000  0.75000000  0.75000000  1
  C  C3  1  0.35010300  0.64989700  0.00000000  1
  C  C4  1  0.00000000  0.00000000  0.64989700  1
  C  C5  1  0.00000000  0.00000000  0.35010300  1
  C  C6  1  0.64989700  0.35010300  0.00000000  1
  C  C7  1  0.64989700  0.00000000  0.35010300  1
  C  C8  1  0.00000000  0.64989700  0.00000000  1
  C  C9  1  0.35010300  0.00000000  0.64989700  1
  C  C10  1  0.64989700  0.00000000  0.00000000  1
  C  C11  1  0.00000000  0.64989700  0.35010300  1
  C  C12  1  0.00000000  0.35010300  0.64989700  1
  C  C13  1  0.35010300  0.00000000  0.00000000  1
  C  C14  1  0.00000000  0.00000000  0.00000000  1
  Ni  Ni15  1  0.29962000  0.29962000  0.70038000  1
  Ni  Ni16  1  0.29962000  0.70038000  0.70038000  1
  Ni  Ni17  1  0.70038000  0.29962000  0.70038000  1
  Ni  Ni18  1  0.29962000  0.70038000  0.29962000  1
  Ni  Ni19  1  0.70038000  0.29962000  0.29962000  1
  Ni  Ni20  1  0.70038000  0.70038000  0.29962000  1
  Cu  Cu21  1  0.90032400  0.90032400  0.29902800  1
  Cu  Cu22  1  0.90032400  0.29902800  0.90032400  1
  Cu  Cu23  1  0.90212900  0.90212900  0.59787100  1
  Cu  Cu24  1  0.40212900  0.40212900  0.09787100  1
  Cu  Cu25  1  0.09787100  0.09787100  0.40212900  1
  Cu  Cu26  1  0.59787100  0.59787100  0.90212900  1
  Cu  Cu27  1  0.59787100  0.90212900  0.90212900  1
  Cu  Cu28  1  0.40212900  0.09787100  0.40212900  1
  Cu  Cu29  1  0.09787100  0.40212900  0.09787100  1
  Cu  Cu30  1  0.90212900  0.59787100  0.59787100  1
  Cu  Cu31  1  0.40212900  0.09787100  0.09787100  1
  Cu  Cu32  1  0.59787100  0.90212900  0.59787100  1
  Cu  Cu33  1  0.90212900  0.59787100  0.90212900  1
  Cu  Cu34  1  0.09787100  0.40212900  0.40212900  1
  Cu  Cu35  1  0.09967600  0.09967600  0.09967600  1
  Cu  Cu36  1  0.90032400  0.90032400  0.90032400  1
  Cu  Cu37  1  0.29902800  0.90032400  0.90032400  1
  Cu  Cu38  1  0.70097200  0.09967600  0.09967600  1
  Cu  Cu39  1  0.09967600  0.70097200  0.09967600  1
  Cu  Cu40  1  0.09967600  0.09967600  0.70097200  1
