# generated using pymatgen
data_Cu4NiC48
_symmetry_space_group_name_H-M   'P 1'
_cell_length_a   8.58765629
_cell_length_b   8.62400698
_cell_length_c   8.87122864
_cell_angle_alpha   90.55663515
_cell_angle_beta   89.64369207
_cell_angle_gamma   90.76817762
_symmetry_Int_Tables_number   1
_chemical_formula_structural   Cu4NiC48
_chemical_formula_sum   'Cu4 Ni1 C48'
_cell_volume   656.90103280
_cell_formula_units_Z   1
loop_
 _symmetry_equiv_pos_site_id
 _symmetry_equiv_pos_as_xyz
  1  'x, y, z'
loop_
 _atom_site_type_symbol
 _atom_site_label
 _atom_site_symmetry_multiplicity
 _atom_site_fract_x
 _atom_site_fract_y
 _atom_site_fract_z
 _atom_site_occupancy
  Ni  Ni0  1  0.28913400  0.97460100  0.34901300  1
  Cu  Cu1  1  0.88103400  0.36235600  0.36224800  1
  Cu  Cu2  1  0.63145700  0.64519200  0.85466800  1
  Cu  Cu3  1  0.37277600  0.14469100  0.66761700  1
  Cu  Cu4  1  0.11359100  0.83325800  0.12024300  1
  C  C5  1  0.68071600  0.01081900  0.80519400  1
  C  C6  1  0.71426300  0.69103600  0.45188300  1
  C  C7  1  0.79222800  0.31148700  0.94453500  1
  C  C8  1  0.82532100  0.99043900  0.30704100  1
  C  C9  1  0.03931300  0.32136100  0.69293600  1
  C  C10  1  0.18286300  0.47871900  0.17898300  1
  C  C11  1  0.18085000  0.78526300  0.55007700  1
  C  C12  1  0.31431300  0.18662800  0.06027800  1
  C  C13  1  0.32077300  0.51048100  0.69511000  1
  C  C14  1  0.46675000  0.67438300  0.20427000  1
  C  C15  1  0.55541300  0.19278800  0.30311700  1
  C  C16  1  0.96054100  0.82364500  0.81156500  1
  C  C17  1  0.65697900  0.32381900  0.35976500  1
  C  C18  1  0.94655000  0.28370200  0.84453700  1
  C  C19  1  0.92732600  0.38645100  0.57916900  1
  C  C20  1  0.90565000  0.12733100  0.38177500  1
  C  C21  1  0.03061800  0.76489400  0.65194100  1
  C  C22  1  0.09445900  0.88415100  0.90307700  1
  C  C23  1  0.10685200  0.60640900  0.09653100  1
  C  C24  1  0.09532800  0.40103300  0.30778000  1
  C  C25  1  0.13612100  0.18593000  0.64771700  1
  C  C26  1  0.15101600  0.46065000  0.75809200  1
  C  C27  1  0.12731800  0.80533400  0.38877400  1
  C  C28  1  0.21940200  0.07846700  0.16026200  1
  C  C29  1  0.22838900  0.35035700  0.05558100  1
  C  C30  1  0.26806300  0.62434000  0.56019100  1
  C  C31  1  0.29291300  0.91679800  0.58856300  1
  C  C32  1  0.35278900  0.14127300  0.90343900  1
  C  C33  1  0.35043900  0.52997300  0.24456800  1
  C  C34  1  0.36709800  0.81794600  0.18737500  1
  C  C35  1  0.40319800  0.60392700  0.81617600  1
  C  C36  1  0.40333200  0.37631800  0.62558800  1
  C  C37  1  0.42958400  0.13947100  0.41101300  1
  C  C38  1  0.47497600  0.23615900  0.14757000  1
  C  C39  1  0.54870000  0.69634500  0.36420000  1
  C  C40  1  0.85981700  0.69655500  0.87556500  1
  C  C41  1  0.60292700  0.87016300  0.87724200  1
  C  C42  1  0.60028300  0.08126000  0.67400300  1
  C  C43  1  0.90158400  0.91301400  0.17526500  1
  C  C44  1  0.65516400  0.04597700  0.25102300  1
  C  C45  1  0.67517700  0.66753900  0.61433700  1
  C  C46  1  0.68625200  0.42471100  0.86525300  1
  C  C47  1  0.71277300  0.13913100  0.93414100  1
  C  C48  1  0.77645100  0.86858200  0.43553500  1
  C  C49  1  0.82427700  0.58787100  0.36596000  1
  C  C50  1  0.83894500  0.33770900  0.10376800  1
  C  C51  1  0.85467000  0.96415000  0.75391800  1
  C  C52  1  0.57950200  0.63135900  0.08308700  1
