# generated using pymatgen
data_CuNi3C31
_symmetry_space_group_name_H-M   'P 1'
_cell_length_a   8.87370465
_cell_length_b   8.87370435
_cell_length_c   23.11238856
_cell_angle_alpha   90.00000000
_cell_angle_beta   90.00000000
_cell_angle_gamma   120.00000108
_symmetry_Int_Tables_number   1
_chemical_formula_structural   CuNi3C31
_chemical_formula_sum   'Cu3 Ni9 C93'
_cell_volume   1576.10585308
_cell_formula_units_Z   3
loop_
 _symmetry_equiv_pos_site_id
 _symmetry_equiv_pos_as_xyz
  1  'x, y, z'
loop_
 _atom_site_type_symbol
 _atom_site_label
 _atom_site_symmetry_multiplicity
 _atom_site_fract_x
 _atom_site_fract_y
 _atom_site_fract_z
 _atom_site_occupancy
  C  C0  1  -0.00000000  0.00000000  0.99819104  1
  C  C1  1  0.66666700  0.33333300  0.83427106  1
  C  C2  1  0.66666700  0.33333300  0.33306900  1
  Ni  Ni3  1  -0.00000000  0.00000000  0.35946791  1
  Ni  Ni4  1  -0.00000000  0.00000000  0.85452094  1
  Ni  Ni5  1  0.66666700  0.33333300  0.68552213  1
  Ni  Ni6  1  0.66666700  0.33333300  0.18642883  1
  Ni  Ni7  1  0.66666700  0.33333300  0.98025811  1
  Ni  Ni8  1  0.66666700  0.33333300  0.48084452  1
  Ni  Ni9  1  0.33333300  0.66666700  0.02260992  1
  Ni  Ni10  1  0.33333300  0.66666700  0.30760937  1
  Ni  Ni11  1  0.33333300  0.66666700  0.80894122  1
  Cu  Cu12  1  -0.00000000  0.00000000  0.64532440  1
  Cu  Cu13  1  -0.00000000  0.00000000  0.14761016  1
  Cu  Cu14  1  0.33333300  0.66666700  0.52103047  1
  C  C15  1  0.28523318  0.00236535  0.25055234  1
  C  C16  1  0.71713217  0.71476682  0.25055234  1
  C  C17  1  0.99763465  0.28286783  0.25055234  1
  C  C18  1  0.28624019  0.28448513  0.74901206  1
  C  C19  1  0.99824494  0.71375981  0.74901206  1
  C  C20  1  0.71551487  0.00175506  0.74901206  1
  C  C21  1  0.96003944  0.33348020  0.58328639  1
  C  C22  1  0.37344176  0.03996056  0.58328639  1
  C  C23  1  0.66651980  0.62655824  0.58328639  1
  C  C24  1  0.95586736  0.62742152  0.08409280  1
  C  C25  1  0.67155516  0.04413264  0.08409280  1
  C  C26  1  0.37257848  0.32844484  0.08409280  1
  C  C27  1  0.62132339  0.66585293  0.91650878  1
  C  C28  1  0.04452855  0.37867661  0.91650878  1
  C  C29  1  0.33414707  0.95547145  0.91650878  1
  C  C30  1  0.61517657  0.95111314  0.41679026  1
  C  C31  1  0.33593557  0.38482343  0.41679026  1
  C  C32  1  0.04888686  0.66406443  0.41679026  1
  C  C33  1  0.20053100  0.03034434  0.30385318  1
  C  C34  1  0.82981335  0.79946900  0.30385318  1
  C  C35  1  0.96965566  0.17018665  0.30385318  1
  C  C36  1  0.20370587  0.17221439  0.80274921  1
  C  C37  1  0.96850853  0.79629413  0.80274921  1
  C  C38  1  0.82778561  0.03149147  0.80274921  1
  C  C39  1  0.81043705  0.98177166  0.69516054  1
  C  C40  1  0.17133461  0.18956295  0.69516054  1
  C  C41  1  0.01822834  0.82866539  0.69516054  1
  C  C42  1  0.80982827  0.82860342  0.19590788  1
  C  C43  1  0.01877515  0.19017173  0.19590788  1
  C  C44  1  0.17139658  0.98122485  0.19590788  1
  C  C45  1  0.87959880  0.36831753  0.63653911  1
  C  C46  1  0.48871973  0.12040120  0.63653911  1
  C  C47  1  0.63168247  0.51128027  0.63653911  1
  C  C48  1  0.87024319  0.51566072  0.13765036  1
  C  C49  1  0.64541853  0.12975681  0.13765036  1
  C  C50  1  0.48433928  0.35458147  0.13765036  1
  C  C51  1  0.45219640  0.29271037  0.03029161  1
  C  C52  1  0.84051497  0.54780360  0.03029161  1
  C  C53  1  0.70728963  0.15948503  0.03029161  1
  C  C54  1  0.45389358  0.15559959  0.53006156  1
  C  C55  1  0.70170700  0.54610642  0.53006156  1
  C  C56  1  0.84440041  0.29829300  0.53006156  1
  C  C57  1  0.53753127  0.69156193  0.97082931  1
  C  C58  1  0.15402966  0.46246873  0.97082931  1
  C  C59  1  0.30843807  0.84597034  0.97082931  1
  C  C60  1  0.52267353  0.83783264  0.47123993  1
  C  C61  1  0.31515811  0.47732647  0.47123993  1
  C  C62  1  0.16216736  0.68484189  0.47123993  1
  C  C63  1  0.13195515  0.63537665  0.36314334  1
  C  C64  1  0.50342050  0.86804485  0.36314334  1
  C  C65  1  0.36462335  0.49657950  0.36314334  1
  C  C66  1  0.12938811  0.48838954  0.86207685  1
  C  C67  1  0.35900043  0.87061189  0.86207685  1
  C  C68  1  0.51161046  0.64099957  0.86207685  1
  C  C69  1  0.03324709  0.82727997  0.41111369  1
  C  C70  1  0.79403288  0.96675291  0.41111369  1
  C  C71  1  0.17272003  0.20596712  0.41111369  1
  C  C72  1  0.02351919  0.19538955  0.91090478  1
  C  C73  1  0.17187036  0.97648081  0.91090478  1
  C  C74  1  0.80461045  0.82812964  0.91090478  1
  C  C75  1  0.98422696  0.17504841  0.59610764  1
  C  C76  1  0.19082145  0.01577304  0.59610764  1
  C  C77  1  0.82495159  0.80917855  0.59610764  1
  C  C78  1  0.97595604  0.81157560  0.09416529  1
  C  C79  1  0.83561956  0.02404396  0.09416529  1
  C  C80  1  0.18842440  0.16438044  0.09416529  1
  C  C81  1  0.69602499  0.16347651  0.74077292  1
  C  C82  1  0.46745251  0.30397501  0.74077292  1
  C  C83  1  0.83652349  0.53254749  0.74077292  1
  C  C84  1  0.69602145  0.53329131  0.24237066  1
  C  C85  1  0.83727086  0.30397855  0.24237066  1
  C  C86  1  0.46670869  0.16272914  0.24237066  1
  C  C87  1  0.64212408  0.50341958  0.92282859  1
  C  C88  1  0.86129649  0.35787592  0.92282859  1
  C  C89  1  0.49658042  0.13870351  0.92282859  1
  C  C90  1  0.63653340  0.13325937  0.42549450  1
  C  C91  1  0.49672696  0.36346660  0.42549450  1
  C  C92  1  0.86674063  0.50327304  0.42549450  1
  C  C93  1  0.34871172  0.48488817  0.07524816  1
  C  C94  1  0.13617544  0.65128828  0.07524816  1
  C  C95  1  0.51511183  0.86382456  0.07524816  1
  C  C96  1  0.34908655  0.85737187  0.57051084  1
  C  C97  1  0.50828431  0.65091345  0.57051084  1
  C  C98  1  0.14262813  0.49171569  0.57051084  1
  C  C99  1  0.29972963  0.83863833  0.25585760  1
  C  C100  1  0.53890770  0.70027037  0.25585760  1
  C  C101  1  0.16136167  0.46109230  0.25585760  1
  C  C102  1  0.30081956  0.46228812  0.75520213  1
  C  C103  1  0.16146756  0.69918044  0.75520213  1
  C  C104  1  0.53771188  0.83853244  0.75520213  1
