# generated using pymatgen
data_CuNiC12
_symmetry_space_group_name_H-M   'P 1'
_cell_length_a   9.14010700
_cell_length_b   9.12250678
_cell_length_c   22.15351463
_cell_angle_alpha   90.11207401
_cell_angle_beta   89.88813532
_cell_angle_gamma   119.81290862
_symmetry_Int_Tables_number   1
_chemical_formula_structural   CuNiC12
_chemical_formula_sum   'Cu9 Ni9 C108'
_cell_volume   1602.70395343
_cell_formula_units_Z   9
loop_
 _symmetry_equiv_pos_site_id
 _symmetry_equiv_pos_as_xyz
  1  'x, y, z'
loop_
 _atom_site_type_symbol
 _atom_site_label
 _atom_site_symmetry_multiplicity
 _atom_site_fract_x
 _atom_site_fract_y
 _atom_site_fract_z
 _atom_site_occupancy
  C  C0  1  0.63947968  0.00506881  0.24664243  1
  C  C1  1  0.37653367  0.35238079  0.25386720  1
  C  C2  1  0.99275654  0.65090781  0.24929514  1
  C  C3  1  0.64555039  0.63485512  0.75059794  1
  C  C4  1  0.98427044  0.34622839  0.75231151  1
  C  C5  1  0.36675410  0.01919157  0.75273451  1
  C  C6  1  0.29339055  0.32972632  0.58869747  1
  C  C7  1  0.03140302  0.70456528  0.59469619  1
  C  C8  1  0.67052175  0.96447615  0.58957308  1
  C  C9  1  0.29583768  0.96202624  0.07860373  1
  C  C10  1  0.66937524  0.70383085  0.08546015  1
  C  C11  1  0.03673320  0.33530340  0.07231325  1
  C  C12  1  0.97774339  0.67374987  0.90682359  1
  C  C13  1  0.71093998  0.04900881  0.90429973  1
  C  C14  1  0.31417211  0.27811537  0.90744658  1
  C  C15  1  0.96808245  0.28646481  0.42085587  1
  C  C16  1  0.33997911  0.05161932  0.41141893  1
  C  C17  1  0.69504295  0.67241951  0.41495850  1
  C  C18  1  0.99954009  0.01088411  0.49630379  1
  C  C19  1  0.00985368  0.00850991  0.98799647  1
  C  C20  1  0.66700901  0.32550193  0.82802236  1
  C  C21  1  0.64811925  0.32696972  0.33435694  1
  C  C22  1  0.33771157  0.67581834  0.16524136  1
  C  C23  1  0.33699112  0.66585149  0.67140297  1
  C  C24  1  0.00308196  0.99867703  0.35075793  1
  C  C25  1  0.00854417  0.00805578  0.84640701  1
  C  C26  1  0.00119694  0.00418652  0.66702339  1
  C  C27  1  0.99690390  0.98539937  0.15683205  1
  C  C28  1  0.66784775  0.33226325  0.69143046  1
  C  C29  1  0.65711534  0.33145793  0.18671064  1
  C  C30  1  0.66783401  0.32620355  0.97439085  1
  C  C31  1  0.65528936  0.32637132  0.47897486  1
  C  C32  1  0.32482320  0.66380369  0.00599465  1
  C  C33  1  0.34247695  0.66472634  0.51360019  1
  C  C34  1  0.35283196  0.67847068  0.31603790  1
  C  C35  1  0.32161537  0.66971540  0.81248933  1
  Ni  Ni36  1  0.29459188  0.99915704  0.24945358  1
  Ni  Ni37  1  0.71039183  0.70533904  0.24970220  1
  Ni  Ni38  1  0.29718850  0.29733560  0.74898510  1
  Ni  Ni39  1  0.99447499  0.70724308  0.74941953  1
  Ni  Ni40  1  0.70541188  0.99753038  0.74980818  1
  Ni  Ni41  1  0.03659704  0.36705578  0.92102185  1
  Ni  Ni42  1  0.33081020  0.96439576  0.92166428  1
  Ni  Ni43  1  0.63898976  0.96999506  0.42186639  1
  Ni  Ni44  1  0.32863410  0.36682812  0.42040305  1
  Cu  Cu45  1  0.00235897  0.29570567  0.24861300  1
  Cu  Cu46  1  0.95921418  0.33673493  0.58077005  1
  Cu  Cu47  1  0.37091611  0.03726472  0.58130004  1
  Cu  Cu48  1  0.66792986  0.62508354  0.58114171  1
  Cu  Cu49  1  0.95619940  0.62365358  0.08479938  1
  Cu  Cu50  1  0.67173895  0.04239865  0.08462210  1
  Cu  Cu51  1  0.37341123  0.33547849  0.08430595  1
  Cu  Cu52  1  0.62399420  0.66597864  0.92004138  1
  Cu  Cu53  1  0.04455203  0.66622324  0.41812064  1
  C  C54  1  0.21266251  0.03370698  0.30846409  1
  C  C55  1  0.82173033  0.79084144  0.30910341  1
  C  C56  1  0.97410482  0.19230825  0.30341812  1
  C  C57  1  0.21680064  0.17996862  0.80748955  1
  C  C58  1  0.96253145  0.78760647  0.80915909  1
  C  C59  1  0.82063201  0.02946886  0.80863123  1
  C  C60  1  0.77218519  0.95080140  0.68803674  1
  C  C61  1  0.18029068  0.23237526  0.68812708  1
  C  C62  1  0.04590603  0.82257831  0.68862659  1
  C  C63  1  0.77336676  0.82335707  0.18968721  1
  C  C64  1  0.03291588  0.21961389  0.19455695  1
  C  C65  1  0.18134054  0.95783742  0.18859356  1
  C  C66  1  0.87528955  0.35434649  0.63492036  1
  C  C67  1  0.47467983  0.11743369  0.63491816  1
  C  C68  1  0.64876349  0.52277929  0.63504249  1
  C  C69  1  0.87502723  0.52115993  0.13955341  1
  C  C70  1  0.64862307  0.12231477  0.13945561  1
  C  C71  1  0.47453854  0.35466084  0.13933219  1
  C  C72  1  0.45529740  0.31298102  0.03054324  1
  C  C73  1  0.85262574  0.54105002  0.03091586  1
  C  C74  1  0.68928640  0.14498189  0.03075950  1
  C  C75  1  0.45373797  0.13943434  0.52633175  1
  C  C76  1  0.68648955  0.54205908  0.52613236  1
  C  C77  1  0.85799796  0.31893057  0.52568994  1
  C  C78  1  0.54530533  0.69028599  0.97543095  1
  C  C79  1  0.15263934  0.44637130  0.98095945  1
  C  C80  1  0.30963249  0.85596485  0.98250560  1
  C  C81  1  0.54313138  0.84811864  0.47768727  1
  C  C82  1  0.29202534  0.45211009  0.47779298  1
  C  C83  1  0.14948406  0.69053636  0.47162178  1
  C  C84  1  0.12630976  0.64070746  0.36246125  1
  C  C85  1  0.50654944  0.86534286  0.36024688  1
  C  C86  1  0.34813718  0.49621768  0.36007558  1
  C  C87  1  0.14717818  0.49888709  0.86352581  1
  C  C88  1  0.35850239  0.85873689  0.86352303  1
  C  C89  1  0.51634786  0.64010766  0.86597515  1
  C  C90  1  0.02665148  0.81772101  0.41200139  1
  C  C91  1  0.81920845  0.98060369  0.41114113  1
  C  C92  1  0.16532068  0.18034339  0.41121965  1
  C  C93  1  0.00985015  0.17859307  0.91352406  1
  C  C94  1  0.15813163  0.97179840  0.91392728  1
  C  C95  1  0.79227710  0.81663327  0.91461434  1
  C  C96  1  0.97884990  0.18306432  0.58279967  1
  C  C97  1  0.19955719  0.02158885  0.58401626  1
  C  C98  1  0.82070585  0.79761528  0.58319827  1
  C  C99  1  0.97351754  0.79659431  0.08831988  1
  C  C100  1  0.82878713  0.02850852  0.08814739  1
  C  C101  1  0.19939611  0.18484741  0.08916192  1
  C  C102  1  0.67272961  0.15654017  0.74262089  1
  C  C103  1  0.48726510  0.32874666  0.74098574  1
  C  C104  1  0.84190845  0.51444935  0.74206599  1
  C  C105  1  0.68154679  0.51424995  0.24331815  1
  C  C106  1  0.85253589  0.31831547  0.24144225  1
  C  C107  1  0.49027198  0.15392160  0.24371099  1
  C  C108  1  0.63839302  0.51094509  0.92531135  1
  C  C109  1  0.85897492  0.37006148  0.92094936  1
  C  C110  1  0.50092033  0.15072388  0.92030277  1
  C  C111  1  0.65026088  0.15347840  0.41893693  1
  C  C112  1  0.50803995  0.36744719  0.41870286  1
  C  C113  1  0.87539508  0.51180606  0.42180150  1
  C  C114  1  0.36014834  0.49395991  0.08168109  1
  C  C115  1  0.12946300  0.64285710  0.08210217  1
  C  C116  1  0.52081624  0.86692440  0.08136561  1
  C  C117  1  0.34840379  0.86171350  0.57684302  1
  C  C118  1  0.51164326  0.64294178  0.57883623  1
  C  C119  1  0.13093636  0.49380987  0.57804070  1
  C  C120  1  0.30280487  0.81540916  0.25845643  1
  C  C121  1  0.50950888  0.67954592  0.25739325  1
  C  C122  1  0.15522229  0.46924173  0.25507598  1
  C  C123  1  0.31806970  0.49065112  0.76042993  1
  C  C124  1  0.17194031  0.68930656  0.75753402  1
  C  C125  1  0.51372441  0.82285327  0.76011992  1
