# generated using pymatgen
data_Cu3Ni3C31
_symmetry_space_group_name_H-M   'P 1'
_cell_length_a   8.81739304
_cell_length_b   8.87225946
_cell_length_c   22.80419530
_cell_angle_alpha   89.71773286
_cell_angle_beta   90.16904715
_cell_angle_gamma   119.89620917
_symmetry_Int_Tables_number   1
_chemical_formula_structural   Cu3Ni3C31
_chemical_formula_sum   'Cu9 Ni9 C93'
_cell_volume   1546.56344349
_cell_formula_units_Z   3
loop_
 _symmetry_equiv_pos_site_id
 _symmetry_equiv_pos_as_xyz
  1  'x, y, z'
loop_
 _atom_site_type_symbol
 _atom_site_label
 _atom_site_symmetry_multiplicity
 _atom_site_fract_x
 _atom_site_fract_y
 _atom_site_fract_z
 _atom_site_occupancy
  C  C0  1  0.36038541  0.36102855  0.24484154  1
  C  C1  1  0.63708652  0.62598602  0.75323832  1
  C  C2  1  0.96898486  0.29197188  0.41715656  1
  C  C3  1  0.99683715  0.00565807  0.49656074  1
  C  C4  1  0.00031351  0.99051156  0.00407018  1
  C  C5  1  0.66401584  0.34012625  0.83081774  1
  C  C6  1  0.66443922  0.32088101  0.33038388  1
  C  C7  1  0.31442255  0.65707139  0.16378361  1
  C  C8  1  0.30499932  0.64951459  0.66703993  1
  C  C9  1  0.98993876  0.02143504  0.35394313  1
  C  C10  1  0.68485021  0.34763633  0.68891074  1
  C  C11  1  0.69487815  0.35044966  0.17940209  1
  Ni  Ni12  1  0.98777263  0.29251324  0.25010519  1
  Ni  Ni13  1  0.29876758  0.28881417  0.74934937  1
  Ni  Ni14  1  0.00226118  0.70882048  0.74785471  1
  Ni  Ni15  1  0.95439556  0.33328770  0.58491402  1
  Ni  Ni16  1  0.96399230  0.63163632  0.08400012  1
  Ni  Ni17  1  0.38321119  0.33074327  0.08866211  1
  Ni  Ni18  1  0.62899988  0.67335671  0.91546302  1
  Ni  Ni19  1  0.62139553  0.94943986  0.41641922  1
  Ni  Ni20  1  0.33438753  0.36613125  0.41516624  1
  Cu  Cu21  1  0.00368179  0.99131791  0.85071317  1
  Cu  Cu22  1  0.01143262  0.01352667  0.64781724  1
  Cu  Cu23  1  0.00970402  0.00810382  0.14653525  1
  Cu  Cu24  1  0.66441214  0.35603470  0.98389072  1
  Cu  Cu25  1  0.66014899  0.31806625  0.48038811  1
  Cu  Cu26  1  0.34017031  0.65752800  0.02414399  1
  Cu  Cu27  1  0.32889398  0.65222482  0.51782266  1
  Cu  Cu28  1  0.33548255  0.66273731  0.31567478  1
  Cu  Cu29  1  0.32383853  0.65382314  0.81340789  1
  C  C30  1  0.28823716  0.99608465  0.25291760  1
  C  C31  1  0.71632428  0.71430645  0.25166054  1
  C  C32  1  0.70799824  0.00456610  0.74983531  1
  C  C33  1  0.37480277  0.03819403  0.58474572  1
  C  C34  1  0.66897516  0.62529565  0.58477547  1
  C  C35  1  0.66653453  0.04872134  0.08319888  1
  C  C36  1  0.03363843  0.36764699  0.91758340  1
  C  C37  1  0.33903894  0.95888137  0.91789571  1
  C  C38  1  0.04037173  0.67423832  0.41619677  1
  C  C39  1  0.19929612  0.01797095  0.30417290  1
  C  C40  1  0.82231700  0.79752401  0.30396987  1
  C  C41  1  0.96513283  0.18505704  0.31070237  1
  C  C42  1  0.21134122  0.17683427  0.80967274  1
  C  C43  1  0.94838419  0.78212260  0.80540033  1
  C  C44  1  0.81570020  0.03542831  0.80330657  1
  C  C45  1  0.78222521  0.96413532  0.69771398  1
  C  C46  1  0.17283314  0.21774424  0.69258452  1
  C  C47  1  0.03045720  0.82682167  0.68952381  1
  C  C48  1  0.79274032  0.81656215  0.19707337  1
  C  C49  1  0.04180058  0.20721588  0.19552079  1
  C  C50  1  0.18359022  0.96263607  0.19778448  1
  C  C51  1  0.85492592  0.35551563  0.64046241  1
  C  C52  1  0.47938013  0.12363834  0.63713912  1
  C  C53  1  0.64062436  0.52120051  0.63864660  1
  C  C54  1  0.88711222  0.50977064  0.14076133  1
  C  C55  1  0.64018743  0.12632817  0.13576700  1
  C  C56  1  0.49667521  0.35192598  0.14814800  1
  C  C57  1  0.45090078  0.28768171  0.02740688  1
  C  C58  1  0.85634502  0.55458946  0.02274843  1
  C  C59  1  0.69565214  0.15163478  0.02825907  1
  C  C60  1  0.44700589  0.14408070  0.53019286  1
  C  C61  1  0.69131263  0.54401249  0.53136695  1
  C  C62  1  0.85150002  0.30893687  0.52199309  1
  C  C63  1  0.53614683  0.70327274  0.97224801  1
  C  C64  1  0.14246755  0.44988942  0.96963721  1
  C  C65  1  0.30770323  0.84921858  0.97015582  1
  C  C66  1  0.53321910  0.83855438  0.47657764  1
  C  C67  1  0.27726111  0.44473030  0.47069893  1
  C  C68  1  0.14752511  0.70455993  0.47009052  1
  C  C69  1  0.11507422  0.63020858  0.36439729  1
  C  C70  1  0.49704412  0.87300574  0.35863130  1
  C  C71  1  0.37144515  0.48125049  0.35489825  1
  C  C72  1  0.10578225  0.47748743  0.86365143  1
  C  C73  1  0.35830418  0.87820478  0.86324307  1
  C  C74  1  0.51540508  0.64448927  0.85502678  1
  C  C75  1  0.02143094  0.82537776  0.40680577  1
  C  C76  1  0.81475893  0.96854087  0.41105365  1
  C  C77  1  0.16224851  0.17406702  0.40842004  1
  C  C78  1  0.02430894  0.19764389  0.91046839  1
  C  C79  1  0.18246017  0.98215058  0.91357115  1
  C  C80  1  0.82277928  0.85123451  0.91166423  1
  C  C81  1  0.97145809  0.15520374  0.58765415  1
  C  C82  1  0.19527882  0.01570012  0.58664608  1
  C  C83  1  0.82678738  0.80091106  0.58867119  1
  C  C84  1  0.96999425  0.81810316  0.09131448  1
  C  C85  1  0.82152850  0.02458355  0.08827260  1
  C  C86  1  0.18414423  0.16516999  0.08872592  1
  C  C87  1  0.68604477  0.15657044  0.74261719  1
  C  C88  1  0.49275013  0.31118652  0.73949174  1
  C  C89  1  0.82903337  0.51738540  0.74347338  1
  C  C90  1  0.68784100  0.53564981  0.24763283  1
  C  C91  1  0.81160811  0.30647788  0.24126882  1
  C  C92  1  0.45974960  0.15526838  0.24725577  1
  C  C93  1  0.64375146  0.49516385  0.91759377  1
  C  C94  1  0.85464235  0.34178795  0.92336667  1
  C  C95  1  0.50045353  0.13118772  0.92219043  1
  C  C96  1  0.65859259  0.15187736  0.42002537  1
  C  C97  1  0.51604265  0.36355122  0.42509390  1
  C  C98  1  0.86704311  0.51160709  0.42298389  1
  C  C99  1  0.37179721  0.51010289  0.08344557  1
  C  C100  1  0.16227507  0.65951828  0.07587469  1
  C  C101  1  0.50717850  0.87400144  0.07823291  1
  C  C102  1  0.36101173  0.86537098  0.57894879  1
  C  C103  1  0.51023738  0.64519504  0.58026701  1
  C  C104  1  0.15024073  0.51248445  0.57987207  1
  C  C105  1  0.30943100  0.83891940  0.25673575  1
  C  C106  1  0.53580129  0.69655092  0.25370435  1
  C  C107  1  0.17396434  0.48754508  0.25517837  1
  C  C108  1  0.33076425  0.48947768  0.75457364  1
  C  C109  1  0.18172307  0.69942424  0.75647262  1
  C  C110  1  0.53403878  0.84382643  0.75624042  1
