# generated using pymatgen
data_CuNi2C7
_symmetry_space_group_name_H-M   'P 1'
_cell_length_a   3.28303000
_cell_length_b   3.28332240
_cell_length_c   36.81388807
_cell_angle_alpha   90.00653300
_cell_angle_beta   89.99999844
_cell_angle_gamma   119.99705412
_symmetry_Int_Tables_number   1
_chemical_formula_structural   CuNi2C7
_chemical_formula_sum   'Cu1 Ni2 C7'
_cell_volume   343.67155426
_cell_formula_units_Z   1
loop_
 _symmetry_equiv_pos_site_id
 _symmetry_equiv_pos_as_xyz
  1  'x, y, z'
loop_
 _atom_site_type_symbol
 _atom_site_label
 _atom_site_symmetry_multiplicity
 _atom_site_fract_x
 _atom_site_fract_y
 _atom_site_fract_z
 _atom_site_occupancy
  C  C0  1  0.99999300  0.99998500  0.23998000  1
  Ni  Ni1  1  0.33332000  0.66664000  0.10788800  1
  Ni  Ni2  1  0.66679800  0.33359600  0.35381700  1
  Cu  Cu3  1  0.33320300  0.66640400  0.57847700  1
  C  C4  1  0.66660300  0.33320800  0.06199800  1
  C  C5  1  0.66650100  0.33300100  0.53241900  1
  C  C6  1  0.66669100  0.33338400  0.15410500  1
  C  C7  1  0.66656700  0.33313300  0.62452900  1
  C  C8  1  0.33350200  0.66700500  0.39517300  1
  C  C9  1  0.33342300  0.66684600  0.31195500  1
