# generated using pymatgen
data_Cu5Ni2C67
_symmetry_space_group_name_H-M   'P 1'
_cell_length_a   17.89261110
_cell_length_b   8.99529165
_cell_length_c   23.25109569
_cell_angle_alpha   90.00574908
_cell_angle_beta   89.82375893
_cell_angle_gamma   120.18733943
_symmetry_Int_Tables_number   1
_chemical_formula_structural   Cu5Ni2C67
_chemical_formula_sum   'Cu15 Ni6 C201'
_cell_volume   3234.72543040
_cell_formula_units_Z   3
loop_
 _symmetry_equiv_pos_site_id
 _symmetry_equiv_pos_as_xyz
  1  'x, y, z'
loop_
 _atom_site_type_symbol
 _atom_site_label
 _atom_site_symmetry_multiplicity
 _atom_site_fract_x
 _atom_site_fract_y
 _atom_site_fract_z
 _atom_site_occupancy
  C  C0  1  0.65559413  0.35016157  0.58079186  1
  C  C1  1  0.52239022  0.68834576  0.58397929  1
  C  C2  1  0.82107051  0.95149735  0.58205746  1
  C  C3  1  0.15420672  0.95774406  0.08427578  1
  C  C4  1  0.32063241  0.69178350  0.08541254  1
  C  C5  1  0.02236343  0.35795308  0.08742731  1
  C  C6  1  0.00723294  0.99291411  0.49369164  1
  C  C7  1  0.49307050  0.00753346  0.49975710  1
  C  C8  1  0.99462934  0.98012967  0.00265176  1
  C  C9  1  0.50483166  0.00953851  0.99968629  1
  C  C10  1  0.32683523  0.32134218  0.81712941  1
  C  C11  1  0.82736721  0.32924213  0.83200112  1
  C  C12  1  0.32447942  0.32304764  0.33365859  1
  C  C13  1  0.83535507  0.34410406  0.32168261  1
  C  C14  1  0.16339132  0.66429037  0.16038731  1
  C  C15  1  0.67417295  0.67943706  0.17261988  1
  C  C16  1  0.17371787  0.66738497  0.66668596  1
  C  C17  1  0.66466148  0.66364419  0.65425266  1
  C  C18  1  0.00050834  0.99131185  0.35557859  1
  C  C19  1  0.50200670  0.99831804  0.35157389  1
  C  C20  1  0.00273564  0.00514583  0.85162692  1
  C  C21  1  0.50037235  0.99893110  0.85140505  1
  C  C22  1  0.00538784  0.00496244  0.64731492  1
  C  C23  1  0.49288645  0.00243011  0.64484836  1
  C  C24  1  0.99444721  0.98570161  0.14794235  1
  C  C25  1  0.50361528  0.00605105  0.14991974  1
  C  C26  1  0.32956669  0.31968122  0.98457570  1
  C  C27  1  0.83206407  0.34550202  0.97729910  1
  C  C28  1  0.33156097  0.31768623  0.47676291  1
  C  C29  1  0.83322752  0.34867636  0.48230251  1
  C  C30  1  0.67185538  0.67822389  0.01495389  1
  C  C31  1  0.16777547  0.66823409  0.51138998  1
  C  C32  1  0.16509025  0.66202642  0.31904938  1
  C  C33  1  0.67101916  0.67904309  0.31018381  1
  C  C34  1  0.17015732  0.66308237  0.80895630  1
  C  C35  1  0.67243510  0.67861739  0.81550138  1
  Ni  Ni36  1  0.33530517  0.31516390  0.69041602  1
  Ni  Ni37  1  0.82162423  0.32912008  0.67064880  1
  Ni  Ni38  1  0.31915500  0.30997863  0.17624805  1
  Ni  Ni39  1  0.83824271  0.35602962  0.19287401  1
  Ni  Ni40  1  0.16525542  0.66975320  0.02720097  1
  Ni  Ni41  1  0.66609450  0.66331506  0.52607033  1
  Cu  Cu42  1  0.65106967  0.00853054  0.24869789  1
  Cu  Cu43  1  0.85448949  0.70496023  0.25188728  1
  Cu  Cu44  1  0.15081024  0.29276246  0.74886751  1
  Cu  Cu45  1  0.35538556  0.00673476  0.75199058  1
  Cu  Cu46  1  0.47419939  0.33595107  0.58594298  1
  Cu  Cu47  1  0.68735348  0.03980404  0.58476057  1
  Cu  Cu48  1  0.83681889  0.63302940  0.58612510  1
  Cu  Cu49  1  0.97372743  0.61482066  0.08587395  1
  Cu  Cu50  1  0.33807501  0.04235463  0.08505955  1
  Cu  Cu51  1  0.18613826  0.33451659  0.08575428  1
  Cu  Cu52  1  0.81583818  0.67176193  0.91484736  1
  Cu  Cu53  1  0.66531365  0.96124379  0.91695187  1
  Cu  Cu54  1  0.31558351  0.95828253  0.41430406  1
  Cu  Cu55  1  0.16647193  0.37307719  0.41665310  1
  Cu  Cu56  1  0.01693038  0.65979409  0.41667753  1
  C  C57  1  0.14746990  0.00065066  0.25010895  1
  C  C58  1  0.35448227  0.70613542  0.24903004  1
  C  C59  1  0.00303161  0.29173523  0.24964772  1
  C  C60  1  0.49747228  0.29065013  0.25164813  1
  C  C61  1  0.64654120  0.29330780  0.75071962  1
  C  C62  1  0.99741819  0.70547637  0.75147891  1
  C  C63  1  0.50225326  0.71076996  0.75007971  1
  C  C64  1  0.85552127  0.00391555  0.74965542  1
  C  C65  1  0.98096671  0.33778719  0.58572320  1
  C  C66  1  0.18823262  0.03800814  0.58439664  1
  C  C67  1  0.32927167  0.61809418  0.58478679  1
  C  C68  1  0.48030095  0.62295261  0.08448386  1
  C  C69  1  0.83055287  0.04170685  0.08394769  1
  C  C70  1  0.68642060  0.33587910  0.08315647  1
  C  C71  1  0.31263115  0.66519315  0.91758740  1
  C  C72  1  0.02192246  0.37618546  0.91746942  1
  C  C73  1  0.52134421  0.37798284  0.91605082  1
  C  C74  1  0.16730528  0.95803650  0.91672009  1
  C  C75  1  0.81100744  0.95791292  0.41818928  1
  C  C76  1  0.66560375  0.37592418  0.41671273  1
  C  C77  1  0.52195888  0.66740035  0.41756461  1
  C  C78  1  0.10165388  0.01547600  0.30119350  1
  C  C79  1  0.59689805  0.02310694  0.30392236  1
  C  C80  1  0.40826411  0.80405724  0.29976481  1
  C  C81  1  0.91348095  0.81603068  0.30603393  1
  C  C82  1  0.48762119  0.18124306  0.30251962  1
  C  C83  1  0.99898980  0.18741486  0.30006507  1
  C  C84  1  0.09742919  0.17139266  0.80487206  1
  C  C85  1  0.59980049  0.18501141  0.80229294  1
  C  C86  1  0.49839544  0.80974838  0.80139593  1
  C  C87  1  0.98796685  0.79568999  0.80289732  1
  C  C88  1  0.41363548  0.01515653  0.80781564  1
  C  C89  1  0.90790501  0.01124231  0.80090208  1
  C  C90  1  0.39978045  0.96984892  0.69614754  1
  C  C91  1  0.89517035  0.97745016  0.69671093  1
  C  C92  1  0.08583587  0.19665177  0.69428821  1
  C  C93  1  0.59517171  0.20932908  0.69789505  1
  C  C94  1  0.01095104  0.81460754  0.69939350  1
  C  C95  1  0.51618506  0.81466883  0.69722890  1
  C  C96  1  0.39714001  0.81381446  0.19559131  1
  C  C97  1  0.89711596  0.82619984  0.19413074  1
  C  C98  1  0.01386359  0.21152249  0.19534842  1
  C  C99  1  0.51090347  0.20794238  0.19900325  1
  C  C100  1  0.09622877  0.98409708  0.19651837  1
  C  C101  1  0.58629320  0.97471270  0.19309393  1
  C  C102  1  0.43413001  0.38345204  0.63988984  1
  C  C103  1  0.94362404  0.36069811  0.63819659  1
  C  C104  1  0.23730897  0.11552966  0.63599402  1
  C  C105  1  0.74950106  0.10870068  0.64066432  1
  C  C106  1  0.31695090  0.52134089  0.63697487  1
  C  C107  1  0.81735848  0.51952710  0.64340206  1
  C  C108  1  0.44377860  0.52523847  0.13650257  1
  C  C109  1  0.93208287  0.48176111  0.13821796  1
  C  C110  1  0.31917546  0.12198819  0.14080571  1
  C  C111  1  0.81504667  0.10888552  0.13604345  1
  C  C112  1  0.25130316  0.38893144  0.13933362  1
  C  C113  1  0.73678557  0.36432824  0.13472551  1
  C  C114  1  0.23295609  0.29555250  0.02901454  1
  C  C115  1  0.72513309  0.30685179  0.03024682  1
  C  C116  1  0.42524012  0.54153213  0.03176105  1
  C  C117  1  0.91617208  0.52840729  0.02686582  1
  C  C118  1  0.35379594  0.16650418  0.02716594  1
  C  C119  1  0.84203872  0.14431479  0.03130869  1
  C  C120  1  0.22596245  0.14239329  0.53123470  1
  C  C121  1  0.73298971  0.17014761  0.52924902  1
  C  C122  1  0.34262777  0.54045327  0.53224051  1
  C  C123  1  0.85342290  0.54289748  0.52907185  1
  C  C124  1  0.41622089  0.30730435  0.52788362  1
  C  C125  1  0.92603062  0.30744932  0.53364916  1
  C  C126  1  0.27667836  0.69265213  0.96986403  1
  C  C127  1  0.76673406  0.69084449  0.97157184  1
  C  C128  1  0.07185703  0.44604123  0.96979000  1
  C  C129  1  0.57349224  0.45851181  0.96837923  1
  C  C130  1  0.15516120  0.86341069  0.96989038  1
  C  C131  1  0.65012685  0.83621586  0.97250154  1
  C  C132  1  0.27097301  0.84512958  0.47227736  1
  C  C133  1  0.77464656  0.85517736  0.47014141  1
  C  C134  1  0.15213956  0.46349539  0.47335698  1
  C  C135  1  0.65323215  0.44659268  0.46992282  1
  C  C136  1  0.07696124  0.69049769  0.47345549  1
  C  C137  1  0.57172436  0.69708268  0.46993005  1
  C  C138  1  0.06554236  0.63997037  0.36005701  1
  C  C139  1  0.56351985  0.64161732  0.36612130  1
  C  C140  1  0.25530267  0.86704908  0.35828176  1
  C  C141  1  0.75589539  0.86853311  0.36643569  1
  C  C142  1  0.18219551  0.49379801  0.36004429  1
  C  C143  1  0.67474722  0.48249120  0.36555843  1
  C  C144  1  0.06358489  0.48566779  0.86610213  1
  C  C145  1  0.56428915  0.48202810  0.86424579  1
  C  C146  1  0.17671208  0.87100791  0.86551549  1
  C  C147  1  0.67590482  0.86116953  0.86091207  1
  C  C148  1  0.25743748  0.64210868  0.86615934  1
  C  C149  1  0.75387834  0.64310930  0.85932450  1
  C  C150  1  0.00733104  0.83114658  0.41115455  1
  C  C151  1  0.51103478  0.82108641  0.40755604  1
  C  C152  1  0.41189161  0.98070322  0.40794261  1
  C  C153  1  0.89867006  0.98118978  0.40827449  1
  C  C154  1  0.08048026  0.18529098  0.40867436  1
  C  C155  1  0.58824298  0.19916406  0.40817187  1
  C  C156  1  0.01068264  0.20060691  0.90728286  1
  C  C157  1  0.51213137  0.20464063  0.91052283  1
  C  C158  1  0.09047804  0.98165076  0.90846480  1
  C  C159  1  0.58017659  0.98218925  0.91025437  1
  C  C160  1  0.40049043  0.82017466  0.90772577  1
  C  C161  1  0.91074351  0.84287169  0.90868872  1
  C  C162  1  0.48765584  0.16454614  0.59108034  1
  C  C163  1  0.98640402  0.17406781  0.59009924  1
  C  C164  1  0.09870718  0.01831236  0.58911396  1
  C  C165  1  0.59078696  0.02160544  0.59288620  1
  C  C166  1  0.41336697  0.79410022  0.58879200  1
  C  C167  1  0.92052498  0.83096549  0.59169206  1
  C  C168  1  0.48704405  0.79760190  0.08778078  1
  C  C169  1  0.98825846  0.81289699  0.09166142  1
  C  C170  1  0.42167687  0.01083786  0.08940974  1
  C  C171  1  0.91247657  0.03089570  0.08768553  1
  C  C172  1  0.09007892  0.16025475  0.09122008  1
  C  C173  1  0.59780669  0.17698115  0.08829516  1
  C  C174  1  0.34793242  0.17428157  0.75096658  1
  C  C175  1  0.84834997  0.15641545  0.74779211  1
  C  C176  1  0.24567083  0.32295524  0.74299195  1
  C  C177  1  0.73193178  0.31137026  0.74940317  1
  C  C178  1  0.42404864  0.54553325  0.74964020  1
  C  C179  1  0.92295123  0.53543052  0.74694343  1
  C  C180  1  0.35036787  0.54114121  0.24621736  1
  C  C181  1  0.84610045  0.52135061  0.25111599  1
  C  C182  1  0.42275329  0.31109965  0.24605864  1
  C  C183  1  0.92515952  0.30343679  0.24741265  1
  C  C184  1  0.23312819  0.15630050  0.24784030  1
  C  C185  1  0.74595351  0.16806610  0.24227751  1
  C  C186  1  0.32413003  0.51193940  0.92153896  1
  C  C187  1  0.82318375  0.49855424  0.92036580  1
  C  C188  1  0.43533014  0.36280125  0.92193445  1
  C  C189  1  0.93298908  0.35136094  0.92210800  1
  C  C190  1  0.24667809  0.13568879  0.92003648  1
  C  C191  1  0.75266816  0.14505988  0.92519810  1
  C  C192  1  0.32468712  0.14863264  0.42052605  1
  C  C193  1  0.81889018  0.12944380  0.42214929  1
  C  C194  1  0.25272756  0.35801952  0.42569483  1
  C  C195  1  0.74386886  0.35649332  0.41993329  1
  C  C196  1  0.43317064  0.51457130  0.42203404  1
  C  C197  1  0.92273036  0.48510487  0.42257885  1
  C  C198  1  0.17331678  0.49777821  0.07553557  1
  C  C199  1  0.67186844  0.48429246  0.07312072  1
  C  C200  1  0.07272468  0.65260319  0.07812002  1
  C  C201  1  0.56802368  0.64628450  0.07449836  1
  C  C202  1  0.25309977  0.85452825  0.07581852  1
  C  C203  1  0.75552250  0.85930101  0.07543297  1
  C  C204  1  0.17567569  0.86215531  0.57732364  1
  C  C205  1  0.67248411  0.84831765  0.57590066  1
  C  C206  1  0.25597381  0.65191406  0.57750563  1
  C  C207  1  0.75214206  0.65230323  0.57716330  1
  C  C208  1  0.06956475  0.48708720  0.57773762  1
  C  C209  1  0.57323312  0.49477447  0.57804562  1
  C  C210  1  0.15308122  0.84160084  0.25338364  1
  C  C211  1  0.64911591  0.82279620  0.25850742  1
  C  C212  1  0.26883230  0.69386851  0.25275044  1
  C  C213  1  0.75721917  0.68700098  0.25808945  1
  C  C214  1  0.08285444  0.46674010  0.25300269  1
  C  C215  1  0.57874993  0.46008094  0.25845909  1
  C  C216  1  0.14991535  0.47580003  0.75875399  1
  C  C217  1  0.65008360  0.46234812  0.75698001  1
  C  C218  1  0.07898741  0.69871884  0.75905027  1
  C  C219  1  0.58073991  0.69268452  0.75738976  1
  C  C220  1  0.25871565  0.83053176  0.75931368  1
  C  C221  1  0.76817402  0.84244118  0.75527800  1
