# generated using pymatgen
data_Cu3Ni9C62
_symmetry_space_group_name_H-M   'P 1'
_cell_length_a   17.94797777
_cell_length_b   8.94988084
_cell_length_c   23.03561514
_cell_angle_alpha   89.97522663
_cell_angle_beta   89.99620725
_cell_angle_gamma   119.86078398
_symmetry_Int_Tables_number   1
_chemical_formula_structural   Cu3Ni9C62
_chemical_formula_sum   'Cu9 Ni27 C186'
_cell_volume   3209.00721091
_cell_formula_units_Z   3
loop_
 _symmetry_equiv_pos_site_id
 _symmetry_equiv_pos_as_xyz
  1  'x, y, z'
loop_
 _atom_site_type_symbol
 _atom_site_label
 _atom_site_symmetry_multiplicity
 _atom_site_fract_x
 _atom_site_fract_y
 _atom_site_fract_z
 _atom_site_occupancy
  C  C0  1  0.00072434  0.64430858  0.24629433  1
  C  C1  1  0.50139949  0.62744040  0.24852999  1
  C  C2  1  0.00119341  0.37515487  0.74871000  1
  C  C3  1  0.50108018  0.36427883  0.74726368  1
  C  C4  1  0.33427707  0.97566153  0.58611371  1
  C  C5  1  0.83226251  0.69148304  0.08221950  1
  C  C6  1  0.99856340  0.00624841  0.50272666  1
  C  C7  1  0.50374051  0.00135404  0.50297182  1
  C  C8  1  0.00314730  0.00693821  0.99901254  1
  C  C9  1  0.49879914  0.99158054  0.99809859  1
  C  C10  1  0.32986203  0.33787111  0.82978533  1
  C  C11  1  0.82914560  0.33727284  0.83218027  1
  C  C12  1  0.33075513  0.32329742  0.33370964  1
  C  C13  1  0.82513322  0.31957016  0.33314825  1
  C  C14  1  0.17006623  0.67557279  0.16180983  1
  C  C15  1  0.66336805  0.65796270  0.16829061  1
  C  C16  1  0.16506491  0.67118594  0.66978650  1
  C  C17  1  0.66554151  0.66355500  0.66637084  1
  C  C18  1  0.50689213  0.01224311  0.64929168  1
  C  C19  1  0.00535286  0.98964237  0.14527384  1
  C  C20  1  0.33380201  0.32470948  0.69040608  1
  C  C21  1  0.82910308  0.34351857  0.68503613  1
  C  C22  1  0.33017235  0.31542881  0.18440953  1
  C  C23  1  0.82886503  0.34139899  0.18676708  1
  C  C24  1  0.66319290  0.67055252  0.01798018  1
  C  C25  1  0.16547455  0.65638787  0.52074880  1
  C  C26  1  0.17634996  0.67765132  0.31648265  1
  C  C27  1  0.66739661  0.67725495  0.31117870  1
  C  C28  1  0.16837756  0.65809441  0.81077558  1
  C  C29  1  0.67087819  0.67509145  0.81401485  1
  C  C30  1  0.00037558  0.99858222  0.35500954  1
  C  C31  1  0.50410866  0.00923413  0.35589385  1
  C  C32  1  0.00260298  0.99796825  0.85519072  1
  C  C33  1  0.49927092  0.98656353  0.85090894  1
  C  C34  1  0.00650825  0.99936195  0.64144989  1
  C  C35  1  0.50625659  0.01345713  0.14080442  1
  C  C36  1  0.33402442  0.34536900  0.98536077  1
  C  C37  1  0.83200599  0.34331014  0.97397910  1
  C  C38  1  0.33256204  0.32236464  0.47593945  1
  C  C39  1  0.83273606  0.32086931  0.48668658  1
  C  C40  1  0.16886994  0.65409378  0.02217777  1
  C  C41  1  0.66808912  0.68306944  0.52361871  1
  Ni  Ni42  1  0.14764790  0.00218855  0.25228518  1
  Ni  Ni43  1  0.64425807  0.00475791  0.24900145  1
  Ni  Ni44  1  0.85475286  0.71411614  0.24961901  1
  Ni  Ni45  1  0.49917799  0.28711046  0.25003423  1
  Ni  Ni46  1  0.14335396  0.28272889  0.74903787  1
  Ni  Ni47  1  0.64744107  0.29134351  0.75284499  1
  Ni  Ni48  1  0.99912455  0.71059695  0.75008450  1
  Ni  Ni49  1  0.50091941  0.70885162  0.74819232  1
  Ni  Ni50  1  0.35535624  0.99396395  0.74975695  1
  Ni  Ni51  1  0.47922014  0.33558365  0.58250966  1
  Ni  Ni52  1  0.97887840  0.33254144  0.58752775  1
  Ni  Ni53  1  0.19106614  0.04630493  0.58229154  1
  Ni  Ni54  1  0.68584337  0.04497121  0.58589706  1
  Ni  Ni55  1  0.83326692  0.62554947  0.58076535  1
  Ni  Ni56  1  0.47958564  0.62504301  0.08711633  1
  Ni  Ni57  1  0.97899144  0.61608260  0.08245077  1
  Ni  Ni58  1  0.33269451  0.04043582  0.08065127  1
  Ni  Ni59  1  0.18784548  0.33000270  0.08524684  1
  Ni  Ni60  1  0.68959014  0.33681186  0.08068939  1
  Ni  Ni61  1  0.31316649  0.66777165  0.91656853  1
  Ni  Ni62  1  0.81240756  0.67437559  0.91737312  1
  Ni  Ni63  1  0.02254201  0.37765888  0.91618539  1
  Ni  Ni64  1  0.66551151  0.96088636  0.91631263  1
  Ni  Ni65  1  0.31432458  0.95601424  0.41875832  1
  Ni  Ni66  1  0.81128559  0.95898603  0.41664949  1
  Ni  Ni67  1  0.16699742  0.37380662  0.41623926  1
  Ni  Ni68  1  0.52203363  0.66615672  0.41641272  1
  Cu  Cu69  1  0.35750465  0.71662069  0.24992740  1
  Cu  Cu70  1  0.00051953  0.28772544  0.25065212  1
  Cu  Cu71  1  0.85814877  0.99871310  0.74962512  1
  Cu  Cu72  1  0.33394740  0.61990130  0.58229955  1
  Cu  Cu73  1  0.83347773  0.04750875  0.08294011  1
  Cu  Cu74  1  0.51922781  0.37247151  0.91644561  1
  Cu  Cu75  1  0.16850867  0.95764410  0.91740736  1
  Cu  Cu76  1  0.66878908  0.37977394  0.41709269  1
  Cu  Cu77  1  0.01962380  0.66394876  0.41562736  1
  C  C78  1  0.09426192  0.02128832  0.30786583  1
  C  C79  1  0.59422534  0.02508866  0.30624580  1
  C  C80  1  0.41031721  0.79694707  0.30319925  1
  C  C81  1  0.92044304  0.81230936  0.30528535  1
  C  C82  1  0.48684062  0.16206882  0.30676139  1
  C  C83  1  0.98813230  0.17998878  0.30322638  1
  C  C84  1  0.09257362  0.16288486  0.80638924  1
  C  C85  1  0.59517748  0.16673815  0.80853204  1
  C  C86  1  0.48626590  0.80149350  0.80658916  1
  C  C87  1  0.98669464  0.81111885  0.80683540  1
  C  C88  1  0.41953980  0.03078023  0.80628907  1
  C  C89  1  0.91152017  0.02515261  0.80317530  1
  C  C90  1  0.39677251  0.96866115  0.69005858  1
  C  C91  1  0.89628228  0.97190643  0.69771214  1
  C  C92  1  0.07786620  0.18874836  0.69368559  1
  C  C93  1  0.58588042  0.21097223  0.69541510  1
  C  C94  1  0.00942898  0.83478244  0.69393436  1
  C  C95  1  0.51655303  0.82936374  0.69237596  1
  C  C96  1  0.39479807  0.81968577  0.19777825  1
  C  C97  1  0.89862487  0.82831156  0.19129561  1
  C  C98  1  0.01395969  0.21039475  0.19808328  1
  C  C99  1  0.50949176  0.18372182  0.19397780  1
  C  C100  1  0.08446348  0.96365055  0.19593417  1
  C  C101  1  0.57919072  0.96921084  0.19375706  1
  C  C102  1  0.43888759  0.36961077  0.64095626  1
  C  C103  1  0.93562827  0.36143926  0.64440029  1
  C  C104  1  0.25056646  0.13204285  0.63855790  1
  C  C105  1  0.74856935  0.12810171  0.64034193  1
  C  C106  1  0.31932398  0.51673799  0.63508027  1
  C  C107  1  0.81542421  0.50792335  0.63792222  1
  C  C108  1  0.43550985  0.51009979  0.14435382  1
  C  C109  1  0.93895690  0.50728571  0.14267300  1
  C  C110  1  0.31499185  0.12161258  0.13836121  1
  C  C111  1  0.82075989  0.12459842  0.13597434  1
  C  C112  1  0.24776465  0.36797639  0.14117563  1
  C  C113  1  0.74880379  0.36913901  0.13850421  1
  C  C114  1  0.23563607  0.30495673  0.02707449  1
  C  C115  1  0.73647816  0.30301709  0.02608377  1
  C  C116  1  0.41737892  0.52973345  0.02870865  1
  C  C117  1  0.91266390  0.52028230  0.02858312  1
  C  C118  1  0.34832622  0.16761723  0.02451269  1
  C  C119  1  0.84585183  0.15060835  0.03110866  1
  C  C120  1  0.23579640  0.16894882  0.52536259  1
  C  C121  1  0.73583914  0.16459782  0.52707061  1
  C  C122  1  0.34444693  0.53837541  0.53006680  1
  C  C123  1  0.84847728  0.52910385  0.52392091  1
  C  C124  1  0.41363941  0.30799754  0.52747179  1
  C  C125  1  0.91753160  0.30496484  0.52842216  1
  C  C126  1  0.26441561  0.69291617  0.97353197  1
  C  C127  1  0.77159677  0.69978133  0.97694731  1
  C  C128  1  0.08457152  0.47487238  0.97254624  1
  C  C129  1  0.57343159  0.45562564  0.96847230  1
  C  C130  1  0.15256028  0.85128259  0.96935503  1
  C  C131  1  0.64973911  0.83968288  0.97289278  1
  C  C132  1  0.27047837  0.84104177  0.47578399  1
  C  C133  1  0.76606648  0.83594107  0.47318139  1
  C  C134  1  0.14824979  0.46035083  0.47186968  1
  C  C135  1  0.65253103  0.45297047  0.46902446  1
  C  C136  1  0.07389593  0.69442667  0.46757765  1
  C  C137  1  0.58525531  0.69570756  0.47197051  1
  C  C138  1  0.05948675  0.63996758  0.36264367  1
  C  C139  1  0.56090503  0.63082507  0.35792405  1
  C  C140  1  0.25434014  0.87336491  0.36119625  1
  C  C141  1  0.75292761  0.87193873  0.36001662  1
  C  C142  1  0.17903286  0.49094450  0.35892128  1
  C  C143  1  0.68056383  0.47970421  0.36408101  1
  C  C144  1  0.06062858  0.49155300  0.85810824  1
  C  C145  1  0.55822089  0.47950941  0.86395671  1
  C  C146  1  0.18054307  0.88119100  0.86443617  1
  C  C147  1  0.68183653  0.87156686  0.86023760  1
  C  C148  1  0.25206940  0.63285222  0.86104870  1
  C  C149  1  0.75290940  0.63626279  0.86087739  1
  C  C150  1  0.01188457  0.82315964  0.40958449  1
  C  C151  1  0.51178486  0.83938758  0.40674668  1
  C  C152  1  0.40977393  0.97982014  0.40684604  1
  C  C153  1  0.90822815  0.98044289  0.40651683  1
  C  C154  1  0.08122627  0.18136034  0.40575823  1
  C  C155  1  0.58967004  0.20122120  0.41034867  1
  C  C156  1  0.01177174  0.18374627  0.90785286  1
  C  C157  1  0.51096310  0.20178713  0.91128583  1
  C  C158  1  0.08937573  0.97756409  0.91083790  1
  C  C159  1  0.58138968  0.98556178  0.90911550  1
  C  C160  1  0.40808924  0.84019294  0.91040687  1
  C  C161  1  0.90973682  0.83991493  0.90753837  1
  C  C162  1  0.48099633  0.15474518  0.58513366  1
  C  C163  1  0.98557464  0.15728254  0.59180227  1
  C  C164  1  0.09460816  0.02513569  0.58900363  1
  C  C165  1  0.59106020  0.02093070  0.58544167  1
  C  C166  1  0.40875732  0.79545561  0.58666446  1
  C  C167  1  0.91782161  0.81541709  0.59099374  1
  C  C168  1  0.48555208  0.81324074  0.09279209  1
  C  C169  1  0.98149888  0.80391999  0.08719435  1
  C  C170  1  0.41745508  0.02008738  0.09191424  1
  C  C171  1  0.91010166  0.02396447  0.08925250  1
  C  C172  1  0.09112303  0.16632586  0.08872295  1
  C  C173  1  0.59469585  0.16442242  0.08917160  1
  C  C174  1  0.35207320  0.17422180  0.74626332  1
  C  C175  1  0.85083200  0.15587701  0.74612212  1
  C  C176  1  0.23750096  0.30589393  0.74378157  1
  C  C177  1  0.74004709  0.30332769  0.74763227  1
  C  C178  1  0.41638556  0.51841809  0.74564337  1
  C  C179  1  0.91670523  0.51653512  0.74594407  1
  C  C180  1  0.34939752  0.54420187  0.24617384  1
  C  C181  1  0.85473806  0.52866001  0.24625253  1
  C  C182  1  0.41662213  0.31685171  0.24596767  1
  C  C183  1  0.92347487  0.30698381  0.24604002  1
  C  C184  1  0.23981715  0.17358213  0.24786897  1
  C  C185  1  0.74042991  0.16910809  0.24383205  1
  C  C186  1  0.32388948  0.49383662  0.92659465  1
  C  C187  1  0.82403808  0.50230095  0.92413981  1
  C  C188  1  0.43291290  0.35696771  0.92372286  1
  C  C189  1  0.92644862  0.34956128  0.92989725  1
  C  C190  1  0.24432403  0.13303555  0.92419802  1
  C  C191  1  0.75243604  0.14859576  0.92693380  1
  C  C192  1  0.32379271  0.14786078  0.42373554  1
  C  C193  1  0.82488310  0.15649134  0.42534139  1
  C  C194  1  0.25219233  0.35628621  0.42536562  1
  C  C195  1  0.74456002  0.35528171  0.42332582  1
  C  C196  1  0.42565932  0.50317590  0.42890851  1
  C  C197  1  0.93345147  0.51276770  0.42168334  1
  C  C198  1  0.17927408  0.50316858  0.07520959  1
  C  C199  1  0.68236865  0.50955416  0.07544429  1
  C  C200  1  0.07558405  0.64833220  0.07238176  1
  C  C201  1  0.57332119  0.64506981  0.07648772  1
  C  C202  1  0.24748020  0.85260067  0.07096898  1
  C  C203  1  0.75699452  0.86998233  0.07784406  1
  C  C204  1  0.18169370  0.85673326  0.57406013  1
  C  C205  1  0.67958849  0.85661120  0.57501800  1
  C  C206  1  0.25609235  0.64276212  0.57664011  1
  C  C207  1  0.74791677  0.64212816  0.57001379  1
  C  C208  1  0.07226573  0.50029804  0.57561808  1
  C  C209  1  0.57511329  0.50169114  0.57046968  1
  C  C210  1  0.14783234  0.81810660  0.25845714  1
  C  C211  1  0.64757653  0.82665930  0.25466989  1
  C  C212  1  0.26969456  0.69571264  0.25649745  1
  C  C213  1  0.75999226  0.68514205  0.25776338  1
  C  C214  1  0.07612978  0.46367958  0.25786445  1
  C  C215  1  0.58387886  0.47576238  0.25611644  1
  C  C216  1  0.14625450  0.46723791  0.75457413  1
  C  C217  1  0.65175544  0.47766976  0.75918138  1
  C  C218  1  0.08399501  0.69215735  0.75618771  1
  C  C219  1  0.58354409  0.68172248  0.75807760  1
  C  C220  1  0.26001483  0.83189852  0.75800237  1
  C  C221  1  0.77131916  0.84485446  0.75620740  1
