# generated using pymatgen
data_Cu(NiC8)2
_symmetry_space_group_name_H-M   'P 1'
_cell_length_a   9.02411090
_cell_length_b   9.03226158
_cell_length_c   23.09394729
_cell_angle_alpha   89.56700613
_cell_angle_beta   90.53539800
_cell_angle_gamma   119.79226489
_symmetry_Int_Tables_number   1
_chemical_formula_structural   Cu(NiC8)2
_chemical_formula_sum   'Cu6 Ni12 C96'
_cell_volume   1633.47924062
_cell_formula_units_Z   6
loop_
 _symmetry_equiv_pos_site_id
 _symmetry_equiv_pos_as_xyz
  1  'x, y, z'
loop_
 _atom_site_type_symbol
 _atom_site_label
 _atom_site_symmetry_multiplicity
 _atom_site_fract_x
 _atom_site_fract_y
 _atom_site_fract_z
 _atom_site_occupancy
  C  C0  1  0.99310978  0.62666378  0.25209683  1
  C  C1  1  0.37324240  0.00582635  0.75373781  1
  C  C2  1  0.65951427  0.95994672  0.58563112  1
  C  C3  1  0.04169504  0.34018725  0.08588011  1
  C  C4  1  0.32731474  0.29331312  0.91985298  1
  C  C5  1  0.70775635  0.67324110  0.42000057  1
  C  C6  1  0.01058615  0.98908002  0.50058857  1
  C  C7  1  0.00978173  0.98987729  0.99965348  1
  C  C8  1  0.67829452  0.32379306  0.83445511  1
  C  C9  1  0.67648530  0.32324584  0.33302801  1
  C  C10  1  0.34251065  0.65682462  0.16634579  1
  C  C11  1  0.34202954  0.65672271  0.66719575  1
  C  C12  1  0.98371626  0.99532327  0.35232739  1
  C  C13  1  0.99944118  0.00069929  0.64801557  1
  C  C14  1  0.00171136  0.99900425  0.14596753  1
  C  C15  1  0.64961298  0.32837312  0.68634055  1
  C  C16  1  0.66748550  0.33292674  0.48066147  1
  C  C17  1  0.33289218  0.66585910  0.31332659  1
  Ni  Ni18  1  0.70287267  0.70570271  0.24887369  1
  Ni  Ni19  1  0.99430449  0.29195243  0.24671711  1
  Ni  Ni20  1  0.28944946  0.29920150  0.75191192  1
  Ni  Ni21  1  0.70608662  0.99669520  0.75114097  1
  Ni  Ni22  1  0.36821319  0.03825134  0.58275143  1
  Ni  Ni23  1  0.66201438  0.62672171  0.58078875  1
  Ni  Ni24  1  0.95633324  0.62533163  0.08167331  1
  Ni  Ni25  1  0.38056950  0.33826920  0.08029456  1
  Ni  Ni26  1  0.03695258  0.37616529  0.91648105  1
  Ni  Ni27  1  0.33265768  0.95663287  0.91552650  1
  Ni  Ni28  1  0.62302719  0.96171817  0.41710497  1
  Ni  Ni29  1  0.04298850  0.66798766  0.41624589  1
  C  C30  1  0.00790706  0.01687306  0.85285099  1
  C  C31  1  0.67368585  0.35123022  0.18446197  1
  C  C32  1  0.66716078  0.33057965  0.98026716  1
  C  C33  1  0.31624452  0.65926630  0.01833315  1
  C  C34  1  0.34023705  0.68334891  0.51873209  1
  C  C35  1  0.33367547  0.66686141  0.81546042  1
  Cu  Cu36  1  0.29627170  0.00603292  0.25010586  1
  Cu  Cu37  1  0.99812780  0.70829092  0.75194195  1
  Cu  Cu38  1  0.96305814  0.33905498  0.58379346  1
  Cu  Cu39  1  0.66110771  0.03915200  0.08365142  1
  Cu  Cu40  1  0.62786800  0.67042173  0.91753525  1
  Cu  Cu41  1  0.32968663  0.37483531  0.41813207  1
  C  C42  1  0.21799708  0.03007459  0.30183556  1
  C  C43  1  0.82451409  0.78723371  0.30705025  1
  C  C44  1  0.97604045  0.17606583  0.30371178  1
  C  C45  1  0.22086435  0.17496687  0.80954499  1
  C  C46  1  0.97121383  0.78477760  0.80412826  1
  C  C47  1  0.82261831  0.01978293  0.80843571  1
  C  C48  1  0.78898957  0.96804036  0.69231559  1
  C  C49  1  0.17092306  0.20015963  0.69589070  1
  C  C50  1  0.02644321  0.81713422  0.69980156  1
  C  C51  1  0.80552663  0.82572316  0.19391763  1
  C  C52  1  0.02436914  0.20751247  0.18896681  1
  C  C53  1  0.18759683  0.97620387  0.19788952  1
  C  C54  1  0.88363670  0.36284299  0.63548391  1
  C  C55  1  0.49130053  0.12155579  0.64057376  1
  C  C56  1  0.64330002  0.50886510  0.63732195  1
  C  C57  1  0.88665332  0.50526339  0.14064662  1
  C  C58  1  0.63350940  0.11587269  0.13568198  1
  C  C59  1  0.49206076  0.35977386  0.13907951  1
  C  C60  1  0.45828525  0.30309981  0.02146872  1
  C  C61  1  0.83684326  0.53199948  0.02555457  1
  C  C62  1  0.69585155  0.14780099  0.03108202  1
  C  C63  1  0.46945026  0.15774492  0.52752787  1
  C  C64  1  0.69185992  0.54318386  0.52274538  1
  C  C65  1  0.85453064  0.30914421  0.53149879  1
  C  C66  1  0.55056173  0.69814160  0.96944079  1
  C  C67  1  0.15927288  0.44670396  0.97480019  1
  C  C68  1  0.31025511  0.84298643  0.97334362  1
  C  C69  1  0.55381494  0.83992384  0.47545221  1
  C  C70  1  0.30324649  0.45138096  0.47034000  1
  C  C71  1  0.15677540  0.68871395  0.47431181  1
  C  C72  1  0.12653013  0.63903179  0.35782110  1
  C  C73  1  0.50456432  0.86139279  0.36151643  1
  C  C74  1  0.35886663  0.48336931  0.36597301  1
  C  C75  1  0.12965400  0.49512529  0.85999343  1
  C  C76  1  0.36572469  0.87908172  0.85614821  1
  C  C77  1  0.51886306  0.63731569  0.86477999  1
  C  C78  1  0.02452480  0.83965859  0.41141680  1
  C  C79  1  0.81136442  0.97419269  0.41169639  1
  C  C80  1  0.18286070  0.20364507  0.41069888  1
  C  C81  1  0.02643973  0.18775971  0.91278569  1
  C  C82  1  0.15848029  0.97554477  0.91044368  1
  C  C83  1  0.79999437  0.81960987  0.91070333  1
  C  C84  1  0.97248470  0.17884018  0.58849240  1
  C  C85  1  0.18094830  0.01908908  0.58926926  1
  C  C86  1  0.82354159  0.82224721  0.58805349  1
  C  C87  1  0.97761680  0.81401945  0.08804243  1
  C  C88  1  0.82011811  0.02786450  0.08895770  1
  C  C89  1  0.18442242  0.17672399  0.08734073  1
  C  C90  1  0.68637232  0.16780410  0.74510714  1
  C  C91  1  0.47753053  0.31117300  0.74522893  1
  C  C92  1  0.85098508  0.53702507  0.74428881  1
  C  C93  1  0.69421621  0.51869215  0.24637853  1
  C  C94  1  0.81843474  0.30689269  0.24280410  1
  C  C95  1  0.46850918  0.15493938  0.24285978  1
  C  C96  1  0.63747058  0.51012812  0.92189534  1
  C  C97  1  0.84730604  0.35632541  0.92232617  1
  C  C98  1  0.49556076  0.15497289  0.92160262  1
  C  C99  1  0.64412081  0.14975540  0.42207929  1
  C  C100  1  0.49004091  0.36550560  0.42235789  1
  C  C101  1  0.84712589  0.50517896  0.42155068  1
  C  C102  1  0.36248388  0.51289475  0.07581886  1
  C  C103  1  0.14601181  0.63771941  0.07880271  1
  C  C104  1  0.51196072  0.86695322  0.07644935  1
  C  C105  1  0.36076745  0.85211273  0.58027566  1
  C  C106  1  0.48583016  0.64062105  0.57703741  1
  C  C107  1  0.13486196  0.48723439  0.57684854  1
  C  C108  1  0.30635302  0.84620068  0.25465723  1
  C  C109  1  0.51514719  0.68552471  0.25475321  1
  C  C110  1  0.15580916  0.48750655  0.25379711  1
  C  C111  1  0.30816923  0.48732113  0.75737527  1
  C  C112  1  0.15967141  0.70035850  0.75557075  1
  C  C113  1  0.50817703  0.83259062  0.75627841  1
