# generated using pymatgen
data_CuNi5C31
_symmetry_space_group_name_H-M   'P 1'
_cell_length_a   8.51995224
_cell_length_b   8.50190539
_cell_length_c   21.90309924
_cell_angle_alpha   89.60137499
_cell_angle_beta   90.46572517
_cell_angle_gamma   119.88508278
_symmetry_Int_Tables_number   1
_chemical_formula_structural   CuNi5C31
_chemical_formula_sum   'Cu3 Ni15 C93'
_cell_volume   1375.54430545
_cell_formula_units_Z   3
loop_
 _symmetry_equiv_pos_site_id
 _symmetry_equiv_pos_as_xyz
  1  'x, y, z'
loop_
 _atom_site_type_symbol
 _atom_site_label
 _atom_site_symmetry_multiplicity
 _atom_site_fract_x
 _atom_site_fract_y
 _atom_site_fract_z
 _atom_site_occupancy
  C  C0  1  0.99226884  0.36588304  0.74705926  1
  C  C1  1  0.30916246  0.97355143  0.08539379  1
  C  C2  1  0.32678214  0.03333658  0.41302749  1
  C  C3  1  0.98909445  0.99894963  0.49789498  1
  C  C4  1  0.99216754  0.00050107  0.99875702  1
  C  C5  1  0.65795760  0.33314099  0.83117323  1
  C  C6  1  0.66999830  0.33599433  0.32916250  1
  C  C7  1  0.33365829  0.66004163  0.16682336  1
  C  C8  1  0.34156374  0.66945737  0.66566988  1
  C  C9  1  0.99785915  0.99975172  0.35478584  1
  C  C10  1  0.66601059  0.34102562  0.68610681  1
  C  C11  1  0.66190414  0.32829730  0.18209177  1
  C  C12  1  0.00107022  0.99990615  0.85460099  1
  C  C13  1  0.98884388  0.99712332  0.64834228  1
  C  C14  1  0.00018390  0.99744498  0.14717733  1
  C  C15  1  0.66832276  0.33443284  0.98046252  1
  C  C16  1  0.68038110  0.34527223  0.48082499  1
  C  C17  1  0.33426887  0.66374568  0.01703682  1
  C  C18  1  0.33435709  0.65935329  0.51894277  1
  C  C19  1  0.33207708  0.67272202  0.31572952  1
  C  C20  1  0.33701074  0.66966248  0.81395131  1
  Ni  Ni21  1  0.29280126  0.99872830  0.25226107  1
  Ni  Ni22  1  0.28635522  0.28441082  0.75192855  1
  Ni  Ni23  1  0.00487727  0.72071601  0.75199805  1
  Ni  Ni24  1  0.70781883  0.99225178  0.75222254  1
  Ni  Ni25  1  0.96182810  0.33481452  0.58420388  1
  Ni  Ni26  1  0.66668521  0.62650350  0.58319873  1
  Ni  Ni27  1  0.95617907  0.61987858  0.08289685  1
  Ni  Ni28  1  0.66966864  0.04018178  0.08232910  1
  Ni  Ni29  1  0.37631825  0.33929963  0.08259708  1
  Ni  Ni30  1  0.62187245  0.66611277  0.91650981  1
  Ni  Ni31  1  0.04332237  0.37778688  0.91592786  1
  Ni  Ni32  1  0.33491635  0.95687843  0.91657648  1
  Ni  Ni33  1  0.62164237  0.95531438  0.41949331  1
  Ni  Ni34  1  0.33879134  0.38474610  0.41730658  1
  Ni  Ni35  1  0.04463322  0.65928343  0.41835790  1
  Cu  Cu36  1  0.70660952  0.70917665  0.25120557  1
  Cu  Cu37  1  0.00326688  0.29333889  0.25089523  1
  Cu  Cu38  1  0.37284421  0.03906044  0.58277989  1
  C  C39  1  0.20921499  0.02277422  0.30937489  1
  C  C40  1  0.81306859  0.79090216  0.30574833  1
  C  C41  1  0.97556091  0.18577493  0.30555660  1
  C  C42  1  0.19760793  0.16933935  0.80988411  1
  C  C43  1  0.97232176  0.80463047  0.80937220  1
  C  C44  1  0.83438416  0.03299434  0.80867424  1
  C  C45  1  0.78696443  0.95445636  0.69346210  1
  C  C46  1  0.15880103  0.20574408  0.69404532  1
  C  C47  1  0.04224383  0.83854909  0.69300358  1
  C  C48  1  0.78452789  0.82652203  0.19342036  1
  C  C49  1  0.03760660  0.21254078  0.19344370  1
  C  C50  1  0.17137177  0.96093576  0.19139271  1
  C  C51  1  0.89124698  0.36991024  0.64243108  1
  C  C52  1  0.48300333  0.11353419  0.63704458  1
  C  C53  1  0.62433067  0.51375136  0.63978169  1
  C  C54  1  0.88764998  0.51186008  0.14021871  1
  C  C55  1  0.61785035  0.10561223  0.13811681  1
  C  C56  1  0.48448119  0.37713037  0.14003705  1
  C  C57  1  0.45495501  0.28900034  0.02569723  1
  C  C58  1  0.83652698  0.54157657  0.02436891  1
  C  C59  1  0.70766235  0.16162025  0.02417149  1
  C  C60  1  0.45087011  0.15193680  0.52517914  1
  C  C61  1  0.70436304  0.54443263  0.52468033  1
  C  C62  1  0.83663777  0.29432695  0.52653960  1
  C  C63  1  0.54017431  0.70457038  0.97326017  1
  C  C64  1  0.16526634  0.46181006  0.97257576  1
  C  C65  1  0.29810314  0.83976279  0.97521693  1
  C  C66  1  0.53052217  0.83707561  0.47612961  1
  C  C67  1  0.30449855  0.46648037  0.47458810  1
  C  C68  1  0.17034105  0.69898501  0.47469508  1
  C  C69  1  0.12449499  0.62163520  0.35989309  1
  C  C70  1  0.49514471  0.87831641  0.36129272  1
  C  C71  1  0.37691273  0.50554655  0.35904525  1
  C  C72  1  0.12367322  0.49485114  0.85721940  1
  C  C73  1  0.37155514  0.87226567  0.86010886  1
  C  C74  1  0.50082450  0.62719615  0.85909300  1
  C  C75  1  0.02568193  0.82661512  0.41468295  1
  C  C76  1  0.80526910  0.97510361  0.41392585  1
  C  C77  1  0.17602054  0.19586161  0.41372535  1
  C  C78  1  0.02500249  0.18733059  0.91008995  1
  C  C79  1  0.16256349  0.97428654  0.91039072  1
  C  C80  1  0.81185002  0.83709319  0.90979843  1
  C  C81  1  0.98213629  0.16091987  0.58874819  1
  C  C82  1  0.18939892  0.02221679  0.58727315  1
  C  C83  1  0.84159746  0.81842529  0.58857990  1
  C  C84  1  0.98214428  0.81793679  0.08821514  1
  C  C85  1  0.84127401  0.02073612  0.09029275  1
  C  C86  1  0.18337405  0.16231420  0.08858339  1
  C  C87  1  0.69129396  0.16094427  0.74665344  1
  C  C88  1  0.47001154  0.30349534  0.74723023  1
  C  C89  1  0.84324737  0.53072526  0.74849550  1
  C  C90  1  0.68724692  0.53037422  0.24409004  1
  C  C91  1  0.84730561  0.31874770  0.24359185  1
  C  C92  1  0.47967314  0.16117402  0.24502505  1
  C  C93  1  0.63895118  0.49346584  0.92417675  1
  C  C94  1  0.85446723  0.36060251  0.92340762  1
  C  C95  1  0.50599578  0.14656297  0.92397748  1
  C  C96  1  0.62900321  0.14379710  0.42606837  1
  C  C97  1  0.51247953  0.36476410  0.42462565  1
  C  C98  1  0.85699013  0.48429968  0.42371387  1
  C  C99  1  0.35138008  0.50554762  0.07198652  1
  C  C100  1  0.15295980  0.65275454  0.07254551  1
  C  C101  1  0.49760470  0.84885082  0.07162777  1
  C  C102  1  0.35183814  0.85388765  0.57505574  1
  C  C103  1  0.49872979  0.65255909  0.57380013  1
  C  C104  1  0.15176521  0.50558719  0.57386963  1
  C  C105  1  0.30262905  0.81610678  0.25571884  1
  C  C106  1  0.52180011  0.69594753  0.25476487  1
  C  C107  1  0.17712848  0.47615252  0.25472112  1
  C  C108  1  0.29478694  0.47421081  0.75783254  1
  C  C109  1  0.18010037  0.70219425  0.75771729  1
  C  C110  1  0.52086321  0.81728095  0.75853273  1
