# generated using pymatgen
data_Cu2Ni2C13
_symmetry_space_group_name_H-M   'P 1'
_cell_length_a   5.76325631
_cell_length_b   8.85352955
_cell_length_c   5.20686331
_cell_angle_alpha   113.16759673
_cell_angle_beta   96.79631689
_cell_angle_gamma   102.11707888
_symmetry_Int_Tables_number   1
_chemical_formula_structural   Cu2Ni2C13
_chemical_formula_sum   'Cu2 Ni2 C13'
_cell_volume   232.77156426
_cell_formula_units_Z   1
loop_
 _symmetry_equiv_pos_site_id
 _symmetry_equiv_pos_as_xyz
  1  'x, y, z'
loop_
 _atom_site_type_symbol
 _atom_site_label
 _atom_site_symmetry_multiplicity
 _atom_site_fract_x
 _atom_site_fract_y
 _atom_site_fract_z
 _atom_site_occupancy
  C  C0  1  0.41303026  0.85403933  0.76816475  1
  Ni  Ni1  1  0.96798164  0.48513884  0.98440384  1
  Ni  Ni2  1  0.01527216  0.03036193  0.03500562  1
  Cu  Cu3  1  0.36722245  0.19893282  0.67531574  1
  Cu  Cu4  1  0.60973505  0.75292224  0.30410360  1
  C  C5  1  0.13245768  0.41327825  0.38660939  1
  C  C6  1  0.95340037  0.72732253  0.64797435  1
  C  C7  1  0.07652035  0.79444527  0.83351845  1
  C  C8  1  0.20681260  0.31970543  0.71885987  1
  C  C9  1  0.35202796  0.67348344  0.33987688  1
  C  C10  1  0.29920819  0.05955867  0.35674048  1
  C  C11  1  0.31878221  0.09043579  0.85744596  1
  C  C12  1  0.60154813  0.79614355  0.04566115  1
  C  C13  1  0.70998029  0.91693966  0.59816161  1
  C  C14  1  0.64096817  0.28693579  0.75346273  1
  C  C15  1  0.77860366  0.63461113  0.29489845  1
  C  C16  1  0.99097283  0.35741233  0.22479712  1
