# generated using pymatgen
data_Cu(NiC7)5
_symmetry_space_group_name_H-M   'P 1'
_cell_length_a   8.84871073
_cell_length_b   8.84044278
_cell_length_c   21.56944404
_cell_angle_alpha   90.18765711
_cell_angle_beta   89.92200876
_cell_angle_gamma   119.99141346
_symmetry_Int_Tables_number   1
_chemical_formula_structural   Cu(NiC7)5
_chemical_formula_sum   'Cu3 Ni15 C105'
_cell_volume   1461.36538895
_cell_formula_units_Z   3
loop_
 _symmetry_equiv_pos_site_id
 _symmetry_equiv_pos_as_xyz
  1  'x, y, z'
loop_
 _atom_site_type_symbol
 _atom_site_label
 _atom_site_symmetry_multiplicity
 _atom_site_fract_x
 _atom_site_fract_y
 _atom_site_fract_z
 _atom_site_occupancy
  C  C0  1  0.63587339  0.99162733  0.25126183  1
  C  C1  1  0.00173693  0.63383447  0.25448622  1
  C  C2  1  0.63275355  0.64225956  0.74794243  1
  C  C3  1  0.00967066  0.36814651  0.75132593  1
  C  C4  1  0.36211906  0.99211736  0.75118950  1
  C  C5  1  0.28698787  0.33302899  0.58605023  1
  C  C6  1  0.04719709  0.71455737  0.58354450  1
  C  C7  1  0.66981646  0.95293505  0.58363916  1
  C  C8  1  0.28727494  0.95345965  0.08092319  1
  C  C9  1  0.66683456  0.71201567  0.08628998  1
  C  C10  1  0.04752616  0.33183803  0.08430364  1
  C  C11  1  0.98756206  0.66799079  0.91671356  1
  C  C12  1  0.32899300  0.31177429  0.92084839  1
  C  C13  1  0.97663888  0.31781956  0.41475388  1
  C  C14  1  0.68764848  0.67064745  0.41987762  1
  C  C15  1  0.01057651  0.99543859  0.50118050  1
  C  C16  1  0.99398976  0.00703877  0.00063691  1
  C  C17  1  0.66866799  0.31244142  0.83549748  1
  C  C18  1  0.65135416  0.32546300  0.33411447  1
  C  C19  1  0.33428857  0.64239008  0.16941257  1
  C  C20  1  0.33464401  0.66815654  0.66705761  1
  C  C21  1  0.98810188  0.99169664  0.34801605  1
  C  C22  1  0.00546865  0.00897033  0.84672912  1
  C  C23  1  0.66766320  0.33375781  0.68644673  1
  C  C24  1  0.67087970  0.33935898  0.18533560  1
  C  C25  1  0.66663504  0.32141525  0.98388890  1
  C  C26  1  0.67029920  0.32935825  0.48350719  1
  C  C27  1  0.99995620  0.00185905  0.64986658  1
  C  C28  1  0.99413499  0.00287118  0.14912154  1
  C  C29  1  0.32314255  0.66529335  0.01594430  1
  C  C30  1  0.33489777  0.68461673  0.51551429  1
  C  C31  1  0.33267806  0.66214092  0.32147053  1
  C  C32  1  0.32586445  0.67152921  0.82142620  1
  Ni  Ni33  1  0.70113125  0.69657476  0.24846649  1
  Ni  Ni34  1  0.99847335  0.29427994  0.24906608  1
  Ni  Ni35  1  0.30046376  0.29597595  0.74915028  1
  Ni  Ni36  1  0.99424692  0.70459878  0.74887876  1
  Ni  Ni37  1  0.70953545  0.00355038  0.74789421  1
  Ni  Ni38  1  0.95304231  0.33630085  0.58374590  1
  Ni  Ni39  1  0.38846983  0.05372576  0.58449604  1
  Ni  Ni40  1  0.66380448  0.61266064  0.58269855  1
  Ni  Ni41  1  0.94952961  0.61472628  0.08305133  1
  Ni  Ni42  1  0.66286497  0.04757781  0.08616219  1
  Ni  Ni43  1  0.38901203  0.33545534  0.08267802  1
  Ni  Ni44  1  0.02200532  0.35411741  0.91667193  1
  Ni  Ni45  1  0.33344202  0.97568807  0.91610808  1
  Ni  Ni46  1  0.63838168  0.97368844  0.41538667  1
  Ni  Ni47  1  0.02694976  0.67126415  0.41678666  1
  Cu  Cu48  1  0.29316978  0.00937217  0.24925066  1
  Cu  Cu49  1  0.64207326  0.67195978  0.91659732  1
  Cu  Cu50  1  0.33116874  0.35404911  0.41738269  1
  C  C51  1  0.19534237  0.02253394  0.30256680  1
  C  C52  1  0.82519663  0.79352927  0.30452845  1
  C  C53  1  0.97595828  0.17188600  0.30463685  1
  C  C54  1  0.20616628  0.17458792  0.80525345  1
  C  C55  1  0.97171552  0.80099955  0.80586117  1
  C  C56  1  0.83792985  0.03028185  0.80110926  1
  C  C57  1  0.77523752  0.96787839  0.68669334  1
  C  C58  1  0.19171450  0.22436028  0.68988082  1
  C  C59  1  0.02636469  0.81044359  0.68936457  1
  C  C60  1  0.77937951  0.80376945  0.18908397  1
  C  C61  1  0.02354798  0.22125851  0.18800148  1
  C  C62  1  0.19746414  0.98365669  0.19039206  1
  C  C63  1  0.86044929  0.35177665  0.64260397  1
  C  C64  1  0.49101901  0.13980100  0.64494169  1
  C  C65  1  0.64858128  0.50690392  0.64213137  1
  C  C66  1  0.86265850  0.50825958  0.14254164  1
  C  C67  1  0.64654927  0.13586409  0.14634401  1
  C  C68  1  0.50054349  0.35079424  0.13963893  1
  C  C69  1  0.47975256  0.32459548  0.02252865  1
  C  C70  1  0.84004790  0.52213849  0.02461836  1
  C  C71  1  0.67911569  0.15933782  0.02958443  1
  C  C72  1  0.48630749  0.16391080  0.52797331  1
  C  C73  1  0.67546330  0.51801062  0.52391836  1
  C  C74  1  0.84923181  0.32431245  0.52458002  1
  C  C75  1  0.56395517  0.69531196  0.97378098  1
  C  C76  1  0.14405946  0.43084681  0.97375921  1
  C  C77  1  0.29237221  0.85646453  0.97331632  1
  C  C78  1  0.56458201  0.85241827  0.47241715  1
  C  C79  1  0.29377979  0.42596909  0.47411083  1
  C  C80  1  0.13290075  0.70008911  0.47635518  1
  C  C81  1  0.10666469  0.62795984  0.36078047  1
  C  C82  1  0.52892307  0.89319929  0.35708877  1
  C  C83  1  0.37111953  0.47344451  0.36456646  1
  C  C84  1  0.10033234  0.47487615  0.86001230  1
  C  C85  1  0.36549622  0.89825541  0.85763796  1
  C  C86  1  0.53094378  0.64058889  0.86196870  1
  C  C87  1  0.00380773  0.83330032  0.40647594  1
  C  C88  1  0.82738318  0.99798395  0.40705452  1
  C  C89  1  0.17248434  0.18018846  0.40634923  1
  C  C90  1  0.00581051  0.17256040  0.90574764  1
  C  C91  1  0.16531553  0.99354197  0.90800905  1
  C  C92  1  0.82104429  0.82727393  0.90955449  1
  C  C93  1  0.96971225  0.17022629  0.58322063  1
  C  C94  1  0.20469952  0.03388020  0.58398560  1
  C  C95  1  0.82981660  0.79515794  0.58207705  1
  C  C96  1  0.96974547  0.79901067  0.08374727  1
  C  C97  1  0.82815528  0.02947993  0.08482442  1
  C  C98  1  0.20588894  0.16924307  0.08312448  1
  C  C99  1  0.69703847  0.17483945  0.74564021  1
  C  C100  1  0.48292863  0.30753814  0.74575055  1
  C  C101  1  0.82364899  0.52083793  0.74614149  1
  C  C102  1  0.69263874  0.51566519  0.24506048  1
  C  C103  1  0.82308047  0.30304593  0.24778467  1
  C  C104  1  0.46999525  0.16950251  0.24829361  1
  C  C105  1  0.66451297  0.51306623  0.92094159  1
  C  C106  1  0.84053280  0.33952230  0.92636230  1
  C  C107  1  0.49257762  0.16379358  0.92470325  1
  C  C108  1  0.66526754  0.16052846  0.42460448  1
  C  C109  1  0.48793447  0.33355789  0.42450314  1
  C  C110  1  0.83713902  0.50655886  0.42292088  1
  C  C111  1  0.36947446  0.50012814  0.08147284  1
  C  C112  1  0.13229693  0.63147794  0.08138720  1
  C  C113  1  0.49838787  0.86414835  0.08309486  1
  C  C114  1  0.37079024  0.86985102  0.58285324  1
  C  C115  1  0.49844769  0.63077498  0.58130679  1
  C  C116  1  0.13678711  0.50120527  0.58255668  1
  C  C117  1  0.31640367  0.85414405  0.25510552  1
  C  C118  1  0.52123281  0.67971813  0.25705617  1
  C  C119  1  0.15127549  0.48187125  0.25681140  1
  C  C120  1  0.32837312  0.48143428  0.75844307  1
  C  C121  1  0.15250995  0.67680749  0.75520627  1
  C  C122  1  0.52508988  0.84517325  0.75713521  1
