# generated using pymatgen
data_Cu4NiC14
_symmetry_space_group_name_H-M   'P 1'
_cell_length_a   4.75453500
_cell_length_b   4.75453500
_cell_length_c   9.46814100
_cell_angle_alpha   90.00000000
_cell_angle_beta   90.00000000
_cell_angle_gamma   90.00000000
_symmetry_Int_Tables_number   1
_chemical_formula_structural   Cu4NiC14
_chemical_formula_sum   'Cu4 Ni1 C14'
_cell_volume   214.03303722
_cell_formula_units_Z   1
loop_
 _symmetry_equiv_pos_site_id
 _symmetry_equiv_pos_as_xyz
  1  'x, y, z'
loop_
 _atom_site_type_symbol
 _atom_site_label
 _atom_site_symmetry_multiplicity
 _atom_site_fract_x
 _atom_site_fract_y
 _atom_site_fract_z
 _atom_site_occupancy
  Ni  Ni0  1  0.00000000  0.50000000  0.25000000  1
  C  C1  1  0.00000000  0.00000000  0.98905200  1
  C  C2  1  0.50000000  0.50000000  0.51094800  1
  Cu  Cu3  1  0.50000000  0.50000000  0.83293500  1
  Cu  Cu4  1  0.00000000  0.00000000  0.33905200  1
  Cu  Cu5  1  0.50000000  0.50000000  0.16094800  1
  Cu  Cu6  1  0.00000000  0.00000000  0.66706500  1
  C  C7  1  0.69446600  0.69474400  0.66597100  1
  C  C8  1  0.30553400  0.30525600  0.66597100  1
  C  C9  1  0.68901300  0.69540400  0.33770100  1
  C  C10  1  0.19540400  0.81098700  0.16229900  1
  C  C11  1  0.80459600  0.18901300  0.16229900  1
  C  C12  1  0.80525600  0.19446600  0.83402900  1
  C  C13  1  0.29642400  0.29899800  0.99925600  1
  C  C14  1  0.20100200  0.79642400  0.50074400  1
  C  C15  1  0.79899800  0.20357600  0.50074400  1
  C  C16  1  0.70357600  0.70100200  0.99925600  1
  C  C17  1  0.31098700  0.30459600  0.33770100  1
  C  C18  1  0.19474400  0.80553400  0.83402900  1
