# generated using pymatgen
data_Cu4Ni2C9
_symmetry_space_group_name_H-M   'P 1'
_cell_length_a   6.82576279
_cell_length_b   6.81919886
_cell_length_c   5.87559505
_cell_angle_alpha   64.49411331
_cell_angle_beta   64.47563374
_cell_angle_gamma   50.89453386
_symmetry_Int_Tables_number   1
_chemical_formula_structural   Cu4Ni2C9
_chemical_formula_sum   'Cu4 Ni2 C9'
_cell_volume   186.51911819
_cell_formula_units_Z   1
loop_
 _symmetry_equiv_pos_site_id
 _symmetry_equiv_pos_as_xyz
  1  'x, y, z'
loop_
 _atom_site_type_symbol
 _atom_site_label
 _atom_site_symmetry_multiplicity
 _atom_site_fract_x
 _atom_site_fract_y
 _atom_site_fract_z
 _atom_site_occupancy
  C  C0  1  0.50692700  0.51148300  0.49090000  1
  Ni  Ni1  1  0.05173300  0.56870300  0.68927100  1
  Ni  Ni2  1  0.57068800  0.05147300  0.68931500  1
  Cu  Cu3  1  0.00161500  0.00024900  0.99898800  1
  Cu  Cu4  1  0.23735500  0.23991800  0.26133700  1
  Cu  Cu5  1  0.68450400  0.68307200  0.05930200  1
  Cu  Cu6  1  0.68386100  0.68363500  0.57328700  1
  C  C7  1  0.35890200  0.35891100  0.43106300  1
  C  C8  1  0.40823300  0.86722800  0.36272800  1
  C  C9  1  0.35849800  0.35915700  0.85119500  1
  C  C10  1  0.86460200  0.40731500  0.36373800  1
  C  C11  1  0.38867800  0.88964800  0.86132500  1
  C  C12  1  0.88983300  0.38713600  0.86108200  1
  C  C13  1  0.87228600  0.87099900  0.40512600  1
  C  C14  1  0.87228300  0.87107200  0.85134400  1
