# generated using pymatgen
data_Cu3NiC14
_symmetry_space_group_name_H-M   'P 1'
_cell_length_a   8.55031376
_cell_length_b   8.55031349
_cell_length_c   22.22461184
_cell_angle_alpha   90.00000000
_cell_angle_beta   90.00000000
_cell_angle_gamma   120.00000103
_symmetry_Int_Tables_number   1
_chemical_formula_structural   Cu3NiC14
_chemical_formula_sum   'Cu18 Ni6 C84'
_cell_volume   1407.11276178
_cell_formula_units_Z   6
loop_
 _symmetry_equiv_pos_site_id
 _symmetry_equiv_pos_as_xyz
  1  'x, y, z'
loop_
 _atom_site_type_symbol
 _atom_site_label
 _atom_site_symmetry_multiplicity
 _atom_site_fract_x
 _atom_site_fract_y
 _atom_site_fract_z
 _atom_site_occupancy
  C  C0  1  -0.00000000  0.00000000  0.49427480  1
  C  C1  1  -0.00000000  0.00000000  0.99427480  1
  C  C2  1  0.66666700  0.33333300  0.82760780  1
  C  C3  1  0.66666700  0.33333300  0.32760780  1
  C  C4  1  0.33333300  0.66666700  0.16094180  1
  C  C5  1  0.33333300  0.66666700  0.66094180  1
  C  C6  1  -0.00000000  0.00000000  0.64401630  1
  C  C7  1  -0.00000000  0.00000000  0.14401630  1
  C  C8  1  0.66666700  0.33333300  0.97734930  1
  C  C9  1  0.66666700  0.33333300  0.47734930  1
  C  C10  1  0.33333300  0.66666700  0.31068330  1
  C  C11  1  0.33333300  0.66666700  0.81068330  1
  Ni  Ni12  1  -0.00000000  0.00000000  0.35353524  1
  Ni  Ni13  1  -0.00000000  0.00000000  0.85353524  1
  Ni  Ni14  1  0.66666700  0.33333300  0.68686824  1
  Ni  Ni15  1  0.66666700  0.33333300  0.18686824  1
  Ni  Ni16  1  0.33333300  0.66666700  0.02020224  1
  Ni  Ni17  1  0.33333300  0.66666700  0.52020224  1
  Cu  Cu18  1  0.29222714  0.01306509  0.25200149  1
  Cu  Cu19  1  0.72083794  0.70777286  0.25200149  1
  Cu  Cu20  1  0.98693491  0.27916206  0.25200149  1
  Cu  Cu21  1  0.29222714  0.27916206  0.75200149  1
  Cu  Cu22  1  0.98693491  0.70777286  0.75200149  1
  Cu  Cu23  1  0.72083794  0.01306509  0.75200149  1
  Cu  Cu24  1  0.95889414  0.34639809  0.58533449  1
  Cu  Cu25  1  0.38750494  0.04110586  0.58533449  1
  Cu  Cu26  1  0.65360191  0.61249506  0.58533449  1
  Cu  Cu27  1  0.95889414  0.61249506  0.08533449  1
  Cu  Cu28  1  0.65360191  0.04110586  0.08533449  1
  Cu  Cu29  1  0.38750494  0.34639809  0.08533449  1
  Cu  Cu30  1  0.62556014  0.67973209  0.91866849  1
  Cu  Cu31  1  0.05417094  0.37443986  0.91866849  1
  Cu  Cu32  1  0.32026791  0.94582906  0.91866849  1
  Cu  Cu33  1  0.62556014  0.94582906  0.41866849  1
  Cu  Cu34  1  0.32026791  0.37443986  0.41866849  1
  Cu  Cu35  1  0.05417094  0.67973209  0.41866849  1
  C  C36  1  0.20079874  0.03402959  0.30725586  1
  C  C37  1  0.83323085  0.79920126  0.30725586  1
  C  C38  1  0.96597041  0.16676915  0.30725586  1
  C  C39  1  0.20079874  0.16676915  0.80725586  1
  C  C40  1  0.96597041  0.79920126  0.80725586  1
  C  C41  1  0.83323085  0.03402959  0.80725586  1
  C  C42  1  0.80061102  0.97347369  0.69445746  1
  C  C43  1  0.17286267  0.19938898  0.69445746  1
  C  C44  1  0.02652631  0.82713733  0.69445746  1
  C  C45  1  0.80061102  0.82713733  0.19445746  1
  C  C46  1  0.02652631  0.19938898  0.19445746  1
  C  C47  1  0.17286267  0.97347369  0.19445746  1
  C  C48  1  0.86746574  0.36736259  0.64058886  1
  C  C49  1  0.49989785  0.13253426  0.64058886  1
  C  C50  1  0.63263741  0.50010215  0.64058886  1
  C  C51  1  0.86746574  0.50010215  0.14058886  1
  C  C52  1  0.63263741  0.13253426  0.14058886  1
  C  C53  1  0.49989785  0.36736259  0.14058886  1
  C  C54  1  0.46727802  0.30680669  0.02779046  1
  C  C55  1  0.83952967  0.53272198  0.02779046  1
  C  C56  1  0.69319331  0.16047033  0.02779046  1
  C  C57  1  0.46727802  0.16047033  0.52779046  1
  C  C58  1  0.69319331  0.53272198  0.52779046  1
  C  C59  1  0.83952967  0.30680669  0.52779046  1
  C  C60  1  0.53413174  0.70069659  0.97392286  1
  C  C61  1  0.16656385  0.46586826  0.97392286  1
  C  C62  1  0.29930341  0.83343615  0.97392286  1
  C  C63  1  0.53413174  0.83343615  0.47392286  1
  C  C64  1  0.29930341  0.46586826  0.47392286  1
  C  C65  1  0.16656385  0.70069659  0.47392286  1
  C  C66  1  0.13394402  0.64014069  0.36112446  1
  C  C67  1  0.50619567  0.86605598  0.36112446  1
  C  C68  1  0.35985931  0.49380433  0.36112446  1
  C  C69  1  0.13394402  0.49380433  0.86112446  1
  C  C70  1  0.35985931  0.86605598  0.86112446  1
  C  C71  1  0.50619567  0.64014069  0.86112446  1
  C  C72  1  0.02951906  0.84153621  0.40882074  1
  C  C73  1  0.81201715  0.97048094  0.40882074  1
  C  C74  1  0.15846379  0.18798285  0.40882074  1
  C  C75  1  0.02951906  0.18798285  0.90882074  1
  C  C76  1  0.15846379  0.97048094  0.90882074  1
  C  C77  1  0.81201715  0.84153621  0.90882074  1
  C  C78  1  0.97499337  0.17117712  0.59018900  1
  C  C79  1  0.19618375  0.02500663  0.59018900  1
  C  C80  1  0.82882288  0.80381625  0.59018900  1
  C  C81  1  0.97499337  0.80381625  0.09018900  1
  C  C82  1  0.82882288  0.02500663  0.09018900  1
  C  C83  1  0.19618375  0.17117712  0.09018900  1
  C  C84  1  0.69618606  0.17486921  0.74215374  1
  C  C85  1  0.47868415  0.30381394  0.74215374  1
  C  C86  1  0.82513079  0.52131585  0.74215374  1
  C  C87  1  0.69618606  0.52131585  0.24215374  1
  C  C88  1  0.82513079  0.30381394  0.24215374  1
  C  C89  1  0.47868415  0.17486921  0.24215374  1
  C  C90  1  0.64166037  0.50451012  0.92352200  1
  C  C91  1  0.86285075  0.35833963  0.92352200  1
  C  C92  1  0.49548988  0.13714925  0.92352200  1
  C  C93  1  0.64166037  0.13714925  0.42352200  1
  C  C94  1  0.49548988  0.35833963  0.42352200  1
  C  C95  1  0.86285075  0.50451012  0.42352200  1
  C  C96  1  0.36285206  0.50820321  0.07548774  1
  C  C97  1  0.14535015  0.63714794  0.07548774  1
  C  C98  1  0.49179679  0.85464985  0.07548774  1
  C  C99  1  0.36285206  0.85464985  0.57548774  1
  C  C100  1  0.49179679  0.63714794  0.57548774  1
  C  C101  1  0.14535015  0.50820321  0.57548774  1
  C  C102  1  0.30832637  0.83784412  0.25685600  1
  C  C103  1  0.52951675  0.69167363  0.25685600  1
  C  C104  1  0.16215588  0.47048325  0.25685600  1
  C  C105  1  0.30832637  0.47048325  0.75685600  1
  C  C106  1  0.16215588  0.69167363  0.75685600  1
  C  C107  1  0.52951675  0.83784412  0.75685600  1
