# generated using pymatgen
data_CuNi2C11
_symmetry_space_group_name_H-M   'P 1'
_cell_length_a   3.76264700
_cell_length_b   4.16345000
_cell_length_c   13.17106700
_cell_angle_alpha   90.00000000
_cell_angle_beta   90.00000000
_cell_angle_gamma   90.00000000
_symmetry_Int_Tables_number   1
_chemical_formula_structural   CuNi2C11
_chemical_formula_sum   'Cu1 Ni2 C11'
_cell_volume   206.33257042
_cell_formula_units_Z   1
loop_
 _symmetry_equiv_pos_site_id
 _symmetry_equiv_pos_as_xyz
  1  'x, y, z'
loop_
 _atom_site_type_symbol
 _atom_site_label
 _atom_site_symmetry_multiplicity
 _atom_site_fract_x
 _atom_site_fract_y
 _atom_site_fract_z
 _atom_site_occupancy
  Ni  Ni0  1  0.50000000  0.56047600  0.77030500  1
  Ni  Ni1  1  0.50000000  0.56047600  0.22969500  1
  Cu  Cu2  1  0.50000000  0.53755100  0.50000000  1
  C  C3  1  0.50000000  0.26190900  0.00000000  1
  C  C4  1  0.00000000  0.03921500  0.61025800  1
  C  C5  1  0.00000000  0.03921500  0.38974200  1
  C  C6  1  0.00000000  0.86994200  0.00000000  1
  C  C7  1  0.00000000  0.39959100  0.00000000  1
  C  C8  1  0.50000000  0.03446100  0.61128400  1
  C  C9  1  0.50000000  0.03446100  0.38871600  1
  C  C10  1  0.00000000  0.53771100  0.61119400  1
  C  C11  1  0.00000000  0.53771100  0.38880600  1
  C  C12  1  0.00000000  0.92697400  0.85585400  1
  C  C13  1  0.00000000  0.92697400  0.14414600  1
