# generated using pymatgen
data_Cu16Ni4C
_symmetry_space_group_name_H-M   'P 1'
_cell_length_a   7.64919267
_cell_length_b   7.64919267
_cell_length_c   13.40036068
_cell_angle_alpha   73.89684207
_cell_angle_beta   73.89684207
_cell_angle_gamma   63.75527946
_symmetry_Int_Tables_number   1
_chemical_formula_structural   Cu16Ni4C
_chemical_formula_sum   'Cu32 Ni8 C2'
_cell_volume   664.66056691
_cell_formula_units_Z   2
loop_
 _symmetry_equiv_pos_site_id
 _symmetry_equiv_pos_as_xyz
  1  'x, y, z'
loop_
 _atom_site_type_symbol
 _atom_site_label
 _atom_site_symmetry_multiplicity
 _atom_site_fract_x
 _atom_site_fract_y
 _atom_site_fract_z
 _atom_site_occupancy
  C  C0  1  0.03557400  0.96442600  0.75000000  1
  C  C1  1  0.96442600  0.03557400  0.25000000  1
  Ni  Ni2  1  0.32417600  0.79211400  0.58753400  1
  Ni  Ni3  1  0.20788600  0.67582400  0.91246600  1
  Ni  Ni4  1  0.67582400  0.20788600  0.41246600  1
  Ni  Ni5  1  0.79211400  0.32417600  0.08753400  1
  Ni  Ni6  1  0.98969300  0.35321800  0.66534700  1
  Ni  Ni7  1  0.64678200  0.01030700  0.83465300  1
  Ni  Ni8  1  0.01030700  0.64678200  0.33465300  1
  Ni  Ni9  1  0.35321800  0.98969300  0.16534700  1
  Cu  Cu10  1  0.32686300  0.89502000  0.67102300  1
  Cu  Cu11  1  0.10498000  0.67313700  0.82897700  1
  Cu  Cu12  1  0.67313700  0.10498000  0.32897700  1
  Cu  Cu13  1  0.89502000  0.32686300  0.17102300  1
  Cu  Cu14  1  0.45144000  0.58840600  0.60438900  1
  Cu  Cu15  1  0.41159400  0.54856000  0.89561100  1
  Cu  Cu16  1  0.54856000  0.41159400  0.39561100  1
  Cu  Cu17  1  0.58840600  0.45144000  0.10438900  1
  Cu  Cu18  1  0.10748300  0.82040000  0.61965100  1
  Cu  Cu19  1  0.17960000  0.89251700  0.88034900  1
  Cu  Cu20  1  0.21103300  0.92919600  0.13400400  1
  Cu  Cu21  1  0.07080300  0.78896700  0.36599600  1
  Cu  Cu22  1  0.78896700  0.07080400  0.86599600  1
  Cu  Cu23  1  0.92919600  0.21103300  0.63400400  1
  Cu  Cu24  1  0.52298500  0.82076500  0.19285500  1
  Cu  Cu25  1  0.17923500  0.47701500  0.30714500  1
  Cu  Cu26  1  0.47701500  0.17923500  0.80714500  1
  Cu  Cu27  1  0.82076500  0.52298500  0.69285500  1
  Cu  Cu28  1  0.21625800  0.07344400  0.26254000  1
  Cu  Cu29  1  0.92655600  0.78374200  0.23746000  1
  Cu  Cu30  1  0.78374200  0.92655600  0.73746000  1
  Cu  Cu31  1  0.07344400  0.21625800  0.76254000  1
  Cu  Cu32  1  0.39408500  0.14062500  0.08584400  1
  Cu  Cu33  1  0.85937500  0.60591500  0.41415600  1
  Cu  Cu34  1  0.60591500  0.85937500  0.91415600  1
  Cu  Cu35  1  0.14062500  0.39408500  0.58584400  1
  Cu  Cu36  1  0.89787800  0.36206300  0.98446600  1
  Cu  Cu37  1  0.63793700  0.10212200  0.51553400  1
  Cu  Cu38  1  0.10212200  0.63793700  0.01553400  1
  Cu  Cu39  1  0.36206300  0.89787800  0.48446600  1
  Cu  Cu40  1  0.82040000  0.10748300  0.11965100  1
  Cu  Cu41  1  0.89251700  0.17960000  0.38034900  1
