# generated using pymatgen
data_Cu(NiC11)3
_symmetry_space_group_name_H-M   'P 1'
_cell_length_a   8.97210117
_cell_length_b   8.96986390
_cell_length_c   23.32512785
_cell_angle_alpha   89.90215283
_cell_angle_beta   90.11111343
_cell_angle_gamma   119.95298526
_symmetry_Int_Tables_number   1
_chemical_formula_structural   Cu(NiC11)3
_chemical_formula_sum   'Cu3 Ni9 C99'
_cell_volume   1626.44453707
_cell_formula_units_Z   3
loop_
 _symmetry_equiv_pos_site_id
 _symmetry_equiv_pos_as_xyz
  1  'x, y, z'
loop_
 _atom_site_type_symbol
 _atom_site_label
 _atom_site_symmetry_multiplicity
 _atom_site_fract_x
 _atom_site_fract_y
 _atom_site_fract_z
 _atom_site_occupancy
  Ni  Ni0  1  0.63309722  0.99858420  0.24832824  1
  Ni  Ni1  1  0.36627988  0.36593663  0.24788140  1
  Ni  Ni2  1  0.02702331  0.69523172  0.58799839  1
  Ni  Ni3  1  0.99875439  0.01292852  0.49881435  1
  Ni  Ni4  1  0.99984647  0.99917479  0.99782540  1
  Ni  Ni5  1  0.66598888  0.33250607  0.82586266  1
  Ni  Ni6  1  0.68353262  0.34874741  0.32953606  1
  Ni  Ni7  1  0.31964639  0.66544612  0.15933896  1
  Ni  Ni8  1  0.34780395  0.66519490  0.66182606  1
  Cu  Cu9  1  0.66658629  0.33338437  0.98636154  1
  Cu  Cu10  1  0.66169870  0.32745606  0.48117178  1
  Cu  Cu11  1  0.33278057  0.66658971  0.80923071  1
  C  C12  1  0.99958711  0.99489613  0.34916078  1
  C  C13  1  0.00019788  0.00129367  0.84669320  1
  C  C14  1  0.99962600  0.00618729  0.65373252  1
  C  C15  1  0.00029517  0.99603152  0.15257019  1
  C  C16  1  0.66181382  0.32849126  0.68498411  1
  C  C17  1  0.67508501  0.34089751  0.17293195  1
  C  C18  1  0.33248533  0.66663579  0.01444072  1
  C  C19  1  0.34267770  0.66499224  0.51269962  1
  C  C20  1  0.32497079  0.66579024  0.31965049  1
  C  C21  1  0.29372246  0.00024506  0.25093246  1
  C  C22  1  0.70737258  0.70530097  0.25059195  1
  C  C23  1  0.99878214  0.29104847  0.25066372  1
  C  C24  1  0.29607597  0.27705508  0.74665144  1
  C  C25  1  0.98114491  0.70362290  0.74493135  1
  C  C26  1  0.72263664  0.01879068  0.74650813  1
  C  C27  1  0.97399264  0.33512041  0.58728320  1
  C  C28  1  0.35898515  0.02501782  0.58775375  1
  C  C29  1  0.66571637  0.63948623  0.58727035  1
  C  C30  1  0.97872459  0.64495789  0.08856922  1
  C  C31  1  0.66642330  0.02091260  0.09042972  1
  C  C32  1  0.35450254  0.33366753  0.09032211  1
  C  C33  1  0.64232776  0.68602643  0.91839803  1
  C  C34  1  0.04339659  0.35739320  0.91830172  1
  C  C35  1  0.31403740  0.95650409  0.91826805  1
  C  C36  1  0.62871333  0.94593905  0.41174648  1
  C  C37  1  0.31766684  0.37102049  0.41179378  1
  C  C38  1  0.05193252  0.68232942  0.41501964  1
  C  C39  1  0.21406549  0.02924169  0.30228708  1
  C  C40  1  0.81019685  0.78304469  0.30327962  1
  C  C41  1  0.96710485  0.18106955  0.30249076  1
  C  C42  1  0.21318671  0.18514715  0.80066302  1
  C  C43  1  0.97283763  0.79154435  0.79789070  1
  C  C44  1  0.81512636  0.02818691  0.80062550  1
  C  C45  1  0.80516634  0.99932618  0.69465675  1
  C  C46  1  0.19528102  0.19344633  0.69470146  1
  C  C47  1  -0.00131984  0.80135421  0.69151159  1
  C  C48  1  0.78742912  0.81494501  0.19958235  1
  C  C49  1  0.03066752  0.21237889  0.19940923  1
  C  C50  1  0.19037409  0.97553790  0.19855024  1
  C  C51  1  0.88430400  0.36471167  0.63548810  1
  C  C52  1  0.47192083  0.11439242  0.63682372  1
  C  C53  1  0.64059037  0.52639757  0.63679874  1
  C  C54  1  0.89036669  0.53024091  0.13842701  1
  C  C55  1  0.64219388  0.10819694  0.14206700  1
  C  C56  1  0.46567542  0.35708163  0.14213832  1
  C  C57  1  0.43299624  0.30501412  0.03833063  1
  C  C58  1  0.87546877  0.57219188  0.03523899  1
  C  C59  1  0.69525205  0.12825944  0.03834027  1
  C  C60  1  0.42979353  0.12422520  0.53368438  1
  C  C61  1  0.70063702  0.56565657  0.53427449  1
  C  C62  1  0.87215295  0.30550231  0.53299503  1
  C  C63  1  0.55102782  0.69531270  0.97022292  1
  C  C64  1  0.14432594  0.44897867  0.97026774  1
  C  C65  1  0.30498397  0.85596886  0.97022178  1
  C  C66  1  0.54164081  0.84961308  0.46452016  1
  C  C67  1  0.30691076  0.45779254  0.46458055  1
  C  C68  1  0.14285241  0.69214981  0.47019227  1
  C  C69  1  0.13739410  0.66216973  0.36415524  1
  C  C70  1  0.53038499  0.86623327  0.35816881  1
  C  C71  1  0.33812724  0.47040676  0.35825872  1
  C  C72  1  0.12040057  0.45962744  0.86573904  1
  C  C73  1  0.33895940  0.87941992  0.86572753  1
  C  C74  1  0.54017056  0.66112416  0.86570243  1
  C  C75  1  0.03606806  0.83906607  0.41081735  1
  C  C76  1  0.80258176  0.96337566  0.40955711  1
  C  C77  1  0.16123743  0.19787005  0.40927307  1
  C  C78  1  0.03137469  0.18844171  0.91395573  1
  C  C79  1  0.15713880  0.96876979  0.91370227  1
  C  C80  1  0.81156622  0.84255747  0.91387415  1
  C  C81  1  0.99826107  0.18507475  0.59393266  1
  C  C82  1  0.18144047  -0.00035993  0.59336218  1
  C  C83  1  0.82447152  0.81218708  0.59311808  1
  C  C84  1  0.99679082  0.81711282  0.09594906  1
  C  C85  1  0.82039940  0.00286961  0.09677135  1
  C  C86  1  0.18232157  0.17947998  0.09655152  1
  C  C87  1  0.70554170  0.17529143  0.74349725  1
  C  C88  1  0.47030079  0.29489900  0.74404085  1
  C  C89  1  0.82530532  0.52999603  0.74300089  1
  C  C90  1  0.68013992  0.52678634  0.24407786  1
  C  C91  1  0.84067909  0.30662022  0.24340848  1
  C  C92  1  0.47011691  0.15951099  0.24541041  1
  C  C93  1  0.66389209  0.53113313  0.92097051  1
  C  C94  1  0.86690716  0.33553057  0.92087767  1
  C  C95  1  0.46864457  0.13285717  0.92089592  1
  C  C96  1  0.64795212  0.12218029  0.41377162  1
  C  C97  1  0.47471486  0.35229238  0.41424757  1
  C  C98  1  0.87535536  0.52559934  0.41586674  1
  C  C99  1  0.34346172  0.49191528  0.08321329  1
  C  C100  1  0.14880788  0.65709132  0.08173960  1
  C  C101  1  0.50783457  0.85188888  0.08322989  1
  C  C102  1  0.33999022  0.84945848  0.58131373  1
  C  C103  1  0.51111969  0.65620110  0.57882430  1
  C  C104  1  0.14358726  0.49870260  0.58011949  1
  C  C105  1  0.32161126  0.84891649  0.25694151  1
  C  C106  1  0.53040938  0.68785898  0.25550939  1
  C  C107  1  0.15706433  0.46513605  0.25729621  1
  C  C108  1  0.31692515  0.45391598  0.74681899  1
  C  C109  1  0.13746994  0.68402791  0.74603423  1
  C  C110  1  0.54590620  0.86295312  0.74687565  1
