# generated using pymatgen
data_CuNi2C17
_symmetry_space_group_name_H-M   'P 1'
_cell_length_a   15.87917283
_cell_length_b   27.43804890
_cell_length_c   9.07643530
_cell_angle_alpha   90.00000000
_cell_angle_beta   125.25417757
_cell_angle_gamma   90.00000000
_symmetry_Int_Tables_number   1
_chemical_formula_structural   CuNi2C17
_chemical_formula_sum   'Cu12 Ni24 C204'
_cell_volume   3229.27858344
_cell_formula_units_Z   12
loop_
 _symmetry_equiv_pos_site_id
 _symmetry_equiv_pos_as_xyz
  1  'x, y, z'
loop_
 _atom_site_type_symbol
 _atom_site_label
 _atom_site_symmetry_multiplicity
 _atom_site_fract_x
 _atom_site_fract_y
 _atom_site_fract_z
 _atom_site_occupancy
  C  C0  1  0.25296522  0.25539774  0.00688208  1
  C  C1  1  0.24542990  0.58778001  0.01572357  1
  C  C2  1  0.24751706  0.91903326  0.01673595  1
  C  C3  1  0.75296522  0.24460226  0.50688208  1
  C  C4  1  0.74751706  0.58096674  0.51673595  1
  C  C5  1  0.74542990  0.91221999  0.51572357  1
  C  C6  1  0.74542990  0.08778001  0.01572357  1
  C  C7  1  0.74751706  0.41903326  0.01673595  1
  C  C8  1  0.75296522  0.75539774  0.00688208  1
  C  C9  1  0.24751706  0.08096674  0.51673595  1
  C  C10  1  0.24542990  0.41221999  0.51572357  1
  C  C11  1  0.25296522  0.74460226  0.50688208  1
  C  C12  1  0.49404164  0.03449353  0.75238975  1
  C  C13  1  0.49649128  0.36895170  0.75839468  1
  C  C14  1  0.49361135  0.70144605  0.74983153  1
  C  C15  1  0.49361135  0.29855395  0.24983153  1
  C  C16  1  0.49649128  0.63104830  0.25839468  1
  C  C17  1  0.49404164  0.96550647  0.25238975  1
  C  C18  1  0.99361135  0.20144605  0.74983153  1
  C  C19  1  0.99404164  0.53449353  0.75238975  1
  C  C20  1  0.99649128  0.86895170  0.75839468  1
  C  C21  1  0.99649128  0.13104830  0.25839468  1
  C  C22  1  0.99404164  0.46550647  0.25238975  1
  C  C23  1  0.99361135  0.79855395  0.24983153  1
  C  C24  1  0.81843304  0.64447695  0.20541104  1
  C  C25  1  0.81781795  0.97781549  0.21051833  1
  C  C26  1  0.19356246  0.30798002  0.28396097  1
  C  C27  1  0.19356246  0.69201998  0.78396097  1
  C  C28  1  0.81781795  0.02218451  0.71051833  1
  C  C29  1  0.81843304  0.35552305  0.70541104  1
  C  C30  1  0.31843304  0.14447695  0.20541104  1
  C  C31  1  0.31781795  0.47781549  0.21051833  1
  C  C32  1  0.69356246  0.80798002  0.28396097  1
  C  C33  1  0.69356246  0.19201998  0.78396097  1
  C  C34  1  0.31781795  0.52218451  0.71051833  1
  C  C35  1  0.31843304  0.85552305  0.70541104  1
  C  C36  1  0.10708281  0.24745276  0.56612128  1
  C  C37  1  0.10507614  0.58240960  0.56601909  1
  C  C38  1  0.10629354  0.91677348  0.56515988  1
  C  C39  1  0.10629354  0.08322652  0.06515988  1
  C  C40  1  0.10507614  0.41759040  0.06601909  1
  C  C41  1  0.10708281  0.75254724  0.06612128  1
  C  C42  1  0.60507614  0.08240960  0.56601909  1
  C  C43  1  0.60629354  0.41677348  0.56515988  1
  C  C44  1  0.60708281  0.74745276  0.56612128  1
  C  C45  1  0.60708281  0.25254724  0.06612128  1
  C  C46  1  0.60629354  0.58322652  0.06515988  1
  C  C47  1  0.60507614  0.91759040  0.06601909  1
  C  C48  1  0.90070162  0.25114611  0.94828659  1
  C  C49  1  0.89609735  0.58343555  0.93691421  1
  C  C50  1  0.89564663  0.91489795  0.93972460  1
  C  C51  1  0.89564663  0.08510205  0.43972460  1
  C  C52  1  0.89609735  0.41656445  0.43691421  1
  C  C53  1  0.90070162  0.74885389  0.44828659  1
  C  C54  1  0.39609735  0.08343555  0.93691421  1
  C  C55  1  0.39564663  0.41489795  0.93972460  1
  C  C56  1  0.40070162  0.75114611  0.94828659  1
  C  C57  1  0.40070162  0.24885389  0.44828659  1
  C  C58  1  0.39564663  0.58510205  0.43972460  1
  C  C59  1  0.39609735  0.91656445  0.43691421  1
  Ni  Ni60  1  0.34860719  0.29724360  0.74752370  1
  Ni  Ni61  1  0.35145112  0.63068620  0.75762153  1
  Ni  Ni62  1  0.35048355  0.96406101  0.75311777  1
  Ni  Ni63  1  0.64696462  0.30129213  0.74201016  1
  Ni  Ni64  1  0.64657309  0.63253794  0.74001241  1
  Ni  Ni65  1  0.64689040  0.96670770  0.74159160  1
  Ni  Ni66  1  0.64689040  0.03329230  0.24159160  1
  Ni  Ni67  1  0.64657309  0.36746206  0.24001241  1
  Ni  Ni68  1  0.64696462  0.69870787  0.24201016  1
  Ni  Ni69  1  0.35048355  0.03593899  0.25311777  1
  Ni  Ni70  1  0.35145112  0.36931380  0.25762153  1
  Ni  Ni71  1  0.34860719  0.70275640  0.24752370  1
  Ni  Ni72  1  0.85145112  0.13068620  0.75762153  1
  Ni  Ni73  1  0.85048355  0.46406101  0.75311777  1
  Ni  Ni74  1  0.84860719  0.79724360  0.74752370  1
  Ni  Ni75  1  0.14657309  0.13253794  0.74001241  1
  Ni  Ni76  1  0.14689040  0.46670770  0.74159160  1
  Ni  Ni77  1  0.14696462  0.80129213  0.74201016  1
  Ni  Ni78  1  0.14696462  0.19870787  0.24201016  1
  Ni  Ni79  1  0.14689040  0.53329230  0.24159160  1
  Ni  Ni80  1  0.14657309  0.86746206  0.24001241  1
  Ni  Ni81  1  0.84860719  0.20275640  0.24752370  1
  Ni  Ni82  1  0.85048355  0.53593899  0.25311777  1
  Ni  Ni83  1  0.85145112  0.86931380  0.25762153  1
  Cu  Cu84  1  0.00699604  0.31891849  0.75301188  1
  Cu  Cu85  1  0.00216909  0.65240576  0.74628683  1
  Cu  Cu86  1  0.00390342  0.98629956  0.74555729  1
  Cu  Cu87  1  0.00390342  0.01370044  0.24555729  1
  Cu  Cu88  1  0.00216909  0.34759424  0.24628683  1
  Cu  Cu89  1  0.00699604  0.68108151  0.25301188  1
  Cu  Cu90  1  0.50216909  0.15240576  0.74628683  1
  Cu  Cu91  1  0.50390342  0.48629956  0.74555729  1
  Cu  Cu92  1  0.50699604  0.81891849  0.75301188  1
  Cu  Cu93  1  0.50699604  0.18108151  0.25301188  1
  Cu  Cu94  1  0.50390342  0.51370044  0.24555729  1
  Cu  Cu95  1  0.50216909  0.84759424  0.24628683  1
  C  C96  1  0.14402442  0.19414760  0.74331072  1
  C  C97  1  0.14623751  0.52839794  0.74797492  1
  C  C98  1  0.14594139  0.86188817  0.74488163  1
  C  C99  1  0.84125220  0.18971648  0.75408951  1
  C  C100  1  0.84627835  0.52259046  0.75235219  1
  C  C101  1  0.84252216  0.85641509  0.74972430  1
  C  C102  1  0.84252216  0.14358491  0.24972430  1
  C  C103  1  0.84627835  0.47740954  0.25235219  1
  C  C104  1  0.84125220  0.81028352  0.25408951  1
  C  C105  1  0.14594139  0.13811183  0.24488163  1
  C  C106  1  0.14623751  0.47160206  0.24797492  1
  C  C107  1  0.14402442  0.80585240  0.24331072  1
  C  C108  1  0.64623751  0.02839794  0.74797492  1
  C  C109  1  0.64594139  0.36188817  0.74488163  1
  C  C110  1  0.64402442  0.69414760  0.74331072  1
  C  C111  1  0.34627835  0.02259046  0.75235219  1
  C  C112  1  0.34252216  0.35641509  0.74972430  1
  C  C113  1  0.34125220  0.68971648  0.75408951  1
  C  C114  1  0.34125220  0.31028352  0.25408951  1
  C  C115  1  0.34252216  0.64358491  0.24972430  1
  C  C116  1  0.34627835  0.97740954  0.25235219  1
  C  C117  1  0.64402442  0.30585240  0.24331072  1
  C  C118  1  0.64594139  0.63811183  0.24488163  1
  C  C119  1  0.64623751  0.97160206  0.24797492  1
  C  C120  1  0.43788540  0.17825565  0.56475612  1
  C  C121  1  0.43649925  0.51474835  0.57070300  1
  C  C122  1  0.44150617  0.85022013  0.58654003  1
  C  C123  1  0.56133428  0.18944061  0.90591562  1
  C  C124  1  0.56151806  0.52261620  0.91107956  1
  C  C125  1  0.56941550  0.85248446  0.92760247  1
  C  C126  1  0.56941550  0.14751554  0.42760247  1
  C  C127  1  0.56151806  0.47738380  0.41107956  1
  C  C128  1  0.56133428  0.81055939  0.40591562  1
  C  C129  1  0.44150617  0.14977987  0.08654003  1
  C  C130  1  0.43649925  0.48525165  0.07070300  1
  C  C131  1  0.43788540  0.82174435  0.06475612  1
  C  C132  1  0.93649925  0.01474835  0.57070300  1
  C  C133  1  0.94150617  0.35022013  0.58654003  1
  C  C134  1  0.93788540  0.67825565  0.56475612  1
  C  C135  1  0.06151806  0.02261620  0.91107956  1
  C  C136  1  0.06941550  0.35248446  0.92760247  1
  C  C137  1  0.06133428  0.68944061  0.90591562  1
  C  C138  1  0.06133428  0.31055939  0.40591562  1
  C  C139  1  0.06941550  0.64751554  0.42760247  1
  C  C140  1  0.06151806  0.97738380  0.41107956  1
  C  C141  1  0.93788540  0.32174435  0.06475612  1
  C  C142  1  0.94150617  0.64977987  0.08654003  1
  C  C143  1  0.93649925  0.98525165  0.07070300  1
  C  C144  1  0.24997458  0.27218064  0.73665391  1
  C  C145  1  0.25408358  0.60529435  0.75212217  1
  C  C146  1  0.25390419  0.93707943  0.74547632  1
  C  C147  1  0.74778995  0.28272441  0.75443703  1
  C  C148  1  0.74714305  0.61459256  0.75671040  1
  C  C149  1  0.75005219  0.95245879  0.75599711  1
  C  C150  1  0.75005219  0.04754121  0.25599711  1
  C  C151  1  0.74714305  0.38540744  0.25671040  1
  C  C152  1  0.74778995  0.71727559  0.25443703  1
  C  C153  1  0.25390419  0.06292057  0.24547632  1
  C  C154  1  0.25408358  0.39470565  0.25212217  1
  C  C155  1  0.24997458  0.72781936  0.23665391  1
  C  C156  1  0.75408358  0.10529435  0.75212217  1
  C  C157  1  0.75390419  0.43707943  0.74547632  1
  C  C158  1  0.74997458  0.77218064  0.73665391  1
  C  C159  1  0.24714305  0.11459256  0.75671040  1
  C  C160  1  0.25005219  0.45245879  0.75599711  1
  C  C161  1  0.24778995  0.78272441  0.75443703  1
  C  C162  1  0.24778995  0.21727559  0.25443703  1
  C  C163  1  0.25005219  0.54754121  0.25599711  1
  C  C164  1  0.24714305  0.88540744  0.25671040  1
  C  C165  1  0.74997458  0.22781936  0.23665391  1
  C  C166  1  0.75390419  0.56292057  0.24547632  1
  C  C167  1  0.75408358  0.89470565  0.25212217  1
  C  C168  1  0.33902140  0.28445656  0.56508826  1
  C  C169  1  0.34456865  0.61163676  0.58526572  1
  C  C170  1  0.34904625  0.94371827  0.58825090  1
  C  C171  1  0.63750395  0.28438216  0.91149694  1
  C  C172  1  0.63895388  0.61797316  0.91673394  1
  C  C173  1  0.64191518  0.95065805  0.91963720  1
  C  C174  1  0.64191518  0.04934195  0.41963720  1
  C  C175  1  0.63895388  0.38202684  0.41673394  1
  C  C176  1  0.63750395  0.71561784  0.41149694  1
  C  C177  1  0.34904625  0.05628173  0.08825090  1
  C  C178  1  0.34456865  0.38836324  0.08526572  1
  C  C179  1  0.33902140  0.71554344  0.06508826  1
  C  C180  1  0.84456865  0.11163676  0.58526572  1
  C  C181  1  0.84904625  0.44371827  0.58825090  1
  C  C182  1  0.83902140  0.78445656  0.56508826  1
  C  C183  1  0.13895388  0.11797316  0.91673394  1
  C  C184  1  0.14191518  0.45065805  0.91963720  1
  C  C185  1  0.13750395  0.78438216  0.91149694  1
  C  C186  1  0.13750395  0.21561784  0.41149694  1
  C  C187  1  0.14191518  0.54934195  0.41963720  1
  C  C188  1  0.13895388  0.88202684  0.41673394  1
  C  C189  1  0.83902140  0.21554344  0.06508826  1
  C  C190  1  0.84904625  0.55628173  0.08825090  1
  C  C191  1  0.84456865  0.88836324  0.08526572  1
  C  C192  1  0.46014666  0.27533587  0.92710318  1
  C  C193  1  0.46179155  0.60854555  0.94154714  1
  C  C194  1  0.46263847  0.94069706  0.93942501  1
  C  C195  1  0.54620943  0.28027499  0.55814932  1
  C  C196  1  0.54160754  0.61596039  0.55503982  1
  C  C197  1  0.54408444  0.94884209  0.55746511  1
  C  C198  1  0.54408444  0.05115791  0.05746511  1
  C  C199  1  0.54160754  0.38403961  0.05503982  1
  C  C200  1  0.54620943  0.71972501  0.05814932  1
  C  C201  1  0.46263847  0.05930294  0.43942501  1
  C  C202  1  0.46179155  0.39145445  0.44154714  1
  C  C203  1  0.46014666  0.72466413  0.42710318  1
  C  C204  1  0.96179155  0.10854555  0.94154714  1
  C  C205  1  0.96263847  0.44069706  0.93942501  1
  C  C206  1  0.96014666  0.77533587  0.92710318  1
  C  C207  1  0.04160754  0.11596039  0.55503982  1
  C  C208  1  0.04408444  0.44884209  0.55746511  1
  C  C209  1  0.04620943  0.78027499  0.55814932  1
  C  C210  1  0.04620943  0.21972501  0.05814932  1
  C  C211  1  0.04408444  0.55115791  0.05746511  1
  C  C212  1  0.04160754  0.88403961  0.05503982  1
  C  C213  1  0.96014666  0.22466413  0.42710318  1
  C  C214  1  0.96263847  0.55930294  0.43942501  1
  C  C215  1  0.96179155  0.89145445  0.44154714  1
  C  C216  1  0.08624681  0.28668866  0.74934621  1
  C  C217  1  0.09062080  0.62322167  0.75255079  1
  C  C218  1  0.08697787  0.95521316  0.74895276  1
  C  C219  1  0.93116116  0.28480443  0.75924115  1
  C  C220  1  0.93450918  0.61485430  0.75766095  1
  C  C221  1  0.93082807  0.95220826  0.75791187  1
  C  C222  1  0.93082807  0.04779174  0.25791187  1
  C  C223  1  0.93450918  0.38514570  0.25766095  1
  C  C224  1  0.93116116  0.71519557  0.25924115  1
  C  C225  1  0.08697787  0.04478684  0.24895276  1
  C  C226  1  0.09062080  0.37677833  0.25255079  1
  C  C227  1  0.08624681  0.71331134  0.24934621  1
  C  C228  1  0.59062080  0.12322167  0.75255079  1
  C  C229  1  0.58697787  0.45521316  0.74895276  1
  C  C230  1  0.58624681  0.78668866  0.74934621  1
  C  C231  1  0.43450918  0.11485430  0.75766095  1
  C  C232  1  0.43082807  0.45220826  0.75791187  1
  C  C233  1  0.43116116  0.78480443  0.75924115  1
  C  C234  1  0.43116116  0.21519557  0.25924115  1
  C  C235  1  0.43082807  0.54779174  0.25791187  1
  C  C236  1  0.43450918  0.88514570  0.25766095  1
  C  C237  1  0.58624681  0.21331134  0.24934621  1
  C  C238  1  0.58697787  0.54478684  0.24895276  1
  C  C239  1  0.59062080  0.87677833  0.25255079  1
