# generated using pymatgen
data_CuNiC7
_symmetry_space_group_name_H-M   'P 1'
_cell_length_a   3.94418575
_cell_length_b   3.94418523
_cell_length_c   13.87220385
_cell_angle_alpha   98.17294369
_cell_angle_beta   98.17294582
_cell_angle_gamma   89.99999361
_symmetry_Int_Tables_number   1
_chemical_formula_structural   CuNiC7
_chemical_formula_sum   'Cu2 Ni2 C14'
_cell_volume   211.39794531
_cell_formula_units_Z   2
loop_
 _symmetry_equiv_pos_site_id
 _symmetry_equiv_pos_as_xyz
  1  'x, y, z'
loop_
 _atom_site_type_symbol
 _atom_site_label
 _atom_site_symmetry_multiplicity
 _atom_site_fract_x
 _atom_site_fract_y
 _atom_site_fract_z
 _atom_site_occupancy
  Ni  Ni0  1  0.68878500  0.68878500  0.37757100  1
  Ni  Ni1  1  0.31121500  0.31121500  0.62242900  1
  Cu  Cu2  1  0.57210400  0.57210400  0.14420700  1
  Cu  Cu3  1  0.42789600  0.42789600  0.85579300  1
  C  C4  1  0.75000000  0.25000000  0.50000000  1
  C  C5  1  0.85446700  0.85446700  0.70893200  1
  C  C6  1  0.14553300  0.14553300  0.29106800  1
  C  C7  1  0.00000000  0.00000000  0.00000000  1
  C  C8  1  0.85703600  0.35703600  0.71407100  1
  C  C9  1  0.36436600  0.86436600  0.72873200  1
  C  C10  1  0.13563400  0.63563400  0.27126800  1
  C  C11  1  0.64296400  0.14296400  0.28592900  1
  C  C12  1  0.77927000  0.77927000  0.55853900  1
  C  C13  1  0.22073000  0.22073000  0.44146100  1
  C  C14  1  0.99938400  0.49938400  0.99876800  1
  C  C15  1  0.07186400  0.07186400  0.14372800  1
  C  C16  1  0.92813600  0.92813600  0.85627200  1
  C  C17  1  0.50061600  0.00061600  0.00123200  1
