# generated using pymatgen
data_CuNi2C15
_symmetry_space_group_name_H-M   'P 1'
_cell_length_a   8.45931969
_cell_length_b   8.46353604
_cell_length_c   22.04817955
_cell_angle_alpha   90.02708054
_cell_angle_beta   89.83895257
_cell_angle_gamma   119.97030331
_symmetry_Int_Tables_number   1
_chemical_formula_structural   CuNi2C15
_chemical_formula_sum   'Cu6 Ni12 C90'
_cell_volume   1367.47239959
_cell_formula_units_Z   6
loop_
 _symmetry_equiv_pos_site_id
 _symmetry_equiv_pos_as_xyz
  1  'x, y, z'
loop_
 _atom_site_type_symbol
 _atom_site_label
 _atom_site_symmetry_multiplicity
 _atom_site_fract_x
 _atom_site_fract_y
 _atom_site_fract_z
 _atom_site_occupancy
  C  C0  1  0.99670582  0.99593111  0.49970041  1
  C  C1  1  0.00330595  0.00018096  0.99900389  1
  C  C2  1  0.66667552  0.33243499  0.82998422  1
  C  C3  1  0.67434875  0.33682371  0.33244678  1
  C  C4  1  0.33085326  0.66002248  0.16184135  1
  C  C5  1  0.33361043  0.66654744  0.66614935  1
  C  C6  1  0.66424487  0.34064182  0.97884139  1
  C  C7  1  0.33107821  0.66714312  0.31091390  1
  C  C8  1  0.33247573  0.66703217  0.80938177  1
  C  C9  1  0.98188378  0.98943181  0.35245333  1
  C  C10  1  0.00053308  0.00025895  0.85229390  1
  C  C11  1  0.00051668  0.00013244  0.65257028  1
  C  C12  1  0.99823526  0.00167899  0.14533698  1
  C  C13  1  0.66682294  0.33376129  0.69100264  1
  C  C14  1  0.67741431  0.34946334  0.18506679  1
  C  C15  1  0.67385565  0.33303980  0.48029399  1
  C  C16  1  0.32582069  0.65829946  0.01895161  1
  C  C17  1  0.33488369  0.67603495  0.51750079  1
  Ni  Ni18  1  0.72491656  0.71433128  0.24797718  1
  Ni  Ni19  1  0.98693049  0.27173515  0.24853858  1
  Ni  Ni20  1  0.28510951  0.27490418  0.74854156  1
  Ni  Ni21  1  0.98945313  0.71490363  0.74853962  1
  Ni  Ni22  1  0.72537617  0.01045312  0.74857803  1
  Ni  Ni23  1  0.96475944  0.63056785  0.08652059  1
  Ni  Ni24  1  0.37170083  0.33399277  0.08767879  1
  Ni  Ni25  1  0.62527343  0.68147827  0.91832833  1
  Ni  Ni26  1  0.05013822  0.37156866  0.91813447  1
  Ni  Ni27  1  0.32229368  0.94765610  0.91894726  1
  Ni  Ni28  1  0.62660787  0.96043747  0.42022481  1
  Ni  Ni29  1  0.03939280  0.66967585  0.42009443  1
  Cu  Cu30  1  0.28653504  0.01076314  0.24897821  1
  Cu  Cu31  1  0.95585252  0.33348029  0.58339195  1
  Cu  Cu32  1  0.37961068  0.04737780  0.58323817  1
  Cu  Cu33  1  0.66582664  0.62013612  0.58296006  1
  Cu  Cu34  1  0.66529380  0.04104371  0.08586604  1
  Cu  Cu35  1  0.33283148  0.37304975  0.41958092  1
  C  C36  1  0.20648974  0.03307287  0.30522106  1
  C  C37  1  0.83163851  0.79496776  0.30640233  1
  C  C38  1  0.96930477  0.16762910  0.30729960  1
  C  C39  1  0.20279799  0.16732453  0.80612484  1
  C  C40  1  0.96439331  0.79712226  0.80622854  1
  C  C41  1  0.83244914  0.03529625  0.80612388  1
  C  C42  1  0.79949718  0.96847546  0.69115880  1
  C  C43  1  0.16928915  0.20088528  0.69125925  1
  C  C44  1  0.03183843  0.83086320  0.69117707  1
  C  C45  1  0.80257557  0.83358318  0.19266567  1
  C  C46  1  0.03190931  0.19751962  0.19290507  1
  C  C47  1  0.17373334  0.97036275  0.19514551  1
  C  C48  1  0.87334914  0.36603738  0.63724846  1
  C  C49  1  0.49338135  0.12868864  0.63720766  1
  C  C50  1  0.63446591  0.50672417  0.63715117  1
  C  C51  1  0.87388385  0.50393260  0.14043520  1
  C  C52  1  0.63452899  0.12696936  0.13941235  1
  C  C53  1  0.49726613  0.36239239  0.14131894  1
  C  C54  1  0.45972277  0.29957045  0.02918202  1
  C  C55  1  0.84085764  0.53935859  0.02900055  1
  C  C56  1  0.69936106  0.15416269  0.03016552  1
  C  C57  1  0.46315668  0.16036567  0.52817120  1
  C  C58  1  0.69551002  0.53604281  0.52794331  1
  C  C59  1  0.84229338  0.30249582  0.52849880  1
  C  C60  1  0.53422021  0.70083107  0.97458472  1
  C  C61  1  0.16334327  0.46148925  0.97377221  1
  C  C62  1  0.30104721  0.83422827  0.97454223  1
  C  C63  1  0.53560833  0.83414511  0.47422917  1
  C  C64  1  0.30051452  0.45948146  0.47244479  1
  C  C65  1  0.16331106  0.69843350  0.47409036  1
  C  C66  1  0.12678921  0.63270164  0.36202755  1
  C  C67  1  0.50516576  0.87077787  0.36222700  1
  C  C68  1  0.36844563  0.48732838  0.36341982  1
  C  C69  1  0.12805036  0.49361985  0.86074652  1
  C  C70  1  0.36482089  0.87033746  0.86091149  1
  C  C71  1  0.50537423  0.63558536  0.86081717  1
  C  C72  1  0.02800416  0.84151071  0.40806310  1
  C  C73  1  0.81354624  0.97847092  0.40978642  1
  C  C74  1  0.17064488  0.19408358  0.40995621  1
  C  C75  1  0.02629252  0.18481140  0.90838839  1
  C  C76  1  0.16017762  0.97314549  0.90898682  1
  C  C77  1  0.81399771  0.84104938  0.90892272  1
  C  C78  1  0.97521536  0.16942688  0.58970251  1
  C  C79  1  0.19523116  0.02623502  0.58952996  1
  C  C80  1  0.82954325  0.80394636  0.58923550  1
  C  C81  1  0.97625088  0.81555794  0.09304363  1
  C  C82  1  0.83037308  0.02536074  0.09151253  1
  C  C83  1  0.18489308  0.16196841  0.09311386  1
  C  C84  1  0.69407458  0.17232680  0.73983521  1
  C  C85  1  0.47819093  0.30586237  0.73983889  1
  C  C86  1  0.82773669  0.52186525  0.73991494  1
  C  C87  1  0.69092354  0.51971742  0.24197952  1
  C  C88  1  0.82395297  0.30210926  0.24132743  1
  C  C89  1  0.47151978  0.16543503  0.24243380  1
  C  C90  1  0.64138312  0.50408887  0.92296491  1
  C  C91  1  0.85847035  0.35524276  0.92439827  1
  C  C92  1  0.49899990  0.13887871  0.92450533  1
  C  C93  1  0.63990880  0.14695590  0.42716774  1
  C  C94  1  0.49782273  0.35803210  0.42658660  1
  C  C95  1  0.85134714  0.49823006  0.42713700  1
  C  C96  1  0.36012898  0.50580704  0.07620956  1
  C  C97  1  0.15013271  0.64622506  0.07557901  1
  C  C98  1  0.50251694  0.86142832  0.07758383  1
  C  C99  1  0.36041669  0.86232610  0.57573741  1
  C  C100  1  0.49955188  0.63821905  0.57496714  1
  C  C101  1  0.14044508  0.49842848  0.57479489  1
  C  C102  1  0.30607902  0.84105830  0.25501368  1
  C  C103  1  0.52802918  0.69270652  0.25743024  1
  C  C104  1  0.16249033  0.47008524  0.25779254  1
  C  C105  1  0.30774220  0.47045606  0.75522106  1
  C  C106  1  0.16262255  0.69244026  0.75502916  1
  C  C107  1  0.52979301  0.83729222  0.75519802  1
