# generated using pymatgen
data_CuNi5C29
_symmetry_space_group_name_H-M   'P 1'
_cell_length_a   8.66352423
_cell_length_b   8.67418160
_cell_length_c   22.57921338
_cell_angle_alpha   90.00765227
_cell_angle_beta   89.87098754
_cell_angle_gamma   120.02776931
_symmetry_Int_Tables_number   1
_chemical_formula_structural   CuNi5C29
_chemical_formula_sum   'Cu3 Ni15 C87'
_cell_volume   1469.06010336
_cell_formula_units_Z   3
loop_
 _symmetry_equiv_pos_site_id
 _symmetry_equiv_pos_as_xyz
  1  'x, y, z'
loop_
 _atom_site_type_symbol
 _atom_site_label
 _atom_site_symmetry_multiplicity
 _atom_site_fract_x
 _atom_site_fract_y
 _atom_site_fract_z
 _atom_site_occupancy
  C  C0  1  0.66956185  0.33678857  0.83286736  1
  C  C1  1  0.66725780  0.33400252  0.33203135  1
  C  C2  1  0.33346638  0.66678536  0.16680411  1
  C  C3  1  0.98993410  0.99946455  0.85448968  1
  C  C4  1  0.00695867  0.99824278  0.64812083  1
  C  C5  1  0.66124372  0.32418258  0.68857085  1
  C  C6  1  0.65711205  0.32727104  0.47751931  1
  C  C7  1  0.33255126  0.67299649  0.51854433  1
  C  C8  1  0.32987101  0.65516769  0.80826614  1
  C  C9  1  0.00067809  0.00012369  0.35512144  1
  C  C10  1  0.99977319  0.00049248  0.14525153  1
  C  C11  1  0.66710024  0.33304742  0.18600857  1
  C  C12  1  0.67088913  0.33806386  0.98176186  1
  C  C13  1  0.33491864  0.66314820  0.01971726  1
  C  C14  1  0.33294051  0.66624553  0.31381312  1
  Ni  Ni15  1  0.29059572  -0.00006023  0.25005205  1
  Ni  Ni16  1  0.70976637  0.70924900  0.25020557  1
  Ni  Ni17  1  -0.00030489  0.29025019  0.25018852  1
  Ni  Ni18  1  0.28458952  0.28237561  0.75038557  1
  Ni  Ni19  1  0.99944123  0.71265148  0.75084776  1
  Ni  Ni20  1  0.71280953  0.99745165  0.74938878  1
  Ni  Ni21  1  0.37912769  0.04530417  0.58333633  1
  Ni  Ni22  1  0.96027987  0.62716120  0.08361018  1
  Ni  Ni23  1  0.66638072  0.04147457  0.08300008  1
  Ni  Ni24  1  0.37516407  0.33211372  0.08344014  1
  Ni  Ni25  1  0.62088897  0.66634801  0.91433824  1
  Ni  Ni26  1  0.04511473  0.37712507  0.91454417  1
  Ni  Ni27  1  0.62216844  0.95578538  0.41787206  1
  Ni  Ni28  1  0.33264637  0.37978152  0.41860393  1
  Ni  Ni29  1  0.04122949  0.66402504  0.41816114  1
  Cu  Cu30  1  0.95404030  0.33220030  0.58334817  1
  Cu  Cu31  1  0.66652051  0.62097981  0.58354866  1
  Cu  Cu32  1  0.33048460  0.95515315  0.91429526  1
  C  C33  1  0.21399985  0.03529685  0.30687782  1
  C  C34  1  0.82149295  0.78628184  0.30688297  1
  C  C35  1  0.96431559  0.17820310  0.30690289  1
  C  C36  1  0.20199521  0.16710063  0.80526138  1
  C  C37  1  0.96697781  0.80015443  0.80492257  1
  C  C38  1  0.83173682  0.03451029  0.80471308  1
  C  C39  1  0.80203364  0.97101116  0.69443575  1
  C  C40  1  0.16957611  0.19897400  0.69445785  1
  C  C41  1  0.02943865  0.83076004  0.69482856  1
  C  C42  1  0.78708631  0.82181450  0.19431612  1
  C  C43  1  0.03502814  0.21315483  0.19430898  1
  C  C44  1  0.17803788  0.96509987  0.19436263  1
  C  C45  1  0.87084388  0.36377533  0.63672721  1
  C  C46  1  0.50032659  0.13800310  0.63825867  1
  C  C47  1  0.63738149  0.50727000  0.63659046  1
  C  C48  1  0.88308870  0.50907195  0.13906360  1
  C  C49  1  0.62657075  0.11814987  0.13884475  1
  C  C50  1  0.49221783  0.37217607  0.13896154  1
  C  C51  1  0.45304059  0.29836102  0.02640568  1
  C  C52  1  0.84853755  0.55049257  0.02681993  1
  C  C53  1  0.69989569  0.15348889  0.02614038  1
  C  C54  1  0.47010268  0.16689947  0.52907785  1
  C  C55  1  0.69866176  0.53942573  0.53049500  1
  C  C56  1  0.84112195  0.30311722  0.53066115  1
  C  C57  1  0.55031594  0.70631926  0.97127133  1
  C  C58  1  0.15446842  0.45193602  0.97129610  1
  C  C59  1  0.29906321  0.85111453  0.96990781  1
  C  C60  1  0.52892001  0.83659584  0.47256765  1
  C  C61  1  0.30850371  0.47311016  0.47304648  1
  C  C62  1  0.16361275  0.69228512  0.47251915  1
  C  C63  1  0.11432049  0.62189754  0.36210280  1
  C  C64  1  0.50731679  0.88522089  0.36191522  1
  C  C65  1  0.37782029  0.49300184  0.36194980  1
  C  C66  1  0.13662830  0.49921664  0.86043495  1
  C  C67  1  0.36340253  0.87236595  0.86285670  1
  C  C68  1  0.50040141  0.63857133  0.86043812  1
  C  C69  1  0.02580009  0.83058667  0.41245403  1
  C  C70  1  0.80559034  0.97437123  0.41240693  1
  C  C71  1  0.16967584  0.19505364  0.41252901  1
  C  C72  1  0.02604433  0.19285051  0.90366912  1
  C  C73  1  0.17319986  0.97522983  0.90667396  1
  C  C74  1  0.80715905  0.83084684  0.90372332  1
  C  C75  1  0.97151650  0.17340808  0.59269212  1
  C  C76  1  0.19522007  0.02721746  0.59481227  1
  C  C77  1  0.82572135  0.79858388  0.59260348  1
  C  C78  1  0.97645884  0.80812607  0.09002736  1
  C  C79  1  0.83114736  0.02441090  0.08949098  1
  C  C80  1  0.19318408  0.16760206  0.08959843  1
  C  C81  1  0.69382513  0.16674629  0.74049683  1
  C  C82  1  0.47470222  0.30880218  0.74034812  1
  C  C83  1  0.83405861  0.52633550  0.73963418  1
  C  C84  1  0.69082336  0.52290713  0.24559956  1
  C  C85  1  0.83204954  0.30906801  0.24567261  1
  C  C86  1  0.47712566  0.16768952  0.24562943  1
  C  C87  1  0.63939955  0.49770062  0.91915630  1
  C  C88  1  0.85646820  0.35618129  0.91903564  1
  C  C89  1  0.49451637  0.13523548  0.91999871  1
  C  C90  1  0.64186936  0.14278734  0.42803298  1
  C  C91  1  0.50143211  0.36013516  0.42803185  1
  C  C92  1  0.85628801  0.49751607  0.42934895  1
  C  C93  1  0.35911619  0.50130771  0.07868700  1
  C  C94  1  0.14574065  0.64388225  0.07736651  1
  C  C95  1  0.49637997  0.85667473  0.07736440  1
  C  C96  1  0.36001360  0.86159155  0.57288384  1
  C  C97  1  0.50717617  0.63836010  0.57496057  1
  C  C98  1  0.13160508  0.49180578  0.57492817  1
  C  C99  1  0.30898489  0.83224139  0.25518545  1
  C  C100  1  0.52349446  0.69110590  0.25520866  1
  C  C101  1  0.16757664  0.47642077  0.25513207  1
  C  C102  1  0.30695749  0.46944647  0.75918560  1
  C  C103  1  0.16531095  0.69455925  0.76098431  1
  C  C104  1  0.52755290  0.83692504  0.76110296  1
