# generated using pymatgen
data_CuNi8
_symmetry_space_group_name_H-M   'P 1'
_cell_length_a   8.53297500
_cell_length_b   8.72448100
_cell_length_c   14.21235300
_cell_angle_alpha   90.00000000
_cell_angle_beta   90.00000000
_cell_angle_gamma   90.00000000
_symmetry_Int_Tables_number   1
_chemical_formula_structural   CuNi8
_chemical_formula_sum   'Cu4 Ni32'
_cell_volume   1058.04968000
_cell_formula_units_Z   4
loop_
 _symmetry_equiv_pos_site_id
 _symmetry_equiv_pos_as_xyz
  1  'x, y, z'
loop_
 _atom_site_type_symbol
 _atom_site_label
 _atom_site_symmetry_multiplicity
 _atom_site_fract_x
 _atom_site_fract_y
 _atom_site_fract_z
 _atom_site_occupancy
  Ni  Ni0  1  0.53258500  0.49205000  0.36193000  1
  Ni  Ni1  1  0.46741500  0.99205000  0.63807000  1
  Ni  Ni2  1  0.46741500  0.49205000  0.86193000  1
  Ni  Ni3  1  0.53258500  0.99205000  0.13807000  1
  Ni  Ni4  1  0.49032600  0.35505000  0.47196400  1
  Ni  Ni5  1  0.50967400  0.85505000  0.52803600  1
  Ni  Ni6  1  0.50967400  0.35505000  0.97196400  1
  Ni  Ni7  1  0.49032600  0.85505000  0.02803600  1
  Ni  Ni8  1  0.64004500  0.41153200  0.58337900  1
  Ni  Ni9  1  0.35995500  0.91153200  0.41662100  1
  Ni  Ni10  1  0.35995500  0.41153200  0.08337900  1
  Ni  Ni11  1  0.64004500  0.91153200  0.91662100  1
  Ni  Ni12  1  0.82100100  0.25608900  0.58512600  1
  Ni  Ni13  1  0.17899900  0.75608900  0.41487400  1
  Ni  Ni14  1  0.17899900  0.25608900  0.08512600  1
  Ni  Ni15  1  0.82100100  0.75608900  0.91487400  1
  Ni  Ni16  1  0.01442000  0.35347800  0.52370200  1
  Ni  Ni17  1  0.98558000  0.85347800  0.47629800  1
  Ni  Ni18  1  0.98558000  0.35347800  0.02370200  1
  Ni  Ni19  1  0.01442000  0.85347800  0.97629800  1
  Ni  Ni20  1  0.02675700  0.28389800  0.38286300  1
  Ni  Ni21  1  0.97324300  0.78389800  0.61713700  1
  Ni  Ni22  1  0.97324300  0.28389800  0.88286300  1
  Ni  Ni23  1  0.02675700  0.78389800  0.11713700  1
  Ni  Ni24  1  0.93199900  0.44542100  0.30066900  1
  Ni  Ni25  1  0.06800100  0.94542100  0.69933100  1
  Ni  Ni26  1  0.06800100  0.44542100  0.80066900  1
  Ni  Ni27  1  0.93199900  0.94542100  0.19933100  1
  Ni  Ni28  1  0.69116100  0.85042800  0.23051400  1
  Ni  Ni29  1  0.30883900  0.35042800  0.76948600  1
  Ni  Ni30  1  0.30883900  0.85042800  0.73051400  1
  Ni  Ni31  1  0.69116100  0.35042800  0.26948600  1
  Cu  Cu32  1  0.68954800  0.69325300  0.19060800  1
  Cu  Cu33  1  0.31045200  0.19325300  0.80939200  1
  Cu  Cu34  1  0.31045200  0.69325300  0.69060800  1
  Cu  Cu35  1  0.68954800  0.19325300  0.30939200  1
