# generated using pymatgen
data_CuNiC6
_symmetry_space_group_name_H-M   'P 1'
_cell_length_a   3.97723342
_cell_length_b   3.97723336
_cell_length_c   9.60017386
_cell_angle_alpha   112.57588317
_cell_angle_beta   112.57588427
_cell_angle_gamma   86.61867059
_symmetry_Int_Tables_number   1
_chemical_formula_structural   CuNiC6
_chemical_formula_sum   'Cu1 Ni1 C6'
_cell_volume   128.77971531
_cell_formula_units_Z   1
loop_
 _symmetry_equiv_pos_site_id
 _symmetry_equiv_pos_as_xyz
  1  'x, y, z'
loop_
 _atom_site_type_symbol
 _atom_site_label
 _atom_site_symmetry_multiplicity
 _atom_site_fract_x
 _atom_site_fract_y
 _atom_site_fract_z
 _atom_site_occupancy
  C  C0  1  0.62996011  0.62996011  0.28867365  1
  C  C1  1  0.39479103  0.39479103  0.60438586  1
  Ni  Ni2  1  0.11182521  0.11182521  0.85381475  1
  Cu  Cu3  1  0.93114019  0.93114019  0.06992046  1
  C  C4  1  0.96020458  0.96020458  0.60675572  1
  C  C5  1  0.20890858  0.20890858  0.31257633  1
  C  C6  1  0.97240162  0.45743568  0.05323312  1
  C  C7  1  0.45743568  0.97240162  0.05323312  1
