# generated using pymatgen
data_Cu7Ni5C62
_symmetry_space_group_name_H-M   'P 1'
_cell_length_a   18.45016066
_cell_length_b   9.19385994
_cell_length_c   23.45652940
_cell_angle_alpha   89.97287301
_cell_angle_beta   89.78595468
_cell_angle_gamma   119.95244609
_symmetry_Int_Tables_number   1
_chemical_formula_structural   Cu7Ni5C62
_chemical_formula_sum   'Cu21 Ni15 C186'
_cell_volume   3447.43207125
_cell_formula_units_Z   3
loop_
 _symmetry_equiv_pos_site_id
 _symmetry_equiv_pos_as_xyz
  1  'x, y, z'
loop_
 _atom_site_type_symbol
 _atom_site_label
 _atom_site_symmetry_multiplicity
 _atom_site_fract_x
 _atom_site_fract_y
 _atom_site_fract_z
 _atom_site_occupancy
  C  C0  1  0.99782144  0.62287978  0.26066259  1
  C  C1  1  0.49936932  0.63038112  0.25019773  1
  C  C2  1  0.99872868  0.37371137  0.74879970  1
  C  C3  1  0.50035073  0.36175654  0.75670049  1
  C  C4  1  0.66409016  0.30942846  0.92076128  1
  C  C5  1  0.16267510  0.00737520  0.43789385  1
  C  C6  1  0.00279724  0.99153479  0.50917211  1
  C  C7  1  0.50714064  0.98712459  0.50366734  1
  C  C8  1  0.00968618  0.02428116  0.99449452  1
  C  C9  1  0.50611386  0.02469536  0.00311344  1
  C  C10  1  0.32935981  0.31140107  0.84274952  1
  C  C11  1  0.82673531  0.33003680  0.81798907  1
  C  C12  1  0.34468201  0.35233449  0.32648834  1
  C  C13  1  0.82290548  0.34059343  0.34728537  1
  C  C14  1  0.19896865  0.64638130  0.16448384  1
  C  C15  1  0.67446254  0.64239147  0.15851457  1
  C  C16  1  0.17776012  0.71368841  0.66280619  1
  C  C17  1  0.69165700  0.70537537  0.67514509  1
  C  C18  1  0.99693239  0.99542073  0.35807416  1
  C  C19  1  0.50149657  0.00727941  0.85451060  1
  C  C20  1  0.32321016  0.33412392  0.67883117  1
  C  C21  1  0.82443569  0.31591668  0.68791461  1
  C  C22  1  0.32930297  0.34127144  0.18618732  1
  C  C23  1  0.82180863  0.31457703  0.17925466  1
  C  C24  1  0.83213497  0.32183778  0.98688618  1
  C  C25  1  0.33452599  0.34790128  0.48900548  1
  C  C26  1  0.16962076  0.66378860  0.31426005  1
  C  C27  1  0.66984812  0.64860430  0.31363861  1
  C  C28  1  0.17104293  0.69167110  0.81428164  1
  C  C29  1  0.66631100  0.66186259  0.81194476  1
  C  C30  1  0.49799272  0.01682516  0.35205547  1
  C  C31  1  0.99843273  0.97761664  0.85062233  1
  C  C32  1  0.99897603  0.98526033  0.65037156  1
  C  C33  1  0.50926536  0.00019846  0.64382231  1
  C  C34  1  0.00275074  0.01565350  0.13932937  1
  C  C35  1  0.49821914  0.01329371  0.14898618  1
  C  C36  1  0.32750943  0.32253726  0.97991696  1
  C  C37  1  0.82856464  0.33559190  0.48080789  1
  C  C38  1  0.16238429  0.66616051  0.01725928  1
  C  C39  1  0.66433951  0.65560602  0.02103989  1
  C  C40  1  0.16389428  0.67189899  0.52287967  1
  C  C41  1  0.66170882  0.65580440  0.51834326  1
  Ni  Ni42  1  0.35574799  0.71454636  0.25119245  1
  Ni  Ni43  1  0.49983358  0.30171522  0.24903545  1
  Ni  Ni44  1  0.64474596  0.29479793  0.75188297  1
  Ni  Ni45  1  0.00330827  0.70017668  0.74815028  1
  Ni  Ni46  1  0.85644107  0.99880030  0.75177755  1
  Ni  Ni47  1  0.17662598  0.03567019  0.57819930  1
  Ni  Ni48  1  0.68811092  0.03238938  0.58263457  1
  Ni  Ni49  1  0.33414811  0.64656481  0.58368759  1
  Ni  Ni50  1  0.82979649  0.02398827  0.08386879  1
  Ni  Ni51  1  0.18840216  0.34627669  0.08407598  1
  Ni  Ni52  1  0.67676287  0.32110145  0.07840537  1
  Ni  Ni53  1  0.51697443  0.37335612  0.91421798  1
  Ni  Ni54  1  0.16165505  0.96498821  0.91878138  1
  Ni  Ni55  1  0.66330476  0.35988758  0.41761471  1
  Ni  Ni56  1  0.01936692  0.65772917  0.41179472  1
  Cu  Cu57  1  0.14116328  0.99736988  0.24955109  1
  Cu  Cu58  1  0.64403699  0.00611804  0.25226326  1
  Cu  Cu59  1  0.85885080  0.71145505  0.24678211  1
  Cu  Cu60  1  0.99926008  0.29304589  0.24808009  1
  Cu  Cu61  1  0.14470056  0.28331291  0.75250530  1
  Cu  Cu62  1  0.49604674  0.70117180  0.74874907  1
  Cu  Cu63  1  0.35613839  0.00425720  0.74629842  1
  Cu  Cu64  1  0.48508670  0.33497326  0.58603198  1
  Cu  Cu65  1  0.97856256  0.32705464  0.58172264  1
  Cu  Cu66  1  0.83259870  0.63189376  0.58116490  1
  Cu  Cu67  1  0.47940166  0.63137358  0.08250524  1
  Cu  Cu68  1  0.98563332  0.63328407  0.08749787  1
  Cu  Cu69  1  0.33084765  0.03295664  0.08228332  1
  Cu  Cu70  1  0.31154603  0.66259870  0.91888922  1
  Cu  Cu71  1  0.81486060  0.66958207  0.91932663  1
  Cu  Cu72  1  0.02003918  0.37191417  0.91498679  1
  Cu  Cu73  1  0.66760933  0.96290309  0.91827316  1
  Cu  Cu74  1  0.31445323  0.96205646  0.41865589  1
  Cu  Cu75  1  0.81049036  0.96023532  0.41790709  1
  Cu  Cu76  1  0.16995502  0.37045169  0.41769464  1
  Cu  Cu77  1  0.51892578  0.66576469  0.41413385  1
  C  C78  1  0.10339541  0.01258484  0.30384225  1
  C  C79  1  0.60078701  0.01785619  0.30431758  1
  C  C80  1  0.41296124  0.81626270  0.30741811  1
  C  C81  1  0.90457383  0.79443009  0.30001895  1
  C  C82  1  0.49930978  0.19600841  0.30662773  1
  C  C83  1  0.99430694  0.19836881  0.30008886  1
  C  C84  1  0.10186923  0.18401476  0.80449009  1
  C  C85  1  0.60393041  0.20451590  0.81349657  1
  C  C86  1  0.48643503  0.78206783  0.80014231  1
  C  C87  1  0.00241806  0.80367327  0.80610961  1
  C  C88  1  0.40041845  0.00954118  0.79970316  1
  C  C89  1  0.91476469  0.00845626  0.80745159  1
  C  C90  1  0.40058446  0.99611966  0.69545638  1
  C  C91  1  0.90866319  0.99113762  0.69480014  1
  C  C92  1  0.09617202  0.19683443  0.70037536  1
  C  C93  1  0.58209705  0.17326536  0.70024221  1
  C  C94  1  0.01164718  0.81770375  0.69232962  1
  C  C95  1  0.49552867  0.79170736  0.69618020  1
  C  C96  1  0.40768823  0.82130767  0.19395486  1
  C  C97  1  0.90573607  0.81074967  0.19666087  1
  C  C98  1  0.00156893  0.20025308  0.19664926  1
  C  C99  1  0.50707137  0.20169873  0.19281226  1
  C  C100  1  0.08846341  0.98921207  0.20040781  1
  C  C101  1  0.59547147  0.99550515  0.20027353  1
  C  C102  1  0.44798397  0.35697683  0.63878451  1
  C  C103  1  0.94939634  0.36141418  0.63571786  1
  C  C104  1  0.23893458  0.12589722  0.63105006  1
  C  C105  1  0.74024463  0.09758606  0.64017377  1
  C  C106  1  0.31684497  0.52874881  0.63933735  1
  C  C107  1  0.81999039  0.53285299  0.63233555  1
  C  C108  1  0.44874174  0.53750557  0.13725210  1
  C  C109  1  0.94920047  0.53747847  0.14071251  1
  C  C110  1  0.31844700  0.10727306  0.13419413  1
  C  C111  1  0.81809188  0.10785700  0.14129201  1
  C  C112  1  0.23764130  0.37820355  0.14339447  1
  C  C113  1  0.73736310  0.35443303  0.13291735  1
  C  C114  1  0.23839263  0.31724745  0.03176616  1
  C  C115  1  0.71938763  0.30798600  0.01900982  1
  C  C116  1  0.42403335  0.53579419  0.03485256  1
  C  C117  1  0.93236324  0.55607683  0.03755122  1
  C  C118  1  0.34266578  0.13680565  0.03108670  1
  C  C119  1  0.85353117  0.14871483  0.02961273  1
  C  C120  1  0.21944990  0.13289332  0.51843503  1
  C  C121  1  0.73929496  0.16325290  0.52976989  1
  C  C122  1  0.35489010  0.56525027  0.52842251  1
  C  C123  1  0.84551680  0.55329676  0.52927029  1
  C  C124  1  0.43326948  0.31239842  0.53530165  1
  C  C125  1  0.92429667  0.31390296  0.53309501  1
  C  C126  1  0.26217590  0.67213378  0.96823328  1
  C  C127  1  0.77575673  0.69011648  0.97191596  1
  C  C128  1  0.07308462  0.46441438  0.96614188  1
  C  C129  1  0.58830406  0.49235715  0.96231478  1
  C  C130  1  0.15429825  0.84320061  0.97348843  1
  C  C131  1  0.66923088  0.87364321  0.97016850  1
  C  C132  1  0.27457105  0.86326169  0.47066159  1
  C  C133  1  0.76348765  0.85207198  0.46691096  1
  C  C134  1  0.16767249  0.46003644  0.46866676  1
  C  C135  1  0.65484173  0.46651723  0.47125628  1
  C  C136  1  0.09220282  0.68782534  0.45877280  1
  C  C137  1  0.57070389  0.67602282  0.46467845  1
  C  C138  1  0.05138980  0.63738461  0.34848594  1
  C  C139  1  0.56073979  0.65783654  0.36070500  1
  C  C140  1  0.26220607  0.87847269  0.36777275  1
  C  C141  1  0.76618125  0.88963642  0.36385584  1
  C  C142  1  0.17448552  0.46168724  0.36458808  1
  C  C143  1  0.68021676  0.46798365  0.35932373  1
  C  C144  1  0.06244215  0.46430635  0.86227229  1
  C  C145  1  0.54865672  0.46074958  0.85200425  1
  C  C146  1  0.17803301  0.88842275  0.86136252  1
  C  C147  1  0.67186013  0.87983539  0.86601094  1
  C  C148  1  0.26610865  0.64232600  0.86531759  1
  C  C149  1  0.76234442  0.64628264  0.86921109  1
  C  C150  1  0.01579435  0.83543830  0.41432997  1
  C  C151  1  0.51023895  0.81748184  0.41391943  1
  C  C152  1  0.39854359  0.97763569  0.41323984  1
  C  C153  1  0.89461198  0.97453208  0.41706729  1
  C  C154  1  0.09242546  0.19997239  0.41664378  1
  C  C155  1  0.57997855  0.17193480  0.41445636  1
  C  C156  1  0.01089886  0.20273049  0.91479528  1
  C  C157  1  0.51207291  0.18912703  0.91917504  1
  C  C158  1  0.07818069  0.98462937  0.91625274  1
  C  C159  1  0.58948258  0.97502508  0.91932035  1
  C  C160  1  0.39447264  0.81494752  0.91917604  1
  C  C161  1  0.89934433  0.82195645  0.91413637  1
  C  C162  1  0.49838030  0.18956445  0.59002309  1
  C  C163  1  0.98431944  0.17204797  0.58468552  1
  C  C164  1  0.08456059  0.02168696  0.58577576  1
  C  C165  1  0.59411209  0.01485450  0.58689621  1
  C  C166  1  0.41396911  0.83688860  0.59257687  1
  C  C167  1  0.90760206  0.80317801  0.58580753  1
  C  C168  1  0.48534404  0.79790306  0.08649375  1
  C  C169  1  0.00018932  0.80752264  0.09381816  1
  C  C170  1  0.40613272  0.01294780  0.08707764  1
  C  C171  1  0.91192740  0.99405230  0.09259715  1
  C  C172  1  0.09330500  0.17461386  0.08877443  1
  C  C173  1  0.58430566  0.15001006  0.08660943  1
  C  C174  1  0.35120155  0.16191012  0.74561361  1
  C  C175  1  0.85668796  0.17577158  0.74993770  1
  C  C176  1  0.22941384  0.30350383  0.75078528  1
  C  C177  1  0.73719513  0.31799239  0.74711868  1
  C  C178  1  0.42556774  0.52344155  0.74686189  1
  C  C179  1  0.92062264  0.51904959  0.74572950  1
  C  C180  1  0.35175488  0.53233849  0.25049933  1
  C  C181  1  0.85333962  0.54397337  0.24573005  1
  C  C182  1  0.41594676  0.31620355  0.24800356  1
  C  C183  1  0.92654023  0.32064694  0.24617665  1
  C  C184  1  0.22632759  0.13992051  0.24537126  1
  C  C185  1  0.72872379  0.15592630  0.25104828  1
  C  C186  1  0.32165205  0.51239466  0.92575094  1
  C  C187  1  0.82427825  0.51855864  0.92317580  1
  C  C188  1  0.42464110  0.35344213  0.92894081  1
  C  C189  1  0.93837709  0.36425108  0.92012611  1
  C  C190  1  0.24610552  0.15181735  0.92681708  1
  C  C191  1  0.74035587  0.13968985  0.91801494  1
  C  C192  1  0.32344586  0.13140960  0.42157821  1
  C  C193  1  0.82243188  0.13156699  0.42440842  1
  C  C194  1  0.24286851  0.34207948  0.41756227  1
  C  C195  1  0.74777257  0.34241942  0.42584439  1
  C  C196  1  0.43602038  0.51039761  0.41756642  1
  C  C197  1  0.92680789  0.49574512  0.42577341  1
  C  C198  1  0.17215924  0.50500428  0.07278339  1
  C  C199  1  0.66048324  0.48346783  0.07464096  1
  C  C200  1  0.06918058  0.64681140  0.07895724  1
  C  C201  1  0.56520206  0.65752142  0.07266833  1
  C  C202  1  0.25642895  0.86083408  0.07480957  1
  C  C203  1  0.74760993  0.83797934  0.07504750  1
  C  C204  1  0.15941326  0.83926993  0.57349279  1
  C  C205  1  0.67164348  0.84248252  0.56727171  1
  C  C206  1  0.24878513  0.65989387  0.57275706  1
  C  C207  1  0.75783670  0.65340485  0.57254843  1
  C  C208  1  0.06503288  0.47208967  0.57052939  1
  C  C209  1  0.56911413  0.49062169  0.57814114  1
  C  C210  1  0.14357959  0.83758822  0.24972347  1
  C  C211  1  0.64933333  0.85035628  0.25471461  1
  C  C212  1  0.26337442  0.69734045  0.25215941  1
  C  C213  1  0.77442282  0.69356495  0.24716425  1
  C  C214  1  0.07701521  0.46153174  0.24762364  1
  C  C215  1  0.58155821  0.49271777  0.24929864  1
  C  C216  1  0.14951599  0.44887780  0.75522844  1
  C  C217  1  0.64432184  0.47284414  0.74713302  1
  C  C218  1  0.08579550  0.67560548  0.74851464  1
  C  C219  1  0.57559898  0.69775146  0.74961259  1
  C  C220  1  0.27055104  0.85446809  0.74675830  1
  C  C221  1  0.76483400  0.83469549  0.75459846  1
