# generated using pymatgen
data_Cu2Ni4C5
_symmetry_space_group_name_H-M   'P 1'
_cell_length_a   4.15355400
_cell_length_b   17.38057600
_cell_length_c   17.77288100
_cell_angle_alpha   90.00000000
_cell_angle_beta   90.00000000
_cell_angle_gamma   90.00000000
_symmetry_Int_Tables_number   1
_chemical_formula_structural   Cu2Ni4C5
_chemical_formula_sum   'Cu8 Ni16 C20'
_cell_volume   1283.04491312
_cell_formula_units_Z   4
loop_
 _symmetry_equiv_pos_site_id
 _symmetry_equiv_pos_as_xyz
  1  'x, y, z'
loop_
 _atom_site_type_symbol
 _atom_site_label
 _atom_site_symmetry_multiplicity
 _atom_site_fract_x
 _atom_site_fract_y
 _atom_site_fract_z
 _atom_site_occupancy
  Ni  Ni0  1  0.25000000  0.18899900  0.91989800  1
  Ni  Ni1  1  0.25000000  0.68899900  0.58010200  1
  Ni  Ni2  1  0.75000000  0.81100100  0.08010200  1
  Ni  Ni3  1  0.25000000  0.43048100  0.91642300  1
  Ni  Ni4  1  0.75000000  0.56951900  0.08357700  1
  Ni  Ni5  1  0.25000000  0.93048100  0.58357700  1
  Ni  Ni6  1  0.75000000  0.06951900  0.41642300  1
  Ni  Ni7  1  0.25000000  0.18472200  0.26111700  1
  Ni  Ni8  1  0.75000000  0.81527800  0.73888300  1
  Ni  Ni9  1  0.25000000  0.68472200  0.23888300  1
  Ni  Ni10  1  0.75000000  0.31527800  0.76111700  1
  Ni  Ni11  1  0.25000000  0.18330100  0.57206700  1
  Ni  Ni12  1  0.75000000  0.81669900  0.42793300  1
  Ni  Ni13  1  0.25000000  0.68330100  0.92793300  1
  Ni  Ni14  1  0.75000000  0.31669900  0.07206700  1
  Ni  Ni15  1  0.75000000  0.31100100  0.41989800  1
  Cu  Cu16  1  0.75000000  0.56970900  0.75661500  1
  Cu  Cu17  1  0.25000000  0.43029100  0.24338500  1
  Cu  Cu18  1  0.25000000  0.93029100  0.25661500  1
  Cu  Cu19  1  0.75000000  0.06970900  0.74338500  1
  Cu  Cu20  1  0.25000000  0.44243000  0.58865300  1
  Cu  Cu21  1  0.75000000  0.55757000  0.41134700  1
  Cu  Cu22  1  0.25000000  0.94243000  0.91134700  1
  Cu  Cu23  1  0.75000000  0.05757000  0.08865300  1
  C  C24  1  0.25000000  0.43578100  0.41846900  1
  C  C25  1  0.75000000  0.56421900  0.58153100  1
  C  C26  1  0.25000000  0.93578100  0.08153100  1
  C  C27  1  0.75000000  0.06421900  0.91846900  1
  C  C28  1  0.75000000  0.54959900  0.90652900  1
  C  C29  1  0.25000000  0.95040100  0.40652900  1
  C  C30  1  0.75000000  0.04959900  0.59347100  1
  C  C31  1  0.25000000  0.17934800  0.73618400  1
  C  C32  1  0.75000000  0.82065200  0.26381600  1
  C  C33  1  0.25000000  0.67934800  0.76381600  1
  C  C34  1  0.75000000  0.32065200  0.23618400  1
  C  C35  1  0.25000000  0.45575800  0.74160800  1
  C  C36  1  0.75000000  0.54424200  0.25839200  1
  C  C37  1  0.25000000  0.95575800  0.75839200  1
  C  C38  1  0.75000000  0.04424200  0.24160800  1
  C  C39  1  0.75000000  0.33676700  0.59595700  1
  C  C40  1  0.25000000  0.66323300  0.40404300  1
  C  C41  1  0.25000000  0.45040100  0.09347100  1
  C  C42  1  0.25000000  0.16323300  0.09595700  1
  C  C43  1  0.75000000  0.83676700  0.90404300  1
