# generated using pymatgen
data_Cu2Ni10C7
_symmetry_space_group_name_H-M   'P 1'
_cell_length_a   5.13010474
_cell_length_b   7.51838092
_cell_length_c   5.71438445
_cell_angle_alpha   97.18733524
_cell_angle_beta   98.35692397
_cell_angle_gamma   84.47228074
_symmetry_Int_Tables_number   1
_chemical_formula_structural   Cu2Ni10C7
_chemical_formula_sum   'Cu2 Ni10 C7'
_cell_volume   215.66389745
_cell_formula_units_Z   1
loop_
 _symmetry_equiv_pos_site_id
 _symmetry_equiv_pos_as_xyz
  1  'x, y, z'
loop_
 _atom_site_type_symbol
 _atom_site_label
 _atom_site_symmetry_multiplicity
 _atom_site_fract_x
 _atom_site_fract_y
 _atom_site_fract_z
 _atom_site_occupancy
  C  C0  1  0.49157558  0.16564328  0.16176121  1
  C  C1  1  0.55686308  0.68193782  0.13331082  1
  C  C2  1  0.42958313  0.96210401  0.55895233  1
  C  C3  1  0.57364420  0.35330653  0.76292943  1
  C  C4  1  0.99451911  0.66067515  0.67677891  1
  C  C5  1  0.00615000  0.33705522  0.32507598  1
  C  C6  1  0.99452802  0.98541042  0.98987435  1
  Ni  Ni7  1  0.85811063  0.42120026  0.61661702  1
  Ni  Ni8  1  0.83332094  0.76000894  0.97012785  1
  Ni  Ni9  1  0.63650300  0.09521765  0.84051275  1
  Ni  Ni10  1  0.67238718  0.75420777  0.47059909  1
  Ni  Ni11  1  0.67135702  0.41446815  0.12939628  1
  Ni  Ni12  1  0.34340869  0.56887891  0.84744032  1
  Ni  Ni13  1  0.35162094  0.22977336  0.48881964  1
  Ni  Ni14  1  0.33789237  0.91266620  0.19418084  1
  Ni  Ni15  1  0.11922103  0.22258199  0.03724702  1
  Ni  Ni16  1  0.14576355  0.89414985  0.69988965  1
  Cu  Cu17  1  0.84208577  0.08988690  0.31770362  1
  Cu  Cu18  1  0.15535373  0.57118259  0.36211488  1
