# generated using pymatgen
data_Cu12Ni5C61
_symmetry_space_group_name_H-M   'P 1'
_cell_length_a   18.13891400
_cell_length_b   9.08100674
_cell_length_c   22.75350562
_cell_angle_alpha   89.99114200
_cell_angle_beta   90.02702502
_cell_angle_gamma   120.12754110
_symmetry_Int_Tables_number   1
_chemical_formula_structural   Cu12Ni5C61
_chemical_formula_sum   'Cu36 Ni15 C183'
_cell_volume   3241.63857860
_cell_formula_units_Z   3
loop_
 _symmetry_equiv_pos_site_id
 _symmetry_equiv_pos_as_xyz
  1  'x, y, z'
loop_
 _atom_site_type_symbol
 _atom_site_label
 _atom_site_symmetry_multiplicity
 _atom_site_fract_x
 _atom_site_fract_y
 _atom_site_fract_z
 _atom_site_occupancy
  C  C0  1  0.32157419  0.01215924  0.24993409  1
  C  C1  1  0.68584958  0.35712991  0.24942380  1
  C  C2  1  0.31762889  0.62461898  0.75093197  1
  C  C3  1  0.81761199  0.62431090  0.75056961  1
  C  C4  1  0.15550834  0.34452235  0.57912559  1
  C  C5  1  0.65580459  0.34630805  0.57869995  1
  C  C6  1  0.01599012  0.68940022  0.57977799  1
  C  C7  1  0.51666429  0.68801508  0.57962879  1
  C  C8  1  0.32613270  0.96391266  0.57893976  1
  C  C9  1  0.82816061  0.96770986  0.57951212  1
  C  C10  1  0.15533906  0.96598236  0.07888671  1
  C  C11  1  0.65632664  0.96750403  0.07998114  1
  C  C12  1  0.32697380  0.68784318  0.07987490  1
  C  C13  1  0.82755195  0.68956442  0.07909445  1
  C  C14  1  0.01611392  0.34490240  0.07916228  1
  C  C15  1  0.51709624  0.34495196  0.08034625  1
  C  C16  1  0.66346759  0.02481535  0.41052565  1
  C  C17  1  0.34986037  0.67578853  0.40971136  1
  C  C18  1  0.00029838  0.99846047  0.49328431  1
  C  C19  1  0.49951843  0.01597969  0.49130486  1
  C  C20  1  0.00006596  0.00035394  0.99482513  1
  C  C21  1  0.50017092  0.99973659  0.99509763  1
  C  C22  1  0.33366297  0.31929779  0.83343336  1
  C  C23  1  0.83368737  0.31949867  0.83348807  1
  C  C24  1  0.33417192  0.33763516  0.32815915  1
  C  C25  1  0.84569672  0.34316281  0.32921502  1
  C  C26  1  0.16120762  0.65225936  0.16824380  1
  C  C27  1  0.66589945  0.67982430  0.16774446  1
  C  C28  1  0.16039222  0.66785417  0.66919096  1
  C  C29  1  0.66050471  0.66681214  0.66938982  1
  C  C30  1  0.49988191  0.00547399  0.35137263  1
  C  C31  1  0.33366190  0.32541287  0.69122779  1
  C  C32  1  0.83359090  0.32538881  0.69167743  1
  C  C33  1  0.33078253  0.33828855  0.18723361  1
  C  C34  1  0.83971327  0.33509283  0.18933843  1
  C  C35  1  0.16659486  0.66741720  0.00811516  1
  C  C36  1  0.66651600  0.66641501  0.00856349  1
  C  C37  1  0.16049359  0.65851112  0.51033380  1
  C  C38  1  0.67096596  0.67074647  0.51200081  1
  Ni  Ni39  1  0.00061771  0.99849187  0.35101468  1
  Ni  Ni40  1  0.00157703  0.00320719  0.85307497  1
  Ni  Ni41  1  0.50156042  0.00321711  0.85305053  1
  Ni  Ni42  1  0.00155491  0.00299515  0.65282352  1
  Ni  Ni43  1  0.50144718  0.00248919  0.65218122  1
  Ni  Ni44  1  0.99984509  0.00005964  0.15235006  1
  Ni  Ni45  1  0.50022565  0.99760067  0.15306165  1
  Ni  Ni46  1  0.33312458  0.33435952  0.97965223  1
  Ni  Ni47  1  0.83368571  0.33405658  0.97977744  1
  Ni  Ni48  1  0.33173438  0.32417349  0.48110425  1
  Ni  Ni49  1  0.83731042  0.34098755  0.48043804  1
  Ni  Ni50  1  0.16323875  0.66174328  0.31706813  1
  Ni  Ni51  1  0.66577082  0.66782082  0.31763602  1
  Ni  Ni52  1  0.16427483  0.66730499  0.81951559  1
  Ni  Ni53  1  0.66427596  0.66719141  0.81960120  1
  Cu  Cu54  1  0.14322273  0.98608524  0.25203700  1
  Cu  Cu55  1  0.64712624  0.98744201  0.25224205  1
  Cu  Cu56  1  0.34478659  0.70489296  0.25322981  1
  Cu  Cu57  1  0.85027153  0.71277845  0.25247820  1
  Cu  Cu58  1  0.00634777  0.29601463  0.25285860  1
  Cu  Cu59  1  0.50604605  0.30628534  0.24915425  1
  Cu  Cu60  1  0.14310530  0.30155455  0.75243385  1
  Cu  Cu61  1  0.64297320  0.30116584  0.75244341  1
  Cu  Cu62  1  0.00697934  0.71772870  0.75209187  1
  Cu  Cu63  1  0.50694663  0.71786731  0.75191996  1
  Cu  Cu64  1  0.35104232  0.98629246  0.75319179  1
  Cu  Cu65  1  0.85095012  0.98616962  0.75330146  1
  Cu  Cu66  1  0.47940907  0.32510303  0.58434480  1
  Cu  Cu67  1  0.97857648  0.32437667  0.58441242  1
  Cu  Cu68  1  0.18256873  0.04063096  0.58419504  1
  Cu  Cu69  1  0.68351872  0.04335544  0.58259008  1
  Cu  Cu70  1  0.33724926  0.63293078  0.58493595  1
  Cu  Cu71  1  0.83861106  0.63474496  0.58730567  1
  Cu  Cu72  1  0.47911646  0.63270452  0.08314361  1
  Cu  Cu73  1  0.97996561  0.63505901  0.08288721  1
  Cu  Cu74  1  0.33723839  0.04032561  0.08551473  1
  Cu  Cu75  1  0.83719599  0.04148112  0.08300210  1
  Cu  Cu76  1  0.18207807  0.32453142  0.08219724  1
  Cu  Cu77  1  0.68393015  0.32516406  0.08581540  1
  Cu  Cu78  1  0.31957707  0.66452843  0.91549747  1
  Cu  Cu79  1  0.81954474  0.66420893  0.91557927  1
  Cu  Cu80  1  0.01276745  0.36175478  0.91709524  1
  Cu  Cu81  1  0.51276362  0.36158886  0.91730067  1
  Cu  Cu82  1  0.16804611  0.97432189  0.91700964  1
  Cu  Cu83  1  0.66794745  0.97409576  0.91707431  1
  Cu  Cu84  1  0.31262485  0.96902936  0.41828991  1
  Cu  Cu85  1  0.82009354  0.97438666  0.41736494  1
  Cu  Cu86  1  0.16697072  0.36136033  0.41748155  1
  Cu  Cu87  1  0.67319166  0.37081555  0.41863652  1
  Cu  Cu88  1  0.01384934  0.66719455  0.41678017  1
  Cu  Cu89  1  0.51363745  0.65498156  0.41952468  1
  C  C90  1  0.09629277  0.00658757  0.30470138  1
  C  C91  1  0.60584881  0.00536765  0.30733686  1
  C  C92  1  0.39340309  0.78802377  0.30895647  1
  C  C93  1  0.90754730  0.80796376  0.30501184  1
  C  C94  1  0.49437694  0.19442911  0.30079016  1
  C  C95  1  0.99883185  0.18265700  0.30520962  1
  C  C96  1  0.09510253  0.18519558  0.80407998  1
  C  C97  1  0.59501844  0.18524589  0.80418322  1
  C  C98  1  0.49599114  0.81581365  0.80298608  1
  C  C99  1  0.99598106  0.81570919  0.80312633  1
  C  C100  1  0.40833091  0.00124981  0.80497371  1
  C  C101  1  0.90836351  0.00146375  0.80503587  1
  C  C102  1  0.38943393  0.95551083  0.69420917  1
  C  C103  1  0.88942623  0.95598143  0.69433079  1
  C  C104  1  0.09319041  0.22456353  0.69274812  1
  C  C105  1  0.59313723  0.22397683  0.69276499  1
  C  C106  1  0.01986393  0.81835228  0.69231608  1
  C  C107  1  0.51993494  0.81852215  0.69199979  1
  C  C108  1  0.38887436  0.82158228  0.19580355  1
  C  C109  1  0.88971990  0.81412628  0.19335943  1
  C  C110  1  0.01730945  0.21849453  0.19314429  1
  C  C111  1  0.52254153  0.22718811  0.19046775  1
  C  C112  1  0.09281350  0.96615634  0.19298470  1
  C  C113  1  0.59209327  0.96192643  0.19385823  1
  C  C114  1  0.44052482  0.35855041  0.63768656  1
  C  C115  1  0.93923252  0.35685280  0.63756788  1
  C  C116  1  0.23824649  0.12025387  0.63747894  1
  C  C117  1  0.73993374  0.12723379  0.63502546  1
  C  C118  1  0.32406220  0.52908951  0.64029223  1
  C  C119  1  0.82491427  0.53280881  0.64329690  1
  C  C120  1  0.44053418  0.52256871  0.13625489  1
  C  C121  1  0.94204967  0.52676309  0.13683689  1
  C  C122  1  0.32252723  0.10998365  0.14204489  1
  C  C123  1  0.82080338  0.11879427  0.13638099  1
  C  C124  1  0.23589629  0.35643991  0.13605932  1
  C  C125  1  0.73445522  0.35444888  0.14215894  1
  C  C126  1  0.22344668  0.28897715  0.02667600  1
  C  C127  1  0.72773106  0.29155289  0.03122457  1
  C  C128  1  0.42029290  0.55255574  0.02689314  1
  C  C129  1  0.92056273  0.55310761  0.02726868  1
  C  C130  1  0.35385949  0.16282982  0.03130388  1
  C  C131  1  0.85555985  0.15884341  0.02697297  1
  C  C132  1  0.22271003  0.15713195  0.52808197  1
  C  C133  1  0.72315062  0.15228462  0.52439423  1
  C  C134  1  0.35237016  0.54807720  0.52843709  1
  C  C135  1  0.85499607  0.54822045  0.53239980  1
  C  C136  1  0.42028204  0.28611215  0.52844203  1
  C  C137  1  0.92126212  0.28966095  0.52776638  1
  C  C138  1  0.28600943  0.69298808  0.97255591  1
  C  C139  1  0.78591749  0.69279072  0.97256888  1
  C  C140  1  0.05845941  0.42433747  0.97510748  1
  C  C141  1  0.55856488  0.42390016  0.97532627  1
  C  C142  1  0.15319101  0.88271158  0.97493275  1
  C  C143  1  0.65317515  0.88197779  0.97492747  1
  C  C144  1  0.27340812  0.87269158  0.47506591  1
  C  C145  1  0.79068080  0.88593269  0.47633378  1
  C  C146  1  0.15129940  0.42032924  0.47614170  1
  C  C147  1  0.66581097  0.44661756  0.47572550  1
  C  C148  1  0.05724874  0.69612102  0.47602694  1
  C  C149  1  0.56161394  0.67903766  0.47675189  1
  C  C150  1  0.06142923  0.64028524  0.36459851  1
  C  C151  1  0.56078636  0.63307741  0.36523266  1
  C  C152  1  0.25680286  0.87731383  0.36184425  1
  C  C153  1  0.75439877  0.87874437  0.36653694  1
  C  C154  1  0.18383638  0.49065864  0.36627403  1
  C  C155  1  0.68169839  0.48052394  0.36209533  1
  C  C156  1  0.06025628  0.48241225  0.86387597  1
  C  C157  1  0.56003837  0.48249181  0.86406732  1
  C  C158  1  0.18079967  0.87930863  0.86373183  1
  C  C159  1  0.68090958  0.87963467  0.86367956  1
  C  C160  1  0.26147179  0.64031101  0.86023371  1
  C  C161  1  0.76146991  0.63989612  0.86028959  1
  C  C162  1  0.00125969  0.82400395  0.40712217  1
  C  C163  1  0.50186908  0.81098913  0.41319922  1
  C  C164  1  0.40034119  0.98412628  0.41402346  1
  C  C165  1  0.91047161  0.00025433  0.40612570  1
  C  C166  1  0.09021300  0.17935375  0.40670388  1
  C  C167  1  0.59846693  0.18752377  0.41442434  1
  C  C168  1  0.00142611  0.18042961  0.90755754  1
  C  C169  1  0.50138267  0.18034966  0.90760353  1
  C  C170  1  0.08904090  0.99788849  0.90739150  1
  C  C171  1  0.58886710  0.99747768  0.90747465  1
  C  C172  1  0.41089982  0.82272891  0.90704244  1
  C  C173  1  0.91089735  0.82230357  0.90704287  1
  C  C174  1  0.48336710  0.15372231  0.58918006  1
  C  C175  1  0.98272842  0.15357014  0.58902342  1
  C  C176  1  0.09324349  0.03387634  0.58845975  1
  C  C177  1  0.59397383  0.03582717  0.58735598  1
  C  C178  1  0.42304914  0.81365446  0.58808654  1
  C  C179  1  0.92406854  0.81523294  0.58933088  1
  C  C180  1  0.48318091  0.81246789  0.08832538  1
  C  C181  1  0.98407022  0.81460218  0.08797926  1
  C  C182  1  0.42294800  0.03113086  0.08832814  1
  C  C183  1  0.92298332  0.03285419  0.08817898  1
  C  C184  1  0.09215762  0.15286927  0.08716598  1
  C  C185  1  0.59371492  0.15330588  0.08839337  1
  C  C186  1  0.34007470  0.14019279  0.75230658  1
  C  C187  1  0.83978487  0.13985661  0.75237006  1
  C  C188  1  0.23338585  0.32984346  0.75124015  1
  C  C189  1  0.73323125  0.32920985  0.75142692  1
  C  C190  1  0.42485379  0.54528635  0.75045797  1
  C  C191  1  0.92505030  0.54489918  0.75076272  1
  C  C192  1  0.33012770  0.52640470  0.24801885  1
  C  C193  1  0.83627007  0.53245444  0.25153255  1
  C  C194  1  0.42735758  0.32495737  0.24415560  1
  C  C195  1  0.92882695  0.31725316  0.25326300  1
  C  C196  1  0.23407664  0.13607882  0.25148433  1
  C  C197  1  0.73383334  0.15046675  0.24643799  1
  C  C198  1  0.32656421  0.49952063  0.91736080  1
  C  C199  1  0.82638275  0.49898806  0.91770912  1
  C  C200  1  0.42257126  0.34491258  0.91860236  1
  C  C201  1  0.92276815  0.34584703  0.91811478  1
  C  C202  1  0.25069994  0.15376084  0.91822615  1
  C  C203  1  0.75016395  0.15426125  0.91846919  1
  C  C204  1  0.31908794  0.14803525  0.41858512  1
  C  C205  1  0.82269176  0.15073872  0.41900205  1
  C  C206  1  0.25364866  0.36040227  0.41957519  1
  C  C207  1  0.75713278  0.35671384  0.41823516  1
  C  C208  1  0.42182581  0.49207239  0.42043042  1
  C  C209  1  0.92463640  0.50031678  0.41808824  1
  C  C210  1  0.16677759  0.47555896  0.07487861  1
  C  C211  1  0.66956649  0.47687089  0.07680257  1
  C  C212  1  0.07070807  0.66586026  0.07532360  1
  C  C213  1  0.57041316  0.66536526  0.07553070  1
  C  C214  1  0.26142374  0.85932174  0.07635114  1
  C  C215  1  0.76207986  0.85916161  0.07559699  1
  C  C216  1  0.16648615  0.85814944  0.57765259  1
  C  C217  1  0.66747396  0.86052784  0.57764487  1
  C  C218  1  0.26110239  0.66177720  0.57737371  1
  C  C219  1  0.76276269  0.66422708  0.58004025  1
  C  C220  1  0.06987097  0.47509670  0.57807582  1
  C  C221  1  0.57059564  0.47512814  0.57704140  1
  C  C222  1  0.14748907  0.81819222  0.25613354  1
  C  C223  1  0.65458250  0.82263768  0.25421205  1
  C  C224  1  0.25778774  0.70777108  0.25349466  1
  C  C225  1  0.76100011  0.69903783  0.25737527  1
  C  C226  1  0.09065031  0.47178411  0.25708163  1
  C  C227  1  0.59272284  0.48161844  0.25339243  1
  C  C228  1  0.14984257  0.48074071  0.75699452  1
  C  C229  1  0.64984656  0.48056860  0.75701837  1
  C  C230  1  0.08876793  0.70379492  0.75748277  1
  C  C231  1  0.58866252  0.70372976  0.75742285  1
  C  C232  1  0.26333882  0.81423422  0.75731913  1
  C  C233  1  0.76330723  0.81412526  0.75739245  1
