# generated using pymatgen
data_Cu2Ni4C7
_symmetry_space_group_name_H-M   'P 1'
_cell_length_a   3.34324000
_cell_length_b   3.34306961
_cell_length_c   44.74975017
_cell_angle_alpha   89.99052791
_cell_angle_beta   90.00000000
_cell_angle_gamma   120.00168606
_symmetry_Int_Tables_number   1
_chemical_formula_structural   Cu2Ni4C7
_chemical_formula_sum   'Cu2 Ni4 C7'
_cell_volume   433.13854509
_cell_formula_units_Z   1
loop_
 _symmetry_equiv_pos_site_id
 _symmetry_equiv_pos_as_xyz
  1  'x, y, z'
loop_
 _atom_site_type_symbol
 _atom_site_label
 _atom_site_symmetry_multiplicity
 _atom_site_fract_x
 _atom_site_fract_y
 _atom_site_fract_z
 _atom_site_occupancy
  C  C0  1  0.99997100  0.99994100  0.55368900  1
  C  C1  1  0.66668000  0.33335800  0.05113800  1
  C  C2  1  0.66659100  0.33318000  0.13592200  1
  C  C3  1  0.33329400  0.66658900  0.09352000  1
  C  C4  1  0.33327900  0.66655900  0.46394100  1
  C  C5  1  0.66671500  0.33343000  0.28219500  1
  C  C6  1  0.66669700  0.33339300  0.66473100  1
  Ni  Ni7  1  0.33336100  0.66672400  0.31943700  1
  Ni  Ni8  1  0.33336700  0.66673400  0.70211700  1
  Ni  Ni9  1  0.33342600  0.66685300  0.24497300  1
  Ni  Ni10  1  0.33341100  0.66682400  0.62711800  1
  Cu  Cu11  1  0.66663500  0.33326900  0.43036000  1
  Cu  Cu12  1  0.66657400  0.33314600  0.49863400  1
