# generated using pymatgen
data_Cu12NiC24
_symmetry_space_group_name_H-M   'P 1'
_cell_length_a   9.65769808
_cell_length_b   14.67874779
_cell_length_c   3.10679100
_cell_angle_alpha   90.00000000
_cell_angle_beta   90.00000000
_cell_angle_gamma   95.64482754
_symmetry_Int_Tables_number   1
_chemical_formula_structural   Cu12NiC24
_chemical_formula_sum   'Cu12 Ni1 C24'
_cell_volume   438.29200117
_cell_formula_units_Z   1
loop_
 _symmetry_equiv_pos_site_id
 _symmetry_equiv_pos_as_xyz
  1  'x, y, z'
loop_
 _atom_site_type_symbol
 _atom_site_label
 _atom_site_symmetry_multiplicity
 _atom_site_fract_x
 _atom_site_fract_y
 _atom_site_fract_z
 _atom_site_occupancy
  Ni  Ni0  1  0.90472100  0.81676800  0.00000000  1
  Cu  Cu1  1  0.95456400  0.02166500  0.00000000  1
  Cu  Cu2  1  0.02889300  0.32732700  0.00000000  1
  Cu  Cu3  1  0.04876600  0.64364800  0.00000000  1
  Cu  Cu4  1  0.21345100  0.16246100  0.50000000  1
  Cu  Cu5  1  0.27791000  0.47837600  0.50000000  1
  Cu  Cu6  1  0.20120400  0.88378900  0.50000000  1
  Cu  Cu7  1  0.50011300  0.33767000  0.00000000  1
  Cu  Cu8  1  0.47895800  0.01056400  0.00000000  1
  Cu  Cu9  1  0.57818300  0.64526500  0.00000000  1
  Cu  Cu10  1  0.73166800  0.15891300  0.50000000  1
  Cu  Cu11  1  0.75550600  0.47861000  0.50000000  1
  Cu  Cu12  1  0.63538300  0.83516800  0.50000000  1
  C  C13  1  0.09653200  0.26541800  0.50000000  1
  C  C14  1  0.01062000  0.90943500  0.50000000  1
  C  C15  1  0.13566500  0.09528300  0.00000000  1
  C  C16  1  0.16971900  0.43421500  0.00000000  1
  C  C17  1  0.29147000  0.93145500  0.00000000  1
  C  C18  1  0.41808200  0.39228500  0.50000000  1
  C  C19  1  0.53513700  0.94501200  0.50000000  1
  C  C20  1  0.64952300  0.58372600  0.50000000  1
  C  C21  1  0.63293500  0.11005800  0.00000000  1
  C  C22  1  0.67621000  0.41675000  0.00000000  1
  C  C23  1  0.69981800  0.76004200  0.00000000  1
  C  C24  1  0.88461100  0.08091400  0.50000000  1
  C  C25  1  0.16224200  0.59736900  0.50000000  1
  C  C26  1  0.14803600  0.77662400  0.00000000  1
  C  C27  1  0.33716700  0.23188600  0.00000000  1
  C  C28  1  0.38834300  0.55543900  0.00000000  1
  C  C29  1  0.38232600  0.08596000  0.50000000  1
  C  C30  1  0.47416800  0.70927500  0.50000000  1
  C  C31  1  0.58697300  0.26386900  0.50000000  1
  C  C32  1  0.83794500  0.24192000  0.00000000  1
  C  C33  1  0.78981500  0.92470900  0.00000000  1
  C  C34  1  0.88819200  0.54622900  0.00000000  1
  C  C35  1  0.92312700  0.39427400  0.50000000  1
  C  C36  1  0.93987800  0.72077400  0.50000000  1
