# generated using pymatgen
data_Cu4NiC10
_symmetry_space_group_name_H-M   'P 1'
_cell_length_a   5.66820934
_cell_length_b   5.66564619
_cell_length_c   6.96826017
_cell_angle_alpha   113.93721635
_cell_angle_beta   114.04290793
_cell_angle_gamma   89.93863104
_symmetry_Int_Tables_number   1
_chemical_formula_structural   Cu4NiC10
_chemical_formula_sum   'Cu4 Ni1 C10'
_cell_volume   183.13563910
_cell_formula_units_Z   1
loop_
 _symmetry_equiv_pos_site_id
 _symmetry_equiv_pos_as_xyz
  1  'x, y, z'
loop_
 _atom_site_type_symbol
 _atom_site_label
 _atom_site_symmetry_multiplicity
 _atom_site_fract_x
 _atom_site_fract_y
 _atom_site_fract_z
 _atom_site_occupancy
  C  C0  1  0.87459500  0.12501400  0.74976300  1
  C  C1  1  0.12524500  0.87500100  0.25014300  1
  Ni  Ni2  1  0.62579500  0.37468500  0.25026100  1
  Cu  Cu3  1  0.48444300  0.93574500  0.92043800  1
  Cu  Cu4  1  0.43600200  0.48464800  0.92060000  1
  Cu  Cu5  1  0.06457800  0.56445500  0.58007600  1
  Cu  Cu6  1  0.51464000  0.51545300  0.57885000  1
  C  C7  1  0.73520300  0.52033700  0.88010700  1
  C  C8  1  0.14497600  0.86032800  0.88073400  1
  C  C9  1  0.26905600  0.47644400  0.09931300  1
  C  C10  1  0.83019300  0.12224200  0.09870400  1
  C  C11  1  0.52364700  0.16963200  0.40107300  1
  C  C12  1  0.87733400  0.73134900  0.40077000  1
  C  C13  1  0.13975000  0.26425900  0.61973500  1
  C  C14  1  0.47954500  0.85540600  0.61943500  1
