# generated using pymatgen
data_Cu2(Ni2C5)3
_symmetry_space_group_name_H-M   'P 1'
_cell_length_a   11.41810225
_cell_length_b   11.41810225
_cell_length_c   5.96384700
_cell_angle_alpha   90.00000000
_cell_angle_beta   90.00000000
_cell_angle_gamma   114.14644746
_symmetry_Int_Tables_number   1
_chemical_formula_structural   Cu2(Ni2C5)3
_chemical_formula_sum   'Cu4 Ni12 C30'
_cell_volume   709.49376458
_cell_formula_units_Z   2
loop_
 _symmetry_equiv_pos_site_id
 _symmetry_equiv_pos_as_xyz
  1  'x, y, z'
loop_
 _atom_site_type_symbol
 _atom_site_label
 _atom_site_symmetry_multiplicity
 _atom_site_fract_x
 _atom_site_fract_y
 _atom_site_fract_z
 _atom_site_occupancy
  Ni  Ni0  1  0.11933000  0.70290200  0.87521600  1
  Ni  Ni1  1  0.88067000  0.29709800  0.87521600  1
  Ni  Ni2  1  0.29709800  0.88067000  0.37521600  1
  Ni  Ni3  1  0.70290200  0.11933000  0.37521600  1
  Ni  Ni4  1  0.37541600  0.24307900  0.39657800  1
  Ni  Ni5  1  0.62458400  0.75692100  0.39657800  1
  Ni  Ni6  1  0.75692100  0.62458400  0.89657800  1
  Ni  Ni7  1  0.24307900  0.37541600  0.89657800  1
  Ni  Ni8  1  0.95738700  0.82670900  0.50981200  1
  Ni  Ni9  1  0.04261300  0.17329100  0.50981200  1
  Ni  Ni10  1  0.17329100  0.04261300  0.00981200  1
  Ni  Ni11  1  0.82670900  0.95738700  0.00981200  1
  Cu  Cu12  1  0.78481200  0.47545900  0.33733300  1
  Cu  Cu13  1  0.21518800  0.52454100  0.33733300  1
  Cu  Cu14  1  0.52454100  0.21518800  0.83733300  1
  Cu  Cu15  1  0.47545900  0.78481200  0.83733300  1
  C  C16  1  0.66031300  0.48469600  0.32915700  1
  C  C17  1  0.33968700  0.51530400  0.32915700  1
  C  C18  1  0.51530400  0.33968700  0.82915700  1
  C  C19  1  0.48469600  0.66031300  0.82915700  1
  C  C20  1  0.77290500  0.34213600  0.28225200  1
  C  C21  1  0.22709500  0.65786400  0.28225200  1
  C  C22  1  0.65786400  0.22709500  0.78225200  1
  C  C23  1  0.34213600  0.77290500  0.78225200  1
  C  C24  1  0.86983300  0.56174100  0.15017100  1
  C  C25  1  0.13016700  0.43825900  0.15017100  1
  C  C26  1  0.43825900  0.13016700  0.65017100  1
  C  C27  1  0.56174100  0.86983300  0.65017100  1
  C  C28  1  0.00000000  0.00000000  0.15863200  1
  C  C29  1  0.00000000  0.00000000  0.65863200  1
  C  C30  1  0.75889900  0.76110600  0.12040200  1
  C  C31  1  0.24110100  0.23889400  0.12040200  1
  C  C32  1  0.23889400  0.24110100  0.62040200  1
  C  C33  1  0.76110600  0.75889900  0.62040200  1
  C  C34  1  0.05079200  0.25719600  0.82881200  1
  C  C35  1  0.94920800  0.74280400  0.82881200  1
  C  C36  1  0.74280400  0.94920800  0.32881200  1
  C  C37  1  0.25719600  0.05079200  0.32881200  1
  C  C38  1  0.82786700  0.15611700  0.10748400  1
  C  C39  1  0.17213300  0.84388300  0.10748400  1
  C  C40  1  0.84388300  0.17213300  0.60748400  1
  C  C41  1  0.15611700  0.82786700  0.60748400  1
  C  C42  1  0.85237500  0.51849300  0.55329600  1
  C  C43  1  0.14762500  0.48150700  0.55329600  1
  C  C44  1  0.48150700  0.14762500  0.05329600  1
  C  C45  1  0.51849300  0.85237500  0.05329600  1
