# generated using pymatgen
data_Cu2NiC16
_symmetry_space_group_name_H-M   'P 1'
_cell_length_a   10.38791600
_cell_length_b   6.01041871
_cell_length_c   5.63926037
_cell_angle_alpha   90.00000000
_cell_angle_beta   105.19630533
_cell_angle_gamma   90.00000000
_symmetry_Int_Tables_number   1
_chemical_formula_structural   Cu2NiC16
_chemical_formula_sum   'Cu2 Ni1 C16'
_cell_volume   339.77987205
_cell_formula_units_Z   1
loop_
 _symmetry_equiv_pos_site_id
 _symmetry_equiv_pos_as_xyz
  1  'x, y, z'
loop_
 _atom_site_type_symbol
 _atom_site_label
 _atom_site_symmetry_multiplicity
 _atom_site_fract_x
 _atom_site_fract_y
 _atom_site_fract_z
 _atom_site_occupancy
  Ni  Ni0  1  0.27357142  0.25000000  0.08548681  1
  Cu  Cu1  1  0.66330596  0.25000000  0.92674031  1
  Cu  Cu2  1  0.38194864  0.75000000  0.48093863  1
  C  C3  1  0.98925153  0.48926948  0.91953873  1
  C  C4  1  0.98925153  0.01073052  0.91953873  1
  C  C5  1  0.85546037  0.25000000  0.56283469  1
  C  C6  1  0.04271006  0.75000000  0.25378103  1
  C  C7  1  0.24176842  0.25000000  0.60291008  1
  C  C8  1  0.78153571  0.75000000  0.42287776  1
  C  C9  1  0.87377720  0.25000000  0.74327722  1
  C  C10  1  0.07366085  0.75000000  0.10383710  1
  C  C11  1  0.29594335  0.46322644  0.81452723  1
  C  C12  1  0.80727129  0.97973346  0.27414571  1
  C  C13  1  0.80727129  0.52026654  0.27414571  1
  C  C14  1  0.29594335  0.03677356  0.81452723  1
  C  C15  1  0.36396217  0.25000000  0.43835538  1
  C  C16  1  0.63349312  0.75000000  0.48624307  1
  C  C17  1  0.08854600  0.25000000  0.09825751  1
  C  C18  1  0.90561373  0.75000000  0.70859307  1
