# generated using pymatgen
data_Cu3Ni3C
_symmetry_space_group_name_H-M   'P 1'
_cell_length_a   6.93203002
_cell_length_b   7.61612376
_cell_length_c   12.83306655
_cell_angle_alpha   90.00000000
_cell_angle_beta   90.00000000
_cell_angle_gamma   90.00000000
_symmetry_Int_Tables_number   1
_chemical_formula_structural   Cu3Ni3C
_chemical_formula_sum   'Cu12 Ni12 C4'
_cell_volume   677.52429639
_cell_formula_units_Z   4
loop_
 _symmetry_equiv_pos_site_id
 _symmetry_equiv_pos_as_xyz
  1  'x, y, z'
loop_
 _atom_site_type_symbol
 _atom_site_label
 _atom_site_symmetry_multiplicity
 _atom_site_fract_x
 _atom_site_fract_y
 _atom_site_fract_z
 _atom_site_occupancy
  C  C0  1  0.24329957  0.74982945  0.83848287  1
  C  C1  1  0.74329957  0.25017055  0.66151713  1
  C  C2  1  0.74329957  0.25017055  0.33848287  1
  C  C3  1  0.24329957  0.74982945  0.16151713  1
  Ni  Ni4  1  0.36610091  0.11750187  0.82609397  1
  Ni  Ni5  1  0.61634599  0.62102992  0.00000000  1
  Ni  Ni6  1  0.12045626  0.38192892  0.17418161  1
  Ni  Ni7  1  0.11634599  0.37897008  0.50000000  1
  Ni  Ni8  1  0.87083758  0.87802425  0.00000000  1
  Ni  Ni9  1  0.37083758  0.12197575  0.50000000  1
  Ni  Ni10  1  0.62045626  0.61807108  0.67418161  1
  Ni  Ni11  1  0.86610091  0.88249813  0.67390603  1
  Ni  Ni12  1  0.12045626  0.38192892  0.82581839  1
  Ni  Ni13  1  0.36610091  0.11750187  0.17390603  1
  Ni  Ni14  1  0.86610091  0.88249813  0.32609397  1
  Ni  Ni15  1  0.62045626  0.61807108  0.32581839  1
  Cu  Cu16  1  0.97824639  0.06610244  0.83675129  1
  Cu  Cu17  1  0.00822521  0.56644366  0.66328429  1
  Cu  Cu18  1  0.97824639  0.06610244  0.16324871  1
  Cu  Cu19  1  0.99016573  0.05234099  0.50000000  1
  Cu  Cu20  1  0.50822521  0.43355634  0.83671571  1
  Cu  Cu21  1  0.49679403  0.44846894  0.50000000  1
  Cu  Cu22  1  0.99679403  0.55153106  0.00000000  1
  Cu  Cu23  1  0.47824639  0.93389756  0.66324871  1
  Cu  Cu24  1  0.49016573  0.94765901  0.00000000  1
  Cu  Cu25  1  0.00822521  0.56644366  0.33671571  1
  Cu  Cu26  1  0.50822521  0.43355634  0.16328429  1
  Cu  Cu27  1  0.47824639  0.93389756  0.33675129  1
