# generated using pymatgen
data_Cu8Ni2C39
_symmetry_space_group_name_H-M   'P 1'
_cell_length_a   10.34623262
_cell_length_b   10.29422311
_cell_length_c   8.73065134
_cell_angle_alpha   89.88931187
_cell_angle_beta   90.19980385
_cell_angle_gamma   120.06705412
_symmetry_Int_Tables_number   1
_chemical_formula_structural   Cu8Ni2C39
_chemical_formula_sum   'Cu8 Ni2 C39'
_cell_volume   804.74187312
_cell_formula_units_Z   1
loop_
 _symmetry_equiv_pos_site_id
 _symmetry_equiv_pos_as_xyz
  1  'x, y, z'
loop_
 _atom_site_type_symbol
 _atom_site_label
 _atom_site_symmetry_multiplicity
 _atom_site_fract_x
 _atom_site_fract_y
 _atom_site_fract_z
 _atom_site_occupancy
  C  C0  1  0.09776300  0.68167700  0.13804200  1
  C  C1  1  0.58601500  0.90361600  0.13981600  1
  C  C2  1  0.42687600  0.10771100  0.84948300  1
  C  C3  1  0.99900800  0.00036800  0.98304300  1
  C  C4  1  0.89164200  0.32011200  0.84867900  1
  C  C5  1  0.68045200  0.57309200  0.84864000  1
  C  C6  1  0.31829800  0.41448800  0.13919200  1
  C  C7  1  0.99748900  0.00094000  0.64233600  1
  C  C8  1  0.00496400  0.99857900  0.31727200  1
  Ni  Ni9  1  0.33294100  0.66595800  0.46286900  1
  Ni  Ni10  1  0.66710000  0.33372000  0.49335900  1
  Cu  Cu11  1  0.98921400  0.31081100  0.37247400  1
  Cu  Cu12  1  0.01131300  0.68186200  0.62699200  1
  Cu  Cu13  1  0.32409400  0.01015800  0.37184700  1
  Cu  Cu14  1  0.66725100  0.33384900  0.14531900  1
  Cu  Cu15  1  0.66727900  0.98901000  0.62880900  1
  Cu  Cu16  1  0.33307900  0.66634000  0.82901600  1
  Cu  Cu17  1  0.68809500  0.67829000  0.37296800  1
  Cu  Cu18  1  0.31950700  0.33002500  0.62696400  1
  C  C19  1  0.48270500  0.82031600  0.64321900  1
  C  C20  1  0.67597800  0.49771800  0.33657400  1
  C  C21  1  0.76167700  0.98717400  0.45780300  1
  C  C22  1  0.50625600  0.65524500  0.33756000  1
  C  C23  1  0.17936200  0.51167700  0.92091900  1
  C  C24  1  0.14920700  0.49291200  0.33711200  1
  C  C25  1  0.28161200  0.01026300  0.56726500  1
  C  C26  1  0.34507700  0.84929100  0.33792000  1
  C  C27  1  0.51436400  0.34315700  0.05326300  1
  C  C28  1  0.84852800  0.49622100  0.62653800  1
  C  C29  1  0.33561300  0.51494800  0.64156100  1
  C  C30  1  0.82237500  0.32460900  0.33602200  1
  C  C31  1  0.98963500  0.26963600  0.56859800  1
  C  C32  1  0.73008400  0.72009700  0.56888100  1
  C  C33  1  0.33300500  0.82003600  0.92212900  1
  C  C34  1  0.82900100  0.48730600  0.05304000  1
  C  C35  1  0.18266800  0.00151000  0.23268100  1
  C  C36  1  0.01251400  0.78241500  0.45708100  1
  C  C37  1  0.65755700  0.17138300  0.05251600  1
  C  C38  1  0.77865300  0.00216700  0.79247900  1
  C  C39  1  0.99756400  0.17540000  0.23696400  1
  C  C40  1  0.50453000  0.17830100  0.33616200  1
  C  C41  1  0.50459900  0.35335000  0.62663600  1
  C  C42  1  0.17803900  0.66387100  0.64172800  1
  C  C43  1  0.21983500  0.23154300  0.45689000  1
  C  C44  1  0.64643900  0.15316700  0.62891400  1
  C  C45  1  0.82234500  0.82166500  0.23661000  1
  C  C46  1  0.99838000  0.77792600  0.79203500  1
  C  C47  1  0.48636800  0.66606900  0.92205300  1
  C  C48  1  0.22365100  0.22002400  0.79173200  1
