# generated using pymatgen
data_Cu2NiC10
_symmetry_space_group_name_H-M   'P 1'
_cell_length_a   5.32750341
_cell_length_b   5.32750343
_cell_length_c   7.78421995
_cell_angle_alpha   91.33123699
_cell_angle_beta   88.66876305
_cell_angle_gamma   100.85382496
_symmetry_Int_Tables_number   1
_chemical_formula_structural   Cu2NiC10
_chemical_formula_sum   'Cu2 Ni1 C10'
_cell_volume   216.88309473
_cell_formula_units_Z   1
loop_
 _symmetry_equiv_pos_site_id
 _symmetry_equiv_pos_as_xyz
  1  'x, y, z'
loop_
 _atom_site_type_symbol
 _atom_site_label
 _atom_site_symmetry_multiplicity
 _atom_site_fract_x
 _atom_site_fract_y
 _atom_site_fract_z
 _atom_site_occupancy
  Ni  Ni0  1  0.50000000  0.50000000  0.00000000  1
  Cu  Cu1  1  0.65294262  0.34705738  0.26969851  1
  Cu  Cu2  1  0.34705738  0.65294262  0.73030149  1
  C  C3  1  0.00000000  -0.00000000  0.50000000  1
  C  C4  1  0.00000000  -0.00000000  0.00000000  1
  C  C5  1  0.66475189  0.73184714  0.77079635  1
  C  C6  1  0.33524811  0.26815286  0.22920365  1
  C  C7  1  0.73184714  0.66475189  0.22920365  1
  C  C8  1  0.26815286  0.33524811  0.77079635  1
  C  C9  1  0.24681184  0.75318816  0.93962873  1
  C  C10  1  0.75570721  0.24429279  0.46098151  1
  C  C11  1  0.75318816  0.24681184  0.06037127  1
  C  C12  1  0.24429279  0.75570721  0.53901849  1
