# generated using pymatgen
data_Cu6NiC12
_symmetry_space_group_name_H-M   'P 1'
_cell_length_a   4.91605287
_cell_length_b   4.91027974
_cell_length_c   8.58703160
_cell_angle_alpha   90.18964159
_cell_angle_beta   90.03102571
_cell_angle_gamma   101.49467053
_symmetry_Int_Tables_number   1
_chemical_formula_structural   Cu6NiC12
_chemical_formula_sum   'Cu6 Ni1 C12'
_cell_volume   203.12531837
_cell_formula_units_Z   1
loop_
 _symmetry_equiv_pos_site_id
 _symmetry_equiv_pos_as_xyz
  1  'x, y, z'
loop_
 _atom_site_type_symbol
 _atom_site_label
 _atom_site_symmetry_multiplicity
 _atom_site_fract_x
 _atom_site_fract_y
 _atom_site_fract_z
 _atom_site_occupancy
  Ni  Ni0  1  0.94873968  0.48745204  0.67118511  1
  Cu  Cu1  1  0.01779569  0.98448968  0.00029419  1
  Cu  Cu2  1  0.00576720  0.99491614  0.33075881  1
  Cu  Cu3  1  0.01332565  0.99477861  0.66653457  1
  Cu  Cu4  1  0.58310396  0.41474259  0.16973628  1
  Cu  Cu5  1  0.45481740  0.54773538  0.84482921  1
  Cu  Cu6  1  0.43169010  0.58386751  0.48879811  1
  C  C7  1  0.15542049  0.80008125  0.82137118  1
  C  C8  1  0.15594052  0.80429808  0.50580314  1
  C  C9  1  0.31750664  0.29879353  0.33343388  1
  C  C10  1  0.32071715  0.29264398  0.00293573  1
  C  C11  1  0.29597998  0.32853734  0.66772610  1
  C  C12  1  0.67316952  0.71965780  0.66598219  1
  C  C13  1  0.70242966  0.67689582  0.00327496  1
  C  C14  1  0.70001318  0.68953762  0.33024947  1
  C  C15  1  0.82963227  0.17125492  0.16895384  1
  C  C16  1  0.19155099  0.80757288  0.16105695  1
  C  C17  1  0.83409330  0.18458647  0.82407760  1
  C  C18  1  0.83011262  0.19385137  0.51621568  1
