# generated using pymatgen
data_CuNiC32
_symmetry_space_group_name_H-M   'P 1'
_cell_length_a   8.64950986
_cell_length_b   8.64108357
_cell_length_c   22.36052337
_cell_angle_alpha   89.71528132
_cell_angle_beta   89.85621541
_cell_angle_gamma   120.00341790
_symmetry_Int_Tables_number   1
_chemical_formula_structural   CuNiC32
_chemical_formula_sum   'Cu3 Ni3 C96'
_cell_volume   1447.25399139
_cell_formula_units_Z   3
loop_
 _symmetry_equiv_pos_site_id
 _symmetry_equiv_pos_as_xyz
  1  'x, y, z'
loop_
 _atom_site_type_symbol
 _atom_site_label
 _atom_site_symmetry_multiplicity
 _atom_site_fract_x
 _atom_site_fract_y
 _atom_site_fract_z
 _atom_site_occupancy
  C  C0  1  0.00985058  0.01044024  0.85914568  1
  C  C1  1  0.99034274  0.99183991  0.64366829  1
  C  C2  1  0.00057126  0.00269760  0.14344488  1
  C  C3  1  0.66490382  0.32803675  0.97184047  1
  C  C4  1  0.67194715  0.34966258  0.47925904  1
  C  C5  1  0.32051508  0.66221143  0.01807497  1
  C  C6  1  0.34118153  0.66929238  0.52448200  1
  C  C7  1  0.33487241  0.66856944  0.30826486  1
  C  C8  1  0.32323663  0.67146887  0.81089339  1
  Ni  Ni9  1  0.99884476  0.99970303  0.35555024  1
  Ni  Ni10  1  0.66148961  0.33638401  0.68893087  1
  Ni  Ni11  1  0.66649862  0.33322860  0.18663542  1
  Cu  Cu12  1  0.66673995  0.61905900  0.58639850  1
  Cu  Cu13  1  0.04865367  0.38268552  0.91596157  1
  Cu  Cu14  1  0.33166663  0.94962423  0.91520468  1
  C  C15  1  0.28816168  0.00129952  0.25069116  1
  C  C16  1  0.71265279  0.71161590  0.25073863  1
  C  C17  1  0.99969324  0.28831852  0.25086362  1
  C  C18  1  0.28606039  0.28729334  0.75015518  1
  C  C19  1  0.99915489  0.71407843  0.75069804  1
  C  C20  1  0.71301599  0.99945301  0.75037706  1
  C  C21  1  0.95588906  0.33379315  0.58297999  1
  C  C22  1  0.37851738  0.04564777  0.58317501  1
  C  C23  1  0.95605268  0.62359718  0.08451599  1
  C  C24  1  0.66500762  0.04140536  0.08390904  1
  C  C25  1  0.37891078  0.33647670  0.08442930  1
  C  C26  1  0.61791432  0.66750517  0.91613349  1
  C  C27  1  0.61769217  0.95396986  0.41641785  1
  C  C28  1  0.33295792  0.38105315  0.41684511  1
  C  C29  1  0.04861613  0.66583987  0.41652458  1
  C  C30  1  0.21056689  0.02830276  0.30466282  1
  C  C31  1  0.81703889  0.78867407  0.30443078  1
  C  C32  1  0.97089821  0.18174895  0.30469424  1
  C  C33  1  0.19195139  0.17336485  0.80414501  1
  C  C34  1  0.97705619  0.80212669  0.80352107  1
  C  C35  1  0.82360290  0.02189094  0.80325008  1
  C  C36  1  0.80191677  0.97293329  0.69554382  1
  C  C37  1  0.17277416  0.20377617  0.69673182  1
  C  C38  1  0.02989989  0.82870743  0.69593657  1
  C  C39  1  0.79511616  0.82995728  0.19676167  1
  C  C40  1  0.03491228  0.20561821  0.19702762  1
  C  C41  1  0.17107734  0.96602310  0.19708404  1
  C  C42  1  0.88687192  0.37027484  0.63649742  1
  C  C43  1  0.48615358  0.10633358  0.63633497  1
  C  C44  1  0.61919873  0.49736874  0.64279659  1
  C  C45  1  0.88369982  0.51720252  0.13875398  1
  C  C46  1  0.63214664  0.11399139  0.13797575  1
  C  C47  1  0.48220635  0.36499525  0.13863035  1
  C  C48  1  0.45537797  0.29927550  0.03125650  1
  C  C49  1  0.84446021  0.54788903  0.03144169  1
  C  C50  1  0.70349335  0.15886324  0.03092526  1
  C  C51  1  0.46497590  0.16014700  0.52908417  1
  C  C52  1  0.70028633  0.52751935  0.52487966  1
  C  C53  1  0.84034264  0.29983759  0.52902862  1
  C  C54  1  0.54026057  0.69925199  0.97077525  1
  C  C55  1  0.17256647  0.46856633  0.97522077  1
  C  C56  1  0.30399660  0.82820482  0.97473002  1
  C  C57  1  0.52796138  0.83920639  0.46977082  1
  C  C58  1  0.30900544  0.46887835  0.46992381  1
  C  C59  1  0.15660376  0.68807811  0.46983000  1
  C  C60  1  0.13312767  0.63625868  0.36229545  1
  C  C61  1  0.50227305  0.86601631  0.36258136  1
  C  C62  1  0.36625860  0.49662960  0.36261415  1
  C  C63  1  0.14219861  0.50870669  0.85762953  1
  C  C64  1  0.37383843  0.86382152  0.85714267  1
  C  C65  1  0.50655498  0.63071115  0.86288549  1
  C  C66  1  0.02440196  0.81880289  0.40965788  1
  C  C67  1  0.79127045  0.96843518  0.41004841  1
  C  C68  1  0.17708174  0.20591248  0.41051172  1
  C  C69  1  0.01736436  0.18425552  0.90516944  1
  C  C70  1  0.15619992  0.96687008  0.90477931  1
  C  C71  1  0.79651176  0.82405599  0.90724221  1
  C  C72  1  0.98060333  0.17611819  0.58979895  1
  C  C73  1  0.20054266  0.02992383  0.59047601  1
  C  C74  1  0.84254648  0.82049260  0.59409886  1
  C  C75  1  0.97780047  0.80755040  0.09375110  1
  C  C76  1  0.83207707  0.02634274  0.09357922  1
  C  C77  1  0.19464206  0.17154788  0.09400042  1
  C  C78  1  0.69559694  0.15625449  0.74197619  1
  C  C79  1  0.45735450  0.29570411  0.74737466  1
  C  C80  1  0.84800357  0.53630651  0.74549932  1
  C  C81  1  0.68199561  0.53293177  0.24074602  1
  C  C82  1  0.85087420  0.31763646  0.24051969  1
  C  C83  1  0.46732592  0.14939695  0.24061675  1
  C  C84  1  0.63695797  0.50781604  0.92727229  1
  C  C85  1  0.85647205  0.36776726  0.92971722  1
  C  C86  1  0.50153358  0.14691862  0.92941973  1
  C  C87  1  0.62929677  0.12842604  0.42480424  1
  C  C88  1  0.49713810  0.36571438  0.42469841  1
  C  C89  1  0.87109271  0.49598914  0.42367114  1
  C  C90  1  0.35299214  0.49052391  0.07495515  1
  C  C91  1  0.13853093  0.65000649  0.07575267  1
  C  C92  1  0.51633108  0.85968799  0.07365057  1
  C  C93  1  0.34738012  0.86223640  0.56943857  1
  C  C94  1  0.50149057  0.65267614  0.56773899  1
  C  C95  1  0.13540416  0.49205920  0.56978696  1
  C  C96  1  0.30011590  0.83172747  0.25886676  1
  C  C97  1  0.53140945  0.69977106  0.25885400  1
  C  C98  1  0.16858798  0.46877516  0.25890241  1
  C  C99  1  0.30238956  0.46481027  0.75807735  1
  C  C100  1  0.16930193  0.70711510  0.75534758  1
  C  C101  1  0.53910046  0.83203903  0.75619710  1
