# generated using pymatgen
data_CuNiC12
_symmetry_space_group_name_H-M   'P 1'
_cell_length_a   9.11504149
_cell_length_b   9.14378254
_cell_length_c   22.04024808
_cell_angle_alpha   89.28561036
_cell_angle_beta   89.65773975
_cell_angle_gamma   119.29681971
_symmetry_Int_Tables_number   1
_chemical_formula_structural   CuNiC12
_chemical_formula_sum   'Cu9 Ni9 C108'
_cell_volume   1601.73303336
_cell_formula_units_Z   9
loop_
 _symmetry_equiv_pos_site_id
 _symmetry_equiv_pos_as_xyz
  1  'x, y, z'
loop_
 _atom_site_type_symbol
 _atom_site_label
 _atom_site_symmetry_multiplicity
 _atom_site_fract_x
 _atom_site_fract_y
 _atom_site_fract_z
 _atom_site_occupancy
  C  C0  1  0.62858653  0.99593757  0.25789285  1
  C  C1  1  0.37104431  0.37098047  0.24549859  1
  C  C2  1  0.00177670  0.62179585  0.25197520  1
  C  C3  1  0.64235071  0.64451601  0.73476969  1
  C  C4  1  0.98191821  0.34590215  0.74987026  1
  C  C5  1  0.38450436  0.01651307  0.74004781  1
  C  C6  1  0.30667079  0.33572743  0.58355315  1
  C  C7  1  0.04499436  0.71555689  0.57276288  1
  C  C8  1  0.65238560  0.94427333  0.58285306  1
  C  C9  1  0.28416935  0.95298309  0.07495933  1
  C  C10  1  0.65956199  0.69245657  0.08469390  1
  C  C11  1  0.05370039  0.34840631  0.08013854  1
  C  C12  1  0.98654696  0.67933492  0.91898698  1
  C  C13  1  0.71191883  0.04489419  0.90805302  1
  C  C14  1  0.31016544  0.28654926  0.92061988  1
  C  C15  1  0.96551945  0.30360898  0.41424039  1
  C  C16  1  0.32607360  0.00923106  0.42254939  1
  C  C17  1  0.70934748  0.68893083  0.42670141  1
  C  C18  1  0.99075978  0.98283860  0.50014968  1
  C  C19  1  0.01700775  0.01168119  0.99902487  1
  C  C20  1  0.66744687  0.31555863  0.83049421  1
  C  C21  1  0.67933928  0.33312838  0.33834860  1
  C  C22  1  0.32040959  0.65290390  0.15998957  1
  C  C23  1  0.35231879  0.68214732  0.65655546  1
  C  C24  1  0.66826223  0.33880934  0.98338762  1
  C  C25  1  0.65993751  0.33240743  0.48409064  1
  C  C26  1  0.33415437  0.68569403  0.81962342  1
  Ni  Ni27  1  0.98889685  0.98464361  0.35317325  1
  Ni  Ni28  1  0.00303613  0.01979953  0.85062424  1
  Ni  Ni29  1  0.97310426  0.97153157  0.64275986  1
  Ni  Ni30  1  0.01500482  0.99836556  0.14165541  1
  Ni  Ni31  1  0.65198664  0.31608066  0.67369811  1
  Ni  Ni32  1  0.66604631  0.34778169  0.16827684  1
  Ni  Ni33  1  0.30077981  0.65062607  0.01536323  1
  Ni  Ni34  1  0.35169428  0.70332403  0.51434873  1
  Ni  Ni35  1  0.33057829  0.69193864  0.34259496  1
  Cu  Cu36  1  0.70204769  0.99674863  0.75127230  1
  Cu  Cu37  1  0.36334025  0.03607328  0.58650432  1
  Cu  Cu38  1  0.65994082  0.62000604  0.58528190  1
  Cu  Cu39  1  0.95976679  0.62751022  0.08637828  1
  Cu  Cu40  1  0.37140474  0.33835571  0.08460867  1
  Cu  Cu41  1  0.03601619  0.37207810  0.91844839  1
  Cu  Cu42  1  0.33508216  0.96971295  0.92058164  1
  Cu  Cu43  1  0.64172376  0.97679378  0.41621514  1
  Cu  Cu44  1  0.02840361  0.65825330  0.41715174  1
  C  C45  1  0.29807417  0.00090612  0.24891233  1
  C  C46  1  0.70145680  0.70299244  0.24928510  1
  C  C47  1  -0.00006390  0.28946075  0.24794254  1
  C  C48  1  0.30006281  0.30673758  0.75244800  1
  C  C49  1  0.00849292  0.70539708  0.75360467  1
  C  C50  1  0.95836460  0.33391524  0.58320190  1
  C  C51  1  0.66899286  0.04529318  0.08423345  1
  C  C52  1  0.62263257  0.66154347  0.91757933  1
  C  C53  1  0.33740938  0.37085213  0.41540243  1
  C  C54  1  0.21431741  0.02038896  0.30390225  1
  C  C55  1  0.80067235  0.78745502  0.30391908  1
  C  C56  1  0.99203074  0.19263175  0.30384447  1
  C  C57  1  0.22042472  0.20141475  0.80748789  1
  C  C58  1  0.98868324  0.78541748  0.80804098  1
  C  C59  1  0.81040106  0.01993976  0.81225048  1
  C  C60  1  0.77927138  0.95346859  0.69112883  1
  C  C61  1  0.20069009  0.22969082  0.69751178  1
  C  C62  1  0.03593965  0.80770631  0.69752286  1
  C  C63  1  0.78422591  0.80396636  0.19319658  1
  C  C64  1  0.01039130  0.20314424  0.19234731  1
  C  C65  1  0.19982485  0.98715263  0.19330953  1
  C  C66  1  0.88578131  0.35770438  0.64013699  1
  C  C67  1  0.47582926  0.10638280  0.64656723  1
  C  C68  1  0.64936208  0.51888356  0.64779896  1
  C  C69  1  0.88689500  0.51367529  0.14781381  1
  C  C70  1  0.64256825  0.11839144  0.14018317  1
  C  C71  1  0.46943376  0.35620327  0.14778241  1
  C  C72  1  0.48422187  0.31550675  0.02705861  1
  C  C73  1  0.83242069  0.51261882  0.02820487  1
  C  C74  1  0.68608781  0.15399440  0.02932131  1
  C  C75  1  0.47857941  0.16260314  0.52810556  1
  C  C76  1  0.67587483  0.50977789  0.52751823  1
  C  C77  1  0.84942437  0.31880074  0.52981360  1
  C  C78  1  0.54835606  0.68787454  0.97319944  1
  C  C79  1  0.14992434  0.44076616  0.97783481  1
  C  C80  1  0.31001467  0.85504436  0.97959016  1
  C  C81  1  0.56273681  0.84521319  0.47263998  1
  C  C82  1  0.30991615  0.44717514  0.46972962  1
  C  C83  1  0.15073026  0.68594570  0.47394442  1
  C  C84  1  0.09610057  0.60831873  0.35504075  1
  C  C85  1  0.52529294  0.90276142  0.35514910  1
  C  C86  1  0.36359202  0.47611928  0.35960990  1
  C  C87  1  0.14441232  0.50508229  0.86019604  1
  C  C88  1  0.36114300  0.86529338  0.86112681  1
  C  C89  1  0.51549741  0.64374853  0.86359082  1
  C  C90  1  0.01469980  0.83071640  0.41202708  1
  C  C91  1  0.83609674  0.01431805  0.41044016  1
  C  C92  1  0.19428016  0.19911472  0.40948943  1
  C  C93  1  0.00425003  0.18135267  0.91289117  1
  C  C94  1  0.16617188  0.98490782  0.91001576  1
  C  C95  1  0.79577072  0.80065234  0.91014450  1
  C  C96  1  0.96744471  0.17609844  0.58410361  1
  C  C97  1  0.18360918  0.03789423  0.58621371  1
  C  C98  1  0.83133426  0.80330243  0.57882655  1
  C  C99  1  0.95598126  0.80546605  0.08256684  1
  C  C100  1  0.82786363  0.03766348  0.08498582  1
  C  C101  1  0.18715653  0.16775779  0.08119951  1
  C  C102  1  0.68003899  0.16523792  0.74723844  1
  C  C103  1  0.47328567  0.33035237  0.74984880  1
  C  C104  1  0.86345763  0.53419439  0.74973167  1
  C  C105  1  0.68903915  0.53333815  0.24871852  1
  C  C106  1  0.84308521  0.30443388  0.24903100  1
  C  C107  1  0.47049563  0.15069907  0.24575398  1
  C  C108  1  0.62875775  0.49929002  0.91993927  1
  C  C109  1  0.85037125  0.36731332  0.92147016  1
  C  C110  1  0.50916409  0.15462350  0.92167051  1
  C  C111  1  0.64788182  0.16034834  0.42578940  1
  C  C112  1  0.49625527  0.35705927  0.42013086  1
  C  C113  1  0.83592944  0.49354052  0.42607742  1
  C  C114  1  0.36464498  0.51249722  0.07794452  1
  C  C115  1  0.15104834  0.65972243  0.08217186  1
  C  C116  1  0.52379756  0.87603762  0.07832594  1
  C  C117  1  0.33571814  0.84673574  0.58064909  1
  C  C118  1  0.48729890  0.63132741  0.57949492  1
  C  C119  1  0.12821917  0.47953606  0.57580311  1
  C  C120  1  0.31191976  0.84449811  0.25181904  1
  C  C121  1  0.52905087  0.68310349  0.25279047  1
  C  C122  1  0.15240580  0.45911249  0.24756304  1
  C  C123  1  0.31143336  0.47673125  0.75787145  1
  C  C124  1  0.16877567  0.69017424  0.75722366  1
  C  C125  1  0.50705203  0.82109876  0.76024291  1
