# generated using pymatgen
data_Cu2NiC17
_symmetry_space_group_name_H-M   'P 1'
_cell_length_a   9.10615121
_cell_length_b   9.08809012
_cell_length_c   22.63190211
_cell_angle_alpha   89.13011387
_cell_angle_beta   90.51497230
_cell_angle_gamma   119.90883502
_symmetry_Int_Tables_number   1
_chemical_formula_structural   Cu2NiC17
_chemical_formula_sum   'Cu12 Ni6 C102'
_cell_volume   1623.32979900
_cell_formula_units_Z   6
loop_
 _symmetry_equiv_pos_site_id
 _symmetry_equiv_pos_as_xyz
  1  'x, y, z'
loop_
 _atom_site_type_symbol
 _atom_site_label
 _atom_site_symmetry_multiplicity
 _atom_site_fract_x
 _atom_site_fract_y
 _atom_site_fract_z
 _atom_site_occupancy
  C  C0  1  0.63007567  0.99544253  0.25588468  1
  C  C1  1  0.36949362  0.36639342  0.24519291  1
  C  C2  1  0.64145188  0.64410283  0.74163748  1
  C  C3  1  0.31029215  0.34273561  0.58795546  1
  C  C4  1  0.02513252  0.70166014  0.58413781  1
  C  C5  1  0.66794353  0.95054121  0.58543591  1
  C  C6  1  0.29663756  0.97071905  0.07883635  1
  C  C7  1  0.05041810  0.33852552  0.07861800  1
  C  C8  1  0.98435752  0.67492415  0.91416414  1
  C  C9  1  0.70988541  0.03631723  0.90632826  1
  C  C10  1  0.30893813  0.28518575  0.91711792  1
  C  C11  1  0.69908283  0.68305221  0.41877006  1
  C  C12  1  0.98733136  0.99656956  0.49704285  1
  C  C13  1  0.01107475  0.01007666  0.99747574  1
  C  C14  1  0.67117511  0.31021147  0.82422075  1
  C  C15  1  0.67396428  0.32440957  0.33221720  1
  C  C16  1  0.33596905  0.65759073  0.16295753  1
  C  C17  1  0.34599672  0.67329012  0.66669546  1
  C  C18  1  0.65511100  0.32313850  0.98215217  1
  C  C19  1  0.66810030  0.32939318  0.47980401  1
  C  C20  1  0.32970383  0.68041450  0.81413742  1
  C  C21  1  0.98905194  0.00417264  0.35184469  1
  C  C22  1  0.00412109  0.02523903  0.84811041  1
  C  C23  1  0.97132800  0.97855157  0.65552436  1
  C  C24  1  0.01191025  0.00672303  0.14983730  1
  C  C25  1  0.66264860  0.32530784  0.68605707  1
  C  C26  1  0.66488493  0.34897105  0.17791370  1
  C  C27  1  0.32336233  0.65019159  0.01309605  1
  C  C28  1  0.36292916  0.67426935  0.51256137  1
  C  C29  1  0.33328904  0.68340420  0.32498325  1
  Ni  Ni30  1  0.70782607  0.00876262  0.74950272  1
  Ni  Ni31  1  0.66683594  0.62528665  0.58575163  1
  Ni  Ni32  1  0.36673753  0.33914576  0.08732899  1
  Ni  Ni33  1  0.03848155  0.36995379  0.91881462  1
  Ni  Ni34  1  0.32555238  0.95556209  0.92068205  1
  Ni  Ni35  1  0.63271953  0.96261952  0.41400362  1
  Cu  Cu36  1  0.28966580  0.99614972  0.25076875  1
  Cu  Cu37  1  0.71073398  0.70700695  0.24964196  1
  Cu  Cu38  1  0.00003536  0.29693016  0.24924214  1
  Cu  Cu39  1  0.29502614  0.29356977  0.74918385  1
  Cu  Cu40  1  0.99852708  0.70790446  0.74987916  1
  Cu  Cu41  1  0.96481407  0.33774270  0.58385368  1
  Cu  Cu42  1  0.37073198  0.03885599  0.58453537  1
  Cu  Cu43  1  0.95812510  0.62836449  0.08549341  1
  Cu  Cu44  1  0.66724805  0.03635146  0.08701491  1
  Cu  Cu45  1  0.62634499  0.66764951  0.91772928  1
  Cu  Cu46  1  0.32774726  0.36946813  0.41565679  1
  Cu  Cu47  1  0.04420600  0.66867181  0.41725470  1
  C  C48  1  0.20623784  0.02375265  0.30182195  1
  C  C49  1  0.80815608  0.78279899  0.30455721  1
  C  C50  1  0.97046120  0.18531902  0.30162723  1
  C  C51  1  0.21835861  0.19226968  0.80342667  1
  C  C52  1  0.97986962  0.78795128  0.80324087  1
  C  C53  1  0.80903931  0.02062326  0.81058277  1
  C  C54  1  0.77559424  0.96025703  0.69000786  1
  C  C55  1  0.19465495  0.21596834  0.69508544  1
  C  C56  1  0.03050638  0.81138690  0.69502822  1
  C  C57  1  0.79365645  0.81856421  0.19751514  1
  C  C58  1  0.02866306  0.22194984  0.19500365  1
  C  C59  1  0.19322177  0.97637086  0.19518498  1
  C  C60  1  0.88579689  0.36382739  0.63535018  1
  C  C61  1  0.48056225  0.11381304  0.63568435  1
  C  C62  1  0.63585811  0.50216909  0.64273316  1
  C  C63  1  0.87791639  0.51430133  0.13673153  1
  C  C64  1  0.64396347  0.11983909  0.13909181  1
  C  C65  1  0.47665443  0.35735004  0.14617083  1
  C  C66  1  0.46159329  0.30579082  0.02890653  1
  C  C67  1  0.85699831  0.54681646  0.03041614  1
  C  C68  1  0.69651836  0.14927415  0.03228648  1
  C  C69  1  0.45633380  0.14796039  0.53044957  1
  C  C70  1  0.69175664  0.53112319  0.52612767  1
  C  C71  1  0.85015301  0.30498875  0.53060845  1
  C  C72  1  0.54883133  0.69607468  0.96915671  1
  C  C73  1  0.14974857  0.44392861  0.97793546  1
  C  C74  1  0.30365421  0.84663791  0.98044602  1
  C  C75  1  0.55440050  0.85050346  0.47423714  1
  C  C76  1  0.30299038  0.44399030  0.46978029  1
  C  C77  1  0.13887292  0.68409240  0.47221918  1
  C  C78  1  0.11629079  0.63535444  0.36471185  1
  C  C79  1  0.52261339  0.88655198  0.35382130  1
  C  C80  1  0.36034712  0.47803935  0.36206417  1
  C  C81  1  0.13259495  0.49801733  0.86214071  1
  C  C82  1  0.37205747  0.87293501  0.86387723  1
  C  C83  1  0.51918510  0.63328558  0.86352715  1
  C  C84  1  0.02061604  0.81799871  0.41048192  1
  C  C85  1  0.81846336  0.97240131  0.41055296  1
  C  C86  1  0.18446450  0.19678768  0.40939993  1
  C  C87  1  0.01067206  0.17897079  0.91404437  1
  C  C88  1  0.15881883  0.97466044  0.90993334  1
  C  C89  1  0.79891090  0.81211639  0.91073201  1
  C  C90  1  0.98732600  0.18667411  0.58706962  1
  C  C91  1  0.20436794  0.03194049  0.58824241  1
  C  C92  1  0.84182952  0.81368172  0.58520829  1
  C  C93  1  0.97228334  0.79722607  0.08992483  1
  C  C94  1  0.82356277  0.02525559  0.09035866  1
  C  C95  1  0.17959840  0.15928022  0.08813609  1
  C  C96  1  0.68341765  0.17354964  0.74303134  1
  C  C97  1  0.46989372  0.32147982  0.74627294  1
  C  C98  1  0.84391676  0.53996872  0.74507309  1
  C  C99  1  0.68851132  0.53225137  0.24577074  1
  C  C100  1  0.84218159  0.30922412  0.24288686  1
  C  C101  1  0.46572150  0.15101111  0.24718235  1
  C  C102  1  0.64175282  0.50992891  0.92384121  1
  C  C103  1  0.85087896  0.36119082  0.92410383  1
  C  C104  1  0.50048358  0.14902474  0.92293209  1
  C  C105  1  0.65139472  0.15404475  0.42277909  1
  C  C106  1  0.49205618  0.36260796  0.42235244  1
  C  C107  1  0.86422695  0.51411361  0.42189831  1
  C  C108  1  0.34299150  0.50485822  0.08103060  1
  C  C109  1  0.13024656  0.64951419  0.08161054  1
  C  C110  1  0.51219781  0.87268675  0.07914996  1
  C  C111  1  0.34294779  0.86417662  0.57721041  1
  C  C112  1  0.49260536  0.64052902  0.58089028  1
  C  C113  1  0.13199006  0.49370458  0.57428321  1
  C  C114  1  0.31116934  0.84333734  0.25509660  1
  C  C115  1  0.53507014  0.68587690  0.25278855  1
  C  C116  1  0.15670635  0.46578170  0.25661951  1
  C  C117  1  0.31331029  0.46833603  0.75452160  1
  C  C118  1  0.15226683  0.68606005  0.75367234  1
  C  C119  1  0.51868490  0.82238583  0.75564683  1
