# generated using pymatgen
data_Cu2Ni2C15
_symmetry_space_group_name_H-M   'P 1'
_cell_length_a   5.95256176
_cell_length_b   5.82244405
_cell_length_c   8.79039903
_cell_angle_alpha   90.00000000
_cell_angle_beta   83.29382915
_cell_angle_gamma   90.00000000
_symmetry_Int_Tables_number   1
_chemical_formula_structural   Cu2Ni2C15
_chemical_formula_sum   'Cu2 Ni2 C15'
_cell_volume   302.57720219
_cell_formula_units_Z   1
loop_
 _symmetry_equiv_pos_site_id
 _symmetry_equiv_pos_as_xyz
  1  'x, y, z'
loop_
 _atom_site_type_symbol
 _atom_site_label
 _atom_site_symmetry_multiplicity
 _atom_site_fract_x
 _atom_site_fract_y
 _atom_site_fract_z
 _atom_site_occupancy
  Ni  Ni0  1  0.86583890  0.25000000  0.07809153  1
  Ni  Ni1  1  0.24197783  0.75000000  0.01278376  1
  Cu  Cu2  1  0.14947923  0.25000000  0.71259986  1
  Cu  Cu3  1  0.76182314  0.75000000  0.23527582  1
  C  C4  1  0.22004286  0.75000000  0.48373062  1
  C  C5  1  0.77947630  0.25000000  0.47262261  1
  C  C6  1  0.51728736  0.25000000  0.84802366  1
  C  C7  1  0.70944445  0.75000000  0.74798593  1
  C  C8  1  0.30356838  0.25000000  0.27104660  1
  C  C9  1  0.50506872  0.48287188  0.34362972  1
  C  C10  1  0.46610487  0.98322400  0.71461106  1
  C  C11  1  0.50506872  0.01712812  0.34362972  1
  C  C12  1  0.46610487  0.51677600  0.71461106  1
  C  C13  1  0.04663203  0.49135658  0.30116257  1
  C  C14  1  0.31437161  0.25000000  0.04246124  1
  C  C15  1  0.74855088  0.75000000  0.95622692  1
  C  C16  1  0.04663203  0.00864342  0.30116257  1
  C  C17  1  0.92626392  0.52702235  0.63595337  1
  C  C18  1  0.92626392  0.97297765  0.63595337  1
