# generated using pymatgen
data_Cu5NiC31
_symmetry_space_group_name_H-M   'P 1'
_cell_length_a   8.58106558
_cell_length_b   8.75227301
_cell_length_c   8.75138197
_cell_angle_alpha   61.05635127
_cell_angle_beta   60.83925668
_cell_angle_gamma   60.71481446
_symmetry_Int_Tables_number   1
_chemical_formula_structural   Cu5NiC31
_chemical_formula_sum   'Cu5 Ni1 C31'
_cell_volume   473.86328932
_cell_formula_units_Z   1
loop_
 _symmetry_equiv_pos_site_id
 _symmetry_equiv_pos_as_xyz
  1  'x, y, z'
loop_
 _atom_site_type_symbol
 _atom_site_label
 _atom_site_symmetry_multiplicity
 _atom_site_fract_x
 _atom_site_fract_y
 _atom_site_fract_z
 _atom_site_occupancy
  C  C0  1  0.25159900  0.86239300  0.63372800  1
  Ni  Ni1  1  0.56413000  0.14719400  0.14009900  1
  Cu  Cu2  1  0.99594600  0.00717000  0.01389300  1
  Cu  Cu3  1  0.05335600  0.63664100  0.65210400  1
  Cu  Cu4  1  0.50728100  0.47020600  0.51107900  1
  Cu  Cu5  1  0.45625900  0.83420800  0.86519700  1
  Cu  Cu6  1  0.93021500  0.37155100  0.34673700  1
  C  C7  1  0.23981500  0.25591300  0.53363900  1
  C  C8  1  0.24720100  0.97373200  0.24164300  1
  C  C9  1  0.26052500  0.54549500  0.95320700  1
  C  C10  1  0.75962800  0.44123600  0.05410600  1
  C  C11  1  0.76991000  0.03899600  0.75004600  1
  C  C12  1  0.72457600  0.75582600  0.45552300  1
  C  C13  1  0.07288300  0.12853100  0.30607900  1
  C  C14  1  0.07495400  0.52578400  0.09705500  1
  C  C15  1  0.05799000  0.35267300  0.48504400  1
  C  C16  1  0.21197500  0.08340100  0.71154100  1
  C  C17  1  0.40712700  0.18240100  0.37438500  1
  C  C18  1  0.28347400  0.39106400  0.55955500  1
  C  C19  1  0.22722500  0.93701900  0.09597900  1
  C  C20  1  0.28355400  0.79749500  0.41118300  1
  C  C21  1  0.57863900  0.59434500  0.01793000  1
  C  C22  1  0.28852200  0.57243900  0.75153200  1
  C  C23  1  0.75894600  0.24778300  0.08594100  1
  C  C24  1  0.61369000  0.96638200  0.79929500  1
  C  C25  1  0.42636800  0.03146300  0.14688900  1
  C  C26  1  0.25222100  0.74405000  0.92640700  1
  C  C27  1  0.73997200  0.42875700  0.24794200  1
  C  C28  1  0.43487900  0.38801400  0.00168600  1
  C  C29  1  0.73266200  0.22869900  0.59918700  1
  C  C30  1  0.76225600  0.06931600  0.91724700  1
  C  C31  1  0.72293600  0.58810300  0.43583900  1
  C  C32  1  0.52769000  0.81555600  0.60137200  1
  C  C33  1  0.73989100  0.91275000  0.26227100  1
  C  C34  1  0.88544700  0.71644000  0.50913100  1
  C  C35  1  0.94274200  0.46307900  0.90470700  1
  C  C36  1  0.97064900  0.90013900  0.69455400  1
