# generated using pymatgen
data_CuNiC3
_symmetry_space_group_name_H-M   'P 1'
_cell_length_a   3.34714900
_cell_length_b   3.34714313
_cell_length_c   37.84254500
_cell_angle_alpha   89.99942782
_cell_angle_beta   90.00000000
_cell_angle_gamma   120.00006787
_symmetry_Int_Tables_number   1
_chemical_formula_structural   CuNiC3
_chemical_formula_sum   'Cu2 Ni2 C6'
_cell_volume   367.16392224
_cell_formula_units_Z   2
loop_
 _symmetry_equiv_pos_site_id
 _symmetry_equiv_pos_as_xyz
  1  'x, y, z'
loop_
 _atom_site_type_symbol
 _atom_site_label
 _atom_site_symmetry_multiplicity
 _atom_site_fract_x
 _atom_site_fract_y
 _atom_site_fract_z
 _atom_site_occupancy
  C  C0  1  0.00000700  0.00001400  0.44860800  1
  C  C1  1  0.66666000  0.33332000  0.53470500  1
  C  C2  1  0.66665000  0.33329900  0.63571400  1
  C  C3  1  0.66665700  0.33331400  0.33945300  1
  C  C4  1  0.33333000  0.66666000  0.11567700  1
  C  C5  1  0.33332000  0.66664200  0.58539600  1
  Ni  Ni6  1  0.66666500  0.33332900  0.07146200  1
  Ni  Ni7  1  0.66666100  0.33332200  0.15989700  1
  Cu  Cu8  1  0.33332100  0.66664300  0.38019900  1
  Cu  Cu9  1  0.33332900  0.66665900  0.29964600  1
