# generated using pymatgen
data_Cu4NiC14
_symmetry_space_group_name_H-M   'P 1'
_cell_length_a   5.75200169
_cell_length_b   5.73685708
_cell_length_c   9.13041096
_cell_angle_alpha   110.41541062
_cell_angle_beta   103.37940234
_cell_angle_gamma   96.19044227
_symmetry_Int_Tables_number   1
_chemical_formula_structural   Cu4NiC14
_chemical_formula_sum   'Cu4 Ni1 C14'
_cell_volume   268.76275764
_cell_formula_units_Z   1
loop_
 _symmetry_equiv_pos_site_id
 _symmetry_equiv_pos_as_xyz
  1  'x, y, z'
loop_
 _atom_site_type_symbol
 _atom_site_label
 _atom_site_symmetry_multiplicity
 _atom_site_fract_x
 _atom_site_fract_y
 _atom_site_fract_z
 _atom_site_occupancy
  C  C0  1  0.62895465  0.11976394  0.23282320  1
  C  C1  1  0.51030503  0.85968775  0.82064844  1
  C  C2  1  0.09659104  0.65778767  0.22215293  1
  C  C3  1  0.88561596  0.43089306  0.78683117  1
  Ni  Ni4  1  0.12427722  0.00712077  0.65145730  1
  Cu  Cu5  1  0.05466369  0.02233823  0.02270141  1
  Cu  Cu6  1  0.49851264  0.48345201  0.99254472  1
  Cu  Cu7  1  0.21334185  0.35673087  0.50128493  1
  Cu  Cu8  1  0.63495715  0.78698898  0.47653429  1
  C  C9  1  0.23801590  0.18427572  0.91222877  1
  C  C10  1  0.25782247  0.76357932  0.99887800  1
  C  C11  1  0.81579724  0.24414689  0.02038211  1
  C  C12  1  0.77507731  0.75307736  0.02383750  1
  C  C13  1  0.20621866  0.14889100  0.27364097  1
  C  C14  1  0.85259220  0.78580082  0.68394478  1
  C  C15  1  0.56352638  0.59085286  0.23514567  1
  C  C16  1  0.41455473  0.36186265  0.72839944  1
  C  C17  1  0.88873171  0.12797033  0.50687196  1
  C  C18  1  0.28749317  0.74335077  0.52398042  1
