# generated using pymatgen
data_Cu2Ni2C33
_symmetry_space_group_name_H-M   'P 1'
_cell_length_a   8.87225481
_cell_length_b   8.85853102
_cell_length_c   23.01056842
_cell_angle_alpha   90.30010252
_cell_angle_beta   89.87084875
_cell_angle_gamma   119.89556078
_symmetry_Int_Tables_number   1
_chemical_formula_structural   Cu2Ni2C33
_chemical_formula_sum   'Cu6 Ni6 C99'
_cell_volume   1567.84740344
_cell_formula_units_Z   3
loop_
 _symmetry_equiv_pos_site_id
 _symmetry_equiv_pos_as_xyz
  1  'x, y, z'
loop_
 _atom_site_type_symbol
 _atom_site_label
 _atom_site_symmetry_multiplicity
 _atom_site_fract_x
 _atom_site_fract_y
 _atom_site_fract_z
 _atom_site_occupancy
  C  C0  1  0.00395278  0.36502357  0.75059078  1
  C  C1  1  0.66780735  0.96480690  0.58338219  1
  C  C2  1  0.03631439  0.33317986  0.08351262  1
  C  C3  1  0.00498495  0.99426162  0.50124195  1
  C  C4  1  0.00578534  0.99523099  0.00075345  1
  C  C5  1  0.65812758  0.32710629  0.83395068  1
  C  C6  1  0.67745772  0.33733830  0.33336870  1
  C  C7  1  0.34350660  0.66997018  0.16713026  1
  C  C8  1  0.33371253  0.66712976  0.66668157  1
  Ni  Ni9  1  0.00689645  0.99840006  0.64778463  1
  Ni  Ni10  1  0.99430456  0.99397689  0.14775746  1
  Ni  Ni11  1  0.33327275  0.67229664  0.01759941  1
  Ni  Ni12  1  0.32632091  0.66707241  0.51746681  1
  Ni  Ni13  1  0.33165402  0.66584475  0.31653612  1
  Ni  Ni14  1  0.33456957  0.67478246  0.81697652  1
  Cu  Cu15  1  0.98543536  0.99134788  0.35034813  1
  Cu  Cu16  1  0.00711715  0.00449442  0.84988764  1
  Cu  Cu17  1  0.66276227  0.33635705  0.68536934  1
  Cu  Cu18  1  0.67096360  0.33811278  0.18538596  1
  Cu  Cu19  1  0.66498173  0.32787240  0.98212861  1
  Cu  Cu20  1  0.67344386  0.33557932  0.48187665  1
  C  C21  1  0.70286731  0.70226598  0.24922017  1
  C  C22  1  0.99910014  0.29332356  0.24898288  1
  C  C23  1  0.29657132  0.29476447  0.74999589  1
  C  C24  1  0.99714646  0.70583852  0.74996938  1
  C  C25  1  0.70638689  0.99901390  0.74850156  1
  C  C26  1  0.95999785  0.33549960  0.58484127  1
  C  C27  1  0.37822480  0.04732526  0.58226904  1
  C  C28  1  0.66446824  0.62274231  0.58248475  1
  C  C29  1  0.95512614  0.62400922  0.08222894  1
  C  C30  1  0.66342450  0.04151857  0.08432216  1
  C  C31  1  0.37804097  0.33390482  0.08352726  1
  C  C32  1  0.03421792  0.36733085  0.91670472  1
  C  C33  1  0.33270253  0.96587578  0.91696568  1
  C  C34  1  0.62887322  0.96408438  0.41775780  1
  C  C35  1  0.03578609  0.66823369  0.41592726  1
  C  C36  1  0.29421548  0.00336690  0.24992530  1
  C  C37  1  0.63256517  0.66732620  0.91670837  1
  C  C38  1  0.33226379  0.36574176  0.41667261  1
  C  C39  1  0.21507980  0.03274353  0.30339282  1
  C  C40  1  0.81827209  0.77924174  0.30468014  1
  C  C41  1  0.97020712  0.17812376  0.30389670  1
  C  C42  1  0.21821160  0.18175186  0.80520085  1
  C  C43  1  0.96376886  0.78542809  0.80551917  1
  C  C44  1  0.82848320  0.03888325  0.80262814  1
  C  C45  1  0.78362129  0.97392313  0.69214010  1
  C  C46  1  0.18074064  0.21825721  0.69637147  1
  C  C47  1  0.02797993  0.81293016  0.69548588  1
  C  C48  1  0.78413356  0.81044622  0.19525778  1
  C  C49  1  0.02811866  0.21735151  0.19288334  1
  C  C50  1  0.19130663  0.97703312  0.19750482  1
  C  C51  1  0.87820597  0.36287866  0.64142187  1
  C  C52  1  0.49479862  0.12765939  0.63729223  1
  C  C53  1  0.63623221  0.51312497  0.63781763  1
  C  C54  1  0.87595534  0.50736113  0.13701603  1
  C  C55  1  0.63478675  0.12585047  0.13951844  1
  C  C56  1  0.48888653  0.36198327  0.13882634  1
  C  C57  1  0.46007465  0.30537072  0.02813420  1
  C  C58  1  0.84251729  0.53998652  0.02738321  1
  C  C59  1  0.70123333  0.15858277  0.02983296  1
  C  C60  1  0.46283008  0.15840175  0.52740256  1
  C  C61  1  0.69357855  0.53962759  0.52744405  1
  C  C62  1  0.84077707  0.29870115  0.53088219  1
  C  C63  1  0.55782726  0.69742637  0.96932294  1
  C  C64  1  0.14306529  0.44320636  0.97227861  1
  C  C65  1  0.30152016  0.85749826  0.97164417  1
  C  C66  1  0.55711673  0.85818595  0.47377452  1
  C  C67  1  0.30124663  0.44021209  0.46901980  1
  C  C68  1  0.14255406  0.70020727  0.47114080  1
  C  C69  1  0.11148384  0.63190116  0.36128709  1
  C  C70  1  0.51903649  0.88320511  0.36317656  1
  C  C71  1  0.36390676  0.47200241  0.36385546  1
  C  C72  1  0.11200939  0.47339274  0.86094418  1
  C  C73  1  0.37027390  0.89256656  0.86208036  1
  C  C74  1  0.52653530  0.63585756  0.86395454  1
  C  C75  1  0.02027708  0.83667209  0.40900881  1
  C  C76  1  0.81603829  0.98782463  0.41142815  1
  C  C77  1  0.17511218  0.18866475  0.40914271  1
  C  C78  1  0.01078263  0.18028927  0.91033369  1
  C  C79  1  0.16545076  0.98199440  0.91045034  1
  C  C80  1  0.80877941  0.82529055  0.91018948  1
  C  C81  1  0.96684328  0.16497871  0.58822642  1
  C  C82  1  0.19832993  0.02947659  0.58611576  1
  C  C83  1  0.82617420  0.80674388  0.58632612  1
  C  C84  1  0.97464299  0.80458789  0.08690196  1
  C  C85  1  0.83396762  0.03482994  0.08775442  1
  C  C86  1  0.19417992  0.17191793  0.08781104  1
  C  C87  1  0.69821344  0.17303881  0.74484735  1
  C  C88  1  0.47813006  0.31016949  0.74472813  1
  C  C89  1  0.83199764  0.51875122  0.74548040  1
  C  C90  1  0.68614515  0.51743311  0.24513769  1
  C  C91  1  0.82800844  0.30484092  0.24536076  1
  C  C92  1  0.46992607  0.16376865  0.24584593  1
  C  C93  1  0.65195856  0.50939679  0.92235956  1
  C  C94  1  0.85064699  0.35121947  0.92267619  1
  C  C95  1  0.49575908  0.15280566  0.92277442  1
  C  C96  1  0.64794721  0.14931987  0.42278927  1
  C  C97  1  0.48996523  0.34674413  0.42245713  1
  C  C98  1  0.84887934  0.50517340  0.42207593  1
  C  C99  1  0.35570055  0.49600443  0.07875128  1
  C  C100  1  0.13228504  0.63067693  0.07833116  1
  C  C101  1  0.50263722  0.86154720  0.07923935  1
  C  C102  1  0.37035584  0.86919777  0.57889144  1
  C  C103  1  0.50238541  0.64421446  0.57794139  1
  C  C104  1  0.13865400  0.49753284  0.57935034  1
  C  C105  1  0.31448418  0.84839557  0.25544078  1
  C  C106  1  0.52245193  0.68421043  0.25635402  1
  C  C107  1  0.15893598  0.47567337  0.25596675  1
  C  C108  1  0.31129579  0.47484111  0.75756383  1
  C  C109  1  0.15298300  0.67494634  0.75557886  1
  C  C110  1  0.52658372  0.83983928  0.75588864  1
