# generated using pymatgen
data_CuNiC18
_symmetry_space_group_name_H-M   'P 1'
_cell_length_a   15.45657156
_cell_length_b   8.97403141
_cell_length_c   9.03458870
_cell_angle_alpha   90.00000000
_cell_angle_beta   126.12657632
_cell_angle_gamma   90.00000000
_symmetry_Int_Tables_number   1
_chemical_formula_structural   CuNiC18
_chemical_formula_sum   'Cu4 Ni4 C72'
_cell_volume   1012.20410879
_cell_formula_units_Z   4
loop_
 _symmetry_equiv_pos_site_id
 _symmetry_equiv_pos_as_xyz
  1  'x, y, z'
loop_
 _atom_site_type_symbol
 _atom_site_label
 _atom_site_symmetry_multiplicity
 _atom_site_fract_x
 _atom_site_fract_y
 _atom_site_fract_z
 _atom_site_occupancy
  C  C0  1  0.25165728  0.73018394  0.99622012  1
  C  C1  1  0.75165728  0.76981606  0.49622012  1
  C  C2  1  0.75165728  0.23018394  0.99622012  1
  C  C3  1  0.25165728  0.26981606  0.49622012  1
  C  C4  1  0.50621038  0.10223774  0.75586592  1
  C  C5  1  0.50621038  0.89776226  0.25586592  1
  C  C6  1  0.00621038  0.60223774  0.75586592  1
  C  C7  1  0.00621038  0.39776226  0.25586592  1
  C  C8  1  0.18593370  0.93143871  0.29079883  1
  C  C9  1  0.18593370  0.06856129  0.79079883  1
  C  C10  1  0.68593370  0.43143871  0.29079883  1
  C  C11  1  0.68593370  0.56856129  0.79079883  1
  C  C12  1  0.10304836  0.74644359  0.56110308  1
  C  C13  1  0.10304836  0.25355641  0.06110308  1
  C  C14  1  0.60304836  0.24644359  0.56110308  1
  C  C15  1  0.60304836  0.75355641  0.06110308  1
  Ni  Ni16  1  0.65006572  0.88776752  0.74797326  1
  Ni  Ni17  1  0.65006572  0.11223248  0.24797326  1
  Ni  Ni18  1  0.15006572  0.38776752  0.74797326  1
  Ni  Ni19  1  0.15006572  0.61223248  0.24797326  1
  Cu  Cu20  1  0.89818046  0.76131432  0.93365760  1
  Cu  Cu21  1  0.89818046  0.23868568  0.43365760  1
  Cu  Cu22  1  0.39818046  0.26131432  0.93365760  1
  Cu  Cu23  1  0.39818046  0.73868568  0.43365760  1
  C  C24  1  0.99191850  0.95930566  0.74962713  1
  C  C25  1  0.99191850  0.04069434  0.24962713  1
  C  C26  1  0.49191850  0.45930566  0.74962713  1
  C  C27  1  0.49191850  0.54069434  0.24962713  1
  C  C28  1  0.35355926  0.90870503  0.75430704  1
  C  C29  1  0.35355926  0.09129497  0.25430704  1
  C  C30  1  0.85355926  0.40870503  0.75430704  1
  C  C31  1  0.85355926  0.59129497  0.25430704  1
  C  C32  1  0.15615538  0.56741359  0.74660628  1
  C  C33  1  0.85386047  0.58559871  0.75611750  1
  C  C34  1  0.85386047  0.41440129  0.25611750  1
  C  C35  1  0.15615538  0.43258641  0.24660628  1
  C  C36  1  0.65615538  0.06741359  0.74660628  1
  C  C37  1  0.35386047  0.08559871  0.75611750  1
  C  C38  1  0.35386047  0.91440129  0.25611750  1
  C  C39  1  0.65615538  0.93258641  0.24660628  1
  C  C40  1  0.42648332  0.56289797  0.57747604  1
  C  C41  1  0.56282776  0.54356072  0.92938250  1
  C  C42  1  0.56282776  0.45643928  0.42938250  1
  C  C43  1  0.42648332  0.43710203  0.07747604  1
  C  C44  1  0.92648332  0.06289797  0.57747604  1
  C  C45  1  0.06282776  0.04356072  0.92938250  1
  C  C46  1  0.06282776  0.95643928  0.42938250  1
  C  C47  1  0.92648332  0.93710203  0.07747604  1
  C  C48  1  0.25541159  0.85892919  0.74577503  1
  C  C49  1  0.75135204  0.80122434  0.76471592  1
  C  C50  1  0.75135204  0.19877566  0.26471592  1
  C  C51  1  0.25541159  0.14107081  0.24577503  1
  C  C52  1  0.75541159  0.35892919  0.74577503  1
  C  C53  1  0.25135204  0.30122434  0.76471592  1
  C  C54  1  0.25135204  0.69877566  0.26471592  1
  C  C55  1  0.75541159  0.64107081  0.24577503  1
  C  C56  1  0.35412540  0.86846847  0.58597227  1
  C  C57  1  0.65090203  0.84502608  0.91900194  1
  C  C58  1  0.65090203  0.15497392  0.41900194  1
  C  C59  1  0.35412540  0.13153153  0.08597227  1
  C  C60  1  0.85412540  0.36846847  0.58597227  1
  C  C61  1  0.15090203  0.34502608  0.91900194  1
  C  C62  1  0.15090203  0.65497392  0.41900194  1
  C  C63  1  0.85412540  0.63153153  0.08597227  1
  C  C64  1  0.45096574  0.85130664  0.93647592  1
  C  C65  1  0.53897653  0.80987711  0.55666217  1
  C  C66  1  0.53897653  0.19012289  0.05666217  1
  C  C67  1  0.45096574  0.14869336  0.43647592  1
  C  C68  1  0.95096574  0.35130664  0.93647592  1
  C  C69  1  0.03897653  0.30987711  0.55666217  1
  C  C70  1  0.03897653  0.69012289  0.05666217  1
  C  C71  1  0.95096574  0.64869336  0.43647592  1
  C  C72  1  0.06886647  0.85523514  0.74108716  1
  C  C73  1  0.90949961  0.85942019  0.75117428  1
  C  C74  1  0.90949961  0.14057981  0.25117428  1
  C  C75  1  0.06886647  0.14476486  0.24108716  1
  C  C76  1  0.56886647  0.35523514  0.74108716  1
  C  C77  1  0.40949961  0.35942019  0.75117428  1
  C  C78  1  0.40949961  0.64057981  0.25117428  1
  C  C79  1  0.56886647  0.64476486  0.24108716  1
