# generated using pymatgen
data_CuNi2C3
_symmetry_space_group_name_H-M   'P 1'
_cell_length_a   8.55729200
_cell_length_b   8.77385200
_cell_length_c   22.00823500
_cell_angle_alpha   90.00000000
_cell_angle_beta   90.00000000
_cell_angle_gamma   90.00000000
_symmetry_Int_Tables_number   1
_chemical_formula_structural   CuNi2C3
_chemical_formula_sum   'Cu8 Ni16 C24'
_cell_volume   1652.38738484
_cell_formula_units_Z   8
loop_
 _symmetry_equiv_pos_site_id
 _symmetry_equiv_pos_as_xyz
  1  'x, y, z'
loop_
 _atom_site_type_symbol
 _atom_site_label
 _atom_site_symmetry_multiplicity
 _atom_site_fract_x
 _atom_site_fract_y
 _atom_site_fract_z
 _atom_site_occupancy
  Ni  Ni0  1  0.77011900  0.54610000  0.50706500  1
  Ni  Ni1  1  0.27011900  0.95390000  0.99293500  1
  Ni  Ni2  1  0.72988100  0.04610000  0.49293500  1
  Ni  Ni3  1  0.22988100  0.45390000  0.00706500  1
  Ni  Ni4  1  0.22988100  0.45390000  0.49293500  1
  Ni  Ni5  1  0.72988100  0.04610000  0.00706500  1
  Ni  Ni6  1  0.27011900  0.95390000  0.50706500  1
  Ni  Ni7  1  0.77011900  0.54610000  0.99293500  1
  Ni  Ni8  1  0.82209100  0.47906300  0.66822100  1
  Ni  Ni9  1  0.32209100  0.02093700  0.83177900  1
  Ni  Ni10  1  0.67790900  0.97906300  0.33177900  1
  Ni  Ni11  1  0.17790900  0.52093700  0.16822100  1
  Ni  Ni12  1  0.17790900  0.52093700  0.33177900  1
  Ni  Ni13  1  0.67790900  0.97906300  0.16822100  1
  Ni  Ni14  1  0.32209100  0.02093700  0.66822100  1
  Ni  Ni15  1  0.82209100  0.47906300  0.83177900  1
  Cu  Cu16  1  0.82638500  0.98522500  0.83127200  1
  Cu  Cu17  1  0.82638500  0.98522500  0.66872800  1
  Cu  Cu18  1  0.32638500  0.51477500  0.83127200  1
  Cu  Cu19  1  0.67361500  0.48522500  0.33127200  1
  Cu  Cu20  1  0.17361500  0.01477500  0.16872800  1
  Cu  Cu21  1  0.17361500  0.01477500  0.33127200  1
  Cu  Cu22  1  0.67361500  0.48522500  0.16872800  1
  Cu  Cu23  1  0.32638500  0.51477500  0.66872800  1
  C  C24  1  0.48519000  0.33849100  0.59325000  1
  C  C25  1  0.98519000  0.16150900  0.90675000  1
  C  C26  1  0.01481000  0.83849100  0.40675000  1
  C  C27  1  0.51481000  0.66150900  0.09325000  1
  C  C28  1  0.51481000  0.66150900  0.40675000  1
  C  C29  1  0.01481000  0.83849100  0.09325000  1
  C  C30  1  0.98519000  0.16150900  0.59325000  1
  C  C31  1  0.48519000  0.33849100  0.90675000  1
  C  C32  1  0.62577400  0.81251300  0.61000400  1
  C  C33  1  0.62577400  0.81251300  0.88999600  1
  C  C34  1  0.12577400  0.68748700  0.61000400  1
  C  C35  1  0.87422600  0.31251300  0.11000400  1
  C  C36  1  0.37422600  0.18748700  0.38999600  1
  C  C37  1  0.37422600  0.18748700  0.11000400  1
  C  C38  1  0.87422600  0.31251300  0.38999600  1
  C  C39  1  0.12577400  0.68748700  0.88999600  1
  C  C40  1  0.99737100  0.82560400  0.75000000  1
  C  C41  1  0.49737100  0.67439600  0.75000000  1
  C  C42  1  0.50262900  0.32560400  0.25000000  1
  C  C43  1  0.00262900  0.17439600  0.25000000  1
  C  C44  1  0.66820500  0.15516900  0.75000000  1
  C  C45  1  0.16820500  0.34483100  0.75000000  1
  C  C46  1  0.83179500  0.65516900  0.25000000  1
  C  C47  1  0.33179500  0.84483100  0.25000000  1
