# generated using pymatgen
data_Cu12NiC24
_symmetry_space_group_name_H-M   'P 1'
_cell_length_a   4.77601366
_cell_length_b   5.65536950
_cell_length_c   15.14745158
_cell_angle_alpha   91.25933606
_cell_angle_beta   90.13894288
_cell_angle_gamma   90.55195819
_symmetry_Int_Tables_number   1
_chemical_formula_structural   Cu12NiC24
_chemical_formula_sum   'Cu12 Ni1 C24'
_cell_volume   409.01529004
_cell_formula_units_Z   1
loop_
 _symmetry_equiv_pos_site_id
 _symmetry_equiv_pos_as_xyz
  1  'x, y, z'
loop_
 _atom_site_type_symbol
 _atom_site_label
 _atom_site_symmetry_multiplicity
 _atom_site_fract_x
 _atom_site_fract_y
 _atom_site_fract_z
 _atom_site_occupancy
  Ni  Ni0  1  0.00383800  0.43144500  0.59273900  1
  Cu  Cu1  1  0.04234600  0.19408500  0.40123500  1
  Cu  Cu2  1  0.02682200  0.82869600  0.24437300  1
  Cu  Cu3  1  0.99463400  0.15914200  0.08211600  1
  Cu  Cu4  1  0.03011100  0.14106700  0.75665000  1
  Cu  Cu5  1  0.05380500  0.89669500  0.57151000  1
  Cu  Cu6  1  0.97082600  0.81770300  0.91631100  1
  Cu  Cu7  1  0.47030500  0.31888100  0.92312000  1
  Cu  Cu8  1  0.50431500  0.40155600  0.58867500  1
  Cu  Cu9  1  0.49489900  0.36443800  0.25488600  1
  Cu  Cu10  1  0.48276500  0.62456400  0.09396100  1
  Cu  Cu11  1  0.50938600  0.65793000  0.41970100  1
  Cu  Cu12  1  0.48290600  0.63734100  0.76266200  1
  C  C13  1  0.24090500  0.11346700  0.29490200  1
  C  C14  1  0.24191500  0.16713400  0.63377700  1
  C  C15  1  0.17790700  0.09535200  0.97232600  1
  C  C16  1  0.21231900  0.87659200  0.13530500  1
  C  C17  1  0.24806000  0.92481300  0.46438000  1
  C  C18  1  0.20413100  0.85605800  0.81085000  1
  C  C19  1  0.27883600  0.42880000  0.48477000  1
  C  C20  1  0.26660700  0.39616600  0.15042300  1
  C  C21  1  0.28366400  0.60033000  0.31623000  1
  C  C22  1  0.29339800  0.64523600  0.64390700  1
  C  C23  1  0.25616000  0.35951200  0.81590900  1
  C  C24  1  0.69211000  0.36899300  0.03161100  1
  C  C25  1  0.71207300  0.61481300  0.19551600  1
  C  C26  1  0.72524300  0.39083800  0.35955300  1
  C  C27  1  0.75079500  0.64936000  0.52904000  1
  C  C28  1  0.69636900  0.59041600  0.86776200  1
  C  C29  1  0.73370500  0.40760600  0.69196800  1
  C  C30  1  0.23370500  0.59526800  0.98946200  1
  C  C31  1  0.75516000  0.12968800  0.19300800  1
  C  C32  1  0.77873800  0.17825900  0.52603200  1
  C  C33  1  0.77701200  0.87904700  0.35689000  1
  C  C34  1  0.72246900  0.85690900  0.02763800  1
  C  C35  1  0.73098800  0.08450000  0.85289500  1
  C  C36  1  0.80966500  0.91253800  0.68124500  1
