# generated using pymatgen
data_Cu3NiC12
_symmetry_space_group_name_H-M   'P 1'
_cell_length_a   8.94108800
_cell_length_b   8.08680223
_cell_length_c   8.08680104
_cell_angle_alpha   41.54271941
_cell_angle_beta   40.64495079
_cell_angle_gamma   40.64497640
_symmetry_Int_Tables_number   1
_chemical_formula_structural   Cu3NiC12
_chemical_formula_sum   'Cu3 Ni1 C12'
_cell_volume   226.59125766
_cell_formula_units_Z   1
loop_
 _symmetry_equiv_pos_site_id
 _symmetry_equiv_pos_as_xyz
  1  'x, y, z'
loop_
 _atom_site_type_symbol
 _atom_site_label
 _atom_site_symmetry_multiplicity
 _atom_site_fract_x
 _atom_site_fract_y
 _atom_site_fract_z
 _atom_site_occupancy
  C  C0  1  0.75974862  0.79804324  0.79804224  1
  C  C1  1  0.09131860  0.23686303  0.23686203  1
  C  C2  1  0.12900693  0.94853890  0.94854090  1
  Ni  Ni3  1  0.53335628  0.14886820  0.14886820  1
  Cu  Cu4  1  0.73572843  0.57164921  0.57164921  1
  Cu  Cu5  1  0.44231688  0.36280972  0.36281172  1
  Cu  Cu6  1  0.42110021  0.54874056  0.54873856  1
  C  C7  1  0.62439926  0.97115563  0.43843381  1
  C  C8  1  0.16529305  0.39037821  0.39037921  1
  C  C9  1  0.62439926  0.43843280  0.97115762  1
  C  C10  1  0.28224343  0.29715471  0.74414219  1
  C  C11  1  0.28224443  0.74414219  0.29715371  1
  C  C12  1  0.70828234  0.32012927  0.32012727  1
  C  C13  1  0.59546614  0.29821102  0.76814266  1
  C  C14  1  0.59546614  0.76814266  0.29821102  1
  C  C15  1  0.12629701  0.75674066  0.75674166  1
