# generated using pymatgen
data_CuNi3C34
_symmetry_space_group_name_H-M   'P 1'
_cell_length_a   8.78750125
_cell_length_b   8.77776586
_cell_length_c   22.33760544
_cell_angle_alpha   90.26173926
_cell_angle_beta   90.10493395
_cell_angle_gamma   119.93416064
_symmetry_Int_Tables_number   1
_chemical_formula_structural   CuNi3C34
_chemical_formula_sum   'Cu3 Ni9 C102'
_cell_volume   1493.12087585
_cell_formula_units_Z   3
loop_
 _symmetry_equiv_pos_site_id
 _symmetry_equiv_pos_as_xyz
  1  'x, y, z'
loop_
 _atom_site_type_symbol
 _atom_site_label
 _atom_site_symmetry_multiplicity
 _atom_site_fract_x
 _atom_site_fract_y
 _atom_site_fract_z
 _atom_site_occupancy
  C  C0  1  0.63440615  0.99774403  0.25372228  1
  C  C1  1  0.36343536  0.36284396  0.24992074  1
  C  C2  1  0.30727128  0.33901290  0.58985997  1
  C  C3  1  0.66632937  0.95930598  0.58217073  1
  C  C4  1  0.97732156  0.67718195  0.91414768  1
  C  C5  1  0.32498632  0.29853782  0.91156392  1
  C  C6  1  0.98804487  0.98306954  0.49652756  1
  C  C7  1  0.99038015  0.00110079  0.99805147  1
  C  C8  1  0.66035381  0.32293874  0.82503080  1
  C  C9  1  0.67746486  0.33749940  0.33649568  1
  C  C10  1  0.32154287  0.66571599  0.16121689  1
  C  C11  1  0.32847933  0.66388607  0.67016448  1
  Ni  Ni12  1  0.99311268  0.99703368  0.35437866  1
  Ni  Ni13  1  0.99830896  0.00420546  0.84941971  1
  Ni  Ni14  1  0.99983229  0.99281763  0.65375785  1
  Ni  Ni15  1  0.00022819  0.99737992  0.14530895  1
  Ni  Ni16  1  0.66210351  0.34040613  0.68807284  1
  Ni  Ni17  1  0.67415131  0.34008645  0.18085255  1
  Ni  Ni18  1  0.33504051  0.66829240  0.01720219  1
  Ni  Ni19  1  0.33856979  0.67199726  0.51470517  1
  Ni  Ni20  1  0.33196677  0.67551667  0.32170541  1
  Cu  Cu21  1  0.66702105  0.32765662  0.97681077  1
  Cu  Cu22  1  0.67082921  0.33949974  0.47943352  1
  Cu  Cu23  1  0.33389806  0.65801128  0.81523475  1
  C  C24  1  0.29462008  0.29322684  0.75097531  1
  C  C25  1  0.66827051  0.62499822  0.58345437  1
  C  C26  1  0.62588491  0.67115013  0.91916190  1
  C  C27  1  0.04376681  0.37496806  0.91844129  1
  C  C28  1  0.33383664  0.95281906  0.91782257  1
  C  C29  1  0.63184468  0.96589043  0.41800807  1
  C  C30  1  0.28943714  0.99744564  0.24957244  1
  C  C31  1  0.70860548  0.70596591  0.24967364  1
  C  C32  1  0.00142331  0.29408825  0.24977114  1
  C  C33  1  0.00362093  0.70493515  0.75181673  1
  C  C34  1  0.70249246  0.99839640  0.74960727  1
  C  C35  1  0.95754871  0.33767846  0.58341401  1
  C  C36  1  0.37679463  0.04253343  0.58289021  1
  C  C37  1  0.95936551  0.62490164  0.08266468  1
  C  C38  1  0.66557311  0.04123940  0.08416270  1
  C  C39  1  0.37446787  0.33409101  0.08372289  1
  C  C40  1  0.33326723  0.37033883  0.41679157  1
  C  C41  1  0.03981686  0.66643116  0.41769710  1
  C  C42  1  0.21020904  0.02839147  0.30298839  1
  C  C43  1  0.81352840  0.78658533  0.30365414  1
  C  C44  1  0.97141191  0.18307337  0.30287921  1
  C  C45  1  0.20798668  0.18803216  0.80720031  1
  C  C46  1  0.97827236  0.78365673  0.80673149  1
  C  C47  1  0.81071507  0.02051668  0.80221269  1
  C  C48  1  0.77509459  0.96753638  0.69352238  1
  C  C49  1  0.18710799  0.22190936  0.69259394  1
  C  C50  1  0.03089604  0.81292277  0.69843078  1
  C  C51  1  0.78759776  0.81651177  0.19640159  1
  C  C52  1  0.03136408  0.21317340  0.19594669  1
  C  C53  1  0.18560182  0.97578652  0.19533750  1
  C  C54  1  0.87511782  0.35862680  0.63678450  1
  C  C55  1  0.48845267  0.12118710  0.63592497  1
  C  C56  1  0.63492484  0.50619179  0.63650095  1
  C  C57  1  0.87527787  0.51886873  0.13591842  1
  C  C58  1  0.64450846  0.12160750  0.13975025  1
  C  C59  1  0.47766369  0.35484943  0.13893177  1
  C  C60  1  0.46598367  0.31331459  0.02960235  1
  C  C61  1  0.84933484  0.53555908  0.02741255  1
  C  C62  1  0.68576727  0.15727993  0.03124103  1
  C  C63  1  0.46359744  0.15621415  0.52902719  1
  C  C64  1  0.68716875  0.52422545  0.52681010  1
  C  C65  1  0.84364155  0.30862473  0.52888824  1
  C  C66  1  0.54390502  0.69575998  0.97436052  1
  C  C67  1  0.15695779  0.45731025  0.97314810  1
  C  C68  1  0.29946452  0.84213021  0.97290285  1
  C  C69  1  0.54496741  0.85751115  0.47379859  1
  C  C70  1  0.30898308  0.45212376  0.47079550  1
  C  C71  1  0.14370324  0.68741885  0.47141282  1
  C  C72  1  0.11219805  0.63168446  0.36336620  1
  C  C73  1  0.52310738  0.89484086  0.35978592  1
  C  C74  1  0.36202684  0.47664564  0.36207895  1
  C  C75  1  0.12638366  0.49928565  0.86289476  1
  C  C76  1  0.36775214  0.86970121  0.86177917  1
  C  C77  1  0.50148868  0.62865715  0.86317654  1
  C  C78  1  0.01738714  0.82096330  0.41127614  1
  C  C79  1  0.81699872  0.99240206  0.41207133  1
  C  C80  1  0.18149787  0.19228365  0.41038259  1
  C  C81  1  0.01754951  0.19187288  0.90912919  1
  C  C82  1  0.17851352  0.98604223  0.90951738  1
  C  C83  1  0.81300288  0.81903570  0.90870734  1
  C  C84  1  0.97352207  0.17517490  0.58576449  1
  C  C85  1  0.20359672  0.03283815  0.58732200  1
  C  C86  1  0.83118980  0.81029743  0.58585144  1
  C  C87  1  0.97093753  0.79897076  0.08623892  1
  C  C88  1  0.82760885  0.02941257  0.08654316  1
  C  C89  1  0.20033674  0.17238553  0.08658056  1
  C  C90  1  0.68248093  0.15502036  0.74363554  1
  C  C91  1  0.48059921  0.32158617  0.74641472  1
  C  C92  1  0.85075698  0.52642374  0.74528305  1
  C  C93  1  0.68185237  0.52445982  0.24332390  1
  C  C94  1  0.84040921  0.30996712  0.24320417  1
  C  C95  1  0.47135331  0.15866175  0.24448593  1
  C  C96  1  0.63838044  0.49391680  0.92550910  1
  C  C97  1  0.85813225  0.36421809  0.92541010  1
  C  C98  1  0.50247913  0.14451658  0.92627451  1
  C  C99  1  0.64906684  0.15512059  0.42844269  1
  C  C100  1  0.49727391  0.35526181  0.42312161  1
  C  C101  1  0.85847188  0.50360913  0.42406416  1
  C  C102  1  0.35793514  0.49235604  0.07848452  1
  C  C103  1  0.13445921  0.64252655  0.07742550  1
  C  C104  1  0.50814742  0.86729188  0.07766420  1
  C  C105  1  0.35583227  0.86538420  0.57521196  1
  C  C106  1  0.50069979  0.64185707  0.57547501  1
  C  C107  1  0.13534393  0.49138100  0.57547356  1
  C  C108  1  0.31487614  0.84201152  0.25485874  1
  C  C109  1  0.52701577  0.68493862  0.25522314  1
  C  C110  1  0.16153180  0.47078049  0.25700786  1
  C  C111  1  0.31164975  0.48425151  0.76069041  1
  C  C112  1  0.16741759  0.69046477  0.75764686  1
  C  C113  1  0.52321585  0.83646242  0.75669045  1
