# generated using pymatgen
data_CuNi5C33
_symmetry_space_group_name_H-M   'P 1'
_cell_length_a   9.13847303
_cell_length_b   9.13155182
_cell_length_c   22.92521269
_cell_angle_alpha   90.22382042
_cell_angle_beta   89.63895911
_cell_angle_gamma   120.00957225
_symmetry_Int_Tables_number   1
_chemical_formula_structural   CuNi5C33
_chemical_formula_sum   'Cu3 Ni15 C99'
_cell_volume   1656.57667338
_cell_formula_units_Z   3
loop_
 _symmetry_equiv_pos_site_id
 _symmetry_equiv_pos_as_xyz
  1  'x, y, z'
loop_
 _atom_site_type_symbol
 _atom_site_label
 _atom_site_symmetry_multiplicity
 _atom_site_fract_x
 _atom_site_fract_y
 _atom_site_fract_z
 _atom_site_occupancy
  C  C0  1  0.64392784  0.00224877  0.25223319  1
  C  C1  1  0.37169062  0.37759945  0.24380829  1
  C  C2  1  0.98906968  0.61847932  0.25234433  1
  C  C3  1  0.64444477  0.63335984  0.74622043  1
  C  C4  1  0.98789976  0.35461319  0.74765213  1
  C  C5  1  0.36740365  0.01435367  0.74769953  1
  C  C6  1  0.30672852  0.96387624  0.07222300  1
  C  C7  1  0.03194110  0.34504985  0.07476671  1
  C  C8  1  0.70574766  0.67902212  0.42034661  1
  C  C9  1  0.00338926  0.00251023  0.50253851  1
  C  C10  1  0.00058316  0.00003551  0.98951503  1
  C  C11  1  0.66743225  0.32728765  0.83595910  1
  C  C12  1  0.68663120  0.32700762  0.33956977  1
  C  C13  1  0.34955909  0.66080717  0.15987738  1
  C  C14  1  0.33365323  0.66607932  0.66215858  1
  C  C15  1  0.99897158  0.00384779  0.35824427  1
  C  C16  1  0.00541028  0.00580160  0.85388319  1
  C  C17  1  0.66892236  0.33455316  0.67558152  1
  C  C18  1  0.66893998  0.33782498  0.17962978  1
  C  C19  1  0.33747807  0.66539486  0.01552832  1
  C  C20  1  0.32807654  0.66832464  0.32167033  1
  C  C21  1  0.99945984  0.99954659  0.64744156  1
  C  C22  1  0.98897615  0.99550643  0.14525380  1
  C  C23  1  0.66816201  0.33160196  0.98292733  1
  C  C24  1  0.67368311  0.32845358  0.49157693  1
  C  C25  1  0.32947233  0.67239055  0.51852703  1
  C  C26  1  0.32673773  0.66885422  0.82024357  1
  Ni  Ni27  1  0.70488792  0.70695265  0.25121132  1
  Ni  Ni28  1  0.00378414  0.29373438  0.24680802  1
  Ni  Ni29  1  0.29292384  0.30214337  0.74967584  1
  Ni  Ni30  1  0.00666560  0.70913297  0.74980890  1
  Ni  Ni31  1  0.69946570  0.99061067  0.75050868  1
  Ni  Ni32  1  0.97847536  0.33238252  0.58484866  1
  Ni  Ni33  1  0.35889944  0.02998891  0.58465218  1
  Ni  Ni34  1  0.66566500  0.64142989  0.58224385  1
  Ni  Ni35  1  0.96119768  0.63698106  0.08453829  1
  Ni  Ni36  1  0.67266220  0.03807120  0.08587665  1
  Ni  Ni37  1  0.36136968  0.32242517  0.08628212  1
  Ni  Ni38  1  0.02356220  0.37067138  0.91970221  1
  Ni  Ni39  1  0.34556451  0.97600187  0.92003905  1
  Ni  Ni40  1  0.62572550  0.97177101  0.41965451  1
  Ni  Ni41  1  0.02326213  0.65387985  0.42044431  1
  Cu  Cu42  1  0.28891801  0.99697653  0.24724670  1
  Cu  Cu43  1  0.62742668  0.65261317  0.91568338  1
  Cu  Cu44  1  0.34668307  0.37316161  0.42133686  1
  C  C45  1  0.20344936  0.01436009  0.29835231  1
  C  C46  1  0.80633188  0.78627672  0.30640678  1
  C  C47  1  0.98819974  0.18419701  0.29847019  1
  C  C48  1  0.21799378  0.19173467  0.80234355  1
  C  C49  1  0.97351958  0.78550177  0.80271088  1
  C  C50  1  0.80921564  0.02259096  0.80282754  1
  C  C51  1  0.77815186  0.95196955  0.69434046  1
  C  C52  1  0.17428491  0.22206231  0.69452679  1
  C  C53  1  0.04429406  0.82578863  0.69400194  1
  C  C54  1  0.79889363  0.82052280  0.19574472  1
  C  C55  1  0.02692154  0.21112680  0.18801047  1
  C  C56  1  0.19071438  0.97948025  0.19195235  1
  C  C57  1  0.91495059  0.36422627  0.64185027  1
  C  C58  1  0.45145710  0.09356039  0.64176435  1
  C  C59  1  0.63624815  0.54432059  0.63845200  1
  C  C60  1  0.89440505  0.54612967  0.14231253  1
  C  C61  1  0.65231430  0.10726103  0.14398274  1
  C  C62  1  0.44661628  0.33960608  0.14454312  1
  C  C63  1  0.45770478  0.29420245  0.03392209  1
  C  C64  1  0.84163815  0.54315719  0.03179937  1
  C  C65  1  0.70647330  0.16521527  0.03414945  1
  C  C66  1  0.45367243  0.15074819  0.53184867  1
  C  C67  1  0.69111733  0.54947702  0.52759630  1
  C  C68  1  0.85832501  0.30335881  0.53218964  1
  C  C69  1  0.54309183  0.66801937  0.96666154  1
  C  C70  1  0.12023869  0.45346986  0.97462560  1
  C  C71  1  0.33760676  0.88165318  0.97496370  1
  C  C72  1  0.52158367  0.84039972  0.46837042  1
  C  C73  1  0.32679028  0.46736148  0.47082800  1
  C  C74  1  0.14118459  0.66673382  0.47080560  1
  C  C75  1  0.08397591  0.62758849  0.36089172  1
  C  C76  1  0.53952312  0.91166905  0.36012290  1
  C  C77  1  0.37225629  0.46551735  0.36570490  1
  C  C78  1  0.11349828  0.47959249  0.86158679  1
  C  C79  1  0.37145136  0.88983837  0.86191997  1
  C  C80  1  0.52633360  0.63158352  0.85980140  1
  C  C81  1  -0.00029693  0.80872492  0.42331944  1
  C  C82  1  0.79887788  0.98334544  0.42264881  1
  C  C83  1  0.20047661  0.20288042  0.42071218  1
  C  C84  1  0.99431719  0.19279998  0.91459892  1
  C  C85  1  0.19103676  0.99525218  0.91510257  1
  C  C86  1  0.79705405  0.79838518  0.91123814  1
  C  C87  1  0.99294250  0.16881968  0.58655804  1
  C  C88  1  0.18002006  0.01367340  0.58577017  1
  C  C89  1  0.83006645  0.81968208  0.58476289  1
  C  C90  1  0.98085462  0.81950866  0.08536271  1
  C  C91  1  0.84412564  0.03367641  0.08437857  1
  C  C92  1  0.18462730  0.14860204  0.08523603  1
  C  C93  1  0.66883677  0.14022533  0.74216520  1
  C  C94  1  0.47345303  0.33419578  0.74090538  1
  C  C95  1  0.85836838  0.52841440  0.74151799  1
  C  C96  1  0.68142980  0.52779370  0.24679517  1
  C  C97  1  0.84313736  0.30994516  0.24584490  1
  C  C98  1  0.46018742  0.14771599  0.24476048  1
  C  C99  1  0.63495955  0.49117972  0.91832442  1
  C  C100  1  0.84886965  0.36909397  0.91994143  1
  C  C101  1  0.51318572  0.15585757  0.92026252  1
  C  C102  1  0.63850669  0.14799089  0.43018749  1
  C  C103  1  0.50833072  0.36781424  0.42854257  1
  C  C104  1  0.84036754  0.49153191  0.42875456  1
  C  C105  1  0.32544134  0.46705385  0.07902415  1
  C  C106  1  0.13925658  0.66155408  0.07727017  1
  C  C107  1  0.51828167  0.86436164  0.07812633  1
  C  C108  1  0.33681152  0.85023382  0.57445179  1
  C  C109  1  0.50851283  0.66341688  0.57172798  1
  C  C110  1  0.15809108  0.48886937  0.57335403  1
  C  C111  1  0.30267572  0.84151759  0.24886944  1
  C  C112  1  0.52995431  0.69610349  0.25008854  1
  C  C113  1  0.16418683  0.47162118  0.24725537  1
  C  C114  1  0.30174465  0.48162286  0.75607731  1
  C  C115  1  0.17760860  0.70082293  0.75480896  1
  C  C116  1  0.51970951  0.82008655  0.75622558  1
