# generated using pymatgen
data_Cu9Ni4C15
_symmetry_space_group_name_H-M   'P 1'
_cell_length_a   10.77728188
_cell_length_b   10.77728188
_cell_length_c   10.77728144
_cell_angle_alpha   114.25965492
_cell_angle_beta   114.25965492
_cell_angle_gamma   114.25965066
_symmetry_Int_Tables_number   1
_chemical_formula_structural   Cu9Ni4C15
_chemical_formula_sum   'Cu9 Ni4 C15'
_cell_volume   745.65238447
_cell_formula_units_Z   1
loop_
 _symmetry_equiv_pos_site_id
 _symmetry_equiv_pos_as_xyz
  1  'x, y, z'
loop_
 _atom_site_type_symbol
 _atom_site_label
 _atom_site_symmetry_multiplicity
 _atom_site_fract_x
 _atom_site_fract_y
 _atom_site_fract_z
 _atom_site_occupancy
  Ni  Ni0  1  0.05593700  0.05593700  0.05593700  1
  Ni  Ni1  1  0.40748900  0.84246700  0.40748900  1
  Ni  Ni2  1  0.40748900  0.40748900  0.84246700  1
  Ni  Ni3  1  0.84246700  0.40748900  0.40748900  1
  Cu  Cu4  1  0.59823400  0.33436500  0.59823400  1
  Cu  Cu5  1  0.59823400  0.59823400  0.33436500  1
  Cu  Cu6  1  0.33436500  0.59823400  0.59823400  1
  Cu  Cu7  1  0.24332700  0.77442000  0.97857700  1
  Cu  Cu8  1  0.97857700  0.24332700  0.77442000  1
  Cu  Cu9  1  0.77442000  0.97857700  0.24332700  1
  Cu  Cu10  1  0.24332700  0.97857700  0.77442000  1
  Cu  Cu11  1  0.77442000  0.24332700  0.97857700  1
  Cu  Cu12  1  0.97857700  0.77442000  0.24332700  1
  C  C13  1  0.92173300  0.47517300  0.92173300  1
  C  C14  1  0.92173300  0.92173300  0.47517300  1
  C  C15  1  0.47517300  0.92173300  0.92173300  1
  C  C16  1  0.12902100  0.32242800  0.12902100  1
  C  C17  1  0.12902100  0.12902100  0.32242800  1
  C  C18  1  0.32242800  0.12902100  0.12902100  1
  C  C19  1  0.63139600  0.88780900  0.63139600  1
  C  C20  1  0.63139600  0.63139600  0.88780900  1
  C  C21  1  0.88780900  0.63139600  0.63139600  1
  C  C22  1  0.58623700  0.03972100  0.39480300  1
  C  C23  1  0.39480300  0.58623700  0.03972100  1
  C  C24  1  0.03972100  0.39480300  0.58623700  1
  C  C25  1  0.58623700  0.39480300  0.03972100  1
  C  C26  1  0.39480300  0.03972100  0.58623700  1
  C  C27  1  0.03972100  0.58623700  0.39480300  1
