# generated using pymatgen
data_Cu6NiC5
_symmetry_space_group_name_H-M   'P 1'
_cell_length_a   6.26235503
_cell_length_b   6.27718520
_cell_length_c   15.27593834
_cell_angle_alpha   83.05690976
_cell_angle_beta   96.71760454
_cell_angle_gamma   123.24605224
_symmetry_Int_Tables_number   1
_chemical_formula_structural   Cu6NiC5
_chemical_formula_sum   'Cu12 Ni2 C10'
_cell_volume   497.59615839
_cell_formula_units_Z   2
loop_
 _symmetry_equiv_pos_site_id
 _symmetry_equiv_pos_as_xyz
  1  'x, y, z'
loop_
 _atom_site_type_symbol
 _atom_site_label
 _atom_site_symmetry_multiplicity
 _atom_site_fract_x
 _atom_site_fract_y
 _atom_site_fract_z
 _atom_site_occupancy
  C  C0  1  0.27809600  0.73188400  0.36146000  1
  C  C1  1  0.40482200  0.58390500  0.77749300  1
  C  C2  1  0.72190400  0.26811600  0.63854000  1
  C  C3  1  0.73969400  0.24949900  0.89566100  1
  C  C4  1  0.26030600  0.75050100  0.10433900  1
  C  C5  1  0.59517800  0.41609500  0.22250700  1
  C  C6  1  0.50000000  0.50000000  0.00000000  1
  C  C7  1  0.08251500  0.90388700  0.81951000  1
  C  C8  1  0.91748500  0.09611300  0.18049000  1
  C  C9  1  0.00000000  0.00000000  0.00000000  1
  Ni  Ni10  1  0.67156400  0.32784500  0.42694900  1
  Ni  Ni11  1  0.32843600  0.67215500  0.57305100  1
  Cu  Cu12  1  0.28254600  0.21936700  0.91893100  1
  Cu  Cu13  1  0.37848900  0.11785500  0.75107100  1
  Cu  Cu14  1  0.10989800  0.38116100  0.25142700  1
  Cu  Cu15  1  0.89010200  0.61883900  0.74857300  1
  Cu  Cu16  1  0.90680400  0.08998400  0.77169600  1
  Cu  Cu17  1  0.71745400  0.78063300  0.08106900  1
  Cu  Cu18  1  0.09319600  0.91001600  0.22830400  1
  Cu  Cu19  1  0.22800800  0.29601500  0.08545700  1
  Cu  Cu20  1  0.74744500  0.24879500  0.10100100  1
  Cu  Cu21  1  0.77199200  0.70398500  0.91454300  1
  Cu  Cu22  1  0.62151100  0.88214500  0.24892900  1
  Cu  Cu23  1  0.25255500  0.75120500  0.89899900  1
