# generated using pymatgen
data_Cu2Ni2C15
_symmetry_space_group_name_H-M   'P 1'
_cell_length_a   3.92112700
_cell_length_b   7.68920000
_cell_length_c   7.86510700
_cell_angle_alpha   90.00000000
_cell_angle_beta   90.00000000
_cell_angle_gamma   90.00000000
_symmetry_Int_Tables_number   1
_chemical_formula_structural   Cu2Ni2C15
_chemical_formula_sum   'Cu2 Ni2 C15'
_cell_volume   237.13556940
_cell_formula_units_Z   1
loop_
 _symmetry_equiv_pos_site_id
 _symmetry_equiv_pos_as_xyz
  1  'x, y, z'
loop_
 _atom_site_type_symbol
 _atom_site_label
 _atom_site_symmetry_multiplicity
 _atom_site_fract_x
 _atom_site_fract_y
 _atom_site_fract_z
 _atom_site_occupancy
  Ni  Ni0  1  0.50000100  0.00000000  0.75052900  1
  Ni  Ni1  1  0.50000100  0.00000000  0.24947100  1
  Cu  Cu2  1  0.50000100  0.50000000  0.27201400  1
  Cu  Cu3  1  0.50000100  0.50000000  0.72798600  1
  C  C4  1  0.00000000  0.25999800  0.00000000  1
  C  C5  1  0.00000000  0.74000200  0.00000000  1
  C  C6  1  0.00000000  0.74602200  0.49999900  1
  C  C7  1  0.00000000  0.25397800  0.49999900  1
  C  C8  1  0.00000000  0.30295000  0.77047200  1
  C  C9  1  0.00000000  0.69705000  0.22952800  1
  C  C10  1  0.00000000  0.30295000  0.22952800  1
  C  C11  1  0.00000000  0.69705000  0.77047200  1
  C  C12  1  0.50000100  0.27798500  0.49999900  1
  C  C13  1  0.50000100  0.72201600  0.49999900  1
  C  C14  1  0.50000100  0.31569500  0.00000000  1
  C  C15  1  0.50000100  0.68430500  0.00000000  1
  C  C16  1  0.00000000  0.00000000  0.00000000  1
  C  C17  1  0.00000000  0.50000000  0.49999900  1
  C  C18  1  0.00000000  0.00000000  0.49999900  1
