# generated using pymatgen
data_Cu5NiC33
_symmetry_space_group_name_H-M   'P 1'
_cell_length_a   9.00922856
_cell_length_b   8.96829653
_cell_length_c   22.71642643
_cell_angle_alpha   89.98405774
_cell_angle_beta   90.23845348
_cell_angle_gamma   119.85155120
_symmetry_Int_Tables_number   1
_chemical_formula_structural   Cu5NiC33
_chemical_formula_sum   'Cu15 Ni3 C99'
_cell_volume   1591.88329464
_cell_formula_units_Z   3
loop_
 _symmetry_equiv_pos_site_id
 _symmetry_equiv_pos_as_xyz
  1  'x, y, z'
loop_
 _atom_site_type_symbol
 _atom_site_label
 _atom_site_symmetry_multiplicity
 _atom_site_fract_x
 _atom_site_fract_y
 _atom_site_fract_z
 _atom_site_occupancy
  C  C0  1  0.64479482  0.01627561  0.24244108  1
  C  C1  1  0.37288660  0.35659611  0.24231986  1
  C  C2  1  0.98417933  0.62885734  0.24290468  1
  C  C3  1  0.63652346  0.62425704  0.74639462  1
  C  C4  1  0.98749840  0.36329053  0.74676374  1
  C  C5  1  0.38069852  0.01599491  0.74167831  1
  C  C6  1  0.66052371  0.97720924  0.58456826  1
  C  C7  1  0.33216745  0.30790033  0.92367902  1
  C  C8  1  0.32309925  0.03115043  0.41344509  1
  C  C9  1  0.00130197  0.00075035  0.49053259  1
  C  C10  1  0.98149496  0.98813031  0.00291153  1
  C  C11  1  0.68169186  0.33826036  0.83895692  1
  C  C12  1  0.68072002  0.34606974  0.32952473  1
  C  C13  1  0.33358353  0.66785342  0.15798573  1
  C  C14  1  0.32162469  0.66181685  0.65997332  1
  C  C15  1  0.99157276  0.99387369  0.85673707  1
  C  C16  1  0.01040321  0.00144984  0.64292686  1
  C  C17  1  0.00007852  0.00148100  0.14628680  1
  C  C18  1  0.67583806  0.33637679  0.98301746  1
  C  C19  1  0.66757001  0.33816456  0.48165946  1
  C  C20  1  0.33517447  0.66529209  0.02001101  1
  C  C21  1  0.32848951  0.66149798  0.51864270  1
  C  C22  1  0.33348055  0.66432834  0.31553699  1
  C  C23  1  0.33188420  0.66484024  0.81780143  1
  C  C24  1  0.99119666  0.99872950  0.35188540  1
  C  C25  1  0.66575197  0.33210998  0.67939630  1
  C  C26  1  0.66800944  0.33480081  0.17897796  1
  Ni  Ni27  1  0.37548632  0.03953650  0.58428522  1
  Ni  Ni28  1  0.62692111  0.66439861  0.91721563  1
  Ni  Ni29  1  0.03748960  0.37377604  0.91563137  1
  Cu  Cu30  1  0.29271065  0.00102476  0.25360607  1
  Cu  Cu31  1  0.71014770  0.70861646  0.25192267  1
  Cu  Cu32  1  -0.00115430  0.29109970  0.25216517  1
  Cu  Cu33  1  0.29313660  0.29359575  0.75100609  1
  Cu  Cu34  1  0.00055171  0.70713109  0.74937323  1
  Cu  Cu35  1  0.70732802  0.00092525  0.74835210  1
  Cu  Cu36  1  0.95862078  0.33566111  0.58658011  1
  Cu  Cu37  1  0.66486838  0.62664627  0.58639935  1
  Cu  Cu38  1  0.96252817  0.62849303  0.08710299  1
  Cu  Cu39  1  0.66484156  0.03884515  0.08726348  1
  Cu  Cu40  1  0.37280947  0.33199931  0.08544840  1
  Cu  Cu41  1  0.33447109  0.96012896  0.91673461  1
  Cu  Cu42  1  0.63008118  0.96093546  0.41794367  1
  Cu  Cu43  1  0.33231013  0.36844706  0.41598554  1
  Cu  Cu44  1  0.03849693  0.66757278  0.41535882  1
  C  C45  1  0.21452694  0.02749816  0.30936789  1
  C  C46  1  0.82295692  0.79069100  0.30535722  1
  C  C47  1  0.97026519  0.17806760  0.30524074  1
  C  C48  1  0.20788129  0.18475859  0.80610801  1
  C  C49  1  0.97872188  0.79799524  0.80344107  1
  C  C50  1  0.82422695  0.01839060  0.80147033  1
  C  C51  1  0.78764804  0.97186901  0.69253654  1
  C  C52  1  0.17378788  0.20113829  0.69739120  1
  C  C53  1  0.02610209  0.82313238  0.69510491  1
  C  C54  1  0.79268547  0.82626309  0.19703268  1
  C  C55  1  0.03235565  0.20785890  0.19699513  1
  C  C56  1  0.17137081  0.96933720  0.19986401  1
  C  C57  1  0.88974706  0.36456408  0.64410761  1
  C  C58  1  0.48744553  0.11141348  0.64398446  1
  C  C59  1  0.64267737  0.52999294  0.64372599  1
  C  C60  1  0.88707497  0.53044530  0.14406674  1
  C  C61  1  0.64644214  0.11692376  0.14445320  1
  C  C62  1  0.47420174  0.35155468  0.14162414  1
  C  C63  1  0.45956903  0.31239688  0.02938447  1
  C  C64  1  0.84661514  0.53400144  0.03292438  1
  C  C65  1  0.68486362  0.15311853  0.03334925  1
  C  C66  1  0.47068082  0.15609669  0.52579788  1
  C  C67  1  0.69113105  0.53544695  0.53288706  1
  C  C68  1  0.83899540  0.30923861  0.53360588  1
  C  C69  1  0.52978636  0.69203259  0.97202478  1
  C  C70  1  0.16695666  0.47078209  0.96995238  1
  C  C71  1  0.30888978  0.84516151  0.96918042  1
  C  C72  1  0.53418003  0.85177802  0.47272601  1
  C  C73  1  0.31914221  0.46748431  0.46911040  1
  C  C74  1  0.15622764  0.68498898  0.46819171  1
  C  C75  1  0.12527783  0.64413673  0.35889124  1
  C  C76  1  0.51207083  0.87086286  0.36269110  1
  C  C77  1  0.35275890  0.47685000  0.35940748  1
  C  C78  1  0.12076898  0.48449987  0.85424502  1
  C  C79  1  0.35869838  0.87881681  0.85899938  1
  C  C80  1  0.51195587  0.63528370  0.85621052  1
  C  C81  1  0.03172178  0.83347597  0.41235907  1
  C  C82  1  0.80521665  0.97843866  0.41357223  1
  C  C83  1  0.17896219  0.18774295  0.41313980  1
  C  C84  1  0.03537302  0.19034165  0.90978772  1
  C  C85  1  0.17741861  0.98528763  0.90937798  1
  C  C86  1  0.81809819  0.82951335  0.91192528  1
  C  C87  1  0.96344973  0.16380756  0.58980646  1
  C  C88  1  0.18406018  0.02012102  0.58667073  1
  C  C89  1  0.82135889  0.81359167  0.58949153  1
  C  C90  1  0.97774514  0.80987518  0.08991663  1
  C  C91  1  0.82946587  0.02102283  0.08961276  1
  C  C92  1  0.19071277  0.16770319  0.08928936  1
  C  C93  1  0.69183906  0.16356315  0.74740619  1
  C  C94  1  0.47300436  0.31735345  0.74517226  1
  C  C95  1  0.84295686  0.52806264  0.74460548  1
  C  C96  1  0.68068189  0.52472986  0.24369561  1
  C  C97  1  0.84480705  0.32009168  0.24419048  1
  C  C98  1  0.47408813  0.15591702  0.24476457  1
  C  C99  1  0.62740762  0.48364757  0.92369309  1
  C  C100  1  0.84728687  0.34732607  0.92247519  1
  C  C101  1  0.49089066  0.14148275  0.92395217  1
  C  C102  1  0.63573073  0.13804122  0.42205605  1
  C  C103  1  0.49870209  0.35531456  0.42069142  1
  C  C104  1  0.86172483  0.50487843  0.42186858  1
  C  C105  1  0.35115244  0.49390028  0.07962600  1
  C  C106  1  0.14307908  0.65097236  0.07840689  1
  C  C107  1  0.50415385  0.85864370  0.07949841  1
  C  C108  1  0.35928393  0.84894259  0.57527805  1
  C  C109  1  0.50708096  0.65069401  0.57663460  1
  C  C110  1  0.14120159  0.48718455  0.57592378  1
  C  C111  1  0.30841082  0.83262847  0.25655196  1
  C  C112  1  0.52742355  0.69393162  0.25722304  1
  C  C113  1  0.16691121  0.47386952  0.25671032  1
  C  C114  1  0.30620156  0.47533534  0.75304199  1
  C  C115  1  0.16780423  0.69493028  0.75281115  1
  C  C116  1  0.52535714  0.83794271  0.75465547  1
