# generated using pymatgen
data_Cu(NiC4)2
_symmetry_space_group_name_H-M   'P 1'
_cell_length_a   6.44730001
_cell_length_b   6.44730001
_cell_length_c   6.47241927
_cell_angle_alpha   86.74322721
_cell_angle_beta   120.76363189
_cell_angle_gamma   122.92506895
_symmetry_Int_Tables_number   1
_chemical_formula_structural   Cu(NiC4)2
_chemical_formula_sum   'Cu1 Ni2 C8'
_cell_volume   184.70067263
_cell_formula_units_Z   1
loop_
 _symmetry_equiv_pos_site_id
 _symmetry_equiv_pos_as_xyz
  1  'x, y, z'
loop_
 _atom_site_type_symbol
 _atom_site_label
 _atom_site_symmetry_multiplicity
 _atom_site_fract_x
 _atom_site_fract_y
 _atom_site_fract_z
 _atom_site_occupancy
  Ni  Ni0  1  0.99769700  0.81492100  0.81261700  1
  Ni  Ni1  1  0.00230300  0.18507900  0.18738300  1
  Cu  Cu2  1  0.50000000  0.00000000  0.50000000  1
  C  C3  1  0.00000000  0.50000000  0.50000000  1
  C  C4  1  0.50000000  0.50000000  0.00000000  1
  C  C5  1  0.43610900  0.28640800  0.72251900  1
  C  C6  1  0.56389100  0.71359200  0.27748100  1
  C  C7  1  0.01988600  0.31506400  0.77599000  1
  C  C8  1  0.53907400  0.24389600  0.22401000  1
  C  C9  1  0.98011400  0.68493600  0.22401000  1
  C  C10  1  0.46092600  0.75610400  0.77599000  1
