# generated using pymatgen
data_Cu(NiC4)4
_symmetry_space_group_name_H-M   'P 1'
_cell_length_a   9.42079597
_cell_length_b   9.42227964
_cell_length_c   22.78626564
_cell_angle_alpha   90.96875738
_cell_angle_beta   90.00000000
_cell_angle_gamma   119.99479129
_symmetry_Int_Tables_number   1
_chemical_formula_structural   Cu(NiC4)4
_chemical_formula_sum   'Cu6 Ni24 C96'
_cell_volume   1751.40827616
_cell_formula_units_Z   6
loop_
 _symmetry_equiv_pos_site_id
 _symmetry_equiv_pos_as_xyz
  1  'x, y, z'
loop_
 _atom_site_type_symbol
 _atom_site_label
 _atom_site_symmetry_multiplicity
 _atom_site_fract_x
 _atom_site_fract_y
 _atom_site_fract_z
 _atom_site_occupancy
  Ni  Ni0  1  0.65068793  0.02766290  0.25547626  1
  Ni  Ni1  1  0.35943032  0.34535248  0.24153600  1
  Ni  Ni2  1  0.99340131  0.62220017  0.23874669  1
  Ni  Ni3  1  0.62879886  0.62220017  0.73874669  1
  Ni  Ni4  1  0.98592215  0.34535248  0.74153600  1
  Ni  Ni5  1  0.37697498  0.02766290  0.75547626  1
  Ni  Ni6  1  0.31735493  0.36099590  0.58880926  1
  Ni  Ni7  1  0.02609732  0.67868548  0.57486900  1
  Ni  Ni8  1  0.66006831  0.95553317  0.57207969  1
  Ni  Ni9  1  0.29546586  0.95553317  0.07207969  1
  Ni  Ni10  1  0.65258915  0.67868548  0.07486900  1
  Ni  Ni11  1  0.04364198  0.36099590  0.08880926  1
  Ni  Ni12  1  0.98402093  0.69432990  0.92214326  1
  Ni  Ni13  1  0.69276332  0.01201948  0.90820300  1
  Ni  Ni14  1  0.32673431  0.28886717  0.90541369  1
  Ni  Ni15  1  0.96213186  0.28886717  0.40541369  1
  Ni  Ni16  1  0.31925515  0.01201948  0.40820300  1
  Ni  Ni17  1  0.71030798  0.69432990  0.42214326  1
  Ni  Ni18  1  0.97605685  0.98145776  0.49482607  1
  Ni  Ni19  1  0.00540090  0.98145776  0.99482607  1
  Ni  Ni20  1  0.64272385  0.31479076  0.82815907  1
  Ni  Ni21  1  0.67206790  0.31479076  0.32815907  1
  Ni  Ni22  1  0.30938985  0.64812476  0.16149307  1
  Ni  Ni23  1  0.33873390  0.64812476  0.66149307  1
  Cu  Cu24  1  0.00072122  0.00145460  0.34860058  1
  Cu  Cu25  1  0.00073338  0.00145460  0.84860058  1
  Cu  Cu26  1  0.66738822  0.33478760  0.68193358  1
  Cu  Cu27  1  0.66740038  0.33478760  0.18193358  1
  Cu  Cu28  1  0.33405422  0.66812160  0.01526758  1
  Cu  Cu29  1  0.33406638  0.66812160  0.51526758  1
  C  C30  1  0.98549440  0.00807619  0.64880494  1
  C  C31  1  0.02258179  0.00807619  0.14880494  1
  C  C32  1  0.65216140  0.34140919  0.98213794  1
  C  C33  1  0.68924879  0.34140919  0.48213794  1
  C  C34  1  0.31882740  0.67474319  0.31547194  1
  C  C35  1  0.35591479  0.67474319  0.81547194  1
  C  C36  1  0.30238418  0.99706934  0.25355658  1
  C  C37  1  0.00690945  0.30250598  0.25261277  1
  C  C38  1  0.29559652  0.30250598  0.75261277  1
  C  C39  1  0.69468516  0.99706934  0.75355658  1
  C  C40  1  0.96905118  0.33040234  0.58688958  1
  C  C41  1  0.67357645  0.63583898  0.58594577  1
  C  C42  1  0.96226352  0.63583898  0.08594577  1
  C  C43  1  0.36135216  0.33040234  0.08688958  1
  C  C44  1  0.63571718  0.66373634  0.92022358  1
  C  C45  1  0.34024245  0.96917298  0.91927977  1
  C  C46  1  0.62892952  0.96917298  0.41927977  1
  C  C47  1  0.02801816  0.66373634  0.42022358  1
  C  C48  1  0.69673176  0.70828789  0.24959193  1
  C  C49  1  0.01155613  0.70828789  0.74959193  1
  C  C50  1  0.36339876  0.04162089  0.58292493  1
  C  C51  1  0.67822313  0.04162089  0.08292493  1
  C  C52  1  0.03006476  0.37495489  0.91625893  1
  C  C53  1  0.34488913  0.37495489  0.41625893  1
  C  C54  1  0.22448040  0.02090163  0.31240337  1
  C  C55  1  0.79081043  0.78181340  0.30372897  1
  C  C56  1  0.97544327  0.19890040  0.31099279  1
  C  C57  1  0.22345713  0.19890040  0.81099279  1
  C  C58  1  0.99100296  0.78181340  0.80372897  1
  C  C59  1  0.79642123  0.02090163  0.81240337  1
  C  C60  1  0.79575677  0.97345330  0.69573771  1
  C  C61  1  0.17139203  0.19625171  0.69475005  1
  C  C62  1  0.02846140  0.81199083  0.69780346  1
  C  C63  1  0.78352943  0.81199083  0.19780346  1
  C  C64  1  0.02485968  0.19625171  0.19475005  1
  C  C65  1  0.17769653  0.97345330  0.19573771  1
  C  C66  1  0.89114740  0.35423463  0.64573637  1
  C  C67  1  0.45747743  0.11514640  0.63706197  1
  C  C68  1  0.64211027  0.53223340  0.64432579  1
  C  C69  1  0.89012413  0.53223340  0.14432579  1
  C  C70  1  0.65766996  0.11514640  0.13706197  1
  C  C71  1  0.46308823  0.35423463  0.14573637  1
  C  C72  1  0.46242377  0.30678630  0.02907071  1
  C  C73  1  0.83805903  0.52958471  0.02808305  1
  C  C74  1  0.69512840  0.14532383  0.03113646  1
  C  C75  1  0.45019643  0.14532383  0.53113646  1
  C  C76  1  0.69152668  0.52958471  0.52808305  1
  C  C77  1  0.84436353  0.30678630  0.52907071  1
  C  C78  1  0.55781340  0.68756863  0.97907037  1
  C  C79  1  0.12414343  0.44848040  0.97039597  1
  C  C80  1  0.30877627  0.86556740  0.97765979  1
  C  C81  1  0.55679013  0.86556740  0.47765979  1
  C  C82  1  0.32433596  0.44848040  0.47039597  1
  C  C83  1  0.12975423  0.68756863  0.47907037  1
  C  C84  1  0.12908977  0.64012030  0.36240471  1
  C  C85  1  0.50472503  0.86291871  0.36141705  1
  C  C86  1  0.36179440  0.47865783  0.36447046  1
  C  C87  1  0.11686243  0.47865783  0.86447046  1
  C  C88  1  0.35819268  0.86291871  0.86141705  1
  C  C89  1  0.51102953  0.64012030  0.86240471  1
  C  C90  1  0.99512401  0.81579646  0.41404581  1
  C  C91  1  0.81528148  0.00344882  0.41339707  1
  C  C92  1  0.20087741  0.20773816  0.41098146  1
  C  C93  1  0.00686075  0.20773816  0.91098146  1
  C  C94  1  0.18816734  0.00344882  0.91339707  1
  C  C95  1  0.82067245  0.81579646  0.91404581  1
  C  C96  1  0.97142004  0.15208886  0.58741155  1
  C  C97  1  0.19860519  0.03023145  0.58590739  1
  C  C98  1  0.85452908  0.81331768  0.58908854  1
  C  C99  1  0.95878860  0.81331768  0.08908854  1
  C  C100  1  0.83162626  0.03023145  0.08590739  1
  C  C101  1  0.18066882  0.15208886  0.08741155  1
  C  C102  1  0.66179101  0.14912946  0.74737881  1
  C  C103  1  0.48194848  0.33678182  0.74673007  1
  C  C104  1  0.86754441  0.54107116  0.74431446  1
  C  C105  1  0.67352775  0.54107116  0.24431446  1
  C  C106  1  0.85483434  0.33678182  0.24673007  1
  C  C107  1  0.48733945  0.14912946  0.24737881  1
  C  C108  1  0.63808704  0.48542186  0.92074455  1
  C  C109  1  0.86527219  0.36356445  0.91924039  1
  C  C110  1  0.52119608  0.14665068  0.92242154  1
  C  C111  1  0.62545560  0.14665068  0.42242154  1
  C  C112  1  0.49829326  0.36356445  0.41924039  1
  C  C113  1  0.84733582  0.48542186  0.42074455  1
  C  C114  1  0.32845701  0.48246346  0.08071281  1
  C  C115  1  0.14861448  0.67011582  0.08006407  1
  C  C116  1  0.53421041  0.87440516  0.07764846  1
  C  C117  1  0.34019375  0.87440516  0.57764846  1
  C  C118  1  0.52150034  0.67011582  0.58006407  1
  C  C119  1  0.15400545  0.48246346  0.58071281  1
  C  C120  1  0.30475304  0.81875586  0.25407855  1
  C  C121  1  0.53193819  0.69689845  0.25257439  1
  C  C122  1  0.18786208  0.47998468  0.25575554  1
  C  C123  1  0.29212160  0.47998468  0.75575554  1
  C  C124  1  0.16495926  0.69689845  0.75257439  1
  C  C125  1  0.51400182  0.81875586  0.75407855  1
