# generated using pymatgen
data_Cu2NiC7
_symmetry_space_group_name_H-M   'P 1'
_cell_length_a   5.36311508
_cell_length_b   9.64697654
_cell_length_c   8.90723400
_cell_angle_alpha   89.99992698
_cell_angle_beta   89.99999981
_cell_angle_gamma   104.12173751
_symmetry_Int_Tables_number   1
_chemical_formula_structural   Cu2NiC7
_chemical_formula_sum   'Cu8 Ni4 C28'
_cell_volume   446.91425633
_cell_formula_units_Z   4
loop_
 _symmetry_equiv_pos_site_id
 _symmetry_equiv_pos_as_xyz
  1  'x, y, z'
loop_
 _atom_site_type_symbol
 _atom_site_label
 _atom_site_symmetry_multiplicity
 _atom_site_fract_x
 _atom_site_fract_y
 _atom_site_fract_z
 _atom_site_occupancy
  C  C0  1  0.75000000  0.50000000  0.20070700  1
  C  C1  1  0.25000000  0.00000000  0.70070800  1
  C  C2  1  0.25000000  0.50000000  0.79929300  1
  C  C3  1  0.75000000  0.00000000  0.29929400  1
  Ni  Ni4  1  0.25000300  0.00000100  0.10205800  1
  Ni  Ni5  1  0.24999600  0.50000100  0.39793000  1
  Ni  Ni6  1  0.74999800  0.50000000  0.60206300  1
  Ni  Ni7  1  0.75000100  0.00000000  0.89792600  1
  Cu  Cu8  1  0.94395500  0.70995400  0.91096000  1
  Cu  Cu9  1  0.44395500  0.20995400  0.41096200  1
  Cu  Cu10  1  0.55604500  0.29004600  0.91096000  1
  Cu  Cu11  1  0.05604500  0.79004600  0.41096200  1
  Cu  Cu12  1  0.05604500  0.29004600  0.08903900  1
  Cu  Cu13  1  0.55604500  0.79004500  0.58904200  1
  Cu  Cu14  1  0.44395400  0.70995400  0.08903900  1
  Cu  Cu15  1  0.94395500  0.20995400  0.58904100  1
  C  C16  1  0.02232300  0.88584600  0.92198700  1
  C  C17  1  0.52232000  0.38584600  0.42198400  1
  C  C18  1  0.47767800  0.11415500  0.92198700  1
  C  C19  1  0.97767900  0.61415500  0.42198400  1
  C  C20  1  0.97768000  0.11415400  0.07801800  1
  C  C21  1  0.47767800  0.61415400  0.57801500  1
  C  C22  1  0.52232100  0.88584600  0.07801800  1
  C  C23  1  0.02232200  0.38584600  0.57801400  1
  C  C24  1  0.94156500  0.64012100  0.74589800  1
  C  C25  1  0.44156500  0.14012200  0.24590000  1
  C  C26  1  0.55843500  0.35987900  0.74589800  1
  C  C27  1  0.05843600  0.85987800  0.24589900  1
  C  C28  1  0.05843400  0.35987700  0.25410100  1
  C  C29  1  0.55843500  0.85988000  0.75410400  1
  C  C30  1  0.44156400  0.64012200  0.25410100  1
  C  C31  1  0.94156500  0.14012100  0.75410400  1
  C  C32  1  0.66056100  0.64920900  0.99215900  1
  C  C33  1  0.16055800  0.14920900  0.49215600  1
  C  C34  1  0.83944000  0.35079100  0.99215900  1
  C  C35  1  0.33944100  0.85079100  0.49215700  1
  C  C36  1  0.33944200  0.35079100  0.00784500  1
  C  C37  1  0.83944000  0.85079100  0.50784300  1
  C  C38  1  0.16055800  0.64920900  0.00784500  1
  C  C39  1  0.66056000  0.14920800  0.50784300  1
