# generated using pymatgen
data_Cu(NiC8)2
_symmetry_space_group_name_H-M   'P 1'
_cell_length_a   9.12367475
_cell_length_b   9.12367444
_cell_length_c   23.20553309
_cell_angle_alpha   89.87978808
_cell_angle_beta   90.12021192
_cell_angle_gamma   119.86444223
_symmetry_Int_Tables_number   1
_chemical_formula_structural   Cu(NiC8)2
_chemical_formula_sum   'Cu6 Ni12 C96'
_cell_volume   1675.14379888
_cell_formula_units_Z   6
loop_
 _symmetry_equiv_pos_site_id
 _symmetry_equiv_pos_as_xyz
  1  'x, y, z'
loop_
 _atom_site_type_symbol
 _atom_site_label
 _atom_site_symmetry_multiplicity
 _atom_site_fract_x
 _atom_site_fract_y
 _atom_site_fract_z
 _atom_site_occupancy
  C  C0  1  0.99288807  0.62467148  0.25446556  1
  C  C1  1  0.37532852  0.00711193  0.75446556  1
  C  C2  1  0.65955507  0.95800448  0.58779856  1
  C  C3  1  0.04199552  0.34044493  0.08779856  1
  C  C4  1  0.32622107  0.29133848  0.92113256  1
  C  C5  1  0.70866152  0.67377893  0.42113256  1
  C  C6  1  0.01614188  0.98562130  0.50109876  1
  C  C7  1  0.01437870  0.98385812  0.00109876  1
  C  C8  1  0.68280888  0.31895430  0.83443176  1
  C  C9  1  0.68104570  0.31719112  0.33443176  1
  C  C10  1  0.34947488  0.65228830  0.16776576  1
  C  C11  1  0.34771170  0.65052512  0.66776576  1
  C  C12  1  0.98466701  0.99697882  0.35297294  1
  C  C13  1  0.00302118  0.01533299  0.85297294  1
  C  C14  1  0.99915572  0.99935800  0.64717647  1
  C  C15  1  0.00064200  0.00084428  0.14717647  1
  C  C16  1  0.65133401  0.33031182  0.68630594  1
  C  C17  1  0.66968818  0.34866599  0.18630594  1
  C  C18  1  0.66582272  0.33269100  0.98050947  1
  C  C19  1  0.66730900  0.33417728  0.48050947  1
  C  C20  1  0.31800001  0.66364582  0.01963994  1
  C  C21  1  0.33635418  0.68199999  0.51963994  1
  C  C22  1  0.33248872  0.66602500  0.31384347  1
  C  C23  1  0.33397500  0.66751128  0.81384347  1
  Ni  Ni24  1  0.70370710  0.71027630  0.25019344  1
  Ni  Ni25  1  0.99867008  0.29404378  0.24802545  1
  Ni  Ni26  1  0.28972370  0.29629290  0.75019344  1
  Ni  Ni27  1  0.70595622  0.00132992  0.74802545  1
  Ni  Ni28  1  0.37037410  0.04360930  0.58352644  1
  Ni  Ni29  1  0.66533708  0.62737678  0.58135845  1
  Ni  Ni30  1  0.95639070  0.62962590  0.08352644  1
  Ni  Ni31  1  0.37262322  0.33466292  0.08135845  1
  Ni  Ni32  1  0.03704010  0.37694330  0.91686044  1
  Ni  Ni33  1  0.33200308  0.96071078  0.91469245  1
  Ni  Ni34  1  0.62305670  0.96295990  0.41686044  1
  Ni  Ni35  1  0.03928922  0.66799692  0.41469245  1
  Cu  Cu36  1  0.29217688  0.00252929  0.25083422  1
  Cu  Cu37  1  0.99747071  0.70782312  0.75083422  1
  Cu  Cu38  1  0.95884388  0.33586229  0.58416722  1
  Cu  Cu39  1  0.66413771  0.04115612  0.08416722  1
  Cu  Cu40  1  0.62550988  0.66919629  0.91750122  1
  Cu  Cu41  1  0.33080371  0.37449012  0.41750122  1
  C  C42  1  0.21326202  0.02433717  0.30243389  1
  C  C43  1  0.82250964  0.79121435  0.30807490  1
  C  C44  1  0.98662565  0.17734592  0.30370353  1
  C  C45  1  0.20878565  0.17749036  0.80807490  1
  C  C46  1  0.97566283  0.78673798  0.80243389  1
  C  C47  1  0.82265408  0.01337435  0.80370353  1
  C  C48  1  0.79142498  0.97614298  0.68907916  1
  C  C49  1  0.17200073  0.19183450  0.69537042  1
  C  C50  1  0.02255893  0.81357457  0.69878025  1
  C  C51  1  0.80816550  0.82799927  0.19537042  1
  C  C52  1  0.02385702  0.20857502  0.18907916  1
  C  C53  1  0.18642543  0.97744107  0.19878025  1
  C  C54  1  0.87992902  0.35767017  0.63576689  1
  C  C55  1  0.48917664  0.12454735  0.64140790  1
  C  C56  1  0.65329265  0.51067892  0.63703653  1
  C  C57  1  0.87545265  0.51082336  0.14140790  1
  C  C58  1  0.64232983  0.12007098  0.13576689  1
  C  C59  1  0.48932108  0.34670735  0.13703653  1
  C  C60  1  0.45809198  0.30947598  0.02241216  1
  C  C61  1  0.83866773  0.52516750  0.02870342  1
  C  C62  1  0.68922593  0.14690757  0.03211325  1
  C  C63  1  0.47483250  0.16133227  0.52870342  1
  C  C64  1  0.69052402  0.54190802  0.52241216  1
  C  C65  1  0.85309243  0.31077407  0.53211325  1
  C  C66  1  0.54659502  0.69100417  0.96910089  1
  C  C67  1  0.15584264  0.45788135  0.97474190  1
  C  C68  1  0.31995865  0.84401292  0.97037053  1
  C  C69  1  0.54211865  0.84415736  0.47474190  1
  C  C70  1  0.30899583  0.45340498  0.46910089  1
  C  C71  1  0.15598708  0.68004135  0.47037053  1
  C  C72  1  0.12475798  0.64280998  0.35574616  1
  C  C73  1  0.50533373  0.85850150  0.36203742  1
  C  C74  1  0.35589193  0.48024157  0.36544725  1
  C  C75  1  0.14149850  0.49466627  0.86203742  1
  C  C76  1  0.35719002  0.87524202  0.85574616  1
  C  C77  1  0.51975843  0.64410807  0.86544725  1
  C  C78  1  0.02271477  0.83975615  0.41150875  1
  C  C79  1  0.80901744  0.97385955  0.41140938  1
  C  C80  1  0.18607132  0.20406340  0.41082071  1
  C  C81  1  0.02614045  0.19098256  0.91140938  1
  C  C82  1  0.16024385  0.97728523  0.91150875  1
  C  C83  1  0.79593660  0.81392868  0.91082071  1
  C  C84  1  0.96723304  0.17638518  0.58787330  1
  C  C85  1  0.18320267  0.02135480  0.58876140  1
  C  C86  1  0.82713608  0.82251646  0.58741747  1
  C  C87  1  0.97864520  0.81679733  0.08876140  1
  C  C88  1  0.82361482  0.03276696  0.08787330  1
  C  C89  1  0.17748354  0.17286392  0.08741747  1
  C  C90  1  0.68938177  0.17308915  0.74484175  1
  C  C91  1  0.47568444  0.30719255  0.74474238  1
  C  C92  1  0.85273832  0.53739640  0.74415371  1
  C  C93  1  0.69280745  0.52431556  0.24474238  1
  C  C94  1  0.82691085  0.31061823  0.24484175  1
  C  C95  1  0.46260360  0.14726168  0.24415371  1
  C  C96  1  0.63390004  0.50971818  0.92120630  1
  C  C97  1  0.84986967  0.35468780  0.92209440  1
  C  C98  1  0.49380308  0.15584946  0.92075047  1
  C  C99  1  0.64531220  0.15013033  0.42209440  1
  C  C100  1  0.49028182  0.36609996  0.42120630  1
  C  C101  1  0.84415054  0.50619692  0.42075047  1
  C  C102  1  0.35604777  0.50642315  0.07817575  1
  C  C103  1  0.14235044  0.64052655  0.07807638  1
  C  C104  1  0.51940432  0.87073040  0.07748771  1
  C  C105  1  0.35947345  0.85764956  0.57807638  1
  C  C106  1  0.49357685  0.64395223  0.57817575  1
  C  C107  1  0.12926960  0.48059568  0.57748771  1
  C  C108  1  0.30056604  0.84305218  0.25454030  1
  C  C109  1  0.51653567  0.68802180  0.25542840  1
  C  C110  1  0.16046908  0.48918346  0.25408447  1
  C  C111  1  0.31197820  0.48346433  0.75542840  1
  C  C112  1  0.15694782  0.69943396  0.75454030  1
  C  C113  1  0.51081654  0.83953092  0.75408447  1
