# generated using pymatgen
data_CuNiC7
_symmetry_space_group_name_H-M   'P 1'
_cell_length_a   6.47714722
_cell_length_b   5.73582043
_cell_length_c   6.92521892
_cell_angle_alpha   120.81345666
_cell_angle_beta   123.67892075
_cell_angle_gamma   77.88859071
_symmetry_Int_Tables_number   1
_chemical_formula_structural   CuNiC7
_chemical_formula_sum   'Cu1 Ni1 C7'
_cell_volume   182.88351060
_cell_formula_units_Z   1
loop_
 _symmetry_equiv_pos_site_id
 _symmetry_equiv_pos_as_xyz
  1  'x, y, z'
loop_
 _atom_site_type_symbol
 _atom_site_label
 _atom_site_symmetry_multiplicity
 _atom_site_fract_x
 _atom_site_fract_y
 _atom_site_fract_z
 _atom_site_occupancy
  Ni  Ni0  1  0.05342244  0.55342244  0.10684488  1
  Cu  Cu1  1  0.71032044  0.21032044  0.42064088  1
  C  C2  1  0.00269000  0.00269000  0.00538001  1
  C  C3  1  0.34917977  0.84917977  0.69835955  1
  C  C4  1  0.41881798  0.41881798  0.83763597  1
  C  C5  1  0.38309600  0.86658085  0.22727390  1
  C  C6  1  0.84417790  0.36069405  0.22727390  1
  C  C7  1  0.05124363  0.09349948  0.73829546  1
  C  C8  1  0.68705083  0.64479598  0.73829546  1
