# generated using pymatgen
data_Cu2NiC5
_symmetry_space_group_name_H-M   'P 1'
_cell_length_a   5.74980100
_cell_length_b   7.92450400
_cell_length_c   8.66005300
_cell_angle_alpha   90.00000000
_cell_angle_beta   90.00000000
_cell_angle_gamma   90.00000000
_symmetry_Int_Tables_number   1
_chemical_formula_structural   Cu2NiC5
_chemical_formula_sum   'Cu8 Ni4 C20'
_cell_volume   394.58943497
_cell_formula_units_Z   4
loop_
 _symmetry_equiv_pos_site_id
 _symmetry_equiv_pos_as_xyz
  1  'x, y, z'
loop_
 _atom_site_type_symbol
 _atom_site_label
 _atom_site_symmetry_multiplicity
 _atom_site_fract_x
 _atom_site_fract_y
 _atom_site_fract_z
 _atom_site_occupancy
  C  C0  1  0.80483100  0.09318700  0.48710700  1
  C  C1  1  0.30483100  0.40681300  0.51289300  1
  C  C2  1  0.69516900  0.59318700  0.01289300  1
  C  C3  1  0.19516900  0.90681300  0.98710700  1
  C  C4  1  0.19516900  0.90681300  0.51289300  1
  C  C5  1  0.69516900  0.59318700  0.48710700  1
  C  C6  1  0.30483100  0.40681300  0.98710700  1
  C  C7  1  0.80483100  0.09318700  0.01289300  1
  C  C8  1  0.59537200  0.20584100  0.37902300  1
  C  C9  1  0.59537200  0.20584100  0.12097700  1
  C  C10  1  0.90462800  0.70584100  0.12097700  1
  C  C11  1  0.40462800  0.79415900  0.87902300  1
  C  C12  1  0.40462800  0.79415900  0.62097700  1
  C  C13  1  0.90462800  0.70584100  0.37902300  1
  C  C14  1  0.09537200  0.29415900  0.87902300  1
  C  C15  1  0.09537200  0.29415900  0.62097700  1
  Ni  Ni16  1  0.66008900  0.58177000  0.25000000  1
  Ni  Ni17  1  0.83991100  0.08177000  0.25000000  1
  Ni  Ni18  1  0.33991100  0.41823000  0.75000000  1
  Ni  Ni19  1  0.16008900  0.91823000  0.75000000  1
  C  C20  1  0.90758600  0.03441300  0.75000000  1
  C  C21  1  0.40758600  0.46558700  0.25000000  1
  C  C22  1  0.59241400  0.53441300  0.75000000  1
  C  C23  1  0.09241400  0.96558700  0.25000000  1
  Cu  Cu24  1  0.73838000  0.12919000  0.38230800  1
  Cu  Cu25  1  0.76162000  0.62919000  0.38230800  1
  Cu  Cu26  1  0.23838000  0.37081000  0.88230800  1
  Cu  Cu27  1  0.73838000  0.12919000  0.11769200  1
  Cu  Cu28  1  0.26162000  0.87081000  0.61769200  1
  Cu  Cu29  1  0.26162000  0.87081000  0.88230800  1
  Cu  Cu30  1  0.76162000  0.62919000  0.11769200  1
  Cu  Cu31  1  0.23838000  0.37081000  0.61769200  1
