# generated using pymatgen
data_Cu2Ni4C7
_symmetry_space_group_name_H-M   'P 1'
_cell_length_a   3.33469400
_cell_length_b   3.33483665
_cell_length_c   45.49989501
_cell_angle_alpha   90.00105674
_cell_angle_beta   89.99790486
_cell_angle_gamma   119.99571337
_symmetry_Int_Tables_number   1
_chemical_formula_structural   Cu2Ni4C7
_chemical_formula_sum   'Cu2 Ni4 C7'
_cell_volume   438.21812637
_cell_formula_units_Z   1
loop_
 _symmetry_equiv_pos_site_id
 _symmetry_equiv_pos_as_xyz
  1  'x, y, z'
loop_
 _atom_site_type_symbol
 _atom_site_label
 _atom_site_symmetry_multiplicity
 _atom_site_fract_x
 _atom_site_fract_y
 _atom_site_fract_z
 _atom_site_occupancy
  C  C0  1  0.99996200  0.99994400  0.37341600  1
  C  C1  1  0.66667800  0.33332200  0.05197300  1
  C  C2  1  0.66663500  0.33327500  0.13544000  1
  C  C3  1  0.33332100  0.66664200  0.09372000  1
  C  C4  1  0.66672900  0.33344700  0.27484900  1
  C  C5  1  0.33330400  0.66659300  0.47725700  1
  C  C6  1  0.66664300  0.33326700  0.65752300  1
  Ni  Ni7  1  0.33339100  0.66682200  0.31213800  1
  Ni  Ni8  1  0.66666000  0.33327000  0.44006100  1
  Ni  Ni9  1  0.66663900  0.33326000  0.51406100  1
  Ni  Ni10  1  0.33338500  0.66675600  0.23825900  1
  Cu  Cu11  1  0.33331100  0.66668600  0.69103300  1
  Cu  Cu12  1  0.33334200  0.66671500  0.62401700  1
