# generated using pymatgen
data_Cu2Ni12C17
_symmetry_space_group_name_H-M   'P 1'
_cell_length_a   12.30355300
_cell_length_b   6.20036200
_cell_length_c   9.02423109
_cell_angle_alpha   75.36776454
_cell_angle_beta   90.00000000
_cell_angle_gamma   90.00000000
_symmetry_Int_Tables_number   1
_chemical_formula_structural   Cu2Ni12C17
_chemical_formula_sum   'Cu4 Ni24 C34'
_cell_volume   666.09923615
_cell_formula_units_Z   2
loop_
 _symmetry_equiv_pos_site_id
 _symmetry_equiv_pos_as_xyz
  1  'x, y, z'
loop_
 _atom_site_type_symbol
 _atom_site_label
 _atom_site_symmetry_multiplicity
 _atom_site_fract_x
 _atom_site_fract_y
 _atom_site_fract_z
 _atom_site_occupancy
  C  C0  1  0.34467900  0.65536100  0.13599500  1
  C  C1  1  0.65532100  0.34463900  0.86400500  1
  C  C2  1  0.84467900  0.34463900  0.36400500  1
  C  C3  1  0.15532100  0.65536100  0.63599500  1
  C  C4  1  0.00000000  0.00000000  0.00000000  1
  C  C5  1  0.50000000  0.00000000  0.50000000  1
  Ni  Ni6  1  0.59959200  0.92705100  0.77004600  1
  Ni  Ni7  1  0.31129900  0.00081800  0.36020700  1
  Ni  Ni8  1  0.08780200  0.68012700  0.21693000  1
  Ni  Ni9  1  0.81129900  0.99918200  0.13979300  1
  Ni  Ni10  1  0.90040800  0.92705100  0.27004600  1
  Ni  Ni11  1  0.91219800  0.31987300  0.78307000  1
  Ni  Ni12  1  0.18870100  0.00081800  0.86020700  1
  Ni  Ni13  1  0.40040800  0.07294900  0.22995400  1
  Ni  Ni14  1  0.44158300  0.33918800  0.60047000  1
  Ni  Ni15  1  0.37551300  0.91186500  0.75004300  1
  Ni  Ni16  1  0.35512000  0.32817100  0.47233000  1
  Ni  Ni17  1  0.64488000  0.67182900  0.52767000  1
  Ni  Ni18  1  0.14488000  0.32817100  0.97233000  1
  Ni  Ni19  1  0.09959200  0.07294900  0.72995400  1
  Ni  Ni20  1  0.41219800  0.68012700  0.71693000  1
  Ni  Ni21  1  0.94158300  0.66081200  0.89953000  1
  Ni  Ni22  1  0.58780200  0.31987300  0.28307000  1
  Ni  Ni23  1  0.68870100  0.99918200  0.63979300  1
  Ni  Ni24  1  0.55841700  0.66081200  0.39953000  1
  Ni  Ni25  1  0.62448700  0.08813500  0.24995700  1
  Ni  Ni26  1  0.87551300  0.08813500  0.74995700  1
  Ni  Ni27  1  0.12448700  0.91186500  0.25004300  1
  Ni  Ni28  1  0.05841700  0.33918800  0.10047000  1
  Ni  Ni29  1  0.85512000  0.67182900  0.02767000  1
  Cu  Cu30  1  0.36403100  0.27406500  0.91107900  1
  Cu  Cu31  1  0.86403100  0.72593500  0.58892100  1
  Cu  Cu32  1  0.63596900  0.72593500  0.08892100  1
  Cu  Cu33  1  0.13596900  0.27406500  0.41107900  1
  C  C34  1  0.43311400  0.30010700  0.50102400  1
  C  C35  1  0.23219100  0.42205700  0.41027600  1
  C  C36  1  0.88812900  0.16524100  0.83226700  1
  C  C37  1  0.11391300  0.96590700  0.83136900  1
  C  C38  1  0.93311400  0.69989300  0.99897600  1
  C  C39  1  0.32681800  0.05265800  0.89062600  1
  C  C40  1  0.56688600  0.69989300  0.49897600  1
  C  C41  1  0.88608700  0.03409300  0.16863100  1
  C  C42  1  0.11187100  0.83475900  0.16773300  1
  C  C43  1  0.38812900  0.83475900  0.66773300  1
  C  C44  1  0.06250800  0.38513100  0.28190800  1
  C  C45  1  0.42455100  0.24396000  0.05741200  1
  C  C46  1  0.43749200  0.38513100  0.78190800  1
  C  C47  1  0.06688600  0.30010700  0.00102400  1
  C  C48  1  0.61187100  0.16524100  0.33226700  1
  C  C49  1  0.38608700  0.96590700  0.33136900  1
  C  C50  1  0.07544900  0.24396000  0.55741200  1
  C  C51  1  0.56250800  0.61486900  0.21809200  1
  C  C52  1  0.73219100  0.57794300  0.08972400  1
  C  C53  1  0.82681800  0.94734200  0.60937400  1
  C  C54  1  0.17318200  0.05265800  0.39062600  1
  C  C55  1  0.92455100  0.75604000  0.44258800  1
  C  C56  1  0.93749200  0.61486900  0.71809200  1
  C  C57  1  0.67318200  0.94734200  0.10937400  1
  C  C58  1  0.26780900  0.42205700  0.91027600  1
  C  C59  1  0.76780900  0.57794300  0.58972400  1
  C  C60  1  0.57544900  0.75604000  0.94258800  1
  C  C61  1  0.61391300  0.03409300  0.66863100  1
