# generated using pymatgen
data_CuNiC15
_symmetry_space_group_name_H-M   'P 1'
_cell_length_a   8.41240756
_cell_length_b   8.44685997
_cell_length_c   21.84834047
_cell_angle_alpha   89.62751566
_cell_angle_beta   89.65628204
_cell_angle_gamma   120.07025698
_symmetry_Int_Tables_number   1
_chemical_formula_structural   CuNiC15
_chemical_formula_sum   'Cu6 Ni6 C90'
_cell_volume   1343.45389656
_cell_formula_units_Z   6
loop_
 _symmetry_equiv_pos_site_id
 _symmetry_equiv_pos_as_xyz
  1  'x, y, z'
loop_
 _atom_site_type_symbol
 _atom_site_label
 _atom_site_symmetry_multiplicity
 _atom_site_fract_x
 _atom_site_fract_y
 _atom_site_fract_z
 _atom_site_occupancy
  Ni  Ni0  1  0.99074929  0.00006301  0.35746026  1
  Ni  Ni1  1  0.00207520  0.00097118  0.85464363  1
  Ni  Ni2  1  0.67805953  0.33768662  0.68511636  1
  Ni  Ni3  1  0.65844948  0.33541201  0.18461493  1
  Ni  Ni4  1  0.65670651  0.32996009  0.98174150  1
  Ni  Ni5  1  0.33133135  0.66560088  0.81195094  1
  C  C6  1  0.96241516  0.33813925  0.58401805  1
  C  C7  1  0.37651333  0.33381895  0.08342012  1
  C  C8  1  0.61806389  0.95293910  0.41757669  1
  Cu  Cu9  1  0.99781662  0.00541472  0.64367598  1
  Cu  Cu10  1  0.00649730  0.00613234  0.14509934  1
  Cu  Cu11  1  0.67521719  0.31673033  0.47832594  1
  Cu  Cu12  1  0.33439175  0.66065890  0.02215647  1
  Cu  Cu13  1  0.33715483  0.66527545  0.52157881  1
  Cu  Cu14  1  0.33965718  0.67582931  0.31493536  1
  C  C15  1  0.28652149  0.99628804  0.25175431  1
  C  C16  1  0.71217228  0.71098232  0.25004994  1
  C  C17  1  0.00146377  0.29574587  0.25066020  1
  C  C18  1  0.29257938  0.28989723  0.74974611  1
  C  C19  1  0.99860148  0.71295093  0.74985045  1
  C  C20  1  0.70981802  0.99958709  0.75081146  1
  C  C21  1  0.37541250  0.04267422  0.58444308  1
  C  C22  1  0.66745929  0.62111308  0.58323480  1
  C  C23  1  0.95945415  0.62675823  0.08318482  1
  C  C24  1  0.66661898  0.04016337  0.08339797  1
  C  C25  1  0.62372507  0.66750637  0.91564588  1
  C  C26  1  0.04059459  0.37653256  0.91679619  1
  C  C27  1  0.33466890  0.95365612  0.91669278  1
  C  C28  1  0.33744455  0.37785505  0.41708964  1
  C  C29  1  0.04412149  0.66664091  0.41656594  1
  C  C30  1  0.20439216  0.02971245  0.30573121  1
  C  C31  1  0.82639052  0.79278953  0.30345373  1
  C  C32  1  0.96680236  0.18068407  0.30488287  1
  C  C33  1  0.21284082  0.17453720  0.80553845  1
  C  C34  1  0.96614882  0.79444216  0.80503364  1
  C  C35  1  0.82617669  0.03514455  0.80525984  1
  C  C36  1  0.78973003  0.95880484  0.69519621  1
  C  C37  1  0.17298287  0.20886083  0.69491814  1
  C  C38  1  0.03834913  0.83296979  0.69340123  1
  C  C39  1  0.79068099  0.83060961  0.19301530  1
  C  C40  1  0.04115184  0.21759454  0.19478234  1
  C  C41  1  0.16989692  0.95802063  0.19563933  1
  C  C42  1  0.88078838  0.37961760  0.64390436  1
  C  C43  1  0.48573512  0.12021726  0.63940335  1
  C  C44  1  0.62594521  0.50796132  0.63905744  1
  C  C45  1  0.88864978  0.51071042  0.13870950  1
  C  C46  1  0.63144347  0.11577484  0.13909205  1
  C  C47  1  0.49868367  0.37768390  0.14396479  1
  C  C48  1  0.45451920  0.28895412  0.02263478  1
  C  C49  1  0.84972290  0.55088241  0.02774546  1
  C  C50  1  0.71242530  0.15600394  0.02798579  1
  C  C51  1  0.44816632  0.16251848  0.52855751  1
  C  C52  1  0.70240263  0.54372190  0.52727803  1
  C  C53  1  0.83254737  0.29466776  0.52386956  1
  C  C54  1  0.54387386  0.70808511  0.97118333  1
  C  C55  1  0.15983879  0.45758892  0.97163868  1
  C  C56  1  0.29513877  0.83394065  0.97314235  1
  C  C57  1  0.52400796  0.82198016  0.47762180  1
  C  C58  1  0.29312219  0.45349175  0.47151851  1
  C  C59  1  0.15828973  0.69945030  0.47120381  1
  C  C60  1  0.11634200  0.61839438  0.36021293  1
  C  C61  1  0.48898582  0.86836850  0.35644795  1
  C  C62  1  0.37426919  0.49407388  0.35986676  1
  C  C63  1  0.11982394  0.49182886  0.86115281  1
  C  C64  1  0.36717184  0.87222298  0.86164273  1
  C  C65  1  0.50726460  0.63154216  0.86132165  1
  C  C66  1  0.03495405  0.83182067  0.40772356  1
  C  C67  1  0.81394367  0.97105906  0.40995126  1
  C  C68  1  0.17854978  0.19760297  0.40849128  1
  C  C69  1  0.02566568  0.19619953  0.90969839  1
  C  C70  1  0.16869878  0.96968514  0.91069153  1
  C  C71  1  0.80489731  0.83459871  0.90913785  1
  C  C72  1  0.98117663  0.15579797  0.59267189  1
  C  C73  1  0.18852599  0.01937024  0.59179698  1
  C  C74  1  0.83608339  0.80371155  0.59099457  1
  C  C75  1  0.97139277  0.80660278  0.09232562  1
  C  C76  1  0.82724867  0.01374873  0.09211828  1
  C  C77  1  0.17265421  0.15304844  0.09339357  1
  C  C78  1  0.68869196  0.16018961  0.74360881  1
  C  C79  1  0.47334584  0.30677154  0.74095277  1
  C  C80  1  0.83226177  0.53453694  0.74423441  1
  C  C81  1  0.69772374  0.53165670  0.24327626  1
  C  C82  1  0.83821716  0.31383811  0.24078203  1
  C  C83  1  0.47143101  0.15568416  0.24413737  1
  C  C84  1  0.64520260  0.50663593  0.92291865  1
  C  C85  1  0.85937275  0.35977805  0.92597333  1
  C  C86  1  0.50167341  0.13230985  0.92260323  1
  C  C87  1  0.62704420  0.14949147  0.42348551  1
  C  C88  1  0.50787192  0.37086996  0.42596309  1
  C  C89  1  0.85702754  0.50489563  0.42361685  1
  C  C90  1  0.35176883  0.51255047  0.07336838  1
  C  C91  1  0.14701259  0.65345826  0.07451539  1
  C  C92  1  0.49776390  0.86023715  0.07453962  1
  C  C93  1  0.35843780  0.86213523  0.57626030  1
  C  C94  1  0.50438247  0.64273186  0.57690982  1
  C  C95  1  0.16269330  0.51674060  0.57101631  1
  C  C96  1  0.29710484  0.82398630  0.25637441  1
  C  C97  1  0.52513523  0.69121078  0.25557686  1
  C  C98  1  0.17089884  0.48041671  0.25831850  1
  C  C99  1  0.30716409  0.47036147  0.75694232  1
  C  C100  1  0.16483513  0.69714492  0.75596313  1
  C  C101  1  0.52869249  0.83228710  0.75742170  1
