# generated using pymatgen
data_Cu(NiC12)2
_symmetry_space_group_name_H-M   'P 1'
_cell_length_a   8.74955391
_cell_length_b   8.74421019
_cell_length_c   22.85654915
_cell_angle_alpha   89.97102215
_cell_angle_beta   90.09398588
_cell_angle_gamma   119.91278268
_symmetry_Int_Tables_number   1
_chemical_formula_structural   Cu(NiC12)2
_chemical_formula_sum   'Cu4 Ni8 C96'
_cell_volume   1515.75215385
_cell_formula_units_Z   4
loop_
 _symmetry_equiv_pos_site_id
 _symmetry_equiv_pos_as_xyz
  1  'x, y, z'
loop_
 _atom_site_type_symbol
 _atom_site_label
 _atom_site_symmetry_multiplicity
 _atom_site_fract_x
 _atom_site_fract_y
 _atom_site_fract_z
 _atom_site_occupancy
  C  C0  1  0.99092658  0.98752057  0.49313021  1
  C  C1  1  0.00374782  0.01383674  0.99833487  1
  C  C2  1  0.66777308  0.33125178  0.82832108  1
  C  C3  1  0.67021822  0.33496422  0.33032829  1
  C  C4  1  0.33326937  0.66275566  0.16684241  1
  C  C5  1  0.33724517  0.67044822  0.65713110  1
  Ni  Ni6  1  0.99462806  0.99607538  0.35293701  1
  Ni  Ni7  1  0.99802169  0.00478510  0.85127210  1
  Ni  Ni8  1  0.99757890  0.99830437  0.64329265  1
  Ni  Ni9  1  0.99989444  0.00097932  0.15175665  1
  Ni  Ni10  1  0.66590686  0.33163135  0.68083550  1
  Ni  Ni11  1  0.66698884  0.33427683  0.18789271  1
  Ni  Ni12  1  0.33011642  0.66021733  0.01976522  1
  Ni  Ni13  1  0.33554912  0.67099841  0.51917369  1
  Cu  Cu14  1  0.67412441  0.33492695  0.98079692  1
  Cu  Cu15  1  0.67307520  0.33247994  0.47646493  1
  Cu  Cu16  1  0.32952337  0.67410497  0.31765644  1
  Cu  Cu17  1  0.32173015  0.65820884  0.81286794  1
  C  C18  1  0.04664317  0.36637423  0.92094329  1
  C  C19  1  0.62861396  0.95343734  0.42013930  1
  C  C20  1  0.04890144  0.68054053  0.42084594  1
  C  C21  1  0.29155942  0.00329375  0.24915009  1
  C  C22  1  0.70815803  0.70642277  0.24892189  1
  C  C23  1  0.99960026  0.29021895  0.24912036  1
  C  C24  1  0.29339857  0.28598971  0.74984385  1
  C  C25  1  0.99385487  0.71021446  0.75019153  1
  C  C26  1  0.71112902  0.00365374  0.75003385  1
  C  C27  1  0.96036030  0.33418658  0.58505582  1
  C  C28  1  0.37435808  0.04136610  0.58548188  1
  C  C29  1  0.66427242  0.62344723  0.58506668  1
  C  C30  1  0.96057973  0.62795804  0.08568332  1
  C  C31  1  0.66554019  0.03889272  0.08512137  1
  C  C32  1  0.37538400  0.33364802  0.08519167  1
  C  C33  1  0.62365522  0.66940842  0.91784764  1
  C  C34  1  0.33009777  0.95432482  0.91782248  1
  C  C35  1  0.32976377  0.37639293  0.41821981  1
  C  C36  1  0.21073487  0.02430963  0.30163640  1
  C  C37  1  0.81298258  0.78824858  0.30098212  1
  C  C38  1  0.97895557  0.18726575  0.30154776  1
  C  C39  1  0.21276419  0.18589417  0.80323635  1
  C  C40  1  0.97697365  0.79071002  0.80406170  1
  C  C41  1  0.81345626  0.02389822  0.80307483  1
  C  C42  1  0.78436959  0.96901403  0.69777180  1
  C  C43  1  0.18443026  0.21584540  0.69782122  1
  C  C44  1  0.02818596  0.81794011  0.69815053  1
  C  C45  1  0.78412653  0.81276389  0.19535237  1
  C  C46  1  0.02626741  0.21203832  0.19554879  1
  C  C47  1  0.18586063  0.97277246  0.19573251  1
  C  C48  1  0.87572595  0.35853674  0.63693926  1
  C  C49  1  0.48136000  0.12669304  0.63798485  1
  C  C50  1  0.64450314  0.51824330  0.63789998  1
  C  C51  1  0.87213090  0.51478141  0.13539946  1
  C  C52  1  0.64070256  0.12529028  0.13537660  1
  C  C53  1  0.48470759  0.35397165  0.13588404  1
  C  C54  1  0.46853130  0.31288024  0.03010638  1
  C  C55  1  0.84611873  0.53521002  0.03011868  1
  C  C56  1  0.68834891  0.15408030  0.02985433  1
  C  C57  1  0.46438452  0.15328125  0.53219321  1
  C  C58  1  0.68678547  0.53379465  0.53173696  1
  C  C59  1  0.84606291  0.31133276  0.53118039  1
  C  C60  1  0.54600300  0.69725340  0.96985788  1
  C  C61  1  0.16012127  0.46829356  0.97516772  1
  C  C62  1  0.31303582  0.85310347  0.97007671  1
  C  C63  1  0.54025176  0.83511524  0.47703201  1
  C  C64  1  0.30588103  0.45454130  0.47044185  1
  C  C65  1  0.15629076  0.68716460  0.47770224  1
  C  C66  1  0.13174981  0.63150933  0.35999390  1
  C  C67  1  0.49808599  0.86207257  0.36043198  1
  C  C68  1  0.36636598  0.49199692  0.36385838  1
  C  C69  1  0.13900031  0.50009723  0.86031034  1
  C  C70  1  0.36562910  0.87629822  0.86398019  1
  C  C71  1  0.51078799  0.63945963  0.86432835  1
  C  C72  1  0.02363905  0.84382988  0.40819470  1
  C  C73  1  0.82871124  0.00166520  0.40828933  1
  C  C74  1  0.18185795  0.20245002  0.40709237  1
  C  C75  1  0.01031095  0.17292332  0.90989416  1
  C  C76  1  0.17468235  0.97215908  0.90847330  1
  C  C77  1  0.80162677  0.81530923  0.90811139  1
  C  C78  1  0.96926866  0.17040153  0.58848143  1
  C  C79  1  0.19970936  0.02969245  0.58929620  1
  C  C80  1  0.82582503  0.79868810  0.58877894  1
  C  C81  1  0.96860520  0.80001880  0.08696147  1
  C  C82  1  0.82764530  0.02768321  0.08682568  1
  C  C83  1  0.20067747  0.17248406  0.08695353  1
  C  C84  1  0.68382973  0.15666932  0.74435160  1
  C  C85  1  0.47427730  0.31690610  0.74420663  1
  C  C86  1  0.84560374  0.52829728  0.74507906  1
  C  C87  1  0.68596249  0.52730680  0.24263001  1
  C  C88  1  0.84436178  0.31553594  0.24301884  1
  C  C89  1  0.47246238  0.15543268  0.24290004  1
  C  C90  1  0.63102248  0.49957680  0.92304900  1
  C  C91  1  0.84678939  0.35935409  0.92623277  1
  C  C92  1  0.49284447  0.13652593  0.92262231  1
  C  C93  1  0.63002821  0.14545736  0.42602913  1
  C  C94  1  0.49748189  0.36516175  0.42305198  1
  C  C95  1  0.84925334  0.49443558  0.42637356  1
  C  C96  1  0.36327869  0.49455141  0.07787481  1
  C  C97  1  0.13525523  0.64630720  0.07734276  1
  C  C98  1  0.50722350  0.86643167  0.07512466  1
  C  C99  1  0.35739565  0.86584733  0.58088894  1
  C  C100  1  0.50391812  0.63733402  0.57942515  1
  C  C101  1  0.13593853  0.48972615  0.57838076  1
  C  C102  1  0.30919409  0.83567386  0.25417744  1
  C  C103  1  0.52373412  0.68401842  0.25492238  1
  C  C104  1  0.16526627  0.47222747  0.25419882  1
  C  C105  1  0.31424863  0.47441906  0.75802846  1
  C  C106  1  0.16454196  0.69410036  0.75713900  1
  C  C107  1  0.52566845  0.83816051  0.75934682  1
