# generated using pymatgen
data_Cu3Ni6C31
_symmetry_space_group_name_H-M   'P 1'
_cell_length_a   9.33164928
_cell_length_b   9.33836072
_cell_length_c   23.31764311
_cell_angle_alpha   90.11567814
_cell_angle_beta   89.98858476
_cell_angle_gamma   119.92806678
_symmetry_Int_Tables_number   1
_chemical_formula_structural   Cu3Ni6C31
_chemical_formula_sum   'Cu9 Ni18 C93'
_cell_volume   1760.99289233
_cell_formula_units_Z   3
loop_
 _symmetry_equiv_pos_site_id
 _symmetry_equiv_pos_as_xyz
  1  'x, y, z'
loop_
 _atom_site_type_symbol
 _atom_site_label
 _atom_site_symmetry_multiplicity
 _atom_site_fract_x
 _atom_site_fract_y
 _atom_site_fract_z
 _atom_site_occupancy
  Ni  Ni0  1  0.36467148  0.36552786  0.25362830  1
  Ni  Ni1  1  0.64005309  0.64200355  0.74554870  1
  Ni  Ni2  1  0.99285715  0.34292799  0.74940666  1
  Ni  Ni3  1  0.29704462  0.34623938  0.58262478  1
  Ni  Ni4  1  0.02552299  0.68886240  0.57764529  1
  Ni  Ni5  1  0.67443802  0.95917265  0.58017523  1
  Ni  Ni6  1  0.28870059  0.96141134  0.07733827  1
  Ni  Ni7  1  0.65975008  0.68651923  0.07981720  1
  Ni  Ni8  1  0.04815799  0.34648273  0.08007174  1
  Ni  Ni9  1  0.31855346  0.29603367  0.91066413  1
  Ni  Ni10  1  0.98393699  0.30562783  0.41372891  1
  Ni  Ni11  1  0.68927071  0.67638310  0.41391977  1
  Ni  Ni12  1  0.00364881  0.99929588  0.49255574  1
  Ni  Ni13  1  0.99452501  0.98484251  0.98976322  1
  Ni  Ni14  1  0.65182781  0.30332457  0.82978222  1
  Ni  Ni15  1  0.66450103  0.31579785  0.33129079  1
  Ni  Ni16  1  0.32250568  0.66967808  0.17195500  1
  Ni  Ni17  1  0.33927284  0.66642203  0.66687255  1
  Cu  Cu18  1  0.00421416  0.99463774  0.34986462  1
  Cu  Cu19  1  0.99780318  0.99807670  0.85044604  1
  Cu  Cu20  1  0.99665436  0.00571618  0.65467806  1
  Cu  Cu21  1  0.99944745  0.99424011  0.15021075  1
  Cu  Cu22  1  0.65830395  0.32666477  0.68491857  1
  Cu  Cu23  1  0.67494770  0.33869509  0.18412991  1
  Cu  Cu24  1  0.33222626  0.66886546  0.01221681  1
  Cu  Cu25  1  0.33354499  0.66867620  0.51028750  1
  Cu  Cu26  1  0.33356442  0.67896193  0.32282418  1
  C  C27  1  0.67219979  0.34257540  0.97684285  1
  C  C28  1  0.66788147  0.33449396  0.48152647  1
  C  C29  1  0.33808373  0.67529129  0.82286968  1
  C  C30  1  0.30525128  0.31610414  0.75348270  1
  C  C31  1  0.69108208  0.99248671  0.75052425  1
  C  C32  1  0.96313143  0.33440435  0.58409324  1
  C  C33  1  0.66745193  0.63023466  0.58383472  1
  C  C34  1  0.96014864  0.62623445  0.08140765  1
  C  C35  1  0.37374122  0.33292112  0.08247951  1
  C  C36  1  0.63234533  0.66368561  0.91942239  1
  C  C37  1  0.03273562  0.37031598  0.91826866  1
  C  C38  1  0.33940976  0.97374267  0.92101880  1
  C  C39  1  0.64203857  0.97667153  0.42059151  1
  C  C40  1  0.33783903  0.36308368  0.41777247  1
  C  C41  1  0.02228512  0.66154527  0.42146844  1
  C  C42  1  0.30475421  0.00124118  0.24728255  1
  C  C43  1  0.68905622  0.69337860  0.24992944  1
  C  C44  1  0.00498773  0.30405956  0.25021566  1
  C  C45  1  0.00747409  0.69722637  0.74993629  1
  C  C46  1  0.36959623  0.03740896  0.58192035  1
  C  C47  1  0.66801486  0.04345437  0.08147627  1
  C  C48  1  0.21308583  0.01574203  0.29609228  1
  C  C49  1  0.78462273  0.77988267  0.30130946  1
  C  C50  1  0.99452743  0.20771119  0.30183202  1
  C  C51  1  0.22101867  0.21100896  0.80599390  1
  C  C52  1  0.98551677  0.78406917  0.79813765  1
  C  C53  1  0.81055467  0.01465725  0.79844317  1
  C  C54  1  0.74786302  0.95064924  0.69299460  1
  C  C55  1  0.20344396  0.24301675  0.69746053  1
  C  C56  1  0.03119612  0.78791451  0.69518887  1
  C  C57  1  0.77290248  0.78503130  0.19658590  1
  C  C58  1  0.01563894  0.21876570  0.19710101  1
  C  C59  1  0.21531904  0.98798284  0.19239749  1
  C  C60  1  0.88295892  0.34974044  0.63927806  1
  C  C61  1  0.46592150  0.11291906  0.63428629  1
  C  C62  1  0.64810198  0.53281562  0.63882417  1
  C  C63  1  0.88188742  0.52218123  0.13436193  1
  C  C64  1  0.64685605  0.11766544  0.13374219  1
  C  C65  1  0.47032826  0.34951985  0.13739930  1
  C  C66  1  0.47440549  0.32011408  0.02925572  1
  C  C67  1  0.84853450  0.52558521  0.02803278  1
  C  C68  1  0.68373835  0.14768310  0.03052280  1
  C  C69  1  0.45951779  0.14145676  0.53131663  1
  C  C70  1  0.67431541  0.52641750  0.53100317  1
  C  C71  1  0.84960087  0.32217453  0.53157466  1
  C  C72  1  0.55727856  0.68001128  0.97568861  1
  C  C73  1  0.12972275  0.44587729  0.97369095  1
  C  C74  1  0.32142407  0.88580392  0.97792445  1
  C  C75  1  0.57035732  0.87804950  0.47661015  1
  C  C76  1  0.31403695  0.44441004  0.47194274  1
  C  C77  1  0.11502322  0.68544801  0.47830881  1
  C  C78  1  0.10272521  0.62431045  0.37109954  1
  C  C79  1  0.53299569  0.89539974  0.36880568  1
  C  C80  1  0.37637789  0.47338413  0.36421010  1
  C  C81  1  0.12733968  0.48768990  0.86561697  1
  C  C82  1  0.35536098  0.87017808  0.87013195  1
  C  C83  1  0.51027713  0.64007272  0.86761902  1
  C  C84  1  0.98256183  0.80172220  0.41382862  1
  C  C85  1  0.81884177  0.00172023  0.41406770  1
  C  C86  1  0.18155549  0.19285594  0.41187274  1
  C  C87  1  0.01988728  0.20202118  0.91058608  1
  C  C88  1  0.19579167  0.00573902  0.91237151  1
  C  C89  1  0.80483083  0.80409620  0.91086267  1
  C  C90  1  0.97690140  0.17489030  0.58206316  1
  C  C91  1  0.20496699  0.02593286  0.58384953  1
  C  C92  1  0.83162013  0.79888448  0.58220878  1
  C  C93  1  0.96312165  0.79456506  0.08113496  1
  C  C94  1  0.82145350  0.03065135  0.08339631  1
  C  C95  1  0.20017920  0.17359892  0.08113825  1
  C  C96  1  0.67812194  0.15041371  0.74755835  1
  C  C97  1  0.48626522  0.35429754  0.74977610  1
  C  C98  1  0.85948795  0.52854533  0.74714225  1
  C  C99  1  0.66863346  0.52371897  0.24969765  1
  C  C100  1  0.85821536  0.32487737  0.24884221  1
  C  C101  1  0.46854900  0.15754182  0.24717369  1
  C  C102  1  0.62768166  0.49025729  0.92030630  1
  C  C103  1  0.85751725  0.35559342  0.92143923  1
  C  C104  1  0.50387882  0.14793410  0.92125316  1
  C  C105  1  0.66598170  0.15677387  0.42677352  1
  C  C106  1  0.49755975  0.34665945  0.42667079  1
  C  C107  1  0.84407983  0.49694186  0.42631200  1
  C  C108  1  0.35455473  0.48868294  0.07826006  1
  C  C109  1  0.13842392  0.65542300  0.07727313  1
  C  C110  1  0.52174786  0.87400715  0.07681218  1
  C  C111  1  0.34909181  0.86923907  0.57715534  1
  C  C112  1  0.51482800  0.65452827  0.57912420  1
  C  C113  1  0.13732118  0.49035891  0.57913174  1
  C  C114  1  0.32497706  0.85451012  0.25116669  1
  C  C115  1  0.51956796  0.67242961  0.25071983  1
  C  C116  1  0.16207963  0.46723992  0.25167813  1
  C  C117  1  0.31383403  0.49228923  0.76033601  1
  C  C118  1  0.15641692  0.67547355  0.75796499  1
  C  C119  1  0.51524545  0.83329860  0.76253880  1
