# generated using pymatgen
data_Cu3(NiC6)2
_symmetry_space_group_name_H-M   'P 1'
_cell_length_a   4.89842000
_cell_length_b   13.36409300
_cell_length_c   17.96297209
_cell_angle_alpha   53.61015568
_cell_angle_beta   90.00000000
_cell_angle_gamma   90.00000000
_symmetry_Int_Tables_number   1
_chemical_formula_structural   Cu3(NiC6)2
_chemical_formula_sum   'Cu12 Ni8 C48'
_cell_volume   946.60550921
_cell_formula_units_Z   4
loop_
 _symmetry_equiv_pos_site_id
 _symmetry_equiv_pos_as_xyz
  1  'x, y, z'
loop_
 _atom_site_type_symbol
 _atom_site_label
 _atom_site_symmetry_multiplicity
 _atom_site_fract_x
 _atom_site_fract_y
 _atom_site_fract_z
 _atom_site_occupancy
  Ni  Ni0  1  0.70849300  0.11183700  0.06271000  1
  Ni  Ni1  1  0.20849300  0.88816300  0.43729000  1
  Ni  Ni2  1  0.29150700  0.88816300  0.93729000  1
  Ni  Ni3  1  0.79150700  0.11183700  0.56271000  1
  Ni  Ni4  1  0.92584900  0.35695700  0.21638900  1
  Ni  Ni5  1  0.42584900  0.64304300  0.28361100  1
  Ni  Ni6  1  0.07415100  0.64304300  0.78361100  1
  Ni  Ni7  1  0.57415100  0.35695700  0.71638900  1
  Cu  Cu8  1  0.14500200  0.16274000  0.89279400  1
  Cu  Cu9  1  0.64500200  0.83726000  0.60720600  1
  Cu  Cu10  1  0.85499800  0.83726000  0.10720600  1
  Cu  Cu11  1  0.35499800  0.16274000  0.39279400  1
  Cu  Cu12  1  0.16913700  0.17095000  0.17663500  1
  Cu  Cu13  1  0.66913700  0.82905000  0.32336500  1
  Cu  Cu14  1  0.83086300  0.82905000  0.82336500  1
  Cu  Cu15  1  0.33086300  0.17095000  0.67663500  1
  Cu  Cu16  1  0.44114800  0.55777300  0.11009600  1
  Cu  Cu17  1  0.94114800  0.44222700  0.38990400  1
  Cu  Cu18  1  0.55885200  0.44222700  0.88990400  1
  Cu  Cu19  1  0.05885200  0.55777300  0.61009600  1
  C  C20  1  0.14596600  0.27003100  0.79221200  1
  C  C21  1  0.64596600  0.72996900  0.70778800  1
  C  C22  1  0.85403400  0.72996900  0.20778800  1
  C  C23  1  0.35403400  0.27003100  0.29221200  1
  C  C24  1  0.95624300  0.20108300  0.93831300  1
  C  C25  1  0.45624300  0.79891700  0.56168700  1
  C  C26  1  0.04375700  0.79891700  0.06168700  1
  C  C27  1  0.54375700  0.20108300  0.43831300  1
  C  C28  1  0.42239300  0.13649500  0.93056000  1
  C  C29  1  0.92239300  0.86350500  0.56944000  1
  C  C30  1  0.57760700  0.86350500  0.06944000  1
  C  C31  1  0.07760700  0.13649500  0.43056000  1
  C  C32  1  0.02689600  0.05094600  0.90387700  1
  C  C33  1  0.52689600  0.94905400  0.59612300  1
  C  C34  1  0.97310400  0.94905400  0.09612300  1
  C  C35  1  0.47310400  0.05094600  0.40387700  1
  C  C36  1  0.06299800  0.14126200  0.11130900  1
  C  C37  1  0.46489800  0.17096800  0.17132000  1
  C  C38  1  0.53510200  0.82903200  0.82868000  1
  C  C39  1  0.03510200  0.17096800  0.67132000  1
  C  C40  1  0.96183200  0.55734400  0.68740000  1
  C  C41  1  0.46183200  0.44265600  0.81260000  1
  C  C42  1  0.03816800  0.44265600  0.31260000  1
  C  C43  1  0.53816800  0.55734400  0.18740000  1
  C  C44  1  0.35860400  0.51605300  0.62458300  1
  C  C45  1  0.85860400  0.48394700  0.87541700  1
  C  C46  1  0.64139600  0.48394700  0.37541700  1
  C  C47  1  0.14139600  0.51605300  0.12458300  1
  C  C48  1  0.05731300  0.68034600  0.51984700  1
  C  C49  1  0.55731300  0.31965400  0.98015300  1
  C  C50  1  0.94268700  0.31965400  0.48015300  1
  C  C51  1  0.44268700  0.68034600  0.01984700  1
  C  C52  1  0.88912900  0.46819000  0.60492900  1
  C  C53  1  0.38912900  0.53181000  0.89507100  1
  C  C54  1  0.11087100  0.53181000  0.39507100  1
  C  C55  1  0.61087100  0.46819000  0.10492900  1
  C  C56  1  0.44669000  0.08667300  0.76941600  1
  C  C57  1  0.94669000  0.91332700  0.73058400  1
  C  C58  1  0.55331000  0.91332700  0.23058400  1
  C  C59  1  0.05331000  0.08667300  0.26941600  1
  C  C60  1  0.43965000  0.30273500  0.63395400  1
  C  C61  1  0.93965000  0.69726500  0.86604600  1
  C  C62  1  0.56035000  0.69726500  0.36604600  1
  C  C63  1  0.06035000  0.30273500  0.13395400  1
  C  C64  1  0.43700200  0.14126200  0.61130900  1
  C  C65  1  0.93700200  0.85873800  0.88869100  1
  C  C66  1  0.56299800  0.85873800  0.38869100  1
  C  C67  1  0.96489800  0.82903200  0.32868000  1
