# generated using pymatgen
data_Cu3NiC6
_symmetry_space_group_name_H-M   'P 1'
_cell_length_a   3.47383104
_cell_length_b   3.47375631
_cell_length_c   20.00922735
_cell_angle_alpha   90.39662850
_cell_angle_beta   89.61219166
_cell_angle_gamma   119.99447139
_symmetry_Int_Tables_number   1
_chemical_formula_structural   Cu3NiC6
_chemical_formula_sum   'Cu3 Ni1 C6'
_cell_volume   209.11231432
_cell_formula_units_Z   1
loop_
 _symmetry_equiv_pos_site_id
 _symmetry_equiv_pos_as_xyz
  1  'x, y, z'
loop_
 _atom_site_type_symbol
 _atom_site_label
 _atom_site_symmetry_multiplicity
 _atom_site_fract_x
 _atom_site_fract_y
 _atom_site_fract_z
 _atom_site_occupancy
  Ni  Ni0  1  0.66115700  0.33879700  0.80455100  1
  Cu  Cu1  1  0.00168400  0.99880900  0.99891100  1
  Cu  Cu2  1  0.99342700  0.99886400  0.34862200  1
  Cu  Cu3  1  0.99807100  0.00196800  0.64753700  1
  C  C4  1  0.33309800  0.66734800  0.06637200  1
  C  C5  1  0.33466700  0.66839500  0.41856100  1
  C  C6  1  0.32981800  0.67010500  0.73292200  1
  C  C7  1  0.67168400  0.33152600  0.27871500  1
  C  C8  1  0.66624400  0.33362900  0.58291300  1
  C  C9  1  0.67056300  0.32984700  0.92422700  1
