# generated using pymatgen
data_Cu3Ni3C28
_symmetry_space_group_name_H-M   'P 1'
_cell_length_a   8.87204530
_cell_length_b   8.88967389
_cell_length_c   22.89077456
_cell_angle_alpha   90.21766627
_cell_angle_beta   89.90114733
_cell_angle_gamma   119.80382689
_symmetry_Int_Tables_number   1
_chemical_formula_structural   Cu3Ni3C28
_chemical_formula_sum   'Cu9 Ni9 C84'
_cell_volume   1566.58033059
_cell_formula_units_Z   3
loop_
 _symmetry_equiv_pos_site_id
 _symmetry_equiv_pos_as_xyz
  1  'x, y, z'
loop_
 _atom_site_type_symbol
 _atom_site_label
 _atom_site_symmetry_multiplicity
 _atom_site_fract_x
 _atom_site_fract_y
 _atom_site_fract_z
 _atom_site_occupancy
  C  C0  1  0.68048574  0.34172260  0.69041022  1
  C  C1  1  0.66233630  0.33598813  0.18690824  1
  C  C2  1  0.99988797  0.00020790  0.36091549  1
  C  C3  1  0.99757239  0.98730726  0.85927625  1
  C  C4  1  0.00235150  0.00013660  0.64564555  1
  C  C5  1  0.00491495  0.00441238  0.14010828  1
  C  C6  1  0.65170028  0.32980438  0.97142476  1
  C  C7  1  0.67793349  0.32972109  0.47529062  1
  C  C8  1  0.33298538  0.65525530  0.01767254  1
  C  C9  1  0.32555776  0.65888500  0.52273346  1
  C  C10  1  0.33483832  0.66580997  0.31474425  1
  C  C11  1  0.32321894  0.66617558  0.81113349  1
  Ni  Ni12  1  0.99204249  0.70425337  0.74893446  1
  Ni  Ni13  1  0.95076252  0.33086402  0.58718654  1
  Ni  Ni14  1  0.39174518  0.34306299  0.08591387  1
  Ni  Ni15  1  0.61621259  0.66820074  0.91379861  1
  Ni  Ni16  1  0.04299709  0.37627068  0.91503016  1
  Ni  Ni17  1  0.33078309  0.94570903  0.91722006  1
  Ni  Ni18  1  0.61408264  0.94844807  0.41837169  1
  Ni  Ni19  1  0.33951138  0.38302522  0.41769799  1
  Ni  Ni20  1  0.04888448  0.66537851  0.41738780  1
  Cu  Cu21  1  0.28812742  0.00112139  0.24945263  1
  Cu  Cu22  1  0.71456541  0.71215192  0.24962838  1
  Cu  Cu23  1  0.99694902  0.28615080  0.24920978  1
  Cu  Cu24  1  0.28958488  0.28621451  0.74999329  1
  Cu  Cu25  1  0.71228529  0.00087179  0.75034875  1
  Cu  Cu26  1  0.38197869  0.04803185  0.58464494  1
  Cu  Cu27  1  0.66601806  0.61935339  0.58446322  1
  Cu  Cu28  1  0.95381080  0.61673868  0.08508220  1
  Cu  Cu29  1  0.66289011  0.04630788  0.08498018  1
  C  C30  1  0.20068504  0.02482064  0.30140144  1
  C  C31  1  0.82333317  0.80077038  0.30211805  1
  C  C32  1  0.97449124  0.17730347  0.30116781  1
  C  C33  1  0.20356673  0.17920652  0.80159925  1
  C  C34  1  0.98239939  0.81876444  0.80519825  1
  C  C35  1  0.82320622  0.02814001  0.80208567  1
  C  C36  1  0.79995136  0.97246231  0.69725855  1
  C  C37  1  0.17251231  0.20398129  0.69643197  1
  C  C38  1  0.03062812  0.84259408  0.69353843  1
  C  C39  1  0.79656902  0.82550415  0.19770018  1
  C  C40  1  0.02706048  0.19973913  0.19675586  1
  C  C41  1  0.17197167  0.97093261  0.19714254  1
  C  C42  1  0.86493958  0.36581184  0.64059341  1
  C  C43  1  0.48424294  0.12426899  0.63651844  1
  C  C44  1  0.63167855  0.51351952  0.63580660  1
  C  C45  1  0.87902696  0.51585775  0.13740753  1
  C  C46  1  0.64276989  0.12523047  0.13756456  1
  C  C47  1  0.49600978  0.36427009  0.14295947  1
  C  C48  1  0.47244570  0.30296222  0.02697162  1
  C  C49  1  0.84715304  0.54775074  0.03248319  1
  C  C50  1  0.70324044  0.15355949  0.03233494  1
  C  C51  1  0.45702874  0.15420857  0.53093607  1
  C  C52  1  0.69617123  0.54299687  0.53085827  1
  C  C53  1  0.83322650  0.30518121  0.52616131  1
  C  C54  1  0.53039984  0.69780897  0.97363448  1
  C  C55  1  0.16728319  0.46962985  0.97288287  1
  C  C56  1  0.30231243  0.83159058  0.97556311  1
  C  C57  1  0.53007733  0.82869120  0.47403658  1
  C  C58  1  0.29938433  0.47127221  0.47288437  1
  C  C59  1  0.17217924  0.70302609  0.47330952  1
  C  C60  1  0.13961653  0.63623283  0.35856752  1
  C  C61  1  0.49665895  0.85886174  0.35861730  1
  C  C62  1  0.36321542  0.50241567  0.35888623  1
  C  C63  1  0.13663360  0.50461541  0.85955706  1
  C  C64  1  0.36693460  0.86120750  0.85962254  1
  C  C65  1  0.49512146  0.63278688  0.85799264  1
  C  C66  1  0.02686262  0.83441251  0.40287305  1
  C  C67  1  0.80731833  0.97538331  0.40265249  1
  C  C68  1  0.16699046  0.19429207  0.40223419  1
  C  C69  1  0.02531653  0.19064915  0.90271573  1
  C  C70  1  0.16892035  0.97884335  0.90679790  1
  C  C71  1  0.80745889  0.83708055  0.90720177  1
  C  C72  1  0.98023988  0.16178395  0.59476451  1
  C  C73  1  0.20239091  0.02619623  0.59109607  1
  C  C74  1  0.82227297  0.79782306  0.59192456  1
  C  C75  1  0.97267763  0.79916696  0.09511150  1
  C  C76  1  0.82400153  0.02247202  0.09481180  1
  C  C77  1  0.18678356  0.16436042  0.09638566  1
  C  C78  1  0.68918727  0.14871773  0.74134234  1
  C  C79  1  0.45670403  0.30080807  0.73931199  1
  C  C80  1  0.82570160  0.52471697  0.74330086  1
  C  C81  1  0.69784700  0.54271587  0.24300245  1
  C  C82  1  0.84612637  0.30548410  0.24024660  1
  C  C83  1  0.45888937  0.15030661  0.24192350  1
  C  C84  1  0.64406041  0.50282903  0.92767531  1
  C  C85  1  0.85808852  0.36007864  0.93255471  1
  C  C86  1  0.50302711  0.13739866  0.92657764  1
  C  C87  1  0.63655264  0.13992480  0.42592793  1
  C  C88  1  0.50249876  0.35751656  0.42980945  1
  C  C89  1  0.85646477  0.50166755  0.42681991  1
  C  C90  1  0.34978724  0.49951533  0.07273221  1
  C  C91  1  0.13209172  0.64973634  0.07638107  1
  C  C92  1  0.51513667  0.87071567  0.07634649  1
  C  C93  1  0.35832980  0.87176272  0.57441426  1
  C  C94  1  0.51470728  0.64658790  0.57381845  1
  C  C95  1  0.14575906  0.49843023  0.57095839  1
  C  C96  1  0.29915841  0.84016214  0.25683599  1
  C  C97  1  0.54010219  0.69804871  0.25777867  1
  C  C98  1  0.15712154  0.45785287  0.25672343  1
  C  C99  1  0.30192321  0.45825547  0.75662478  1
  C  C100  1  0.17519160  0.69993844  0.75947976  1
  C  C101  1  0.54317059  0.83880928  0.75668926  1
