# generated using pymatgen
data_Cu2NiC6
_symmetry_space_group_name_H-M   'P 1'
_cell_length_a   5.26521248
_cell_length_b   5.67004099
_cell_length_c   6.48300208
_cell_angle_alpha   64.18624254
_cell_angle_beta   60.74719554
_cell_angle_gamma   89.43264967
_symmetry_Int_Tables_number   1
_chemical_formula_structural   Cu2NiC6
_chemical_formula_sum   'Cu2 Ni1 C6'
_cell_volume   146.85199422
_cell_formula_units_Z   1
loop_
 _symmetry_equiv_pos_site_id
 _symmetry_equiv_pos_as_xyz
  1  'x, y, z'
loop_
 _atom_site_type_symbol
 _atom_site_label
 _atom_site_symmetry_multiplicity
 _atom_site_fract_x
 _atom_site_fract_y
 _atom_site_fract_z
 _atom_site_occupancy
  Ni  Ni0  1  0.50000000  0.00000000  -0.00000000  1
  Cu  Cu1  1  -0.00000000  0.00000000  -0.00000000  1
  Cu  Cu2  1  0.50000000  0.50000000  -0.00000000  1
  C  C3  1  0.77883580  0.30923704  0.38012897  1
  C  C4  1  0.22116420  0.69076296  0.61987103  1
  C  C5  1  0.63021007  0.15754820  0.17064776  1
  C  C6  1  0.36978993  0.84245180  0.82935224  1
  C  C7  1  0.63056443  0.67257071  0.17330391  1
  C  C8  1  0.36943557  0.32742929  0.82669609  1
