# generated using pymatgen
data_Cu4NiC48
_symmetry_space_group_name_H-M   'P 1'
_cell_length_a   8.72430229
_cell_length_b   8.72254740
_cell_length_c   8.75925078
_cell_angle_alpha   91.55498355
_cell_angle_beta   89.70739674
_cell_angle_gamma   89.36051953
_symmetry_Int_Tables_number   1
_chemical_formula_structural   Cu4NiC48
_chemical_formula_sum   'Cu4 Ni1 C48'
_cell_volume   666.26596961
_cell_formula_units_Z   1
loop_
 _symmetry_equiv_pos_site_id
 _symmetry_equiv_pos_as_xyz
  1  'x, y, z'
loop_
 _atom_site_type_symbol
 _atom_site_label
 _atom_site_symmetry_multiplicity
 _atom_site_fract_x
 _atom_site_fract_y
 _atom_site_fract_z
 _atom_site_occupancy
  Ni  Ni0  1  0.01912900  0.82428800  0.22133100  1
  Cu  Cu1  1  0.83135900  0.62391800  0.39188100  1
  Cu  Cu2  1  0.63565100  0.36063000  0.85422600  1
  Cu  Cu3  1  0.36501200  0.85496300  0.64224900  1
  Cu  Cu4  1  0.13785700  0.15577600  0.14258400  1
  C  C5  1  0.67977600  0.99070800  0.79631700  1
  C  C6  1  0.69369600  0.30701500  0.44984200  1
  C  C7  1  0.80439500  0.70742100  0.94472300  1
  C  C8  1  0.80071900  0.00382100  0.33152900  1
  C  C9  1  0.04577200  0.67089900  0.69692100  1
  C  C10  1  0.19534700  0.52278900  0.17847900  1
  C  C11  1  0.20037400  0.18858400  0.55456300  1
  C  C12  1  0.31339400  0.80200100  0.03640200  1
  C  C13  1  0.32422400  0.48493500  0.69017500  1
  C  C14  1  0.46788900  0.32267700  0.18856000  1
  C  C15  1  0.52218500  0.81766800  0.30861100  1
  C  C16  1  0.95833400  0.17369200  0.80494000  1
  C  C17  1  0.61243800  0.67968700  0.35182600  1
  C  C18  1  0.96432600  0.72722400  0.85358300  1
  C  C19  1  0.87699100  0.86716400  0.40724500  1
  C  C20  1  0.92771700  0.60182700  0.59497200  1
  C  C21  1  0.04312300  0.21848300  0.65019900  1
  C  C22  1  0.10540300  0.39264300  0.11495600  1
  C  C23  1  0.06887300  0.11386900  0.91841900  1
  C  C24  1  0.11795900  0.63009800  0.29543800  1
  C  C25  1  0.13984200  0.80266900  0.64156600  1
  C  C26  1  0.15722500  0.53619300  0.75615300  1
  C  C27  1  0.15809700  0.15741800  0.39209400  1
  C  C28  1  0.19668700  0.90589600  0.11782200  1
  C  C29  1  0.24864400  0.63096500  0.03835300  1
  C  C30  1  0.27806800  0.35742500  0.56309800  1
  C  C31  1  0.30201700  0.07758200  0.63795100  1
  C  C32  1  0.35918700  0.83689500  0.87723200  1
  C  C33  1  0.35890600  0.46839400  0.24303000  1
  C  C34  1  0.37212400  0.19054800  0.13811900  1
  C  C35  1  0.41221000  0.41159900  0.81723800  1
  C  C36  1  0.39190400  0.86831700  0.41214500  1
  C  C37  1  0.39590800  0.62035300  0.61531100  1
  C  C38  1  0.46430900  0.79134500  0.13678600  1
  C  C39  1  0.53990200  0.28307800  0.35230300  1
  C  C40  1  0.85774300  0.30852000  0.85328500  1
  C  C41  1  0.59142600  0.37676500  0.08223100  1
  C  C42  1  0.59525500  0.90738300  0.66918100  1
  C  C43  1  0.90016700  0.04905600  0.19881100  1
  C  C44  1  0.63253100  0.96082300  0.27525800  1
  C  C45  1  0.64925700  0.34758400  0.61129000  1
  C  C46  1  0.70524100  0.58507200  0.87666300  1
  C  C47  1  0.72048500  0.87165900  0.92798300  1
  C  C48  1  0.76488000  0.13410200  0.45448400  1
  C  C49  1  0.80636500  0.39787000  0.36158800  1
  C  C50  1  0.85390300  0.70354900  0.10966200  1
  C  C51  1  0.84924200  0.03536600  0.73970400  1
  C  C52  1  0.60215800  0.12984800  0.86817500  1
