# generated using pymatgen
data_Cu2NiC16
_symmetry_space_group_name_H-M   'P 1'
_cell_length_a   4.90765490
_cell_length_b   5.11611272
_cell_length_c   10.02551000
_cell_angle_alpha   85.25305826
_cell_angle_beta   86.54955267
_cell_angle_gamma   88.24690517
_symmetry_Int_Tables_number   1
_chemical_formula_structural   Cu2NiC16
_chemical_formula_sum   'Cu2 Ni1 C16'
_cell_volume   250.32048079
_cell_formula_units_Z   1
loop_
 _symmetry_equiv_pos_site_id
 _symmetry_equiv_pos_as_xyz
  1  'x, y, z'
loop_
 _atom_site_type_symbol
 _atom_site_label
 _atom_site_symmetry_multiplicity
 _atom_site_fract_x
 _atom_site_fract_y
 _atom_site_fract_z
 _atom_site_occupancy
  Ni  Ni0  1  0.50640200  0.06525300  0.08617400  1
  Cu  Cu1  1  0.99903500  0.01802800  0.33042900  1
  Cu  Cu2  1  0.48207000  0.45914900  0.82124200  1
  C  C3  1  0.04532600  0.94925800  0.95192300  1
  C  C4  1  0.97098700  0.96617100  0.64490700  1
  C  C5  1  0.52363000  0.53377100  0.19448800  1
  C  C6  1  0.48269600  0.48759900  0.50699400  1
  C  C7  1  0.13938400  0.73640000  0.79543400  1
  C  C8  1  0.25487700  0.83069000  0.18718700  1
  C  C9  1  0.19170800  0.79281500  0.50318400  1
  C  C10  1  0.35594000  0.40585000  0.03020100  1
  C  C11  1  0.31330100  0.33581900  0.35063200  1
  C  C12  1  0.27639500  0.26213300  0.65362200  1
  C  C13  1  0.72511900  0.76033400  0.03286700  1
  C  C14  1  0.69881500  0.67975000  0.35004300  1
  C  C15  1  0.67593900  0.66746000  0.64863200  1
  C  C16  1  0.78480100  0.23427300  0.17778000  1
  C  C17  1  0.78830700  0.12693800  0.81203500  1
  C  C18  1  0.78527100  0.18830700  0.50555700  1
