# generated using pymatgen
data_Cu12NiC24
_symmetry_space_group_name_H-M   'P 1'
_cell_length_a   9.74073839
_cell_length_b   14.50017992
_cell_length_c   3.08947590
_cell_angle_alpha   90.76567780
_cell_angle_beta   89.31058901
_cell_angle_gamma   90.32569632
_symmetry_Int_Tables_number   1
_chemical_formula_structural   Cu12NiC24
_chemical_formula_sum   'Cu12 Ni1 C24'
_cell_volume   436.28796586
_cell_formula_units_Z   1
loop_
 _symmetry_equiv_pos_site_id
 _symmetry_equiv_pos_as_xyz
  1  'x, y, z'
loop_
 _atom_site_type_symbol
 _atom_site_label
 _atom_site_symmetry_multiplicity
 _atom_site_fract_x
 _atom_site_fract_y
 _atom_site_fract_z
 _atom_site_occupancy
  Ni  Ni0  1  0.98403500  0.16767100  0.90680000  1
  Cu  Cu1  1  0.02860600  0.98940700  0.08181500  1
  Cu  Cu2  1  0.01861100  0.35568600  0.00102100  1
  Cu  Cu3  1  0.00363100  0.66705400  0.00516600  1
  Cu  Cu4  1  0.25912300  0.15675100  0.48285400  1
  Cu  Cu5  1  0.26124300  0.49381500  0.50024300  1
  Cu  Cu6  1  0.25971400  0.84489900  0.51745200  1
  Cu  Cu7  1  0.49697400  0.34676900  0.98227100  1
  Cu  Cu8  1  0.51106800  0.98170000  0.99493700  1
  Cu  Cu9  1  0.52529100  0.66859700  0.00459300  1
  Cu  Cu10  1  0.71808700  0.14386000  0.45634100  1
  Cu  Cu11  1  0.72171100  0.49970800  0.49403000  1
  Cu  Cu12  1  0.73610300  0.83129000  0.50139800  1
  C  C13  1  0.05520200  0.27197100  0.49236400  1
  C  C14  1  0.09536800  0.92425700  0.56088200  1
  C  C15  1  0.15100700  0.09704500  0.00192300  1
  C  C16  1  0.16174800  0.44249800  0.00043300  1
  C  C17  1  0.35350100  0.89333600  0.01465600  1
  C  C18  1  0.40758800  0.40435400  0.48906000  1
  C  C19  1  0.60667700  0.93013500  0.49099300  1
  C  C20  1  0.59312900  0.60073600  0.49891400  1
  C  C21  1  0.63058900  0.09621100  0.96168800  1
  C  C22  1  0.65742700  0.43031900  0.99105800  1
  C  C23  1  0.66137000  0.76561600  0.00014000  1
  C  C24  1  0.90429000  0.08750400  0.41615900  1
  C  C25  1  0.10964100  0.59979400  0.50634300  1
  C  C26  1  0.16764300  0.76458800  0.01678100  1
  C  C27  1  0.35196000  0.23887300  0.96526800  1
  C  C28  1  0.34848500  0.57129000  0.00237700  1
  C  C29  1  0.40730600  0.05163400  0.49358000  1
  C  C30  1  0.40641600  0.72840900  0.50795800  1
  C  C31  1  0.58401900  0.26718400  0.47136900  1
  C  C32  1  0.81116900  0.23579800  0.95891800  1
  C  C33  1  0.85161600  0.89806500  0.01513800  1
  C  C34  1  0.83964900  0.56521200  0.00212800  1
  C  C35  1  0.90695600  0.41743800  0.50069900  1
  C  C36  1  0.90590500  0.73719100  0.50391300  1
