# generated using pymatgen
data_Cu2NiC8
_symmetry_space_group_name_H-M   'P 1'
_cell_length_a   5.36578613
_cell_length_b   5.36585886
_cell_length_c   6.14495431
_cell_angle_alpha   64.10444190
_cell_angle_beta   64.10704131
_cell_angle_gamma   59.99855141
_symmetry_Int_Tables_number   1
_chemical_formula_structural   Cu2NiC8
_chemical_formula_sum   'Cu2 Ni1 C8'
_cell_volume   132.31277834
_cell_formula_units_Z   1
loop_
 _symmetry_equiv_pos_site_id
 _symmetry_equiv_pos_as_xyz
  1  'x, y, z'
loop_
 _atom_site_type_symbol
 _atom_site_label
 _atom_site_symmetry_multiplicity
 _atom_site_fract_x
 _atom_site_fract_y
 _atom_site_fract_z
 _atom_site_occupancy
  Ni  Ni0  1  0.16719900  0.16719600  0.49847900  1
  C  C1  1  0.81152000  0.81158600  0.56531600  1
  Cu  Cu2  1  0.98921500  0.98916500  0.03225900  1
  Cu  Cu3  1  0.55404300  0.55405000  0.33785300  1
  C  C4  1  0.35349200  0.35344800  0.93939400  1
  C  C5  1  0.19861300  0.90690300  0.29639000  1
  C  C6  1  0.90688700  0.59809200  0.29644900  1
  C  C7  1  0.59807800  0.19863700  0.29643000  1
  C  C8  1  0.77359200  0.08515600  0.75483300  1
  C  C9  1  0.08515300  0.38629300  0.75486700  1
  C  C10  1  0.38630800  0.77357100  0.75483500  1
