# generated using pymatgen
data_Cu12NiC7
_symmetry_space_group_name_H-M   'P 1'
_cell_length_a   8.13753559
_cell_length_b   8.13753559
_cell_length_c   8.13753605
_cell_angle_alpha   107.65243947
_cell_angle_beta   107.65243947
_cell_angle_gamma   107.65244110
_symmetry_Int_Tables_number   1
_chemical_formula_structural   Cu12NiC7
_chemical_formula_sum   'Cu12 Ni1 C7'
_cell_volume   440.53950547
_cell_formula_units_Z   1
loop_
 _symmetry_equiv_pos_site_id
 _symmetry_equiv_pos_as_xyz
  1  'x, y, z'
loop_
 _atom_site_type_symbol
 _atom_site_label
 _atom_site_symmetry_multiplicity
 _atom_site_fract_x
 _atom_site_fract_y
 _atom_site_fract_z
 _atom_site_occupancy
  C  C0  1  0.29829300  0.02814300  0.09888800  1
  C  C1  1  0.02814300  0.09888800  0.29829300  1
  C  C2  1  0.09888800  0.29829300  0.02814300  1
  C  C3  1  0.70170700  0.97185700  0.90111200  1
  C  C4  1  0.97185700  0.90111200  0.70170700  1
  C  C5  1  0.90111200  0.70170700  0.97185700  1
  C  C6  1  0.50000000  0.50000000  0.50000000  1
  Ni  Ni7  1  0.00000000  0.00000000  0.00000000  1
  Cu  Cu8  1  0.45854400  0.38089700  0.15500000  1
  Cu  Cu9  1  0.38089700  0.15500000  0.45854400  1
  Cu  Cu10  1  0.15500000  0.45854400  0.38089700  1
  Cu  Cu11  1  0.54145600  0.61910300  0.84500000  1
  Cu  Cu12  1  0.61910300  0.84500000  0.54145600  1
  Cu  Cu13  1  0.84500000  0.54145600  0.61910300  1
  Cu  Cu14  1  0.22192300  0.68964200  0.07601000  1
  Cu  Cu15  1  0.07601000  0.22192300  0.68964200  1
  Cu  Cu16  1  0.68964200  0.07601000  0.22192300  1
  Cu  Cu17  1  0.77807700  0.31035800  0.92399000  1
  Cu  Cu18  1  0.92399000  0.77807700  0.31035800  1
  Cu  Cu19  1  0.31035800  0.92399000  0.77807700  1
