# generated using pymatgen
data_Cu(NiC3)3
_symmetry_space_group_name_H-M   'P 1'
_cell_length_a   3.42001407
_cell_length_b   3.42002509
_cell_length_c   42.34581210
_cell_angle_alpha   90.87348706
_cell_angle_beta   89.12980239
_cell_angle_gamma   119.99057295
_symmetry_Int_Tables_number   1
_chemical_formula_structural   Cu(NiC3)3
_chemical_formula_sum   'Cu1 Ni3 C9'
_cell_volume   428.91622953
_cell_formula_units_Z   1
loop_
 _symmetry_equiv_pos_site_id
 _symmetry_equiv_pos_as_xyz
  1  'x, y, z'
loop_
 _atom_site_type_symbol
 _atom_site_label
 _atom_site_symmetry_multiplicity
 _atom_site_fract_x
 _atom_site_fract_y
 _atom_site_fract_z
 _atom_site_occupancy
  C  C0  1  0.34091700  0.65905500  0.38534000  1
  C  C1  1  0.32750900  0.67264000  0.70183200  1
  C  C2  1  0.67277200  0.32713900  0.04979400  1
  C  C3  1  0.66171900  0.33834000  0.13786200  1
  C  C4  1  0.33850100  0.66151500  0.61321900  1
  Ni  Ni5  1  0.33379300  0.66621300  0.09383500  1
  Ni  Ni6  1  0.34164700  0.65831600  0.47456700  1
  Ni  Ni7  1  0.66552700  0.33444200  0.27795200  1
  Cu  Cu8  1  0.66648800  0.33359400  0.65751800  1
  C  C9  1  0.32714100  0.67285500  0.31687400  1
  C  C10  1  0.33692200  0.66302600  0.23924800  1
  C  C11  1  0.68007000  0.31985300  0.43899900  1
  C  C12  1  0.67008800  0.32991500  0.50944100  1
