# generated using pymatgen
data_Cu2NiC10
_symmetry_space_group_name_H-M   'P 1'
_cell_length_a   6.48742072
_cell_length_b   6.48742145
_cell_length_c   5.91059713
_cell_angle_alpha   93.06530114
_cell_angle_beta   93.06530086
_cell_angle_gamma   108.58715685
_symmetry_Int_Tables_number   1
_chemical_formula_structural   Cu2NiC10
_chemical_formula_sum   'Cu2 Ni1 C10'
_cell_volume   234.79017552
_cell_formula_units_Z   1
loop_
 _symmetry_equiv_pos_site_id
 _symmetry_equiv_pos_as_xyz
  1  'x, y, z'
loop_
 _atom_site_type_symbol
 _atom_site_label
 _atom_site_symmetry_multiplicity
 _atom_site_fract_x
 _atom_site_fract_y
 _atom_site_fract_z
 _atom_site_occupancy
  C  C0  1  0.10557600  0.49044800  0.77306200  1
  C  C1  1  0.51227500  0.88688600  0.23078700  1
  C  C2  1  0.49044800  0.10557600  0.77306200  1
  C  C3  1  0.88688600  0.51227500  0.23078700  1
  Ni  Ni4  1  0.48233300  0.48233300  0.49380700  1
  Cu  Cu5  1  0.07548500  0.07548500  0.24332100  1
  Cu  Cu6  1  0.92563500  0.92563500  0.73413300  1
  C  C7  1  0.11860700  0.87526700  0.99176900  1
  C  C8  1  0.12803900  0.88453900  0.49229500  1
  C  C9  1  0.32887200  0.32887200  0.23641300  1
  C  C10  1  0.67145500  0.67145500  0.70899500  1
  C  C11  1  0.87526700  0.11860700  0.99176900  1
  C  C12  1  0.88453900  0.12803900  0.49229500  1
