# generated using pymatgen
data_Cu8Ni8C25
_symmetry_space_group_name_H-M   'P 1'
_cell_length_a   5.70620237
_cell_length_b   10.88139467
_cell_length_c   11.41226704
_cell_angle_alpha   55.56531574
_cell_angle_beta   52.88556108
_cell_angle_gamma   55.18952154
_symmetry_Int_Tables_number   1
_chemical_formula_structural   Cu8Ni8C25
_chemical_formula_sum   'Cu8 Ni8 C25'
_cell_volume   436.71285025
_cell_formula_units_Z   1
loop_
 _symmetry_equiv_pos_site_id
 _symmetry_equiv_pos_as_xyz
  1  'x, y, z'
loop_
 _atom_site_type_symbol
 _atom_site_label
 _atom_site_symmetry_multiplicity
 _atom_site_fract_x
 _atom_site_fract_y
 _atom_site_fract_z
 _atom_site_occupancy
  C  C0  1  0.83286800  0.35050300  0.17148900  1
  Ni  Ni1  1  0.40129700  0.15138700  0.19295300  1
  Ni  Ni2  1  0.13639300  0.07083000  0.58939500  1
  Ni  Ni3  1  0.16784400  0.58703300  0.04991600  1
  Ni  Ni4  1  0.15205700  0.58745100  0.55019500  1
  Ni  Ni5  1  0.85290200  0.42923000  0.41872400  1
  Ni  Ni6  1  0.86688400  0.43432300  0.88819700  1
  Ni  Ni7  1  0.88720400  0.91651400  0.42060600  1
  Ni  Ni8  1  0.82195300  0.92625300  0.93458300  1
  Cu  Cu9  1  0.14145200  0.07410400  0.07939700  1
  Cu  Cu10  1  0.35148300  0.67594900  0.17307600  1
  Cu  Cu11  1  0.33952100  0.15428300  0.71748500  1
  Cu  Cu12  1  0.53870600  0.27756000  0.44854200  1
  Cu  Cu13  1  0.35661800  0.67534200  0.66466600  1
  Cu  Cu14  1  0.62472900  0.33136400  0.81370200  1
  Cu  Cu15  1  0.67363000  0.81602500  0.32626500  1
  Cu  Cu16  1  0.64761800  0.82774700  0.81376500  1
  C  C17  1  0.10889200  0.37309900  0.19980000  1
  C  C18  1  0.44981000  0.03125900  0.37673600  1
  C  C19  1  0.73086800  0.22308700  0.03456600  1
  C  C20  1  0.20685800  0.28589400  0.44972400  1
  C  C21  1  0.55722200  0.50499600  0.07327900  1
  C  C22  1  0.04409200  0.38234300  0.71054400  1
  C  C23  1  0.05653300  0.87111800  0.23323200  1
  C  C24  1  0.98166800  0.12014200  0.27886200  1
  C  C25  1  0.46268900  0.00795800  0.89164900  1
  C  C26  1  0.46131000  0.51569700  0.37520800  1
  C  C27  1  0.77353600  0.20216800  0.55660800  1
  C  C28  1  0.77804600  0.71116100  0.03174000  1
  C  C29  1  0.18443900  0.30270200  0.96367100  1
  C  C30  1  0.25138500  0.78067000  0.46353100  1
  C  C31  1  0.56258100  0.47508000  0.60477000  1
  C  C32  1  0.57669000  0.97933700  0.11716800  1
  C  C33  1  0.05560400  0.88065300  0.71535900  1
  C  C34  1  0.94538100  0.11415800  0.78378300  1
  C  C35  1  0.96048500  0.61305700  0.27222800  1
  C  C36  1  0.43501600  0.52970800  0.86985500  1
  C  C37  1  0.76775100  0.71768300  0.52549100  1
  C  C38  1  0.21769100  0.79136000  0.95688600  1
  C  C39  1  0.55879600  0.98101500  0.60627200  1
  C  C40  1  0.94857100  0.62333300  0.76026600  1
