# generated using pymatgen
data_Cu2Ni4C7
_symmetry_space_group_name_H-M   'P 1'
_cell_length_a   3.34221400
_cell_length_b   3.34193668
_cell_length_c   44.63005100
_cell_angle_alpha   90.00030146
_cell_angle_beta   90.00000000
_cell_angle_gamma   120.00274508
_symmetry_Int_Tables_number   1
_chemical_formula_structural   Cu2Ni4C7
_chemical_formula_sum   'Cu2 Ni4 C7'
_cell_volume   431.69644451
_cell_formula_units_Z   1
loop_
 _symmetry_equiv_pos_site_id
 _symmetry_equiv_pos_as_xyz
  1  'x, y, z'
loop_
 _atom_site_type_symbol
 _atom_site_label
 _atom_site_symmetry_multiplicity
 _atom_site_fract_x
 _atom_site_fract_y
 _atom_site_fract_z
 _atom_site_occupancy
  C  C0  1  0.00002700  0.00005500  0.38616800  1
  C  C1  1  0.33337100  0.66674400  0.70014700  1
  C  C2  1  0.33336000  0.66672000  0.61513900  1
  C  C3  1  0.33335600  0.66671300  0.09376600  1
  C  C4  1  0.33328700  0.66657500  0.47529600  1
  C  C5  1  0.66666400  0.33332700  0.65765800  1
  C  C6  1  0.66668300  0.33336500  0.27455900  1
  Ni  Ni7  1  0.33335900  0.66672000  0.31226900  1
  Ni  Ni8  1  0.66666600  0.33333100  0.05638700  1
  Ni  Ni9  1  0.66669700  0.33339300  0.13113700  1
  Ni  Ni10  1  0.33336100  0.66672300  0.23705300  1
  Cu  Cu11  1  0.66658000  0.33315900  0.44043100  1
  Cu  Cu12  1  0.66658800  0.33317400  0.50894500  1
