# generated using pymatgen
data_Cu2Ni5C32
_symmetry_space_group_name_H-M   'P 1'
_cell_length_a   18.45451803
_cell_length_b   9.23467557
_cell_length_c   23.00565059
_cell_angle_alpha   89.74033241
_cell_angle_beta   91.16012237
_cell_angle_gamma   119.92898636
_symmetry_Int_Tables_number   1
_chemical_formula_structural   Cu2Ni5C32
_chemical_formula_sum   'Cu12 Ni30 C192'
_cell_volume   3397.04910576
_cell_formula_units_Z   6
loop_
 _symmetry_equiv_pos_site_id
 _symmetry_equiv_pos_as_xyz
  1  'x, y, z'
loop_
 _atom_site_type_symbol
 _atom_site_label
 _atom_site_symmetry_multiplicity
 _atom_site_fract_x
 _atom_site_fract_y
 _atom_site_fract_z
 _atom_site_occupancy
  Ni  Ni0  1  0.33247137  0.02733320  0.25813883  1
  Ni  Ni1  1  0.67474809  0.33225491  0.25689423  1
  Ni  Ni2  1  0.99909856  0.64669622  0.23741843  1
  Ni  Ni3  1  0.50060192  0.63961952  0.23537210  1
  Ni  Ni4  1  0.32557494  0.62535734  0.75970690  1
  Ni  Ni5  1  0.82538073  0.62535335  0.75820389  1
  Ni  Ni6  1  -0.00006306  0.36146042  0.73861021  1
  Ni  Ni7  1  0.50009802  0.36163564  0.73635333  1
  Ni  Ni8  1  0.17345382  0.01867041  0.75594619  1
  Ni  Ni9  1  0.67436939  0.01909997  0.75471764  1
  Ni  Ni10  1  0.33555440  0.97528157  0.56857426  1
  Ni  Ni11  1  0.83473636  0.97603645  0.56998713  1
  Ni  Ni12  1  0.33570648  0.69663891  0.06872759  1
  Ni  Ni13  1  0.83450995  0.69094798  0.06778274  1
  Ni  Ni14  1  0.48086923  0.67518180  0.90722677  1
  Ni  Ni15  1  0.98095798  0.67543272  0.90638136  1
  Ni  Ni16  1  0.48616793  0.29313314  0.40498467  1
  Ni  Ni17  1  0.16785506  0.02198252  0.40417422  1
  Ni  Ni18  1  0.98196428  0.00552228  0.49732213  1
  Ni  Ni19  1  0.49566220  0.99326613  0.49778163  1
  Ni  Ni20  1  0.99174746  0.99446974  0.99587612  1
  Ni  Ni21  1  0.49089505  0.99353291  0.99758954  1
  Ni  Ni22  1  0.32303112  0.34345460  0.83161647  1
  Ni  Ni23  1  0.82342859  0.34463690  0.83076188  1
  Ni  Ni24  1  0.32664381  0.32389780  0.32475670  1
  Ni  Ni25  1  0.81261305  0.26539754  0.33354501  1
  Ni  Ni26  1  0.14742753  0.66374512  0.16257597  1
  Ni  Ni27  1  0.64811990  0.68470547  0.16453846  1
  Ni  Ni28  1  0.14105410  0.61683942  0.66396355  1
  Ni  Ni29  1  0.64414159  0.62008760  0.66247274  1
  Cu  Cu30  1  0.99507945  0.00081829  0.35416870  1
  Cu  Cu31  1  0.50040461  0.99706510  0.35459923  1
  Cu  Cu32  1  0.99919536  0.00325645  0.85352586  1
  Cu  Cu33  1  0.49920543  0.00328632  0.85384557  1
  Cu  Cu34  1  0.33850823  0.34129436  0.68199422  1
  Cu  Cu35  1  0.83802814  0.34127047  0.68135539  1
  Cu  Cu36  1  0.33387435  0.33251106  0.18516478  1
  Cu  Cu37  1  0.83510620  0.32541073  0.18387643  1
  Cu  Cu38  1  0.16421049  0.66765915  0.02035369  1
  Cu  Cu39  1  0.66325217  0.66669470  0.02120187  1
  Cu  Cu40  1  0.16192785  0.65434657  0.52060694  1
  Cu  Cu41  1  0.66561951  0.66258578  0.51944450  1
  C  C42  1  0.14819863  0.98966607  0.25822709  1
  C  C43  1  0.64944608  0.99673927  0.25284945  1
  C  C44  1  0.50656819  0.30391299  0.25488536  1
  C  C45  1  0.14901952  0.30269840  0.75242996  1
  C  C46  1  0.64927446  0.30362919  0.75278633  1
  C  C47  1  0.00562784  0.71020562  0.75515729  1
  C  C48  1  0.50595907  0.71094542  0.75518604  1
  C  C49  1  0.48526457  0.31611766  0.58856096  1
  C  C50  1  0.98315889  0.31575954  0.59021091  1
  C  C51  1  0.48245118  0.65050432  0.08917448  1
  C  C52  1  0.98248077  0.64105915  0.08884249  1
  C  C53  1  0.31500379  0.66211493  0.92331475  1
  C  C54  1  0.81484617  0.66204502  0.92308743  1
  C  C55  1  0.31609381  0.97147290  0.42477888  1
  C  C56  1  0.81458702  0.96840752  0.42360703  1
  C  C57  1  0.00993002  0.01083019  0.65026344  1
  C  C58  1  0.51193340  0.01376309  0.65045617  1
  C  C59  1  0.00587973  0.99537326  0.14917345  1
  C  C60  1  0.51002343  0.00982287  0.15071588  1
  C  C61  1  0.33212282  0.34872326  0.98462413  1
  C  C62  1  0.83281016  0.34612650  0.98356036  1
  C  C63  1  0.33794974  0.32739416  0.48501908  1
  C  C64  1  0.83609862  0.31868166  0.48321974  1
  C  C65  1  0.16891475  0.67429004  0.31960455  1
  C  C66  1  0.67124163  0.68013437  0.31490680  1
  C  C67  1  0.16800018  0.66063536  0.81718184  1
  C  C68  1  0.66772929  0.66035531  0.81733649  1
  C  C69  1  0.34427963  0.70806967  0.24950294  1
  C  C70  1  0.84859527  0.71015789  0.24604971  1
  C  C71  1  0.01097255  0.30563075  0.24905905  1
  C  C72  1  0.34606384  0.98386308  0.74718599  1
  C  C73  1  0.84583200  0.98422808  0.74751473  1
  C  C74  1  0.18080267  0.04259153  0.58203790  1
  C  C75  1  0.68077555  0.04208336  0.58386344  1
  C  C76  1  0.34234618  0.63809275  0.58224885  1
  C  C77  1  0.84253062  0.63824787  0.58262919  1
  C  C78  1  0.34146766  0.04875687  0.08296241  1
  C  C79  1  0.84320840  0.04628960  0.08155911  1
  C  C80  1  0.17883081  0.31556112  0.08353655  1
  C  C81  1  0.68105009  0.31804438  0.08344723  1
  C  C82  1  0.01152273  0.37449391  0.91669137  1
  C  C83  1  0.51143766  0.37510891  0.91687645  1
  C  C84  1  0.17742570  0.97753693  0.91650379  1
  C  C85  1  0.67746447  0.97671171  0.91655218  1
  C  C86  1  0.17636463  0.37916781  0.41636173  1
  C  C87  1  0.67799746  0.37803537  0.41654602  1
  C  C88  1  0.01219629  0.64779700  0.41483319  1
  C  C89  1  0.51120132  0.64756765  0.41675613  1
  C  C90  1  0.10696551  0.99992433  0.31701684  1
  C  C91  1  0.60352719  0.01966635  0.30706616  1
  C  C92  1  0.39586853  0.78866793  0.30130068  1
  C  C93  1  0.90178039  0.79566574  0.29641018  1
  C  C94  1  0.48571682  0.19427867  0.31302788  1
  C  C95  1  0.00311908  0.20913250  0.30058672  1
  C  C96  1  0.10612629  0.18543684  0.80655929  1
  C  C97  1  0.60580147  0.18509907  0.80650268  1
  C  C98  1  0.48500534  0.77648839  0.81328100  1
  C  C99  1  0.98586454  0.77766330  0.81331734  1
  C  C100  1  0.39938480  0.01659518  0.79870364  1
  C  C101  1  0.89926919  0.01693236  0.79892395  1
  C  C102  1  0.38486143  0.96027297  0.69347933  1
  C  C103  1  0.88462982  0.95976162  0.69380160  1
  C  C104  1  0.08761308  0.22392413  0.69209600  1
  C  C105  1  0.58771412  0.22704121  0.69229127  1
  C  C106  1  0.02490093  0.84366293  0.69844306  1
  C  C107  1  0.52459398  0.84373635  0.69840351  1
  C  C108  1  0.38099760  0.81139362  0.19571741  1
  C  C109  1  0.88489268  0.80880079  0.19048872  1
  C  C110  1  0.01498266  0.22053350  0.19347338  1
  C  C111  1  0.52326331  0.20562975  0.19845335  1
  C  C112  1  0.08088216  0.95323604  0.20057328  1
  C  C113  1  0.58797559  0.95183306  0.19182458  1
  C  C114  1  0.44064807  0.32048172  0.64682231  1
  C  C115  1  0.94215848  0.32037232  0.65004638  1
  C  C116  1  0.22620395  0.12636089  0.63584320  1
  C  C117  1  0.72262417  0.11961393  0.63938734  1
  C  C118  1  0.33371834  0.54968866  0.63666096  1
  C  C119  1  0.83499311  0.55308363  0.63773224  1
  C  C120  1  0.43676888  0.55618758  0.14712483  1
  C  C121  1  0.93977375  0.55217967  0.14839251  1
  C  C122  1  0.33344304  0.12039755  0.13701799  1
  C  C123  1  0.83383712  0.12199645  0.13381840  1
  C  C124  1  0.22550281  0.32305104  0.13622012  1
  C  C125  1  0.72538402  0.32535457  0.13808237  1
  C  C126  1  0.21652192  0.28725506  0.02965089  1
  C  C127  1  0.72237212  0.29138526  0.03146535  1
  C  C128  1  0.41745471  0.55126581  0.02956440  1
  C  C129  1  0.91705833  0.54157750  0.03057986  1
  C  C130  1  0.34227421  0.14871192  0.02965666  1
  C  C131  1  0.84682620  0.14306757  0.02706748  1
  C  C132  1  0.22179102  0.14712830  0.52850642  1
  C  C133  1  0.72354734  0.15225448  0.53268870  1
  C  C134  1  0.34391157  0.54030496  0.52920995  1
  C  C135  1  0.84363475  0.53869109  0.53048095  1
  C  C136  1  0.41961947  0.28528305  0.52946360  1
  C  C137  1  0.91377007  0.28105661  0.53403430  1
  C  C138  1  0.26905430  0.65742500  0.98158178  1
  C  C139  1  0.76849181  0.65764924  0.98111635  1
  C  C140  1  0.06148302  0.46314324  0.96796832  1
  C  C141  1  0.56193650  0.46344686  0.96790832  1
  C  C142  1  0.16909752  0.86849650  0.96473066  1
  C  C143  1  0.66980738  0.86859399  0.96488832  1
  C  C144  1  0.26731852  0.87680576  0.48153364  1
  C  C145  1  0.77285279  0.88341450  0.48362155  1
  C  C146  1  0.16775070  0.46006506  0.46716179  1
  C  C147  1  0.66885032  0.47041502  0.46394998  1
  C  C148  1  0.06426065  0.66138601  0.46523225  1
  C  C149  1  0.56025513  0.65923039  0.46882580  1
  C  C150  1  0.04850595  0.62015442  0.35900153  1
  C  C151  1  0.54867767  0.62238961  0.36267472  1
  C  C152  1  0.25552771  0.87834858  0.36322226  1
  C  C153  1  0.75329373  0.86341125  0.36426868  1
  C  C154  1  0.18151419  0.47464983  0.36040341  1
  C  C155  1  0.68510767  0.46502694  0.35873051  1
  C  C156  1  0.04965673  0.47580277  0.86175595  1
  C  C157  1  0.54934565  0.47616628  0.86179403  1
  C  C158  1  0.18532670  0.90379331  0.85932371  1
  C  C159  1  0.68539506  0.90352247  0.85938378  1
  C  C160  1  0.25976467  0.64985267  0.86071115  1
  C  C161  1  0.75984192  0.65008514  0.86057388  1
  C  C162  1  0.00719514  0.80178149  0.41088766  1
  C  C163  1  0.49566543  0.78727162  0.41330717  1
  C  C164  1  0.41155865  0.01109158  0.42192112  1
  C  C165  1  0.90844596  0.00108772  0.41638995  1
  C  C166  1  0.10741382  0.20631608  0.41237029  1
  C  C167  1  0.60457496  0.20833926  0.41543697  1
  C  C168  1  0.99858998  0.20576179  0.91320681  1
  C  C169  1  0.49837688  0.20598991  0.91312171  1
  C  C170  1  0.10365591  0.99907187  0.91480909  1
  C  C171  1  0.60380503  0.99856491  0.91499550  1
  C  C172  1  0.41049872  0.81710385  0.92074500  1
  C  C173  1  0.91051278  0.81669907  0.92070589  1
  C  C174  1  0.48110503  0.12681457  0.58635941  1
  C  C175  1  0.98014577  0.12725143  0.58708662  1
  C  C176  1  0.09406910  0.01951705  0.58150359  1
  C  C177  1  0.59351976  0.01768207  0.58221836  1
  C  C178  1  0.42283386  0.80212175  0.58229869  1
  C  C179  1  0.92320189  0.80353113  0.58241150  1
  C  C180  1  0.47955424  0.83405080  0.08701489  1
  C  C181  1  0.98011184  0.82520351  0.08537790  1
  C  C182  1  0.42230631  0.04532415  0.08273836  1
  C  C183  1  0.92547222  0.04380692  0.08440763  1
  C  C184  1  0.09106394  0.16602623  0.08495808  1
  C  C185  1  0.59405537  0.17010334  0.08261595  1
  C  C186  1  0.32595496  0.11946189  0.74130420  1
  C  C187  1  0.82593539  0.11980417  0.74164518  1
  C  C188  1  0.24392690  0.33467854  0.74619268  1
  C  C189  1  0.74397298  0.33490501  0.74640602  1
  C  C190  1  0.43155949  0.52045531  0.74519680  1
  C  C191  1  0.93088590  0.52036918  0.74562749  1
  C  C192  1  0.33066234  0.53812634  0.24431405  1
  C  C193  1  0.83851896  0.54072015  0.24242753  1
  C  C194  1  0.43183812  0.34562593  0.24554819  1
  C  C195  1  0.94154010  0.34058199  0.24560143  1
  C  C196  1  0.24407216  0.13528059  0.24961515  1
  C  C197  1  0.74087114  0.16262306  0.24720505  1
  C  C198  1  0.32176763  0.48373264  0.91855466  1
  C  C199  1  0.82237893  0.48415744  0.91858117  1
  C  C200  1  0.42728190  0.36812634  0.91945712  1
  C  C201  1  0.92721709  0.36750836  0.91874035  1
  C  C202  1  0.25718153  0.14533313  0.92218801  1
  C  C203  1  0.75738192  0.14505100  0.92197781  1
  C  C204  1  0.31570677  0.15798363  0.42067432  1
  C  C205  1  0.81691210  0.15545138  0.41932127  1
  C  C206  1  0.25782785  0.37337021  0.41946351  1
  C  C207  1  0.75786928  0.37071425  0.42292400  1
  C  C208  1  0.42655445  0.48309706  0.41935397  1
  C  C209  1  0.92568606  0.49950630  0.41921979  1
  C  C210  1  0.17397350  0.46923335  0.07913508  1
  C  C211  1  0.67754076  0.47316848  0.07857420  1
  C  C212  1  0.07568383  0.67382116  0.08197120  1
  C  C213  1  0.57535469  0.68104447  0.08168604  1
  C  C214  1  0.27198804  0.87472218  0.07823653  1
  C  C215  1  0.77498645  0.87237785  0.07756907  1
  C  C216  1  0.17592683  0.87874289  0.57842555  1
  C  C217  1  0.67606166  0.87870662  0.57927791  1
  C  C218  1  0.27258827  0.67221443  0.57694338  1
  C  C219  1  0.77271116  0.67216042  0.57784219  1
  C  C220  1  0.07511905  0.47098737  0.58170925  1
  C  C221  1  0.57760324  0.47180525  0.58069284  1
  C  C222  1  0.14632694  0.80093820  0.25596782  1
  C  C223  1  0.65105402  0.81594611  0.25431974  1
  C  C224  1  0.26001795  0.70108211  0.25446442  1
  C  C225  1  0.76271036  0.68796854  0.25049770  1
  C  C226  1  0.09203589  0.47465532  0.25201313  1
  C  C227  1  0.59881745  0.48424927  0.25992371  1
  C  C228  1  0.15285959  0.48923873  0.75543745  1
  C  C229  1  0.65314843  0.48996191  0.75560493  1
  C  C230  1  0.09836081  0.71374943  0.76012296  1
  C  C231  1  0.59859945  0.71481061  0.76032759  1
  C  C232  1  0.26428277  0.82147458  0.75245988  1
  C  C233  1  0.76416117  0.82174875  0.75273190  1
