# generated using pymatgen
data_CuNi2C7
_symmetry_space_group_name_H-M   'P 1'
_cell_length_a   3.36368767
_cell_length_b   3.36356143
_cell_length_c   35.27966172
_cell_angle_alpha   89.99595457
_cell_angle_beta   89.75907771
_cell_angle_gamma   119.99238523
_symmetry_Int_Tables_number   1
_chemical_formula_structural   CuNi2C7
_chemical_formula_sum   'Cu1 Ni2 C7'
_cell_volume   345.69904854
_cell_formula_units_Z   1
loop_
 _symmetry_equiv_pos_site_id
 _symmetry_equiv_pos_as_xyz
  1  'x, y, z'
loop_
 _atom_site_type_symbol
 _atom_site_label
 _atom_site_symmetry_multiplicity
 _atom_site_fract_x
 _atom_site_fract_y
 _atom_site_fract_z
 _atom_site_occupancy
  C  C0  1  0.66850500  0.33422500  0.23004500  1
  C  C1  1  0.66985800  0.33490300  0.52449900  1
  C  C2  1  0.66330100  0.33167200  0.63216000  1
  Ni  Ni3  1  0.33297900  0.66641400  0.11160600  1
  Ni  Ni4  1  0.67052500  0.33529600  0.35437400  1
  Cu  Cu5  1  0.33318900  0.66662100  0.57829800  1
  C  C6  1  0.33443200  0.66718300  0.40129000  1
  C  C7  1  0.33975200  0.67004200  0.30677600  1
  C  C8  1  0.66890400  0.33438300  0.06912500  1
  C  C9  1  0.66372600  0.33174800  0.15425100  1
