# generated using pymatgen
data_CuNiC16
_symmetry_space_group_name_H-M   'P 1'
_cell_length_a   8.58448779
_cell_length_b   8.58448753
_cell_length_c   22.28749522
_cell_angle_alpha   90.00000000
_cell_angle_beta   90.00000000
_cell_angle_gamma   120.00000105
_symmetry_Int_Tables_number   1
_chemical_formula_structural   CuNiC16
_chemical_formula_sum   'Cu6 Ni6 C96'
_cell_volume   1422.39642290
_cell_formula_units_Z   6
loop_
 _symmetry_equiv_pos_site_id
 _symmetry_equiv_pos_as_xyz
  1  'x, y, z'
loop_
 _atom_site_type_symbol
 _atom_site_label
 _atom_site_symmetry_multiplicity
 _atom_site_fract_x
 _atom_site_fract_y
 _atom_site_fract_z
 _atom_site_occupancy
  C  C0  1  0.00000000  0.00000000  0.49355587  1
  C  C1  1  0.00000000  0.00000000  0.99355587  1
  C  C2  1  0.66666700  0.33333300  0.82688887  1
  C  C3  1  0.66666700  0.33333300  0.32688887  1
  C  C4  1  0.33333300  0.66666700  0.16022287  1
  C  C5  1  0.33333300  0.66666700  0.66022287  1
  Ni  Ni6  1  0.00000000  0.00000000  0.64314302  1
  Ni  Ni7  1  0.00000000  0.00000000  0.14314302  1
  Ni  Ni8  1  0.66666700  0.33333300  0.97647602  1
  Ni  Ni9  1  0.66666700  0.33333300  0.47647602  1
  Ni  Ni10  1  0.33333300  0.66666700  0.30981002  1
  Ni  Ni11  1  0.33333300  0.66666700  0.80981002  1
  Cu  Cu12  1  0.00000000  0.00000000  0.35371953  1
  Cu  Cu13  1  0.00000000  0.00000000  0.85371953  1
  Cu  Cu14  1  0.66666700  0.33333300  0.68705253  1
  Cu  Cu15  1  0.66666700  0.33333300  0.18705253  1
  Cu  Cu16  1  0.33333300  0.66666700  0.02038653  1
  Cu  Cu17  1  0.33333300  0.66666700  0.52038653  1
  C  C18  1  0.29222053  0.01458473  0.25211112  1
  C  C19  1  0.72236420  0.70777947  0.25211112  1
  C  C20  1  0.98541527  0.27763580  0.25211112  1
  C  C21  1  0.29222053  0.27763580  0.75211112  1
  C  C22  1  0.98541527  0.70777947  0.75211112  1
  C  C23  1  0.72236420  0.01458473  0.75211112  1
  C  C24  1  0.95888753  0.34791773  0.58544412  1
  C  C25  1  0.38903120  0.04111247  0.58544412  1
  C  C26  1  0.65208227  0.61096880  0.58544412  1
  C  C27  1  0.95888753  0.61096880  0.08544412  1
  C  C28  1  0.65208227  0.04111247  0.08544412  1
  C  C29  1  0.38903120  0.34791773  0.08544412  1
  C  C30  1  0.62555353  0.68125173  0.91877812  1
  C  C31  1  0.05569720  0.37444647  0.91877812  1
  C  C32  1  0.31874827  0.94430280  0.91877812  1
  C  C33  1  0.62555353  0.94430280  0.41877812  1
  C  C34  1  0.31874827  0.37444647  0.41877812  1
  C  C35  1  0.05569720  0.68125173  0.41877812  1
  C  C36  1  0.20122142  0.03518611  0.30741070  1
  C  C37  1  0.83396469  0.79877858  0.30741070  1
  C  C38  1  0.96481389  0.16603531  0.30741070  1
  C  C39  1  0.20122142  0.16603531  0.80741070  1
  C  C40  1  0.96481389  0.79877858  0.80741070  1
  C  C41  1  0.83396469  0.03518611  0.80741070  1
  C  C42  1  0.80217718  0.97653927  0.69454718  1
  C  C43  1  0.17436209  0.19782282  0.69454718  1
  C  C44  1  0.02346073  0.82563791  0.69454718  1
  C  C45  1  0.80217718  0.82563791  0.19454718  1
  C  C46  1  0.02346073  0.19782282  0.19454718  1
  C  C47  1  0.17436209  0.97653927  0.19454718  1
  C  C48  1  0.86788842  0.36851911  0.64074370  1
  C  C49  1  0.50063169  0.13211158  0.64074370  1
  C  C50  1  0.63148089  0.49936831  0.64074370  1
  C  C51  1  0.86788842  0.49936831  0.14074370  1
  C  C52  1  0.63148089  0.13211158  0.14074370  1
  C  C53  1  0.50063169  0.36851911  0.14074370  1
  C  C54  1  0.46884418  0.30987227  0.02788018  1
  C  C55  1  0.84102909  0.53115582  0.02788018  1
  C  C56  1  0.69012773  0.15897091  0.02788018  1
  C  C57  1  0.46884418  0.15897091  0.52788018  1
  C  C58  1  0.69012773  0.53115582  0.52788018  1
  C  C59  1  0.84102909  0.30987227  0.52788018  1
  C  C60  1  0.53455442  0.70185311  0.97407770  1
  C  C61  1  0.16729769  0.46544558  0.97407770  1
  C  C62  1  0.29814689  0.83270231  0.97407770  1
  C  C63  1  0.53455442  0.83270231  0.47407770  1
  C  C64  1  0.29814689  0.46544558  0.47407770  1
  C  C65  1  0.16729769  0.70185311  0.47407770  1
  C  C66  1  0.13551018  0.64320627  0.36121418  1
  C  C67  1  0.50769509  0.86448982  0.36121418  1
  C  C68  1  0.35679373  0.49230491  0.36121418  1
  C  C69  1  0.13551018  0.49230491  0.86121418  1
  C  C70  1  0.35679373  0.86448982  0.86121418  1
  C  C71  1  0.50769509  0.64320627  0.86121418  1
  C  C72  1  0.03202595  0.84371823  0.40930267  1
  C  C73  1  0.81169228  0.96797405  0.40930267  1
  C  C74  1  0.15628177  0.18830772  0.40930267  1
  C  C75  1  0.03202595  0.18830772  0.90930267  1
  C  C76  1  0.15628177  0.96797405  0.90930267  1
  C  C77  1  0.81169228  0.84371823  0.90930267  1
  C  C78  1  0.97618068  0.17372276  0.58982219  1
  C  C79  1  0.19754208  0.02381932  0.58982219  1
  C  C80  1  0.82627724  0.80245792  0.58982219  1
  C  C81  1  0.97618068  0.80245792  0.08982219  1
  C  C82  1  0.82627724  0.02381932  0.08982219  1
  C  C83  1  0.19754208  0.17372276  0.08982219  1
  C  C84  1  0.69869295  0.17705123  0.74263567  1
  C  C85  1  0.47835928  0.30130705  0.74263567  1
  C  C86  1  0.82294877  0.52164072  0.74263567  1
  C  C87  1  0.69869295  0.52164072  0.24263567  1
  C  C88  1  0.82294877  0.30130705  0.24263567  1
  C  C89  1  0.47835928  0.17705123  0.24263567  1
  C  C90  1  0.64284768  0.50705576  0.92315519  1
  C  C91  1  0.86420908  0.35715232  0.92315519  1
  C  C92  1  0.49294424  0.13579092  0.92315519  1
  C  C93  1  0.64284768  0.13579092  0.42315519  1
  C  C94  1  0.49294424  0.35715232  0.42315519  1
  C  C95  1  0.86420908  0.50705576  0.42315519  1
  C  C96  1  0.36535895  0.51038523  0.07596967  1
  C  C97  1  0.14502528  0.63464105  0.07596967  1
  C  C98  1  0.48961477  0.85497472  0.07596967  1
  C  C99  1  0.36535895  0.85497472  0.57596967  1
  C  C100  1  0.48961477  0.63464105  0.57596967  1
  C  C101  1  0.14502528  0.51038523  0.57596967  1
  C  C102  1  0.30951368  0.84038976  0.25648919  1
  C  C103  1  0.53087508  0.69048632  0.25648919  1
  C  C104  1  0.15961024  0.46912492  0.25648919  1
  C  C105  1  0.30951368  0.46912492  0.75648919  1
  C  C106  1  0.15961024  0.69048632  0.75648919  1
  C  C107  1  0.53087508  0.84038976  0.75648919  1
