# generated using pymatgen
data_CuNi6C7
_symmetry_space_group_name_H-M   'P 1'
_cell_length_a   7.16780800
_cell_length_b   9.33605000
_cell_length_c   11.95419589
_cell_angle_alpha   59.74931646
_cell_angle_beta   90.00000000
_cell_angle_gamma   90.00000000
_symmetry_Int_Tables_number   1
_chemical_formula_structural   CuNi6C7
_chemical_formula_sum   'Cu2 Ni12 C14'
_cell_volume   691.03163497
_cell_formula_units_Z   2
loop_
 _symmetry_equiv_pos_site_id
 _symmetry_equiv_pos_as_xyz
  1  'x, y, z'
loop_
 _atom_site_type_symbol
 _atom_site_label
 _atom_site_symmetry_multiplicity
 _atom_site_fract_x
 _atom_site_fract_y
 _atom_site_fract_z
 _atom_site_occupancy
  C  C0  1  0.00000000  0.00000000  0.00000000  1
  C  C1  1  0.00000000  0.00000000  0.50000000  1
  Ni  Ni2  1  0.25654000  0.66788600  0.38491600  1
  Ni  Ni3  1  0.75951000  0.55613600  0.39073100  1
  Ni  Ni4  1  0.24049000  0.55613600  0.89073100  1
  Ni  Ni5  1  0.24049000  0.44386400  0.60926900  1
  Ni  Ni6  1  0.74346000  0.66788600  0.88491600  1
  Ni  Ni7  1  0.74346000  0.33211400  0.61508400  1
  Ni  Ni8  1  0.25654000  0.33211400  0.11508400  1
  Ni  Ni9  1  0.57247600  0.76288200  0.38317700  1
  Ni  Ni10  1  0.42752400  0.76288200  0.88317700  1
  Ni  Ni11  1  0.42752400  0.23711800  0.61682300  1
  Ni  Ni12  1  0.57247600  0.23711800  0.11682300  1
  Ni  Ni13  1  0.75951000  0.44386400  0.10926900  1
  Cu  Cu14  1  0.72118200  0.50000000  0.75000000  1
  Cu  Cu15  1  0.27881800  0.50000000  0.25000000  1
  C  C16  1  0.90612400  0.92932500  0.39896300  1
  C  C17  1  0.90612400  0.07067500  0.10103700  1
  C  C18  1  0.09387600  0.07067500  0.60103700  1
  C  C19  1  0.09387600  0.92932500  0.89896300  1
  C  C20  1  0.08571200  0.79666600  0.60802500  1
  C  C21  1  0.08571200  0.20333400  0.89197500  1
  C  C22  1  0.91428800  0.20333400  0.39197500  1
  C  C23  1  0.91428800  0.79666600  0.10802500  1
  C  C24  1  0.21304800  0.04866400  0.41191600  1
  C  C25  1  0.21304800  0.95133600  0.08808400  1
  C  C26  1  0.78695200  0.95133600  0.58808400  1
  C  C27  1  0.78695200  0.04866400  0.91191600  1
