# generated using pymatgen
data_Cu2Ni2C33
_symmetry_space_group_name_H-M   'P 1'
_cell_length_a   18.02163423
_cell_length_b   8.98039753
_cell_length_c   22.91222027
_cell_angle_alpha   90.00631145
_cell_angle_beta   89.93061892
_cell_angle_gamma   119.82582991
_symmetry_Int_Tables_number   1
_chemical_formula_structural   Cu2Ni2C33
_chemical_formula_sum   'Cu12 Ni12 C198'
_cell_volume   3216.96761877
_cell_formula_units_Z   6
loop_
 _symmetry_equiv_pos_site_id
 _symmetry_equiv_pos_as_xyz
  1  'x, y, z'
loop_
 _atom_site_type_symbol
 _atom_site_label
 _atom_site_symmetry_multiplicity
 _atom_site_fract_x
 _atom_site_fract_y
 _atom_site_fract_z
 _atom_site_occupancy
  C  C0  1  0.00193157  0.64680240  0.24444313  1
  C  C1  1  0.50018612  0.62452169  0.24783789  1
  C  C2  1  0.99984435  0.37589750  0.74818481  1
  C  C3  1  0.50248907  0.36417203  0.74638613  1
  C  C4  1  0.33373880  0.97472163  0.58745735  1
  C  C5  1  0.83225410  0.69143515  0.08129287  1
  C  C6  1  0.99748333  0.00902637  0.50299478  1
  C  C7  1  0.50535486  0.00191796  0.50366094  1
  C  C8  1  0.00501575  0.01100698  0.99881066  1
  C  C9  1  0.49822847  0.98799021  0.99656574  1
  C  C10  1  0.32824583  0.33922623  0.82971265  1
  C  C11  1  0.82659603  0.33846217  0.83160517  1
  C  C12  1  0.32904965  0.31850669  0.33362353  1
  C  C13  1  0.82120675  0.31330252  0.33373467  1
  C  C14  1  0.17209454  0.68094549  0.16002614  1
  C  C15  1  0.66242403  0.65376677  0.16835532  1
  C  C16  1  0.16471394  0.67441456  0.67048713  1
  C  C17  1  0.66559569  0.66250871  0.66637767  1
  Ni  Ni18  1  0.50649800  0.01238331  0.64879646  1
  Ni  Ni19  1  0.00466541  0.98965271  0.14502739  1
  Ni  Ni20  1  0.33422063  0.32583871  0.69049670  1
  Ni  Ni21  1  0.82843648  0.34294511  0.68630101  1
  Ni  Ni22  1  0.32943176  0.31431081  0.18597622  1
  Ni  Ni23  1  0.82965104  0.34088086  0.18735487  1
  Ni  Ni24  1  0.66303524  0.67111234  0.01880815  1
  Ni  Ni25  1  0.16529941  0.65613720  0.52107209  1
  Ni  Ni26  1  0.17570777  0.67645992  0.31589061  1
  Ni  Ni27  1  0.66703269  0.67529855  0.31045907  1
  Ni  Ni28  1  0.16807393  0.65910398  0.81044188  1
  Ni  Ni29  1  0.67052655  0.67597984  0.81390171  1
  Cu  Cu30  1  0.00037572  0.99775636  0.35568499  1
  Cu  Cu31  1  0.50437991  0.00978823  0.35656993  1
  Cu  Cu32  1  0.00299559  0.99800903  0.85583641  1
  Cu  Cu33  1  0.49934034  0.98545254  0.85101483  1
  Cu  Cu34  1  0.00626920  0.99698206  0.64054234  1
  Cu  Cu35  1  0.50620602  0.01549668  0.13955782  1
  Cu  Cu36  1  0.33447117  0.34707890  0.98576624  1
  Cu  Cu37  1  0.83204332  0.34351091  0.97335749  1
  Cu  Cu38  1  0.33271616  0.32277932  0.47510622  1
  Cu  Cu39  1  0.83337376  0.32017368  0.48682503  1
  Cu  Cu40  1  0.16882664  0.65264384  0.02229856  1
  Cu  Cu41  1  0.66814848  0.68422520  0.52365832  1
  C  C42  1  0.14750090  0.00116384  0.25213915  1
  C  C43  1  0.64413767  0.00366060  0.24831687  1
  C  C44  1  0.85417892  0.71262737  0.24890261  1
  C  C45  1  0.49889025  0.28757618  0.25024284  1
  C  C46  1  0.14328938  0.28366248  0.74837495  1
  C  C47  1  0.64747383  0.29148219  0.75298432  1
  C  C48  1  0.99888753  0.70922762  0.75033334  1
  C  C49  1  0.50139323  0.70798404  0.74734868  1
  C  C50  1  0.35481596  0.99396399  0.74904834  1
  C  C51  1  0.47918419  0.33527165  0.58291189  1
  C  C52  1  0.97966127  0.33369210  0.58934327  1
  C  C53  1  0.19174293  0.04572024  0.58211666  1
  C  C54  1  0.68522379  0.04473427  0.58652001  1
  C  C55  1  0.83291929  0.62423540  0.58052293  1
  C  C56  1  0.47998158  0.62480389  0.08908978  1
  C  C57  1  0.97888517  0.61625929  0.08317092  1
  C  C58  1  0.33239376  0.04126964  0.08047840  1
  C  C59  1  0.18707896  0.32870786  0.08620419  1
  C  C60  1  0.69038689  0.33867034  0.08092892  1
  C  C61  1  0.31327457  0.66734001  0.91600817  1
  C  C62  1  0.81253170  0.67544764  0.91795979  1
  C  C63  1  0.02266913  0.37763494  0.91522801  1
  C  C64  1  0.66503765  0.96138041  0.91656235  1
  C  C65  1  0.31445275  0.95489826  0.41909596  1
  C  C66  1  0.81097274  0.95945980  0.41590268  1
  C  C67  1  0.16684017  0.37392228  0.41607044  1
  C  C68  1  0.52262463  0.66675085  0.41534933  1
  C  C69  1  0.35719904  0.71604966  0.25003188  1
  C  C70  1  0.00071440  0.28749397  0.25055651  1
  C  C71  1  0.85765328  0.99856331  0.74991090  1
  C  C72  1  0.33343910  0.62004384  0.58280427  1
  C  C73  1  0.83341499  0.04675778  0.08331290  1
  C  C74  1  0.51919695  0.37382525  0.91647322  1
  C  C75  1  0.16918498  0.95840743  0.91718207  1
  C  C76  1  0.66947522  0.38038633  0.41701995  1
  C  C77  1  0.01983987  0.66311245  0.41567648  1
  C  C78  1  0.09438674  0.01715752  0.30887970  1
  C  C79  1  0.59433202  0.02343747  0.30625787  1
  C  C80  1  0.40877845  0.79775133  0.30343052  1
  C  C81  1  0.91956746  0.81717716  0.30441789  1
  C  C82  1  0.48830552  0.16552059  0.30778120  1
  C  C83  1  0.99008047  0.18476239  0.30380485  1
  C  C84  1  0.09207077  0.16479140  0.80631135  1
  C  C85  1  0.59527076  0.16831134  0.80924650  1
  C  C86  1  0.48865202  0.80142909  0.80682095  1
  C  C87  1  0.98811118  0.81044935  0.80786158  1
  C  C88  1  0.41861243  0.02360460  0.80535395  1
  C  C89  1  0.91023932  0.02177133  0.80342103  1
  C  C90  1  0.39638363  0.97112886  0.68866426  1
  C  C91  1  0.89627907  0.97403691  0.69722133  1
  C  C92  1  0.07905113  0.18680603  0.69250565  1
  C  C93  1  0.58649652  0.20993288  0.69515567  1
  C  C94  1  0.00657730  0.82901068  0.69310273  1
  C  C95  1  0.51558397  0.82905279  0.69165664  1
  C  C96  1  0.39447547  0.81711542  0.19731894  1
  C  C97  1  0.89776933  0.82373319  0.18980169  1
  C  C98  1  0.01303883  0.20876209  0.19806576  1
  C  C99  1  0.50652555  0.18340233  0.19312254  1
  C  C100  1  0.08518115  0.96594655  0.19536495  1
  C  C101  1  0.58096230  0.97467367  0.19242412  1
  C  C102  1  0.44029529  0.36793635  0.64259544  1
  C  C103  1  0.93586761  0.35951737  0.64690615  1
  C  C104  1  0.25193491  0.13399687  0.63806537  1
  C  C105  1  0.74562734  0.13128207  0.64181462  1
  C  C106  1  0.32182802  0.51879842  0.63545042  1
  C  C107  1  0.81577289  0.50764226  0.63824799  1
  C  C108  1  0.43571740  0.51131099  0.14682797  1
  C  C109  1  0.93995449  0.50975137  0.14426315  1
  C  C110  1  0.31514217  0.12236775  0.13874283  1
  C  C111  1  0.82264404  0.12731081  0.13664577  1
  C  C112  1  0.24547644  0.36039502  0.14259845  1
  C  C113  1  0.75027613  0.36953810  0.13849127  1
  C  C114  1  0.23614497  0.30685840  0.02776713  1
  C  C115  1  0.73634899  0.30729100  0.02495233  1
  C  C116  1  0.41750789  0.52800709  0.03048850  1
  C  C117  1  0.91229740  0.51610579  0.02968711  1
  C  C118  1  0.34798941  0.16711994  0.02377928  1
  C  C119  1  0.84439772  0.14674661  0.03080178  1
  C  C120  1  0.23578324  0.16605948  0.52423602  1
  C  C121  1  0.73659694  0.16375315  0.52752554  1
  C  C122  1  0.34228642  0.53861521  0.52942146  1
  C  C123  1  0.84818761  0.52894745  0.52306796  1
  C  C124  1  0.41328095  0.31161700  0.52821065  1
  C  C125  1  0.91738590  0.30638501  0.53026947  1
  C  C126  1  0.26408027  0.68825611  0.97394268  1
  C  C127  1  0.77158355  0.69984395  0.97796288  1
  C  C128  1  0.08540136  0.47639242  0.97146333  1
  C  C129  1  0.57301825  0.46095254  0.96851869  1
  C  C130  1  0.15515501  0.85397730  0.96970836  1
  C  C131  1  0.65018279  0.84105561  0.97356740  1
  C  C132  1  0.27061329  0.84137659  0.47664935  1
  C  C133  1  0.76622731  0.84076984  0.47359018  1
  C  C134  1  0.14843335  0.46004927  0.47224617  1
  C  C135  1  0.65565105  0.45608575  0.46915613  1
  C  C136  1  0.07342522  0.68797492  0.46727460  1
  C  C137  1  0.58636019  0.69652667  0.47078613  1
  C  C138  1  0.06072388  0.64439808  0.36162334  1
  C  C139  1  0.56000658  0.62986078  0.35618069  1
  C  C140  1  0.25462606  0.86840569  0.36153153  1
  C  C141  1  0.75207683  0.87133070  0.35928928  1
  C  C142  1  0.17731839  0.48890037  0.35823437  1
  C  C143  1  0.67903036  0.47952951  0.36358297  1
  C  C144  1  0.05967550  0.48985509  0.85645689  1
  C  C145  1  0.55928302  0.47792013  0.86312283  1
  C  C146  1  0.17870502  0.87800183  0.86416134  1
  C  C147  1  0.67924621  0.87109802  0.85963410  1
  C  C148  1  0.25210529  0.63365051  0.86039165  1
  C  C149  1  0.75305077  0.64202138  0.86169028  1
  C  C150  1  0.01169961  0.82132460  0.41173368  1
  C  C151  1  0.51356499  0.84099385  0.40765462  1
  C  C152  1  0.40998160  0.97876728  0.40846787  1
  C  C153  1  0.90778579  0.98093495  0.40718872  1
  C  C154  1  0.08155098  0.18081989  0.40660967  1
  C  C155  1  0.59096746  0.20235482  0.41185205  1
  C  C156  1  0.01349019  0.18551339  0.90901109  1
  C  C157  1  0.51065190  0.20308074  0.91304088  1
  C  C158  1  0.09039412  0.97866697  0.91232312  1
  C  C159  1  0.58161781  0.98769630  0.91070966  1
  C  C160  1  0.40759756  0.83919226  0.91135174  1
  C  C161  1  0.90951900  0.84184417  0.90885838  1
  C  C162  1  0.48013644  0.15400519  0.58444532  1
  C  C163  1  0.98502193  0.15716560  0.59140717  1
  C  C164  1  0.09550295  0.02466648  0.58813134  1
  C  C165  1  0.59145371  0.02370699  0.58505200  1
  C  C166  1  0.40860090  0.79569933  0.58621727  1
  C  C167  1  0.91787945  0.81363378  0.58864716  1
  C  C168  1  0.48520872  0.81217796  0.09246478  1
  C  C169  1  0.98085061  0.80325199  0.08667825  1
  C  C170  1  0.41728777  0.02128763  0.08965480  1
  C  C171  1  0.90991030  0.02350636  0.08920201  1
  C  C172  1  0.09106990  0.16451901  0.08812990  1
  C  C173  1  0.59525226  0.16732072  0.08776326  1
  C  C174  1  0.35291881  0.17522666  0.74673196  1
  C  C175  1  0.85129787  0.15676306  0.74717071  1
  C  C176  1  0.23646442  0.30304646  0.74378337  1
  C  C177  1  0.73985121  0.30299882  0.74920415  1
  C  C178  1  0.41624460  0.51948671  0.74577620  1
  C  C179  1  0.91604691  0.51702181  0.74744432  1
  C  C180  1  0.34965861  0.54420572  0.24733625  1
  C  C181  1  0.85559707  0.52920774  0.24693646  1
  C  C182  1  0.41612264  0.31532367  0.24763530  1
  C  C183  1  0.92306561  0.30569493  0.24662237  1
  C  C184  1  0.23970929  0.17113823  0.24939480  1
  C  C185  1  0.73967829  0.16932443  0.24397784  1
  C  C186  1  0.32477675  0.49501667  0.92567171  1
  C  C187  1  0.82562642  0.50484782  0.92266103  1
  C  C188  1  0.43341346  0.35957470  0.92223608  1
  C  C189  1  0.92715938  0.34972033  0.92924665  1
  C  C190  1  0.24492763  0.13315964  0.92225100  1
  C  C191  1  0.75241804  0.14924421  0.92534480  1
  C  C192  1  0.32549340  0.14811336  0.42249535  1
  C  C193  1  0.82541668  0.15691236  0.42407688  1
  C  C194  1  0.25200220  0.35623390  0.42363041  1
  C  C195  1  0.74542738  0.35666346  0.42131529  1
  C  C196  1  0.42652919  0.50538159  0.42824038  1
  C  C197  1  0.93411096  0.51123411  0.42005067  1
  C  C198  1  0.17905721  0.50240196  0.07715126  1
  C  C199  1  0.68321277  0.51084189  0.07591519  1
  C  C200  1  0.07492331  0.64767653  0.07273983  1
  C  C201  1  0.57358195  0.64527087  0.07858429  1
  C  C202  1  0.24786910  0.85355912  0.07088851  1
  C  C203  1  0.75672325  0.86996769  0.07980777  1
  C  C204  1  0.18291226  0.85708581  0.57472829  1
  C  C205  1  0.67849939  0.85595629  0.57698401  1
  C  C206  1  0.25543319  0.64163045  0.57853085  1
  C  C207  1  0.74832670  0.64223368  0.56985145  1
  C  C208  1  0.07268063  0.50124283  0.57764914  1
  C  C209  1  0.57470320  0.50015313  0.57031697  1
  C  C210  1  0.14837090  0.81855095  0.25771139  1
  C  C211  1  0.64650219  0.82471688  0.25319337  1
  C  C212  1  0.26901364  0.69433690  0.25580309  1
  C  C213  1  0.75967476  0.68353092  0.25700458  1
  C  C214  1  0.07584850  0.46462468  0.25646620  1
  C  C215  1  0.58423906  0.47454242  0.25472274  1
  C  C216  1  0.14517718  0.46688950  0.75336744  1
  C  C217  1  0.65308869  0.47806677  0.75956193  1
  C  C218  1  0.08455279  0.69440594  0.75489205  1
  C  C219  1  0.58385085  0.68068115  0.75595854  1
  C  C220  1  0.26016987  0.83089360  0.75726667  1
  C  C221  1  0.77112192  0.84557147  0.75570425  1
