# generated using pymatgen
data_CuNiC5
_symmetry_space_group_name_H-M   'P 1'
_cell_length_a   5.42775927
_cell_length_b   5.42775898
_cell_length_c   5.42795166
_cell_angle_alpha   130.57703522
_cell_angle_beta   132.91631036
_cell_angle_gamma   70.64339241
_symmetry_Int_Tables_number   1
_chemical_formula_structural   CuNiC5
_chemical_formula_sum   'Cu1 Ni1 C5'
_cell_volume   87.14444957
_cell_formula_units_Z   1
loop_
 _symmetry_equiv_pos_site_id
 _symmetry_equiv_pos_as_xyz
  1  'x, y, z'
loop_
 _atom_site_type_symbol
 _atom_site_label
 _atom_site_symmetry_multiplicity
 _atom_site_fract_x
 _atom_site_fract_y
 _atom_site_fract_z
 _atom_site_occupancy
  Ni  Ni0  1  0.49227600  0.49227600  0.00000000  1
  Cu  Cu1  1  0.73778400  0.23778400  0.50000000  1
  C  C2  1  0.97104300  0.97104300  0.00000000  1
  C  C3  1  0.51266900  0.01266900  0.50000000  1
  C  C4  1  0.25746500  0.25746500  0.00000000  1
  C  C5  1  0.96433200  0.46433200  0.50000000  1
  C  C6  1  0.73109700  0.73109700  0.00000000  1
