# generated using pymatgen
data_Cu5Ni4C73
_symmetry_space_group_name_H-M   'P 1'
_cell_length_a   18.03011874
_cell_length_b   8.92996374
_cell_length_c   22.06511119
_cell_angle_alpha   89.85113460
_cell_angle_beta   90.13166124
_cell_angle_gamma   119.53390078
_symmetry_Int_Tables_number   1
_chemical_formula_structural   Cu5Ni4C73
_chemical_formula_sum   'Cu15 Ni12 C219'
_cell_volume   3091.03507115
_cell_formula_units_Z   3
loop_
 _symmetry_equiv_pos_site_id
 _symmetry_equiv_pos_as_xyz
  1  'x, y, z'
loop_
 _atom_site_type_symbol
 _atom_site_label
 _atom_site_symmetry_multiplicity
 _atom_site_fract_x
 _atom_site_fract_y
 _atom_site_fract_z
 _atom_site_occupancy
  C  C0  1  0.80854985  0.99731007  0.24879531  1
  C  C1  1  0.18610440  0.36074450  0.25227386  1
  C  C2  1  0.68051290  0.35325378  0.25148475  1
  C  C3  1  0.00514325  0.64752993  0.24719293  1
  C  C4  1  0.50485556  0.64404414  0.24136719  1
  C  C5  1  0.31790378  0.62065975  0.75081131  1
  C  C6  1  0.00470019  0.36518503  0.74166355  1
  C  C7  1  0.50326040  0.37221280  0.74627531  1
  C  C8  1  0.18353643  0.01167710  0.75092425  1
  C  C9  1  0.67725198  0.00006093  0.75108178  1
  C  C10  1  0.14955705  0.32734643  0.58333491  1
  C  C11  1  0.65182953  0.32695470  0.58178564  1
  C  C12  1  0.32992936  0.97313664  0.58952265  1
  C  C13  1  0.83315638  0.98172091  0.58560442  1
  C  C14  1  0.15482301  0.98028456  0.07627737  1
  C  C15  1  0.64838918  0.96843083  0.07811408  1
  C  C16  1  0.33475809  0.68625202  0.08217967  1
  C  C17  1  0.82717662  0.68410550  0.08358823  1
  C  C18  1  0.48478866  0.67585493  0.91716889  1
  C  C19  1  0.98908463  0.67723525  0.91543294  1
  C  C20  1  0.34392868  0.03379449  0.91246805  1
  C  C21  1  0.84333425  0.02601326  0.91301700  1
  C  C22  1  0.16735540  0.27938687  0.91403167  1
  C  C23  1  0.66604638  0.28063876  0.91590351  1
  C  C24  1  0.48999220  0.30321015  0.41879838  1
  C  C25  1  0.98532189  0.29897452  0.42914432  1
  C  C26  1  0.16767750  0.05483693  0.42079506  1
  C  C27  1  0.66687276  0.05429337  0.41827840  1
  C  C28  1  0.34617322  0.65946121  0.41758265  1
  C  C29  1  0.84205411  0.65430212  0.41722293  1
  C  C30  1  0.00851360  0.01135403  0.50626612  1
  C  C31  1  0.50995341  0.00429124  0.50408627  1
  C  C32  1  0.00956365  0.01612988  0.99958542  1
  C  C33  1  0.50912840  0.00555755  0.00218124  1
  C  C34  1  0.32807933  0.33243479  0.82833263  1
  C  C35  1  0.82220598  0.32990758  0.82911495  1
  C  C36  1  0.32524587  0.31770713  0.33040202  1
  C  C37  1  0.81870515  0.32250447  0.33488307  1
  C  C38  1  0.17040600  0.67095252  0.16488805  1
  C  C39  1  0.65578266  0.65127888  0.16313478  1
  C  C40  1  0.15792502  0.66046592  0.66566173  1
  C  C41  1  0.66311946  0.66870563  0.66940365  1
  C  C42  1  0.01242468  0.01812990  0.35059605  1
  C  C43  1  0.51018696  0.01931369  0.35017572  1
  C  C44  1  0.00834792  0.99900743  0.84978244  1
  C  C45  1  0.51262091  0.99752900  0.84687864  1
  C  C46  1  0.32801203  0.32574815  0.68443624  1
  C  C47  1  0.82223837  0.32862106  0.18002811  1
  C  C48  1  0.32667242  0.33069631  0.98651990  1
  C  C49  1  0.82303807  0.31607881  0.98343094  1
  C  C50  1  0.32318445  0.33168399  0.48596327  1
  C  C51  1  0.82631524  0.32378160  0.48798210  1
  C  C52  1  0.66456822  0.66339466  0.31576249  1
  C  C53  1  0.16670140  0.66920925  0.81446680  1
  Ni  Ni54  1  0.01529930  0.02776171  0.64681165  1
  Ni  Ni55  1  0.52610304  0.01176811  0.65796229  1
  Ni  Ni56  1  0.01600340  0.01284669  0.15137998  1
  Ni  Ni57  1  0.51624292  0.00417662  0.14528120  1
  Ni  Ni58  1  0.82370967  0.31384846  0.67670459  1
  Ni  Ni59  1  0.32466684  0.33020823  0.17579674  1
  Ni  Ni60  1  0.16376855  0.65617238  0.01416115  1
  Ni  Ni61  1  0.64521894  0.64663132  0.02278159  1
  Ni  Ni62  1  0.14881184  0.64351793  0.52584522  1
  Ni  Ni63  1  0.66054286  0.66237335  0.51802088  1
  Ni  Ni64  1  0.17623883  0.68593672  0.31717363  1
  Ni  Ni65  1  0.66479840  0.67108754  0.81053521  1
  Cu  Cu66  1  0.15389753  -0.00011464  0.25034417  1
  Cu  Cu67  1  0.65050724  0.99790311  0.25236674  1
  Cu  Cu68  1  0.14862068  0.30232543  0.75264191  1
  Cu  Cu69  1  0.65569848  0.30968019  0.75048427  1
  Cu  Cu70  1  0.49688074  0.69618009  0.75295332  1
  Cu  Cu71  1  0.97524801  0.32945627  0.58507688  1
  Cu  Cu72  1  0.18382626  0.02713837  0.58185401  1
  Cu  Cu73  1  0.68107305  0.02391957  0.58042509  1
  Cu  Cu74  1  0.47517073  0.62060003  0.08533898  1
  Cu  Cu75  1  0.18075158  0.33796462  0.08207157  1
  Cu  Cu76  1  0.68277283  0.34156900  0.08187402  1
  Cu  Cu77  1  0.16796598  0.95738150  0.91801859  1
  Cu  Cu78  1  0.66818986  0.95095289  0.91728111  1
  Cu  Cu79  1  0.16720276  0.38630777  0.41581278  1
  Cu  Cu80  1  0.66824488  0.37886361  0.41731581  1
  C  C81  1  0.35369413  0.71254162  0.25113638  1
  C  C82  1  0.85850400  0.71539060  0.24932436  1
  C  C83  1  0.99859480  0.29135944  0.24962960  1
  C  C84  1  0.49541784  0.28661051  0.24979486  1
  C  C85  1  0.99582562  0.70476067  0.74979127  1
  C  C86  1  0.35660609  0.99869363  0.74953901  1
  C  C87  1  0.85544682  0.99700101  0.75066978  1
  C  C88  1  0.47936148  0.33391200  0.58234149  1
  C  C89  1  0.33685218  0.63585112  0.58261242  1
  C  C90  1  0.83473881  0.62953484  0.58291757  1
  C  C91  1  0.97945171  0.62446418  0.08481139  1
  C  C92  1  0.33503683  0.04034216  0.08368905  1
  C  C93  1  0.83951032  0.04124893  0.08506461  1
  C  C94  1  0.31294655  0.66920122  0.91659287  1
  C  C95  1  0.81363433  0.66880666  0.91690297  1
  C  C96  1  0.01832606  0.37289312  0.91714925  1
  C  C97  1  0.51868655  0.37036170  0.91571249  1
  C  C98  1  0.31498951  0.96111897  0.41696002  1
  C  C99  1  0.81440828  0.95889237  0.41455402  1
  C  C100  1  0.02000185  0.66703095  0.41460091  1
  C  C101  1  0.51806432  0.66409437  0.41635806  1
  C  C102  1  0.11325008  0.04158602  0.30875135  1
  C  C103  1  0.60928384  0.03394780  0.31184660  1
  C  C104  1  0.40359297  0.79570429  0.30635245  1
  C  C105  1  0.90964605  0.79979122  0.30410991  1
  C  C106  1  0.48466147  0.18915750  0.30676780  1
  C  C107  1  0.98266615  0.18518928  0.30489094  1
  C  C108  1  0.10626230  0.18484184  0.81237776  1
  C  C109  1  0.61569363  0.18619699  0.80905924  1
  C  C110  1  0.47452886  0.77061218  0.81275527  1
  C  C111  1  0.98461340  0.77969290  0.80669836  1
  C  C112  1  0.40811746  0.02085749  0.80497984  1
  C  C113  1  0.90616807  0.01598908  0.80575421  1
  C  C114  1  0.39799535  0.97427596  0.69471808  1
  C  C115  1  0.89561528  0.97558451  0.69524760  1
  C  C116  1  0.08518646  0.21674802  0.69260421  1
  C  C117  1  0.59095076  0.23119670  0.69000582  1
  C  C118  1  0.00719633  0.81714731  0.69663135  1
  C  C119  1  0.51783783  0.82665162  0.69461081  1
  C  C120  1  0.39300040  0.81345810  0.19573377  1
  C  C121  1  0.89917131  0.82564560  0.19421490  1
  C  C122  1  0.01154254  0.20385975  0.19632766  1
  C  C123  1  0.50725375  0.19802973  0.19684407  1
  C  C124  1  0.08731011  0.94715746  0.19102714  1
  C  C125  1  0.58782495  0.96010947  0.19250572  1
  C  C126  1  0.43908023  0.35519168  0.63639780  1
  C  C127  1  0.92865036  0.35701198  0.64488181  1
  C  C128  1  0.24510813  0.10692980  0.64072788  1
  C  C129  1  0.74198873  0.10292780  0.64116563  1
  C  C130  1  0.32510852  0.52658425  0.63579988  1
  C  C131  1  0.81797021  0.51278101  0.63541417  1
  C  C132  1  0.43003195  0.50192786  0.14654193  1
  C  C133  1  0.93897122  0.52311491  0.14004308  1
  C  C134  1  0.31721871  0.12149775  0.13670142  1
  C  C135  1  0.82904615  0.12785968  0.13929187  1
  C  C136  1  0.24085848  0.37958632  0.14360839  1
  C  C137  1  0.74194888  0.38835045  0.14282103  1
  C  C138  1  0.21963153  0.29177641  0.02446065  1
  C  C139  1  0.72384705  0.29618668  0.02416010  1
  C  C140  1  0.41997436  0.54109618  0.02475704  1
  C  C141  1  0.92883323  0.54204218  0.02986480  1
  C  C142  1  0.34691298  0.13912507  0.02788208  1
  C  C143  1  0.85336799  0.14574934  0.02963754  1
  C  C144  1  0.22092018  0.14797581  0.52153540  1
  C  C145  1  0.71974963  0.14367555  0.52150020  1
  C  C146  1  0.35007887  0.55868152  0.52629144  1
  C  C147  1  0.84749666  0.55630576  0.52653307  1
  C  C148  1  0.42971063  0.31866779  0.52624433  1
  C  C149  1  0.92209595  0.30216374  0.52311106  1
  C  C150  1  0.27178366  0.69059981  0.97300130  1
  C  C151  1  0.77654576  0.69667203  0.97238442  1
  C  C152  1  0.07598157  0.44813774  0.97103999  1
  C  C153  1  0.57557196  0.44545235  0.96960893  1
  C  C154  1  0.15135912  0.82963695  0.97967778  1
  C  C155  1  0.65543535  0.82981608  0.97784989  1
  C  C156  1  0.27590391  0.85469636  0.47056395  1
  C  C157  1  0.77507716  0.85438730  0.47015224  1
  C  C158  1  0.15403333  0.48406759  0.47460523  1
  C  C159  1  0.65262735  0.47611668  0.47750825  1
  C  C160  1  0.07668619  0.70256107  0.46767629  1
  C  C161  1  0.57572223  0.70223313  0.46983115  1
  C  C162  1  0.05956392  0.64003156  0.35891249  1
  C  C163  1  0.55692747  0.63863808  0.36139291  1
  C  C164  1  0.25772403  0.88906089  0.36233868  1
  C  C165  1  0.76017873  0.87873855  0.36066094  1
  C  C166  1  0.18124691  0.50647193  0.35394564  1
  C  C167  1  0.68305561  0.49457853  0.35707360  1
  C  C168  1  0.05745093  0.47685476  0.86258460  1
  C  C169  1  0.55842834  0.47693424  0.86093728  1
  C  C170  1  0.18141689  0.86719035  0.85899711  1
  C  C171  1  0.68522285  0.85947678  0.85793234  1
  C  C172  1  0.25866506  0.64165070  0.86328973  1
  C  C173  1  0.75662646  0.63195976  0.86372516  1
  C  C174  1  0.00723060  0.81909096  0.40873618  1
  C  C175  1  0.50338554  0.81377788  0.41143396  1
  C  C176  1  0.39862093  0.96923563  0.40754675  1
  C  C177  1  0.89951101  0.97015154  0.40866006  1
  C  C178  1  0.08093507  0.19593200  0.41419125  1
  C  C179  1  0.58030733  0.18895855  0.41776341  1
  C  C180  1  0.00347980  0.19411072  0.91265116  1
  C  C181  1  0.50629677  0.19368753  0.90996737  1
  C  C182  1  0.07987430  0.97179525  0.91822487  1
  C  C183  1  0.58280755  0.97180108  0.91647497  1
  C  C184  1  0.39643985  0.82951639  0.91345906  1
  C  C185  1  0.89864577  0.82777146  0.90875067  1
  C  C186  1  0.48551046  0.17228223  0.58535595  1
  C  C187  1  0.98154772  0.14835132  0.59025814  1
  C  C188  1  0.08809240  0.00945501  0.58978851  1
  C  C189  1  0.58880335  0.02002474  0.58902291  1
  C  C190  1  0.40907054  0.81314400  0.58804239  1
  C  C191  1  0.90789910  0.80336709  0.59140690  1
  C  C192  1  0.48240369  0.81546925  0.09100721  1
  C  C193  1  0.98376561  0.79936419  0.08812464  1
  C  C194  1  0.40875727  0.01380717  0.09282133  1
  C  C195  1  0.91343821  0.00969907  0.09176581  1
  C  C196  1  0.08650412  0.16000455  0.09130963  1
  C  C197  1  0.58773974  0.16752223  0.08899340  1
  C  C198  1  0.34791566  0.15514025  0.74476032  1
  C  C199  1  0.84832402  0.15845887  0.74779449  1
  C  C200  1  0.24183403  0.31629124  0.74499852  1
  C  C201  1  0.74749655  0.31258801  0.73762126  1
  C  C202  1  0.41792769  0.50306463  0.74257355  1
  C  C203  1  0.92229253  0.52908235  0.74473713  1
  C  C204  1  0.34635953  0.53709720  0.24889502  1
  C  C205  1  0.85398095  0.54456271  0.24468124  1
  C  C206  1  0.42132530  0.31462337  0.24497624  1
  C  C207  1  0.92462171  0.31853505  0.24178586  1
  C  C208  1  0.24666032  0.17553563  0.23803577  1
  C  C209  1  0.74609889  0.16957120  0.24540608  1
  C  C210  1  0.32458116  0.51628813  0.92133369  1
  C  C211  1  0.82917826  0.51884707  0.92244878  1
  C  C212  1  0.43486869  0.36046778  0.92315034  1
  C  C213  1  0.93520007  0.36672047  0.92619373  1
  C  C214  1  0.25376392  0.14800085  0.92282120  1
  C  C215  1  0.75474574  0.14236664  0.91850646  1
  C  C216  1  0.32902553  0.13969707  0.42182878  1
  C  C217  1  0.82601281  0.13530397  0.41884502  1
  C  C218  1  0.25363195  0.36764593  0.41714852  1
  C  C219  1  0.75436101  0.35966890  0.42237091  1
  C  C220  1  0.43464508  0.50501718  0.42466186  1
  C  C221  1  0.93568922  0.51056713  0.42080439  1
  C  C222  1  0.17713104  0.52059686  0.07407061  1
  C  C223  1  0.67953354  0.52310495  0.07173495  1
  C  C224  1  0.06803403  0.65398274  0.08179168  1
  C  C225  1  0.57460182  0.65921409  0.08381113  1
  C  C226  1  0.25596369  0.86451402  0.07997164  1
  C  C227  1  0.76063273  0.87145942  0.08065746  1
  C  C228  1  0.18097290  0.83874470  0.57208971  1
  C  C229  1  0.67730805  0.83368103  0.57321784  1
  C  C230  1  0.25625139  0.64589639  0.57747910  1
  C  C231  1  0.75505670  0.64620830  0.57867685  1
  C  C232  1  0.07497092  0.48930293  0.58439305  1
  C  C233  1  0.56872845  0.48448839  0.57916163  1
  C  C234  1  0.15622646  0.81509879  0.25852489  1
  C  C235  1  0.65948166  0.82294765  0.25446566  1
  C  C236  1  0.26436865  0.68558287  0.25379722  1
  C  C237  1  0.77132206  0.69180723  0.25243704  1
  C  C238  1  0.07768647  0.46203457  0.25363554  1
  C  C239  1  0.57507649  0.45984627  0.25336845  1
  C  C240  1  0.15806600  0.49512804  0.75464072  1
  C  C241  1  0.66095013  0.49801820  0.75840651  1
  C  C242  1  0.07586832  0.69201421  0.75329746  1
  C  C243  1  0.58829822  0.69155133  0.75560214  1
  C  C244  1  0.26989755  0.84482299  0.75346259  1
  C  C245  1  0.76756860  0.84729514  0.75341166  1
