# generated using pymatgen
data_CuNiC5
_symmetry_space_group_name_H-M   'P 1'
_cell_length_a   6.03593300
_cell_length_b   7.07735300
_cell_length_c   8.21665000
_cell_angle_alpha   90.00000000
_cell_angle_beta   90.00000000
_cell_angle_gamma   90.00000000
_symmetry_Int_Tables_number   1
_chemical_formula_structural   CuNiC5
_chemical_formula_sum   'Cu4 Ni4 C20'
_cell_volume   351.00237574
_cell_formula_units_Z   4
loop_
 _symmetry_equiv_pos_site_id
 _symmetry_equiv_pos_as_xyz
  1  'x, y, z'
loop_
 _atom_site_type_symbol
 _atom_site_label
 _atom_site_symmetry_multiplicity
 _atom_site_fract_x
 _atom_site_fract_y
 _atom_site_fract_z
 _atom_site_occupancy
  C  C0  1  0.00000000  0.50000000  0.50000000  1
  C  C1  1  0.50000000  0.50000000  0.50000000  1
  C  C2  1  0.50000000  0.00000000  0.00000000  1
  C  C3  1  0.00000000  0.00000000  0.00000000  1
  Ni  Ni4  1  0.25000000  0.77708500  0.73512100  1
  Ni  Ni5  1  0.25000000  0.27708500  0.76487900  1
  Ni  Ni6  1  0.75000000  0.72291500  0.23512100  1
  Ni  Ni7  1  0.75000000  0.22291500  0.26487900  1
  Cu  Cu8  1  0.25000000  0.56374000  0.13608700  1
  Cu  Cu9  1  0.75000000  0.43626000  0.86391300  1
  Cu  Cu10  1  0.25000000  0.06374000  0.36391300  1
  Cu  Cu11  1  0.75000000  0.93626000  0.63608700  1
  C  C12  1  0.05047700  0.33080400  0.69475500  1
  C  C13  1  0.55047700  0.66919600  0.30524500  1
  C  C14  1  0.44952300  0.83080400  0.80524500  1
  C  C15  1  0.94952300  0.16919600  0.19475500  1
  C  C16  1  0.25000000  0.17090600  0.90852600  1
  C  C17  1  0.75000000  0.32909400  0.40852600  1
  C  C18  1  0.75000000  0.82909400  0.09147400  1
  C  C19  1  0.25000000  0.67090600  0.59147400  1
  C  C20  1  0.25000000  0.89610800  0.11950400  1
  C  C21  1  0.75000000  0.10389200  0.88049600  1
  C  C22  1  0.25000000  0.39610800  0.38049600  1
  C  C23  1  0.75000000  0.60389200  0.61950400  1
  C  C24  1  0.05047700  0.83080400  0.80524500  1
  C  C25  1  0.55047700  0.16919600  0.19475500  1
  C  C26  1  0.44952300  0.33080400  0.69475500  1
  C  C27  1  0.94952300  0.66919600  0.30524500  1
