# generated using pymatgen
data_Cu2Ni12C17
_symmetry_space_group_name_H-M   'P 1'
_cell_length_a   12.32451700
_cell_length_b   6.18425500
_cell_length_c   9.13744752
_cell_angle_alpha   75.80575239
_cell_angle_beta   90.00000000
_cell_angle_gamma   90.00000000
_symmetry_Int_Tables_number   1
_chemical_formula_structural   Cu2Ni12C17
_chemical_formula_sum   'Cu4 Ni24 C34'
_cell_volume   675.17531402
_cell_formula_units_Z   2
loop_
 _symmetry_equiv_pos_site_id
 _symmetry_equiv_pos_as_xyz
  1  'x, y, z'
loop_
 _atom_site_type_symbol
 _atom_site_label
 _atom_site_symmetry_multiplicity
 _atom_site_fract_x
 _atom_site_fract_y
 _atom_site_fract_z
 _atom_site_occupancy
  C  C0  1  0.84969900  0.34584700  0.37557900  1
  C  C1  1  0.65030100  0.34584700  0.87557900  1
  C  C2  1  0.34969900  0.65415300  0.12442100  1
  C  C3  1  0.15030100  0.65415300  0.62442100  1
  C  C4  1  0.00000000  0.00000000  0.00000000  1
  C  C5  1  0.50000000  0.00000000  0.50000000  1
  Ni  Ni6  1  0.56078400  0.67360000  0.39862200  1
  Ni  Ni7  1  0.60667800  0.92548100  0.78960000  1
  Ni  Ni8  1  0.30460000  0.99547800  0.33643600  1
  Ni  Ni9  1  0.43921600  0.32640000  0.60137800  1
  Ni  Ni10  1  0.85823700  0.68484800  0.03423600  1
  Ni  Ni11  1  0.41065900  0.68169200  0.70343100  1
  Ni  Ni12  1  0.10667800  0.07451900  0.71040000  1
  Ni  Ni13  1  0.08934100  0.68169200  0.20343100  1
  Ni  Ni14  1  0.62390300  0.08458300  0.26105700  1
  Ni  Ni15  1  0.93921600  0.67360000  0.89862200  1
  Ni  Ni16  1  0.12390300  0.91541700  0.23894300  1
  Ni  Ni17  1  0.87609700  0.08458300  0.76105700  1
  Ni  Ni18  1  0.64176300  0.68484800  0.53423600  1
  Ni  Ni19  1  0.80460000  0.00452200  0.16356400  1
  Ni  Ni20  1  0.37609700  0.91541700  0.73894300  1
  Ni  Ni21  1  0.35823700  0.31515200  0.46576400  1
  Ni  Ni22  1  0.69540000  0.00452200  0.66356400  1
  Ni  Ni23  1  0.14176300  0.31515200  0.96576400  1
  Ni  Ni24  1  0.89332200  0.92548100  0.28960000  1
  Ni  Ni25  1  0.06078400  0.32640000  0.10137800  1
  Ni  Ni26  1  0.39332200  0.07451900  0.21040000  1
  Ni  Ni27  1  0.58934100  0.31830800  0.29656900  1
  Ni  Ni28  1  0.19540000  0.99547800  0.83643600  1
  Ni  Ni29  1  0.91065900  0.31830800  0.79656900  1
  Cu  Cu30  1  0.86179000  0.72340400  0.60277600  1
  Cu  Cu31  1  0.13821000  0.27659600  0.39722400  1
  Cu  Cu32  1  0.36179000  0.27659600  0.89722400  1
  Cu  Cu33  1  0.63821000  0.72340400  0.10277600  1
  C  C34  1  0.66706400  0.95089900  0.12099400  1
  C  C35  1  0.92260100  0.74056000  0.46025000  1
  C  C36  1  0.16706400  0.04910100  0.37900600  1
  C  C37  1  0.56458100  0.71052200  0.49929400  1
  C  C38  1  0.73898000  0.58813300  0.10372900  1
  C  C39  1  0.06778700  0.39454100  0.26764600  1
  C  C40  1  0.43541900  0.28947800  0.50070600  1
  C  C41  1  0.43221300  0.39454100  0.76764600  1
  C  C42  1  0.11236300  0.83836100  0.15641200  1
  C  C43  1  0.93541900  0.71052200  0.99929400  1
  C  C44  1  0.61236300  0.16163900  0.34358800  1
  C  C45  1  0.56778700  0.60545900  0.23235400  1
  C  C46  1  0.38763700  0.83836100  0.65641200  1
  C  C47  1  0.23898000  0.41186700  0.39627100  1
  C  C48  1  0.06458100  0.28947800  0.00070600  1
  C  C49  1  0.42260100  0.25944000  0.03975000  1
  C  C50  1  0.37764400  0.95871700  0.30452600  1
  C  C51  1  0.26102000  0.41186700  0.89627100  1
  C  C52  1  0.57739900  0.74056000  0.96025000  1
  C  C53  1  0.62235600  0.04128300  0.69547400  1
  C  C54  1  0.88763700  0.16163900  0.84358800  1
  C  C55  1  0.33293600  0.04910100  0.87900600  1
  C  C56  1  0.76102000  0.58813300  0.60372900  1
  C  C57  1  0.87764400  0.04128300  0.19547400  1
  C  C58  1  0.93221300  0.60545900  0.73235400  1
  C  C59  1  0.12235600  0.95871700  0.80452600  1
  C  C60  1  0.83293600  0.95089900  0.62099400  1
  C  C61  1  0.07739900  0.25944000  0.53975000  1
