# generated using pymatgen
data_Cu2NiC8
_symmetry_space_group_name_H-M   'P 1'
_cell_length_a   6.07611147
_cell_length_b   6.07611207
_cell_length_c   6.07611127
_cell_angle_alpha   53.80567769
_cell_angle_beta   53.80567592
_cell_angle_gamma   53.80567211
_symmetry_Int_Tables_number   1
_chemical_formula_structural   Cu2NiC8
_chemical_formula_sum   'Cu2 Ni1 C8'
_cell_volume   135.65530936
_cell_formula_units_Z   1
loop_
 _symmetry_equiv_pos_site_id
 _symmetry_equiv_pos_as_xyz
  1  'x, y, z'
loop_
 _atom_site_type_symbol
 _atom_site_label
 _atom_site_symmetry_multiplicity
 _atom_site_fract_x
 _atom_site_fract_y
 _atom_site_fract_z
 _atom_site_occupancy
  Ni  Ni0  1  0.00000000  0.00000000  0.00000000  1
  Cu  Cu1  1  0.81607400  0.81607400  0.81607400  1
  Cu  Cu2  1  0.18392600  0.18392600  0.18392600  1
  C  C3  1  0.59152100  0.59152100  0.59152100  1
  C  C4  1  0.40847900  0.40847900  0.40847900  1
  C  C5  1  0.89084200  0.41391100  0.95665500  1
  C  C6  1  0.41391100  0.95665500  0.89084200  1
  C  C7  1  0.95665500  0.89084200  0.41391100  1
  C  C8  1  0.10915800  0.58608900  0.04334500  1
  C  C9  1  0.04334500  0.10915800  0.58608900  1
  C  C10  1  0.58608900  0.04334500  0.10915800  1
