# generated using pymatgen
data_Cu3NiC9
_symmetry_space_group_name_H-M   'P 1'
_cell_length_a   5.86465485
_cell_length_b   5.84225029
_cell_length_c   5.86210283
_cell_angle_alpha   59.45243610
_cell_angle_beta   59.46051642
_cell_angle_gamma   59.50789004
_symmetry_Int_Tables_number   1
_chemical_formula_structural   Cu3NiC9
_chemical_formula_sum   'Cu3 Ni1 C9'
_cell_volume   140.32319766
_cell_formula_units_Z   1
loop_
 _symmetry_equiv_pos_site_id
 _symmetry_equiv_pos_as_xyz
  1  'x, y, z'
loop_
 _atom_site_type_symbol
 _atom_site_label
 _atom_site_symmetry_multiplicity
 _atom_site_fract_x
 _atom_site_fract_y
 _atom_site_fract_z
 _atom_site_occupancy
  Ni  Ni0  1  0.00000000  0.50000000  0.00000000  1
  C  C1  1  0.50000000  0.50000000  0.50000000  1
  Cu  Cu2  1  0.00000000  0.50000000  0.50000000  1
  Cu  Cu3  1  0.50000000  0.00000000  0.50000000  1
  Cu  Cu4  1  0.50000000  0.50000000  0.00000000  1
  C  C5  1  0.25158600  0.28079900  0.25223000  1
  C  C6  1  0.24094600  0.27684900  0.71395000  1
  C  C7  1  0.25816100  0.69889700  0.25778400  1
  C  C8  1  0.71327500  0.27539400  0.24189400  1
  C  C9  1  0.28672500  0.72460600  0.75810600  1
  C  C10  1  0.74183900  0.30110300  0.74221600  1
  C  C11  1  0.75905400  0.72315100  0.28605000  1
  C  C12  1  0.74841400  0.71920100  0.74777000  1
