# generated using pymatgen
data_Cu14Ni9C
_symmetry_space_group_name_H-M   'P 1'
_cell_length_a   5.88278900
_cell_length_b   8.85134023
_cell_length_c   10.10432809
_cell_angle_alpha   87.65503484
_cell_angle_beta   82.43597557
_cell_angle_gamma   81.49496939
_symmetry_Int_Tables_number   1
_chemical_formula_structural   Cu14Ni9C
_chemical_formula_sum   'Cu28 Ni18 C2'
_cell_volume   515.70073954
_cell_formula_units_Z   2
loop_
 _symmetry_equiv_pos_site_id
 _symmetry_equiv_pos_as_xyz
  1  'x, y, z'
loop_
 _atom_site_type_symbol
 _atom_site_label
 _atom_site_symmetry_multiplicity
 _atom_site_fract_x
 _atom_site_fract_y
 _atom_site_fract_z
 _atom_site_occupancy
  C  C0  1  0.91631800  0.72874200  0.20780700  1
  C  C1  1  0.08368200  0.27125800  0.79219300  1
  Ni  Ni2  1  0.74792200  0.86462600  0.58353700  1
  Ni  Ni3  1  0.25207800  0.13537400  0.41646300  1
  Ni  Ni4  1  0.65659200  0.00090800  0.72752300  1
  Ni  Ni5  1  0.34340800  0.99909200  0.27247700  1
  Ni  Ni6  1  0.71517900  0.88412500  0.87916000  1
  Ni  Ni7  1  0.28482100  0.11587500  0.12084000  1
  Ni  Ni8  1  0.53127000  0.72751800  0.91368700  1
  Ni  Ni9  1  0.46873000  0.27248200  0.08631300  1
  Ni  Ni10  1  0.61236100  0.61584600  0.74730000  1
  Ni  Ni11  1  0.38763900  0.38415400  0.25270000  1
  Ni  Ni12  1  0.59725100  0.70162900  0.58568800  1
  Ni  Ni13  1  0.40274900  0.29837100  0.41431200  1
  Ni  Ni14  1  0.88516000  0.85332600  0.72636500  1
  Ni  Ni15  1  0.11484000  0.14667400  0.27363500  1
  Ni  Ni16  1  0.81424500  0.69310400  0.82762500  1
  Ni  Ni17  1  0.18575500  0.30689600  0.17237500  1
  Ni  Ni18  1  0.85547700  0.67954800  0.64964500  1
  Ni  Ni19  1  0.14452300  0.32045200  0.35035500  1
  Cu  Cu20  1  0.52754400  0.85085500  0.57429400  1
  Cu  Cu21  1  0.47245600  0.14914500  0.42570600  1
  Cu  Cu22  1  0.43248100  0.69017000  0.68417300  1
  Cu  Cu23  1  0.56751900  0.30983000  0.31582700  1
  Cu  Cu24  1  0.82848900  0.91023800  0.47700700  1
  Cu  Cu25  1  0.17151100  0.08976200  0.52299300  1
  Cu  Cu26  1  0.45077400  0.00215100  0.73077200  1
  Cu  Cu27  1  0.54922600  0.99784900  0.26922800  1
  Cu  Cu28  1  0.71393100  0.12671400  0.71125800  1
  Cu  Cu29  1  0.28606900  0.87328600  0.28874200  1
  Cu  Cu30  1  0.49434300  0.88403700  0.91498000  1
  Cu  Cu31  1  0.50565700  0.11596300  0.08502000  1
  Cu  Cu32  1  0.79883500  0.92972500  0.96957800  1
  Cu  Cu33  1  0.20116500  0.07027500  0.03042200  1
  Cu  Cu34  1  0.33980100  0.73911600  0.87818100  1
  Cu  Cu35  1  0.66019900  0.26088400  0.12181900  1
  Cu  Cu36  1  0.53019100  0.66758800  0.02299300  1
  Cu  Cu37  1  0.46980900  0.33241200  0.97700700  1
  Cu  Cu38  1  0.57320100  0.48660100  0.76097200  1
  Cu  Cu39  1  0.42679900  0.51339900  0.23902800  1
  Cu  Cu40  1  0.97982800  0.40304800  0.40216900  1
  Cu  Cu41  1  0.02017200  0.59695200  0.59783100  1
  Cu  Cu42  1  0.05032600  0.38955800  0.11292300  1
  Cu  Cu43  1  0.94967400  0.61044200  0.88707700  1
  Cu  Cu44  1  0.92594200  0.10796700  0.28258800  1
  Cu  Cu45  1  0.07405800  0.89203300  0.71741200  1
  Cu  Cu46  1  0.44503900  0.36182200  0.50821100  1
  Cu  Cu47  1  0.55496100  0.63817800  0.49178900  1
