# generated using pymatgen
data_CuNi3C4
_symmetry_space_group_name_H-M   'P 1'
_cell_length_a   6.83542600
_cell_length_b   9.89663700
_cell_length_c   10.88486700
_cell_angle_alpha   90.00000000
_cell_angle_beta   90.00000000
_cell_angle_gamma   90.00000000
_symmetry_Int_Tables_number   1
_chemical_formula_structural   CuNi3C4
_chemical_formula_sum   'Cu4 Ni12 C16'
_cell_volume   736.33654240
_cell_formula_units_Z   4
loop_
 _symmetry_equiv_pos_site_id
 _symmetry_equiv_pos_as_xyz
  1  'x, y, z'
loop_
 _atom_site_type_symbol
 _atom_site_label
 _atom_site_symmetry_multiplicity
 _atom_site_fract_x
 _atom_site_fract_y
 _atom_site_fract_z
 _atom_site_occupancy
  C  C0  1  0.62594200  0.46775200  0.17337900  1
  C  C1  1  0.12594200  0.53224800  0.82662100  1
  C  C2  1  0.37405800  0.96775200  0.32662100  1
  C  C3  1  0.87405800  0.03224800  0.67337900  1
  C  C4  1  0.37405800  0.53224800  0.82662100  1
  C  C5  1  0.87405800  0.46775200  0.17337900  1
  C  C6  1  0.62594200  0.03224800  0.67337900  1
  C  C7  1  0.12594200  0.96775200  0.32662100  1
  C  C8  1  0.25000000  0.39441900  0.77526700  1
  C  C9  1  0.25000000  0.06629200  0.42699300  1
  C  C10  1  0.75000000  0.89441900  0.72473300  1
  C  C11  1  0.25000000  0.10558100  0.27526700  1
  C  C12  1  0.25000000  0.43370800  0.92699300  1
  C  C13  1  0.75000000  0.56629200  0.07300700  1
  C  C14  1  0.75000000  0.93370800  0.57300700  1
  C  C15  1  0.75000000  0.60558100  0.22473300  1
  Ni  Ni16  1  0.25000000  0.94655200  0.87479400  1
  Ni  Ni17  1  0.75000000  0.23405300  0.92182200  1
  Ni  Ni18  1  0.75000000  0.26594700  0.42182200  1
  Ni  Ni19  1  0.25000000  0.73405300  0.57817800  1
  Ni  Ni20  1  0.25000000  0.76594700  0.07817800  1
  Ni  Ni21  1  0.75000000  0.05344800  0.12520600  1
  Ni  Ni22  1  0.75000000  0.44655200  0.62520600  1
  Ni  Ni23  1  0.25000000  0.55344800  0.37479400  1
  Ni  Ni24  1  0.25000000  0.15125000  0.65849000  1
  Ni  Ni25  1  0.75000000  0.84875000  0.34151000  1
  Ni  Ni26  1  0.75000000  0.65125000  0.84151000  1
  Ni  Ni27  1  0.25000000  0.34875000  0.15849000  1
  Cu  Cu28  1  0.25000000  0.02668600  0.33835600  1
  Cu  Cu29  1  0.75000000  0.52668600  0.16164400  1
  Cu  Cu30  1  0.75000000  0.97331400  0.66164400  1
  Cu  Cu31  1  0.25000000  0.47331400  0.83835600  1
