# generated using pymatgen
data_Cu4NiC8
_symmetry_space_group_name_H-M   'P 1'
_cell_length_a   3.45582029
_cell_length_b   5.80656354
_cell_length_c   12.07478582
_cell_angle_alpha   90.00000000
_cell_angle_beta   90.00000000
_cell_angle_gamma   112.45492049
_symmetry_Int_Tables_number   1
_chemical_formula_structural   Cu4NiC8
_chemical_formula_sum   'Cu4 Ni1 C8'
_cell_volume   223.92701604
_cell_formula_units_Z   1
loop_
 _symmetry_equiv_pos_site_id
 _symmetry_equiv_pos_as_xyz
  1  'x, y, z'
loop_
 _atom_site_type_symbol
 _atom_site_label
 _atom_site_symmetry_multiplicity
 _atom_site_fract_x
 _atom_site_fract_y
 _atom_site_fract_z
 _atom_site_occupancy
  Ni  Ni0  1  0.91497592  0.19866137  0.25000000  1
  Cu  Cu1  1  0.88605265  0.72361630  0.08939002  1
  Cu  Cu2  1  0.05820764  0.25404115  0.92058628  1
  Cu  Cu3  1  0.88605265  0.72361630  0.41060998  1
  Cu  Cu4  1  0.05820764  0.25404115  0.57941372  1
  C  C5  1  0.13304367  0.43480948  0.38110637  1
  C  C6  1  0.72475946  0.52178530  0.57384413  1
  C  C7  1  0.72475946  0.52178530  0.92615587  1
  C  C8  1  0.13304367  0.43480948  0.11889363  1
  C  C9  1  0.28146378  0.99099704  0.25000000  1
  C  C10  1  0.01639842  0.18382580  0.75000000  1
  C  C11  1  0.40401752  0.99879717  0.99096751  1
  C  C12  1  0.40401752  0.99879717  0.50903249  1
