# generated using pymatgen
data_Cu4NiC12
_symmetry_space_group_name_H-M   'P 1'
_cell_length_a   7.63674850
_cell_length_b   5.09410924
_cell_length_c   5.48470365
_cell_angle_alpha   88.39135287
_cell_angle_beta   85.12712861
_cell_angle_gamma   90.04377997
_symmetry_Int_Tables_number   1
_chemical_formula_structural   Cu4NiC12
_chemical_formula_sum   'Cu4 Ni1 C12'
_cell_volume   212.51226468
_cell_formula_units_Z   1
loop_
 _symmetry_equiv_pos_site_id
 _symmetry_equiv_pos_as_xyz
  1  'x, y, z'
loop_
 _atom_site_type_symbol
 _atom_site_label
 _atom_site_symmetry_multiplicity
 _atom_site_fract_x
 _atom_site_fract_y
 _atom_site_fract_z
 _atom_site_occupancy
  Ni  Ni0  1  0.28888600  0.00010600  0.61474000  1
  Cu  Cu1  1  0.99573700  0.47918500  0.51995600  1
  Cu  Cu2  1  0.99029300  0.01290100  0.00589100  1
  Cu  Cu3  1  0.51463300  0.50424500  0.49025100  1
  Cu  Cu4  1  0.51426300  0.00053600  0.01227200  1
  C  C5  1  0.06346300  0.19817100  0.69883500  1
  C  C6  1  0.06302400  0.29409300  0.20822600  1
  C  C7  1  0.25348800  0.89580100  0.97134400  1
  C  C8  1  0.43013800  0.30429100  0.77698400  1
  C  C9  1  0.25876600  0.64447500  0.49290000  1
  C  C10  1  0.42443200  0.17542900  0.33110500  1
  C  C11  1  0.53680000  0.82322700  0.67186000  1
  C  C12  1  0.74552900  0.37440500  0.50682400  1
  C  C13  1  0.55997900  0.65637900  0.18599900  1
  C  C14  1  0.75235700  0.13215400  0.02001600  1
  C  C15  1  0.93550800  0.71316300  0.79691900  1
  C  C16  1  0.95974200  0.79144000  0.29587800  1
