# generated using pymatgen
data_Cu6NiC12
_symmetry_space_group_name_H-M   'P 1'
_cell_length_a   5.25092606
_cell_length_b   14.38562082
_cell_length_c   3.06059425
_cell_angle_alpha   89.70861776
_cell_angle_beta   90.33218369
_cell_angle_gamma   79.32072390
_symmetry_Int_Tables_number   1
_chemical_formula_structural   Cu6NiC12
_chemical_formula_sum   'Cu6 Ni1 C12'
_cell_volume   227.17812175
_cell_formula_units_Z   1
loop_
 _symmetry_equiv_pos_site_id
 _symmetry_equiv_pos_as_xyz
  1  'x, y, z'
loop_
 _atom_site_type_symbol
 _atom_site_label
 _atom_site_symmetry_multiplicity
 _atom_site_fract_x
 _atom_site_fract_y
 _atom_site_fract_z
 _atom_site_occupancy
  Ni  Ni0  1  0.50712649  0.33141383  0.50008956  1
  Cu  Cu1  1  0.83141209  0.99531495  0.99834584  1
  Cu  Cu2  1  0.00654893  0.33240607  0.00012311  1
  Cu  Cu3  1  0.17110316  0.66830772  0.00146728  1
  Cu  Cu4  1  0.26295550  0.11335853  0.49904901  1
  Cu  Cu5  1  0.74027357  0.55076436  0.50080522  1
  Cu  Cu6  1  0.50037017  0.83197295  0.49986151  1
  C  C7  1  0.19720930  0.26037374  0.50237335  1
  C  C8  1  0.36597565  0.60536129  0.50102870  1
  C  C9  1  0.07011400  0.08441197  0.99755228  1
  C  C10  1  0.38461817  0.76453172  0.00087793  1
  C  C11  1  0.93440734  0.57869627  0.00239398  1
  C  C12  1  0.61547972  0.89959065  0.99881456  1
  C  C13  1  0.63732529  0.05862852  0.49822867  1
  C  C14  1  0.81493571  0.40364830  0.49794551  1
  C  C15  1  0.06393317  0.92830715  0.49603180  1
  C  C16  1  0.33086846  0.40654969  0.99774071  1
  C  C17  1  0.68438684  0.25708007  0.00252656  1
  C  C18  1  0.93651344  0.73483124  0.50474141  1
