# generated using pymatgen
data_CuNiC3
_symmetry_space_group_name_H-M   'P 1'
_cell_length_a   4.21979700
_cell_length_b   9.64021400
_cell_length_c   15.78138700
_cell_angle_alpha   90.00000000
_cell_angle_beta   90.00000000
_cell_angle_gamma   90.00000000
_symmetry_Int_Tables_number   1
_chemical_formula_structural   CuNiC3
_chemical_formula_sum   'Cu4 Ni4 C12'
_cell_volume   641.98281653
_cell_formula_units_Z   4
loop_
 _symmetry_equiv_pos_site_id
 _symmetry_equiv_pos_as_xyz
  1  'x, y, z'
loop_
 _atom_site_type_symbol
 _atom_site_label
 _atom_site_symmetry_multiplicity
 _atom_site_fract_x
 _atom_site_fract_y
 _atom_site_fract_z
 _atom_site_occupancy
  Ni  Ni0  1  0.25000000  0.43848400  0.17731600  1
  Ni  Ni1  1  0.75000000  0.56151600  0.82268400  1
  Ni  Ni2  1  0.25000000  0.93848400  0.32268400  1
  Ni  Ni3  1  0.75000000  0.06151600  0.67731600  1
  Cu  Cu4  1  0.25000000  0.16767600  0.94467800  1
  Cu  Cu5  1  0.75000000  0.83232400  0.05532200  1
  Cu  Cu6  1  0.25000000  0.66767600  0.55532200  1
  Cu  Cu7  1  0.75000000  0.33232400  0.44467800  1
  C  C8  1  0.25000000  0.02089900  0.10236600  1
  C  C9  1  0.75000000  0.97910100  0.89763400  1
  C  C10  1  0.25000000  0.52089900  0.39763400  1
  C  C11  1  0.75000000  0.47910100  0.60236600  1
  C  C12  1  0.25000000  0.16606400  0.50623900  1
  C  C13  1  0.75000000  0.83393600  0.49376100  1
  C  C14  1  0.25000000  0.66606400  0.99376100  1
  C  C15  1  0.75000000  0.33393600  0.00623900  1
  C  C16  1  0.75000000  0.21251300  0.28862400  1
  C  C17  1  0.25000000  0.78748700  0.71137600  1
  C  C18  1  0.75000000  0.71251300  0.21137600  1
  C  C19  1  0.25000000  0.28748700  0.78862400  1
