# generated using pymatgen
data_Cu2Ni18C5
_symmetry_space_group_name_H-M   'P 1'
_cell_length_a   5.40985143
_cell_length_b   22.46994900
_cell_length_c   8.04843907
_cell_angle_alpha   90.00000000
_cell_angle_beta   100.02674424
_cell_angle_gamma   90.00000000
_symmetry_Int_Tables_number   1
_chemical_formula_structural   Cu2Ni18C5
_chemical_formula_sum   'Cu8 Ni72 C20'
_cell_volume   963.41798940
_cell_formula_units_Z   4
loop_
 _symmetry_equiv_pos_site_id
 _symmetry_equiv_pos_as_xyz
  1  'x, y, z'
loop_
 _atom_site_type_symbol
 _atom_site_label
 _atom_site_symmetry_multiplicity
 _atom_site_fract_x
 _atom_site_fract_y
 _atom_site_fract_z
 _atom_site_occupancy
  C  C0  1  0.67944000  0.33236300  0.11752800  1
  C  C1  1  0.32056000  0.83236300  0.38247200  1
  C  C2  1  0.32056000  0.66763700  0.88247200  1
  C  C3  1  0.67944000  0.16763700  0.61752800  1
  C  C4  1  0.16351500  0.17008600  0.56602200  1
  C  C5  1  0.83648500  0.67008600  0.93397800  1
  C  C6  1  0.83648500  0.82991400  0.43397800  1
  C  C7  1  0.16351500  0.32991400  0.06602200  1
  C  C8  1  0.80039900  0.08668500  0.81052800  1
  C  C9  1  0.19960100  0.58668500  0.68947200  1
  C  C10  1  0.19960100  0.91331500  0.18947200  1
  C  C11  1  0.80039900  0.41331500  0.31052800  1
  C  C12  1  0.32421300  0.75432400  0.12403300  1
  C  C13  1  0.67578700  0.25432400  0.37596700  1
  C  C14  1  0.67578700  0.24567600  0.87596700  1
  C  C15  1  0.32421300  0.74567600  0.62403300  1
  Ni  Ni16  1  0.27885200  0.19805800  0.47288200  1
  Ni  Ni17  1  0.72114800  0.69805800  0.02711800  1
  Ni  Ni18  1  0.72114800  0.80194200  0.52711800  1
  Ni  Ni19  1  0.27885200  0.30194200  0.97288200  1
  Ni  Ni20  1  0.29734500  0.13718800  0.66468500  1
  Ni  Ni21  1  0.70265500  0.63718800  0.83531500  1
  Ni  Ni22  1  0.70265500  0.86281200  0.33531500  1
  Ni  Ni23  1  0.29734500  0.36281200  0.16468500  1
  Ni  Ni24  1  0.06835200  0.20704900  0.64820100  1
  Ni  Ni25  1  0.93164800  0.70704900  0.85179900  1
  Ni  Ni26  1  0.93164800  0.79295100  0.35179900  1
  Ni  Ni27  1  0.06835200  0.29295100  0.14820100  1
  Ni  Ni28  1  0.00442200  0.13865300  0.47889200  1
  Ni  Ni29  1  0.99557800  0.63865300  0.02110800  1
  Ni  Ni30  1  0.99557800  0.86134700  0.52110800  1
  Ni  Ni31  1  0.00442200  0.36134700  0.97889200  1
  Ni  Ni32  1  0.86374000  0.04503700  0.90175300  1
  Ni  Ni33  1  0.13626000  0.54503700  0.59824700  1
  Ni  Ni34  1  0.13626000  0.95496300  0.09824700  1
  Ni  Ni35  1  0.86374000  0.45496300  0.40175300  1
  Ni  Ni36  1  0.96068400  0.12632600  0.82238800  1
  Ni  Ni37  1  0.03931600  0.62632600  0.67761200  1
  Ni  Ni38  1  0.03931600  0.87367400  0.17761200  1
  Ni  Ni39  1  0.96068400  0.37367400  0.32238800  1
  Ni  Ni40  1  0.76058200  0.07164700  0.65970200  1
  Ni  Ni41  1  0.23941800  0.57164700  0.84029800  1
  Ni  Ni42  1  0.23941800  0.92835300  0.34029800  1
  Ni  Ni43  1  0.76058200  0.42835300  0.15970200  1
  Ni  Ni44  1  0.60539900  0.11067100  0.83698800  1
  Ni  Ni45  1  0.39460100  0.61067100  0.66301200  1
  Ni  Ni46  1  0.39460100  0.88932900  0.16301200  1
  Ni  Ni47  1  0.60539900  0.38932900  0.33698800  1
  Ni  Ni48  1  0.12915400  0.77195400  0.16534700  1
  Ni  Ni49  1  0.87084600  0.27195400  0.33465300  1
  Ni  Ni50  1  0.87084600  0.22804600  0.83465300  1
  Ni  Ni51  1  0.12915400  0.72804600  0.66534700  1
  Ni  Ni52  1  0.33933800  0.70056900  0.15158300  1
  Ni  Ni53  1  0.66066200  0.20056900  0.34841700  1
  Ni  Ni54  1  0.66066200  0.29943100  0.84841700  1
  Ni  Ni55  1  0.33933800  0.79943100  0.65158300  1
  Ni  Ni56  1  0.31689400  0.76657400  0.97414100  1
  Ni  Ni57  1  0.68310600  0.26657400  0.52585900  1
  Ni  Ni58  1  0.68310600  0.23342600  0.02585900  1
  Ni  Ni59  1  0.31689400  0.73342600  0.47414100  1
  Ni  Ni60  1  0.51370400  0.77745200  0.20485600  1
  Ni  Ni61  1  0.48629600  0.27745200  0.29514400  1
  Ni  Ni62  1  0.48629600  0.22254800  0.79514400  1
  Ni  Ni63  1  0.51370400  0.72254800  0.70485600  1
  Ni  Ni64  1  0.80512200  0.01103000  0.41551800  1
  Ni  Ni65  1  0.19487800  0.51103000  0.08448200  1
  Ni  Ni66  1  0.19487800  0.98897000  0.58448200  1
  Ni  Ni67  1  0.80512200  0.48897000  0.91551800  1
  Ni  Ni68  1  0.85762100  0.06150300  0.25220900  1
  Ni  Ni69  1  0.14237900  0.56150300  0.24779100  1
  Ni  Ni70  1  0.14237900  0.93849700  0.74779100  1
  Ni  Ni71  1  0.85762100  0.43849700  0.75220900  1
  Ni  Ni72  1  0.62847900  0.00300200  0.20791000  1
  Ni  Ni73  1  0.37152100  0.50300200  0.29209000  1
  Ni  Ni74  1  0.37152100  0.99699800  0.79209000  1
  Ni  Ni75  1  0.62847900  0.49699800  0.70791000  1
  Ni  Ni76  1  0.20526400  0.14747800  0.18587700  1
  Ni  Ni77  1  0.79473600  0.64747800  0.31412300  1
  Ni  Ni78  1  0.79473600  0.85252200  0.81412300  1
  Ni  Ni79  1  0.20526400  0.35252200  0.68587700  1
  Ni  Ni80  1  0.26281900  0.08118000  0.07565400  1
  Ni  Ni81  1  0.73718100  0.58118000  0.42434600  1
  Ni  Ni82  1  0.73718100  0.91882000  0.92434600  1
  Ni  Ni83  1  0.26281900  0.41882000  0.57565400  1
  Ni  Ni84  1  0.49557200  0.13914400  0.11066500  1
  Ni  Ni85  1  0.50442800  0.63914400  0.38933500  1
  Ni  Ni86  1  0.50442800  0.86085600  0.88933500  1
  Ni  Ni87  1  0.49557200  0.36085600  0.61066500  1
  Cu  Cu88  1  0.71694300  0.03515400  0.30233600  1
  Cu  Cu89  1  0.28305700  0.53515400  0.19766400  1
  Cu  Cu90  1  0.28305700  0.96484600  0.69766400  1
  Cu  Cu91  1  0.71694300  0.46484600  0.80233600  1
  Cu  Cu92  1  0.34926500  0.11566200  0.16320400  1
  Cu  Cu93  1  0.65073500  0.61566200  0.33679600  1
  Cu  Cu94  1  0.65073500  0.88433800  0.83679600  1
  Cu  Cu95  1  0.34926500  0.38433800  0.66320400  1
  C  C96  1  0.47591800  0.08173900  0.36324500  1
  C  C97  1  0.52408200  0.58173900  0.13675500  1
  C  C98  1  0.52408200  0.91826100  0.63675500  1
  C  C99  1  0.47591800  0.41826100  0.86324500  1
