# generated using pymatgen
data_Cu2NiC32
_symmetry_space_group_name_H-M   'P 1'
_cell_length_a   17.96238679
_cell_length_b   8.98127425
_cell_length_c   23.60249986
_cell_angle_alpha   90.14513252
_cell_angle_beta   89.96803800
_cell_angle_gamma   120.07579028
_symmetry_Int_Tables_number   1
_chemical_formula_structural   Cu2NiC32
_chemical_formula_sum   'Cu12 Ni6 C192'
_cell_volume   3295.01134696
_cell_formula_units_Z   6
loop_
 _symmetry_equiv_pos_site_id
 _symmetry_equiv_pos_as_xyz
  1  'x, y, z'
loop_
 _atom_site_type_symbol
 _atom_site_label
 _atom_site_symmetry_multiplicity
 _atom_site_fract_x
 _atom_site_fract_y
 _atom_site_fract_z
 _atom_site_occupancy
  Ni  Ni0  1  0.99805823  0.97906104  0.49461041  1
  Ni  Ni1  1  0.49862236  0.00967143  0.99948098  1
  Ni  Ni2  1  0.33651079  0.32671330  0.83929173  1
  Ni  Ni3  1  0.84071703  0.34385636  0.83221888  1
  Ni  Ni4  1  0.34088286  0.33055381  0.32883512  1
  Ni  Ni5  1  0.84308732  0.34683141  0.34115246  1
  Cu  Cu6  1  0.00233694  0.99242032  0.35704474  1
  Cu  Cu7  1  0.00301261  0.00242395  0.85848413  1
  Cu  Cu8  1  0.33211455  0.33608278  0.68219101  1
  Cu  Cu9  1  0.83582452  0.33373030  0.68155513  1
  Cu  Cu10  1  0.33968277  0.33335154  0.18503632  1
  Cu  Cu11  1  0.83313858  0.33032301  0.18213938  1
  Cu  Cu12  1  0.33962309  0.33478141  0.98259224  1
  Cu  Cu13  1  0.83475825  0.33576990  0.98555583  1
  Cu  Cu14  1  0.33572921  0.33485395  0.48295121  1
  Cu  Cu15  1  0.83686361  0.33892770  0.48119143  1
  Cu  Cu16  1  0.66378309  0.66388447  0.52080629  1
  Cu  Cu17  1  0.16444105  0.66485597  0.80784370  1
  C  C18  1  0.50086050  0.29398214  0.25440337  1
  C  C19  1  0.52236996  0.37740513  0.91296724  1
  C  C20  1  0.02130699  0.66514628  0.41749126  1
  C  C21  1  0.49870202  0.00448964  0.35262886  1
  C  C22  1  0.49928071  0.00726585  0.85423611  1
  C  C23  1  0.99839790  0.99629190  0.65134123  1
  C  C24  1  0.50073499  0.00252043  0.64676004  1
  C  C25  1  0.00063539  0.00068405  0.15110166  1
  C  C26  1  0.50058589  0.00928368  0.15394933  1
  C  C27  1  0.16615636  0.66537184  0.01694718  1
  C  C28  1  0.66222741  0.65406868  0.01758234  1
  C  C29  1  0.16504679  0.66859943  0.51850320  1
  C  C30  1  0.16079547  0.66312900  0.31417409  1
  C  C31  1  0.66599970  0.65943585  0.31301144  1
  C  C32  1  0.66570325  0.66356391  0.81328190  1
  C  C33  1  0.14560626  0.99300393  0.24981776  1
  C  C34  1  0.64309619  0.99308324  0.25281525  1
  C  C35  1  0.35124980  0.71298724  0.25385274  1
  C  C36  1  0.85195886  0.71097035  0.25008293  1
  C  C37  1  0.00470404  0.29711198  0.25053235  1
  C  C38  1  0.14425294  0.28569512  0.74868133  1
  C  C39  1  0.64345003  0.29032300  0.75227585  1
  C  C40  1  0.99774932  0.70972095  0.74964397  1
  C  C41  1  0.50409800  0.72192617  0.75342095  1
  C  C42  1  0.36022682  0.00252919  0.74939632  1
  C  C43  1  0.84901109  0.99044383  0.75301654  1
  C  C44  1  0.48136667  0.32418448  0.58616900  1
  C  C45  1  0.98843761  0.32916194  0.58402621  1
  C  C46  1  0.17977814  0.02696956  0.58354077  1
  C  C47  1  0.67973371  0.03569389  0.58604283  1
  C  C48  1  0.33177151  0.64083150  0.58268126  1
  C  C49  1  0.83860781  0.64356990  0.58606648  1
  C  C50  1  0.48888193  0.65014198  0.08403321  1
  C  C51  1  0.98818683  0.64426708  0.08392319  1
  C  C52  1  0.33320379  0.02032953  0.08249971  1
  C  C53  1  0.83206464  0.02015219  0.08279731  1
  C  C54  1  0.17938927  0.33391907  0.08353483  1
  C  C55  1  0.67862056  0.33021017  0.08299650  1
  C  C56  1  0.31465382  0.67266822  0.91544598  1
  C  C57  1  0.80760391  0.66531658  0.91643517  1
  C  C58  1  0.02170563  0.37978452  0.91794202  1
  C  C59  1  0.16746466  0.95356820  0.91827285  1
  C  C60  1  0.66465078  0.95263603  0.91393296  1
  C  C61  1  0.31305973  0.95010272  0.41430095  1
  C  C62  1  0.80732365  0.95251987  0.41332730  1
  C  C63  1  0.17002837  0.38702251  0.41622398  1
  C  C64  1  0.66389035  0.36793348  0.41324732  1
  C  C65  1  0.52046056  0.67580780  0.41084737  1
  C  C66  1  0.10487628  0.01492711  0.29916575  1
  C  C67  1  0.60038418  0.01703299  0.30297928  1
  C  C68  1  0.40728189  0.79251281  0.30414232  1
  C  C69  1  0.90537631  0.79080011  0.29893150  1
  C  C70  1  0.48432543  0.16620661  0.30815091  1
  C  C71  1  0.99350367  0.19330262  0.29966277  1
  C  C72  1  0.10209411  0.18007765  0.79794224  1
  C  C73  1  0.60163453  0.18132768  0.80357832  1
  C  C74  1  0.49163221  0.80561026  0.80533130  1
  C  C75  1  0.98679541  0.79449851  0.79881436  1
  C  C76  1  0.41469345  0.02866297  0.80177229  1
  C  C77  1  0.90052207  0.01161743  0.80272483  1
  C  C78  1  0.40401261  0.97972645  0.69836827  1
  C  C79  1  0.88627865  0.96160482  0.69968152  1
  C  C80  1  0.09103728  0.20171259  0.69455464  1
  C  C81  1  0.58965102  0.21107016  0.70102136  1
  C  C82  1  0.00763288  0.81220680  0.69548956  1
  C  C83  1  0.51591819  0.82676072  0.70176375  1
  C  C84  1  0.39051805  0.81845782  0.20142518  1
  C  C85  1  0.89158119  0.81775046  0.19621377  1
  C  C86  1  0.01635016  0.21601768  0.19630903  1
  C  C87  1  0.51978900  0.21146046  0.19579111  1
  C  C88  1  0.09042226  0.96070864  0.19656460  1
  C  C89  1  0.58908118  0.95959000  0.20001695  1
  C  C90  1  0.44095044  0.34642272  0.63684816  1
  C  C91  1  0.95153561  0.35716751  0.63495348  1
  C  C92  1  0.23006743  0.10387920  0.63459092  1
  C  C93  1  0.72910005  0.11588587  0.63751260  1
  C  C94  1  0.31495688  0.53661516  0.63336996  1
  C  C95  1  0.83038991  0.54637221  0.63741165  1
  C  C96  1  0.45222814  0.54592267  0.13421911  1
  C  C97  1  0.95082386  0.53697263  0.13395447  1
  C  C98  1  0.31914822  0.09331920  0.13352461  1
  C  C99  1  0.81445824  0.09158317  0.13337330  1
  C  C100  1  0.23172297  0.36858893  0.13424261  1
  C  C101  1  0.72871714  0.35198101  0.13394152  1
  C  C102  1  0.21527132  0.30067252  0.03294626  1
  C  C103  1  0.71571080  0.30243535  0.03176149  1
  C  C104  1  0.43722457  0.58094423  0.03281679  1
  C  C105  1  0.93530000  0.57272080  0.03331727  1
  C  C106  1  0.35042389  0.12534751  0.03196018  1
  C  C107  1  0.84859261  0.12695657  0.03266213  1
  C  C108  1  0.21611675  0.13078934  0.53248870  1
  C  C109  1  0.71661654  0.14328447  0.53595621  1
  C  C110  1  0.34773156  0.56691856  0.53226898  1
  C  C111  1  0.85636866  0.57175982  0.53547341  1
  C  C112  1  0.42787012  0.29227933  0.53541422  1
  C  C113  1  0.93640813  0.29561513  0.53322494  1
  C  C114  1  0.27787684  0.70470826  0.96883999  1
  C  C115  1  0.76632536  0.69067632  0.96858756  1
  C  C116  1  0.07406076  0.46229636  0.97232013  1
  C  C117  1  0.58112615  0.45760393  0.97127138  1
  C  C118  1  0.15801501  0.85022066  0.97275641  1
  C  C119  1  0.65205864  0.84921253  0.96598292  1
  C  C120  1  0.27479183  0.84766403  0.46625568  1
  C  C121  1  0.76540838  0.84905456  0.46292201  1
  C  C122  1  0.16324625  0.47350186  0.46878050  1
  C  C123  1  0.65040483  0.44451369  0.46315596  1
  C  C124  1  0.08379013  0.69477678  0.47379781  1
  C  C125  1  0.56976408  0.70481503  0.46213087  1
  C  C126  1  0.06492826  0.63354645  0.35844626  1
  C  C127  1  0.56357625  0.65337540  0.35949750  1
  C  C128  1  0.26076976  0.86818902  0.36236661  1
  C  C129  1  0.75481334  0.86476923  0.35882289  1
  C  C130  1  0.18366019  0.49351359  0.36365400  1
  C  C131  1  0.67622938  0.47539823  0.36099407  1
  C  C132  1  0.06408870  0.48601582  0.86883467  1
  C  C133  1  0.56897063  0.49490493  0.85659713  1
  C  C134  1  0.17936391  0.86983945  0.86903683  1
  C  C135  1  0.67822993  0.87435688  0.86222735  1
  C  C136  1  0.26618652  0.65834562  0.86525618  1
  C  C137  1  0.75394384  0.64112331  0.86421086  1
  C  C138  1  0.01868396  0.84079425  0.41980581  1
  C  C139  1  0.51286588  0.83538104  0.40253686  1
  C  C140  1  0.39846970  0.95960001  0.40899496  1
  C  C141  1  0.89262534  0.97163788  0.40802992  1
  C  C142  1  0.09046586  0.22299546  0.41302062  1
  C  C143  1  0.58383058  0.19333329  0.40654219  1
  C  C144  1  0.01444372  0.21157190  0.91600697  1
  C  C145  1  0.51956223  0.18660252  0.90990323  1
  C  C146  1  0.08867757  0.96144971  0.91662189  1
  C  C147  1  0.58243770  0.95830244  0.90819936  1
  C  C148  1  0.40505907  0.83474521  0.91252381  1
  C  C149  1  0.89035410  0.81788881  0.91192174  1
  C  C150  1  0.48769031  0.16105250  0.59242928  1
  C  C151  1  0.99774546  0.16939977  0.59186080  1
  C  C152  1  0.08987433  0.00114522  0.59038499  1
  C  C153  1  0.58957896  0.01940532  0.59261107  1
  C  C154  1  0.40950295  0.81704840  0.59199382  1
  C  C155  1  0.92084534  0.82561280  0.59130560  1
  C  C156  1  0.49959678  0.82942947  0.09290316  1
  C  C157  1  0.99887602  0.82148952  0.09332295  1
  C  C158  1  0.41099118  0.99428944  0.08964601  1
  C  C159  1  0.90917632  0.99788458  0.09249474  1
  C  C160  1  0.08926445  0.17980349  0.09271743  1
  C  C161  1  0.58906192  0.17175782  0.08831222  1
  C  C162  1  0.35504699  0.15911512  0.74510019  1
  C  C163  1  0.83524086  0.13704621  0.74700309  1
  C  C164  1  0.22950416  0.30079137  0.74291686  1
  C  C165  1  0.72848638  0.30834643  0.74842840  1
  C  C166  1  0.42853412  0.55039047  0.74918301  1
  C  C167  1  0.92033565  0.53694516  0.74510138  1
  C  C168  1  0.33926803  0.54036394  0.24775199  1
  C  C169  1  0.83877640  0.53733401  0.24170120  1
  C  C170  1  0.41775152  0.31450441  0.25107716  1
  C  C171  1  0.93086077  0.32296878  0.24283993  1
  C  C172  1  0.23015021  0.14526487  0.24191443  1
  C  C173  1  0.72771828  0.14789652  0.24681014  1
  C  C174  1  0.32513474  0.52269724  0.92224958  1
  C  C175  1  0.81166858  0.50595723  0.92077317  1
  C  C176  1  0.42874720  0.35421431  0.91524675  1
  C  C177  1  0.93599918  0.36486013  0.92367433  1
  C  C178  1  0.24386506  0.12600032  0.92423299  1
  C  C179  1  0.73872191  0.12659441  0.91894313  1
  C  C180  1  0.32363497  0.12296200  0.41845666  1
  C  C181  1  0.81142860  0.12005321  0.41413915  1
  C  C182  1  0.24675865  0.36860375  0.41971511  1
  C  C183  1  0.73892375  0.34547360  0.41544127  1
  C  C184  1  0.43354526  0.52402118  0.41304589  1
  C  C185  1  0.92964423  0.49123441  0.41674833  1
  C  C186  1  0.16758137  0.48943472  0.07402164  1
  C  C187  1  0.66960411  0.48764306  0.07728759  1
  C  C188  1  0.07685245  0.66838172  0.07508975  1
  C  C189  1  0.57823039  0.67652337  0.07518535  1
  C  C190  1  0.25594953  0.84346924  0.07393804  1
  C  C191  1  0.75406858  0.84234581  0.07271065  1
  C  C192  1  0.17203594  0.85257518  0.57706462  1
  C  C193  1  0.66517370  0.86219277  0.57994354  1
  C  C194  1  0.25545995  0.66686447  0.57373289  1
  C  C195  1  0.76604889  0.67135538  0.57957377  1
  C  C196  1  0.07802458  0.47926247  0.57668967  1
  C  C197  1  0.56755321  0.46980008  0.57994219  1
  C  C198  1  0.15443001  0.83489578  0.25363315  1
  C  C199  1  0.65140540  0.83817901  0.25948812  1
  C  C200  1  0.26686674  0.70614803  0.26126059  1
  C  C201  1  0.76677243  0.70339747  0.25482165  1
  C  C202  1  0.08737762  0.46915128  0.25301670  1
  C  C203  1  0.59091351  0.47853907  0.26114703  1
  C  C204  1  0.15113223  0.45391963  0.75042471  1
  C  C205  1  0.64970962  0.46191071  0.75795646  1
  C  C206  1  0.07572057  0.69817215  0.75088901  1
  C  C207  1  0.58527547  0.71648885  0.75917164  1
  C  C208  1  0.27837945  0.84684817  0.75359123  1
  C  C209  1  0.76030868  0.82515781  0.75761089  1
