# generated using pymatgen
data_Cu2Ni2C7
_symmetry_space_group_name_H-M   'P 1'
_cell_length_a   2.92859200
_cell_length_b   5.83796335
_cell_length_c   8.45065549
_cell_angle_alpha   85.33893852
_cell_angle_beta   90.00003472
_cell_angle_gamma   90.00006932
_symmetry_Int_Tables_number   1
_chemical_formula_structural   Cu2Ni2C7
_chemical_formula_sum   'Cu2 Ni2 C7'
_cell_volume   144.00314355
_cell_formula_units_Z   1
loop_
 _symmetry_equiv_pos_site_id
 _symmetry_equiv_pos_as_xyz
  1  'x, y, z'
loop_
 _atom_site_type_symbol
 _atom_site_label
 _atom_site_symmetry_multiplicity
 _atom_site_fract_x
 _atom_site_fract_y
 _atom_site_fract_z
 _atom_site_occupancy
  C  C0  1  0.00000000  0.00000000  0.00000000  1
  Ni  Ni1  1  0.99999700  0.50000000  0.49999900  1
  Ni  Ni2  1  0.99999800  0.49999800  0.00000100  1
  Cu  Cu3  1  0.50000100  0.86502900  0.73199500  1
  Cu  Cu4  1  0.50000000  0.13497100  0.26800500  1
  C  C5  1  0.50000100  0.67939000  0.60606900  1
  C  C6  1  0.50000000  0.32061100  0.39393100  1
  C  C7  1  0.50000100  0.78068900  0.92997800  1
  C  C8  1  0.50000100  0.21931100  0.07002100  1
  C  C9  1  0.00000200  0.97926900  0.26776400  1
  C  C10  1  0.00000000  0.02073200  0.73223600  1
