# generated using pymatgen
data_Cu2Ni2C11
_symmetry_space_group_name_H-M   'P 1'
_cell_length_a   3.91154100
_cell_length_b   3.91199500
_cell_length_c   11.99471700
_cell_angle_alpha   90.00000000
_cell_angle_beta   90.00000000
_cell_angle_gamma   90.00000000
_symmetry_Int_Tables_number   1
_chemical_formula_structural   Cu2Ni2C11
_chemical_formula_sum   'Cu2 Ni2 C11'
_cell_volume   183.54230592
_cell_formula_units_Z   1
loop_
 _symmetry_equiv_pos_site_id
 _symmetry_equiv_pos_as_xyz
  1  'x, y, z'
loop_
 _atom_site_type_symbol
 _atom_site_label
 _atom_site_symmetry_multiplicity
 _atom_site_fract_x
 _atom_site_fract_y
 _atom_site_fract_z
 _atom_site_occupancy
  Ni  Ni0  1  0.25000000  0.25000000  0.63779500  1
  Ni  Ni1  1  0.75000000  0.75000000  0.36234500  1
  Cu  Cu2  1  0.75000000  0.75000000  0.11012500  1
  Cu  Cu3  1  0.25000000  0.25000000  0.88977300  1
  C  C4  1  0.25000000  0.75000000  0.50003700  1
  C  C5  1  0.25000000  0.25000000  0.25673500  1
  C  C6  1  0.75000000  0.75000000  0.74348300  1
  C  C7  1  0.75000000  0.75000000  0.92548100  1
  C  C8  1  0.25000000  0.25000000  0.07438800  1
  C  C9  1  0.75000000  0.75000000  0.56986000  1
  C  C10  1  0.25000000  0.25000000  0.43002800  1
  C  C11  1  0.75000000  0.25000000  0.23384100  1
  C  C12  1  0.25000000  0.75000000  0.25023400  1
  C  C13  1  0.75000000  0.25000000  0.76595700  1
  C  C14  1  0.25000000  0.75000000  0.74991900  1
