# generated using pymatgen
data_Cu4NiC8
_symmetry_space_group_name_H-M   'P 1'
_cell_length_a   5.47144308
_cell_length_b   9.32988254
_cell_length_c   3.35648176
_cell_angle_alpha   100.24572680
_cell_angle_beta   89.58306622
_cell_angle_gamma   89.59449037
_symmetry_Int_Tables_number   1
_chemical_formula_structural   Cu4NiC8
_chemical_formula_sum   'Cu4 Ni1 C8'
_cell_volume   168.59863426
_cell_formula_units_Z   1
loop_
 _symmetry_equiv_pos_site_id
 _symmetry_equiv_pos_as_xyz
  1  'x, y, z'
loop_
 _atom_site_type_symbol
 _atom_site_label
 _atom_site_symmetry_multiplicity
 _atom_site_fract_x
 _atom_site_fract_y
 _atom_site_fract_z
 _atom_site_occupancy
  Ni  Ni0  1  0.63251519  0.00428382  0.65306241  1
  Cu  Cu1  1  0.13419584  0.96111253  0.13870669  1
  Cu  Cu2  1  0.94363201  0.47326346  0.89806245  1
  Cu  Cu3  1  0.47648518  0.35141310  0.33538161  1
  Cu  Cu4  1  0.28271729  0.67854971  0.50033284  1
  C  C5  1  0.16233364  0.43267370  0.37510152  1
  C  C6  1  0.33047068  0.88468437  0.60781658  1
  C  C7  1  0.11611038  0.67152423  0.99774049  1
  C  C8  1  0.64334328  0.34576792  0.83079987  1
  C  C9  1  0.45797705  0.12727289  0.22661413  1
  C  C10  1  0.76023413  0.90764415  0.10129520  1
  C  C11  1  0.96725124  0.08689543  0.67620321  1
  C  C12  1  0.60662210  0.58205569  0.45055000  1
