# generated using pymatgen
data_CuNiC11
_symmetry_space_group_name_H-M   'P 1'
_cell_length_a   5.10697800
_cell_length_b   5.10720125
_cell_length_c   6.40700665
_cell_angle_alpha   88.35479485
_cell_angle_beta   88.35972658
_cell_angle_gamma   67.65090166
_symmetry_Int_Tables_number   1
_chemical_formula_structural   CuNiC11
_chemical_formula_sum   'Cu1 Ni1 C11'
_cell_volume   154.46523913
_cell_formula_units_Z   1
loop_
 _symmetry_equiv_pos_site_id
 _symmetry_equiv_pos_as_xyz
  1  'x, y, z'
loop_
 _atom_site_type_symbol
 _atom_site_label
 _atom_site_symmetry_multiplicity
 _atom_site_fract_x
 _atom_site_fract_y
 _atom_site_fract_z
 _atom_site_occupancy
  Ni  Ni0  1  0.66529000  0.66525800  0.76493700  1
  C  C1  1  0.33853500  0.33852100  0.73427100  1
  C  C2  1  0.64259200  0.64260500  0.26434500  1
  C  C3  1  0.00177100  0.00182400  0.49711400  1
  Cu  Cu4  1  0.99788100  0.99770000  0.01469700  1
  C  C5  1  0.78630400  0.26834100  0.27286200  1
  C  C6  1  0.22675400  0.22663500  0.95364600  1
  C  C7  1  0.26827600  0.78638000  0.27286200  1
  C  C8  1  0.77056400  0.77067500  0.48814600  1
  C  C9  1  0.72372000  0.24557100  0.73317700  1
  C  C10  1  0.23775800  0.23785800  0.51548900  1
  C  C11  1  0.24556000  0.72369400  0.73319700  1
  C  C12  1  0.76999500  0.76993500  0.03526000  1
