# generated using pymatgen
data_Cu2Ni3C11
_symmetry_space_group_name_H-M   'P 1'
_cell_length_a   5.22922979
_cell_length_b   5.68614235
_cell_length_c   7.87418369
_cell_angle_alpha   105.96405404
_cell_angle_beta   100.01303891
_cell_angle_gamma   106.92876974
_symmetry_Int_Tables_number   1
_chemical_formula_structural   Cu2Ni3C11
_chemical_formula_sum   'Cu2 Ni3 C11'
_cell_volume   206.97704542
_cell_formula_units_Z   1
loop_
 _symmetry_equiv_pos_site_id
 _symmetry_equiv_pos_as_xyz
  1  'x, y, z'
loop_
 _atom_site_type_symbol
 _atom_site_label
 _atom_site_symmetry_multiplicity
 _atom_site_fract_x
 _atom_site_fract_y
 _atom_site_fract_z
 _atom_site_occupancy
  C  C0  1  0.55010700  0.81377000  0.42024000  1
  Ni  Ni1  1  0.01085800  0.50345800  0.99677500  1
  Ni  Ni2  1  0.70006900  0.85924000  0.88748800  1
  Ni  Ni3  1  0.30686600  0.10943000  0.09130100  1
  Cu  Cu4  1  0.10494200  0.68754700  0.69548000  1
  Cu  Cu5  1  0.89550200  0.30534800  0.29130600  1
  C  C6  1  0.06216200  0.01265400  0.83267800  1
  C  C7  1  0.33660200  0.68127600  0.91905400  1
  C  C8  1  0.10710900  0.34279400  0.53051600  1
  C  C9  1  0.21359100  0.52040600  0.23370600  1
  C  C10  1  0.45609800  0.85996400  0.65978700  1
  C  C11  1  0.54921800  0.10100800  0.31581100  1
  C  C12  1  0.80397000  0.49646500  0.77294600  1
  C  C13  1  0.86481200  0.65741300  0.45661000  1
  C  C14  1  0.67704100  0.32748500  0.07489900  1
  C  C15  1  0.94855300  0.98959800  0.15473400  1
