# generated using pymatgen
data_Cu2NiC12
_symmetry_space_group_name_H-M   'P 1'
_cell_length_a   6.41223662
_cell_length_b   6.41223662
_cell_length_c   6.41223662
_cell_angle_alpha   60.00000000
_cell_angle_beta   60.00000000
_cell_angle_gamma   60.00000000
_symmetry_Int_Tables_number   1
_chemical_formula_structural   Cu2NiC12
_chemical_formula_sum   'Cu2 Ni1 C12'
_cell_volume   186.42906575
_cell_formula_units_Z   1
loop_
 _symmetry_equiv_pos_site_id
 _symmetry_equiv_pos_as_xyz
  1  'x, y, z'
loop_
 _atom_site_type_symbol
 _atom_site_label
 _atom_site_symmetry_multiplicity
 _atom_site_fract_x
 _atom_site_fract_y
 _atom_site_fract_z
 _atom_site_occupancy
  Ni  Ni0  1  0.25000000  0.25000000  0.25000000  1
  C  C1  1  0.81755000  0.39415000  0.39415000  1
  C  C2  1  0.39415000  0.81755000  0.39415000  1
  C  C3  1  0.39415000  0.39415000  0.81755000  1
  C  C4  1  0.39415000  0.39415000  0.39415000  1
  Cu  Cu5  1  0.75000000  0.75000000  0.75000000  1
  Cu  Cu6  1  0.00000000  0.00000000  0.00000000  1
  C  C7  1  0.60618000  0.13127300  0.13127300  1
  C  C8  1  0.13127300  0.60618000  0.13127300  1
  C  C9  1  0.13127300  0.13127300  0.60618000  1
  C  C10  1  0.13127300  0.13127300  0.13127300  1
  C  C11  1  0.14653200  0.61782300  0.61782300  1
  C  C12  1  0.61782300  0.14653200  0.61782300  1
  C  C13  1  0.61782300  0.61782300  0.14653200  1
  C  C14  1  0.61782300  0.61782300  0.61782300  1
