# generated using pymatgen
data_Cu24(NiC2)5
_symmetry_space_group_name_H-M   'P 1'
_cell_length_a   8.92725920
_cell_length_b   8.93019560
_cell_length_c   22.25865398
_cell_angle_alpha   89.20696011
_cell_angle_beta   90.25087544
_cell_angle_gamma   120.00205772
_symmetry_Int_Tables_number   1
_chemical_formula_structural   Cu24(NiC2)5
_chemical_formula_sum   'Cu72 Ni15 C30'
_cell_volume   1536.58350655
_cell_formula_units_Z   3
loop_
 _symmetry_equiv_pos_site_id
 _symmetry_equiv_pos_as_xyz
  1  'x, y, z'
loop_
 _atom_site_type_symbol
 _atom_site_label
 _atom_site_symmetry_multiplicity
 _atom_site_fract_x
 _atom_site_fract_y
 _atom_site_fract_z
 _atom_site_occupancy
  C  C0  1  0.36228814  0.35743481  0.25151659  1
  C  C1  1  0.00306054  0.63980221  0.24737494  1
  C  C2  1  0.63494544  0.63956250  0.74571609  1
  C  C3  1  0.99442997  0.35817684  0.75317604  1
  C  C4  1  0.30984647  0.33988609  0.58429975  1
  C  C5  1  0.66870742  0.96350769  0.58595683  1
  C  C6  1  0.30068891  0.96823064  0.08602930  1
  C  C7  1  0.69892501  0.03181532  0.91443581  1
  C  C8  1  0.69827428  0.66582365  0.42059517  1
  C  C9  1  0.00905180  0.99083622  0.49929010  1
  C  C10  1  0.00007583  -0.00000939  0.00022275  1
  C  C11  1  0.65053520  0.32431601  0.83417496  1
  C  C12  1  0.65520967  0.29287005  0.33421171  1
  C  C13  1  0.34852497  0.67559673  0.16576732  1
  C  C14  1  0.33407005  0.68985229  0.66740098  1
  C  C15  1  0.01443094  0.01043656  0.34669364  1
  C  C16  1  0.00042210  0.00082607  0.84643041  1
  C  C17  1  0.98167345  0.97556540  0.65301029  1
  C  C18  1  0.99765129  0.99911346  0.15419496  1
  C  C19  1  0.66008361  0.32547705  0.67972911  1
  C  C20  1  0.66060337  0.31831909  0.18011675  1
  C  C21  1  0.67140875  0.34413810  0.98657521  1
  C  C22  1  0.67170576  0.34010488  0.48757875  1
  C  C23  1  0.32833518  0.65569587  0.01369747  1
  C  C24  1  0.33359689  0.66691365  0.51311381  1
  C  C25  1  0.33904808  0.68944867  0.31976352  1
  C  C26  1  0.34123290  0.68214623  0.82019417  1
  C  C27  1  0.29970461  0.00083988  0.24731700  1
  C  C28  1  0.69843062  0.00196467  0.75046301  1
  C  C29  1  0.66662946  0.63120191  0.58239203  1
  Ni  Ni30  1  0.70160788  0.70365717  0.25187419  1
  Ni  Ni31  1  0.99781987  0.29524929  0.25019477  1
  Ni  Ni32  1  0.29562674  0.29439941  0.74858978  1
  Ni  Ni33  1  0.00388616  0.70369682  0.75122074  1
  Ni  Ni34  1  0.96733935  0.33634267  0.58422124  1
  Ni  Ni35  1  0.36829733  0.03548574  0.58239284  1
  Ni  Ni36  1  0.96399419  0.63040248  0.08476878  1
  Ni  Ni37  1  0.66856122  0.03323994  0.08074903  1
  Ni  Ni38  1  0.36911122  0.33581984  0.08399087  1
  Ni  Ni39  1  0.63071238  0.66424035  0.91582311  1
  Ni  Ni40  1  0.03561110  0.36945008  0.91513071  1
  Ni  Ni41  1  0.33158941  0.96672881  0.91925298  1
  Ni  Ni42  1  0.63696995  0.97008135  0.41844146  1
  Ni  Ni43  1  0.33080243  0.36831841  0.41599486  1
  Ni  Ni44  1  0.03373868  0.66437270  0.41581261  1
  Cu  Cu45  1  0.21338640  0.03521182  0.30117627  1
  Cu  Cu46  1  0.80156151  0.78225348  0.30763803  1
  Cu  Cu47  1  0.96945381  0.19090477  0.30510247  1
  Cu  Cu48  1  0.21193623  0.18875254  0.80244175  1
  Cu  Cu49  1  0.97991383  0.78699342  0.80445230  1
  Cu  Cu50  1  0.81223306  0.03176059  0.80721875  1
  Cu  Cu51  1  0.78074420  0.97143740  0.69373747  1
  Cu  Cu52  1  0.19646531  0.21420965  0.69285754  1
  Cu  Cu53  1  0.03301125  0.80617735  0.69563289  1
  Cu  Cu54  1  0.78376310  0.81128565  0.19824367  1
  Cu  Cu55  1  0.02247904  0.21415107  0.19627875  1
  Cu  Cu56  1  0.19061018  0.96909990  0.18907385  1
  Cu  Cu57  1  0.89180329  0.35522749  0.64096756  1
  Cu  Cu58  1  0.47867244  0.10996550  0.63639576  1
  Cu  Cu59  1  0.63956379  0.51813312  0.63942587  1
  Cu  Cu60  1  0.88333657  0.53287504  0.14147245  1
  Cu  Cu61  1  0.63966285  0.11789509  0.13279601  1
  Cu  Cu62  1  0.46651709  0.35774232  0.14093045  1
  Cu  Cu63  1  0.45763957  0.30902429  0.03247147  1
  Cu  Cu64  1  0.86123393  0.54311943  0.03144509  1
  Cu  Cu65  1  0.69024131  0.13352216  0.02409401  1
  Cu  Cu66  1  0.45045954  0.14552543  0.52835936  1
  Cu  Cu67  1  0.68372202  0.54830921  0.52432247  1
  Cu  Cu68  1  0.85266469  0.30662075  0.53239662  1
  Cu  Cu69  1  0.54253279  0.69136555  0.96735796  1
  Cu  Cu70  1  0.13881217  0.45649096  0.96844328  1
  Cu  Cu71  1  0.31010074  0.86621120  0.97582325  1
  Cu  Cu72  1  0.55709092  0.86348521  0.47418122  1
  Cu  Cu73  1  0.31507646  0.45004967  0.47178849  1
  Cu  Cu74  1  0.14069283  0.68231719  0.46867421  1
  Cu  Cu75  1  0.11067077  0.64751343  0.35899476  1
  Cu  Cu76  1  0.52980249  0.88661259  0.36501629  1
  Cu  Cu77  1  0.35178548  0.47848110  0.36195108  1
  Cu  Cu78  1  0.11634429  0.46678974  0.85851000  1
  Cu  Cu79  1  0.36052432  0.88229167  0.86711303  1
  Cu  Cu80  1  0.53331473  0.64224827  0.85886449  1
  Cu  Cu81  1  0.01026108  0.81967923  0.41322453  1
  Cu  Cu82  1  0.80777898  0.97786940  0.41298828  1
  Cu  Cu83  1  0.17563322  0.19435463  0.41252101  1
  Cu  Cu84  1  0.01383963  0.19157745  0.91372847  1
  Cu  Cu85  1  0.17699279  0.98593196  0.91201722  1
  Cu  Cu86  1  0.80455269  0.82586888  0.91234412  1
  Cu  Cu87  1  0.98979042  0.18031287  0.58749863  1
  Cu  Cu88  1  0.19805083  0.02612045  0.58898620  1
  Cu  Cu89  1  0.82592925  0.81662815  0.58623453  1
  Cu  Cu90  1  0.98498296  0.80767410  0.08611282  1
  Cu  Cu91  1  0.82313168  0.01403178  0.08809491  1
  Cu  Cu92  1  0.19519726  0.17492136  0.08722634  1
  Cu  Cu93  1  0.68676050  0.16940603  0.74378311  1
  Cu  Cu94  1  0.47620846  0.32563901  0.74622775  1
  Cu  Cu95  1  0.84142268  0.53028364  0.74712926  1
  Cu  Cu96  1  0.69083724  0.53044805  0.24709291  1
  Cu  Cu97  1  0.84911681  0.32685503  0.24433018  1
  Cu  Cu98  1  0.48121997  0.16636183  0.24239180  1
  Cu  Cu99  1  0.65004245  0.50948921  0.92287622  1
  Cu  Cu100  1  0.85718970  0.34688038  0.91880519  1
  Cu  Cu101  1  0.49373057  0.14018974  0.92255042  1
  Cu  Cu102  1  0.65715182  0.14437625  0.42335270  1
  Cu  Cu103  1  0.49236438  0.35625227  0.41863717  1
  Cu  Cu104  1  0.85682402  0.50790857  0.42033295  1
  Cu  Cu105  1  0.35038308  0.49116138  0.07697759  1
  Cu  Cu106  1  0.14252046  0.65296886  0.08116392  1
  Cu  Cu107  1  0.50641036  0.85976439  0.07741431  1
  Cu  Cu108  1  0.34897035  0.86066850  0.57650282  1
  Cu  Cu109  1  0.49953000  0.64932354  0.57925543  1
  Cu  Cu110  1  0.14239450  0.49181488  0.57737928  1
  Cu  Cu111  1  0.31066587  0.83277073  0.25477497  1
  Cu  Cu112  1  0.52051397  0.67122003  0.25562316  1
  Cu  Cu113  1  0.16021292  0.46917891  0.25448372  1
  Cu  Cu114  1  0.30719816  0.46844450  0.75235846  1
  Cu  Cu115  1  0.15248438  0.67238819  0.75700114  1
  Cu  Cu116  1  0.51929187  0.83383660  0.75636610  1
