# generated using pymatgen
data_Cu12NiC24
_symmetry_space_group_name_H-M   'P 1'
_cell_length_a   9.85391155
_cell_length_b   14.52425566
_cell_length_c   3.10251900
_cell_angle_alpha   90.00000000
_cell_angle_beta   90.00000000
_cell_angle_gamma   92.33384377
_symmetry_Int_Tables_number   1
_chemical_formula_structural   Cu12NiC24
_chemical_formula_sum   'Cu12 Ni1 C24'
_cell_volume   443.66646591
_cell_formula_units_Z   1
loop_
 _symmetry_equiv_pos_site_id
 _symmetry_equiv_pos_as_xyz
  1  'x, y, z'
loop_
 _atom_site_type_symbol
 _atom_site_label
 _atom_site_symmetry_multiplicity
 _atom_site_fract_x
 _atom_site_fract_y
 _atom_site_fract_z
 _atom_site_occupancy
  Ni  Ni0  1  0.49691600  0.17873900  0.00000000  1
  Cu  Cu1  1  0.01778100  0.99121800  0.00000000  1
  Cu  Cu2  1  0.00769900  0.34048000  0.00000000  1
  Cu  Cu3  1  0.01477300  0.67383500  0.00000000  1
  Cu  Cu4  1  0.19411700  0.17141600  0.50000000  1
  Cu  Cu5  1  0.23194800  0.49400200  0.50000000  1
  Cu  Cu6  1  0.26527700  0.85906100  0.50000000  1
  Cu  Cu7  1  0.48086300  0.39033500  0.00000000  1
  Cu  Cu8  1  0.54290700  0.97127400  0.00000000  1
  Cu  Cu9  1  0.51618000  0.66108100  0.00000000  1
  Cu  Cu10  1  0.77432500  0.13005500  0.50000000  1
  Cu  Cu11  1  0.73306400  0.50515300  0.50000000  1
  Cu  Cu12  1  0.74371000  0.81829600  0.50000000  1
  C  C13  1  0.07521400  0.27319400  0.50000000  1
  C  C14  1  0.10638500  0.92926500  0.50000000  1
  C  C15  1  0.14634500  0.10072700  0.00000000  1
  C  C16  1  0.12772700  0.44809500  0.00000000  1
  C  C17  1  0.36633500  0.91096700  0.00000000  1
  C  C18  1  0.36963500  0.40928500  0.50000000  1
  C  C19  1  0.62477400  0.92481300  0.50000000  1
  C  C20  1  0.59030600  0.59695200  0.50000000  1
  C  C21  1  0.65113500  0.09247300  0.00000000  1
  C  C22  1  0.66921700  0.43809100  0.00000000  1
  C  C23  1  0.66214700  0.75910800  0.00000000  1
  C  C24  1  0.91116100  0.04770000  0.50000000  1
  C  C25  1  0.11212700  0.61071700  0.50000000  1
  C  C26  1  0.18300800  0.77511700  0.00000000  1
  C  C27  1  0.31949000  0.23520200  0.00000000  1
  C  C28  1  0.33586300  0.57561800  0.00000000  1
  C  C29  1  0.41602400  0.09842600  0.50000000  1
  C  C30  1  0.41679400  0.73220100  0.50000000  1
  C  C31  1  0.57116800  0.25058300  0.50000000  1
  C  C32  1  0.83934900  0.21779400  0.00000000  1
  C  C33  1  0.85734000  0.88438700  0.00000000  1
  C  C34  1  0.85185400  0.57038300  0.00000000  1
  C  C35  1  0.89396100  0.39632600  0.50000000  1
  C  C36  1  0.91165200  0.73669900  0.50000000  1
