# generated using pymatgen
data_Cu3Ni3C35
_symmetry_space_group_name_H-M   'P 1'
_cell_length_a   9.55577107
_cell_length_b   9.57986822
_cell_length_c   23.22322382
_cell_angle_alpha   89.95445698
_cell_angle_beta   89.93503285
_cell_angle_gamma   119.91700366
_symmetry_Int_Tables_number   1
_chemical_formula_structural   Cu3Ni3C35
_chemical_formula_sum   'Cu9 Ni9 C105'
_cell_volume   1842.63875649
_cell_formula_units_Z   3
loop_
 _symmetry_equiv_pos_site_id
 _symmetry_equiv_pos_as_xyz
  1  'x, y, z'
loop_
 _atom_site_type_symbol
 _atom_site_label
 _atom_site_symmetry_multiplicity
 _atom_site_fract_x
 _atom_site_fract_y
 _atom_site_fract_z
 _atom_site_occupancy
  C  C0  1  0.62910427  0.99827814  0.25298052  1
  C  C1  1  0.36962115  0.37252771  0.25349772  1
  C  C2  1  0.00251071  0.63199864  0.25721766  1
  C  C3  1  0.64654863  0.65032561  0.74618681  1
  C  C4  1  0.99581225  0.34576816  0.74082736  1
  C  C5  1  0.29978797  0.34777234  0.58048196  1
  C  C6  1  0.03464129  0.69349389  0.57846640  1
  C  C7  1  0.66491356  0.95628701  0.57445840  1
  C  C8  1  0.30953361  0.96629337  0.07754045  1
  C  C9  1  0.64885270  0.69374223  0.07875429  1
  C  C10  1  0.04754502  0.33962633  0.07263763  1
  C  C11  1  0.31881083  0.29998467  0.90811978  1
  C  C12  1  0.97941449  0.31107866  0.42143572  1
  C  C13  1  0.33823585  0.02525412  0.42213171  1
  C  C14  1  0.68657647  0.66687816  0.42120724  1
  C  C15  1  0.99434316  0.99830058  0.49938881  1
  C  C16  1  0.98721904  0.00281335  0.99722435  1
  C  C17  1  0.65511702  0.32311098  0.83196984  1
  C  C18  1  0.66392822  0.33110794  0.33877153  1
  C  C19  1  0.34389414  0.66710677  0.16706926  1
  C  C20  1  0.33427729  0.66823703  0.65820045  1
  C  C21  1  0.99951956  0.00050986  0.34909181  1
  C  C22  1  0.00027097  0.99590572  0.85104310  1
  C  C23  1  0.00361613  0.00441370  0.65289560  1
  C  C24  1  0.00227488  0.00532543  0.14416856  1
  C  C25  1  0.65616359  0.32884556  0.68672985  1
  C  C26  1  0.66293962  0.33029102  0.17764649  1
  C  C27  1  0.33470218  0.66903976  0.00558379  1
  C  C28  1  0.33236737  0.66207666  0.51109099  1
  C  C29  1  0.33517371  0.66717807  0.32785194  1
  C  C30  1  0.66882195  0.32586135  0.97909311  1
  C  C31  1  0.67135571  0.33856007  0.48567373  1
  C  C32  1  0.32653131  0.66667688  0.82318410  1
  Ni  Ni33  1  0.30867903  0.32735955  0.75721578  1
  Ni  Ni34  1  0.95869955  0.32699651  0.58602790  1
  Ni  Ni35  1  0.67410498  0.63521341  0.58482398  1
  Ni  Ni36  1  0.66977807  0.03729485  0.07944227  1
  Ni  Ni37  1  0.37056323  0.32998727  0.07656999  1
  Ni  Ni38  1  0.02240154  0.37226739  0.92085503  1
  Ni  Ni39  1  0.64890315  0.99459635  0.41958224  1
  Ni  Ni40  1  0.34536157  0.34983013  0.41858587  1
  Ni  Ni41  1  0.00779570  0.65681695  0.41904306  1
  Cu  Cu42  1  0.30880915  0.99183432  0.24860838  1
  Cu  Cu43  1  0.68528013  0.69119517  0.24821564  1
  Cu  Cu44  1  0.00792965  0.31827345  0.24880819  1
  Cu  Cu45  1  0.01855920  0.69181319  0.75160227  1
  Cu  Cu46  1  0.67497176  0.97898894  0.75361754  1
  Cu  Cu47  1  0.36984525  0.04397725  0.57822714  1
  Cu  Cu48  1  0.95213798  0.62633951  0.07634717  1
  Cu  Cu49  1  0.62222610  0.64069372  0.91745775  1
  Cu  Cu50  1  0.35696495  0.98382732  0.91973027  1
  C  C51  1  0.21737521  0.99540045  0.30278412  1
  C  C52  1  0.77837038  0.78178240  0.30267247  1
  C  C53  1  0.00071556  0.22290277  0.30337385  1
  C  C54  1  0.21706825  0.21668658  0.81197087  1
  C  C55  1  0.97877042  0.78066066  0.79746351  1
  C  C56  1  0.80014659  0.00329867  0.79954657  1
  C  C57  1  0.72968644  0.93661923  0.69587092  1
  C  C58  1  0.19858160  0.25313324  0.69819256  1
  C  C59  1  0.04591244  0.77722680  0.69266794  1
  C  C60  1  0.77780435  0.78609300  0.19332696  1
  C  C61  1  0.01186883  0.22539744  0.19431577  1
  C  C62  1  0.21465154  0.98873837  0.19346968  1
  C  C63  1  0.87925526  0.33299491  0.64675872  1
  C  C64  1  0.46308776  0.12067673  0.63323640  1
  C  C65  1  0.66004807  0.54590518  0.64550689  1
  C  C66  1  0.89034391  0.54644002  0.13558076  1
  C  C67  1  0.65862474  0.11064546  0.14111624  1
  C  C68  1  0.45775068  0.34751821  0.13855192  1
  C  C69  1  0.49460543  0.33012201  0.02341314  1
  C  C70  1  0.83577485  0.50709391  0.02799704  1
  C  C71  1  0.67045719  0.16461058  0.02673439  1
  C  C72  1  0.47470589  0.14723946  0.52529813  1
  C  C73  1  0.66606037  0.50878183  0.53131314  1
  C  C74  1  0.83723926  0.32758593  0.53222870  1
  C  C75  1  0.56784874  0.66495067  0.97672302  1
  C  C76  1  0.11268156  0.43446281  0.98177537  1
  C  C77  1  0.33221649  0.90678659  0.97967092  1
  C  C78  1  0.56796204  0.87063201  0.47330348  1
  C  C79  1  0.30076733  0.42975843  0.47221362  1
  C  C80  1  0.12967677  0.69727385  0.47288059  1
  C  C81  1  0.08172304  0.61641742  0.36141529  1
  C  C82  1  0.53465622  0.91866915  0.36196558  1
  C  C83  1  0.38552386  0.46529500  0.36114584  1
  C  C84  1  0.14783814  0.51478842  0.87126582  1
  C  C85  1  0.36689007  0.86894461  0.87330371  1
  C  C86  1  0.49362996  0.63446443  0.87133883  1
  C  C87  1  0.96172274  0.79825082  0.41404121  1
  C  C88  1  0.83595056  0.03634101  0.41478032  1
  C  C89  1  0.20079742  0.16356868  0.41370987  1
  C  C90  1  0.00840165  0.19978212  0.90887928  1
  C  C91  1  0.22194200  0.02130899  0.90890446  1
  C  C92  1  0.79304250  0.77741040  0.90536158  1
  C  C93  1  0.96403204  0.15805598  0.57998944  1
  C  C94  1  0.20801860  0.04563492  0.57659250  1
  C  C95  1  0.84799502  0.80386569  0.57907746  1
  C  C96  1  0.94584973  0.78419363  0.07131511  1
  C  C97  1  0.84072938  0.03826657  0.07236898  1
  C  C98  1  0.20200638  0.15517257  0.07179477  1
  C  C99  1  0.65706992  0.12914213  0.75196984  1
  C  C100  1  0.49797490  0.37468438  0.75606792  1
  C  C101  1  0.88428621  0.51258049  0.75187767  1
  C  C102  1  0.66656006  0.52001059  0.25085139  1
  C  C103  1  0.85734750  0.34084238  0.25028509  1
  C  C104  1  0.48041942  0.14444533  0.25126691  1
  C  C105  1  0.61275247  0.47156803  0.91556134  1
  C  C106  1  0.84383073  0.36480623  0.92368588  1
  C  C107  1  0.52082858  0.15158938  0.92001160  1
  C  C108  1  0.65743891  0.17000585  0.43067149  1
  C  C109  1  0.51349683  0.34343613  0.42988857  1
  C  C110  1  0.83218204  0.48828081  0.43073064  1
  C  C111  1  0.34242353  0.48489258  0.07351263  1
  C  C112  1  0.12626604  0.65727855  0.07073474  1
  C  C113  1  0.51100695  0.85767963  0.07596354  1
  C  C114  1  0.34124114  0.87059464  0.57508341  1
  C  C115  1  0.51813923  0.66262692  0.58050553  1
  C  C116  1  0.13864390  0.48758190  0.58147549  1
  C  C117  1  0.32340962  0.83699747  0.24813674  1
  C  C118  1  0.51553303  0.67710456  0.24730607  1
  C  C119  1  0.16474672  0.48609537  0.24816323  1
  C  C120  1  0.31377440  0.50702878  0.76919261  1
  C  C121  1  0.18114849  0.69315506  0.76872425  1
  C  C122  1  0.50927043  0.82511514  0.77041021  1
