# generated using pymatgen
data_CuNiC16
_symmetry_space_group_name_H-M   'P 1'
_cell_length_a   8.97890659
_cell_length_b   8.97890629
_cell_length_c   23.85036266
_cell_angle_alpha   90.00000000
_cell_angle_beta   90.00000000
_cell_angle_gamma   120.00000113
_symmetry_Int_Tables_number   1
_chemical_formula_structural   CuNiC16
_chemical_formula_sum   'Cu6 Ni6 C96'
_cell_volume   1665.22340588
_cell_formula_units_Z   6
loop_
 _symmetry_equiv_pos_site_id
 _symmetry_equiv_pos_as_xyz
  1  'x, y, z'
loop_
 _atom_site_type_symbol
 _atom_site_label
 _atom_site_symmetry_multiplicity
 _atom_site_fract_x
 _atom_site_fract_y
 _atom_site_fract_z
 _atom_site_occupancy
  Ni  Ni0  1  -0.00000000  0.00000000  0.49974930  1
  Ni  Ni1  1  -0.00000000  0.00000000  0.99974930  1
  Ni  Ni2  1  0.66666700  0.33333300  0.83308230  1
  Ni  Ni3  1  0.66666700  0.33333300  0.33308230  1
  Ni  Ni4  1  0.33333300  0.66666700  0.16641630  1
  Ni  Ni5  1  0.33333300  0.66666700  0.66641630  1
  Cu  Cu6  1  -0.00000000  0.00000000  0.35183713  1
  Cu  Cu7  1  -0.00000000  0.00000000  0.85183713  1
  Cu  Cu8  1  0.66666700  0.33333300  0.68517013  1
  Cu  Cu9  1  0.66666700  0.33333300  0.18517013  1
  Cu  Cu10  1  0.33333300  0.66666700  0.01850413  1
  Cu  Cu11  1  0.33333300  0.66666700  0.51850413  1
  C  C12  1  -0.00000000  0.00000000  0.65284036  1
  C  C13  1  -0.00000000  0.00000000  0.15284036  1
  C  C14  1  0.66666700  0.33333300  0.98617336  1
  C  C15  1  0.66666700  0.33333300  0.48617336  1
  C  C16  1  0.33333300  0.66666700  0.31950736  1
  C  C17  1  0.33333300  0.66666700  0.81950736  1
  C  C18  1  0.29389888  0.98635795  0.25043229  1
  C  C19  1  0.69245907  0.70610112  0.25043229  1
  C  C20  1  0.01364205  0.30754093  0.25043229  1
  C  C21  1  0.29389888  0.30754093  0.75043229  1
  C  C22  1  0.01364205  0.70610112  0.75043229  1
  C  C23  1  0.69245907  0.98635795  0.75043229  1
  C  C24  1  0.96056588  0.31969095  0.58376529  1
  C  C25  1  0.35912607  0.03943412  0.58376529  1
  C  C26  1  0.68030905  0.64087393  0.58376529  1
  C  C27  1  0.96056588  0.64087393  0.08376529  1
  C  C28  1  0.68030905  0.03943412  0.08376529  1
  C  C29  1  0.35912607  0.31969095  0.08376529  1
  C  C30  1  0.62723188  0.65302495  0.91709929  1
  C  C31  1  0.02579207  0.37276812  0.91709929  1
  C  C32  1  0.34697505  0.97420793  0.91709929  1
  C  C33  1  0.62723188  0.97420793  0.41709929  1
  C  C34  1  0.34697505  0.37276812  0.41709929  1
  C  C35  1  0.02579207  0.65302495  0.41709929  1
  C  C36  1  0.20714979  0.00078209  0.30006608  1
  C  C37  1  0.79363230  0.79285021  0.30006608  1
  C  C38  1  0.99921791  0.20636770  0.30006608  1
  C  C39  1  0.20714979  0.20636770  0.80006608  1
  C  C40  1  0.99921791  0.79285021  0.80006608  1
  C  C41  1  0.79363230  0.00078209  0.80006608  1
  C  C42  1  0.77394057  0.96721409  0.69786436  1
  C  C43  1  0.19327352  0.22605943  0.69786436  1
  C  C44  1  0.03278591  0.80672648  0.69786436  1
  C  C45  1  0.77394057  0.80672648  0.19786436  1
  C  C46  1  0.03278591  0.22605943  0.19786436  1
  C  C47  1  0.19327352  0.96721409  0.19786436  1
  C  C48  1  0.87381679  0.33411509  0.63339908  1
  C  C49  1  0.46029930  0.12618321  0.63339908  1
  C  C50  1  0.66588491  0.53970070  0.63339908  1
  C  C51  1  0.87381679  0.53970070  0.13339908  1
  C  C52  1  0.66588491  0.12618321  0.13339908  1
  C  C53  1  0.46029930  0.33411509  0.13339908  1
  C  C54  1  0.44060757  0.30054709  0.03119736  1
  C  C55  1  0.85994052  0.55939243  0.03119736  1
  C  C56  1  0.69945291  0.14005948  0.03119736  1
  C  C57  1  0.44060757  0.14005948  0.53119736  1
  C  C58  1  0.69945291  0.55939243  0.53119736  1
  C  C59  1  0.85994052  0.30054709  0.53119736  1
  C  C60  1  0.54048279  0.66744909  0.96673308  1
  C  C61  1  0.12696530  0.45951721  0.96673308  1
  C  C62  1  0.33255091  0.87303470  0.96673308  1
  C  C63  1  0.54048279  0.87303470  0.46673308  1
  C  C64  1  0.33255091  0.45951721  0.46673308  1
  C  C65  1  0.12696530  0.66744909  0.46673308  1
  C  C66  1  0.10727357  0.63388109  0.36453136  1
  C  C67  1  0.52660652  0.89272643  0.36453136  1
  C  C68  1  0.36611891  0.47339348  0.36453136  1
  C  C69  1  0.10727357  0.47339348  0.86453136  1
  C  C70  1  0.36611891  0.89272643  0.86453136  1
  C  C71  1  0.52660652  0.63388109  0.86453136  1
  C  C72  1  0.00323808  0.80446408  0.41333522  1
  C  C73  1  0.80122601  0.99676192  0.41333522  1
  C  C74  1  0.19553592  0.19877399  0.41333522  1
  C  C75  1  0.00323808  0.19877399  0.91333522  1
  C  C76  1  0.19553592  0.99676192  0.91333522  1
  C  C77  1  0.80122601  0.80446408  0.91333522  1
  C  C78  1  0.97390725  0.15929418  0.58682645  1
  C  C79  1  0.18538693  0.02609275  0.58682645  1
  C  C80  1  0.84070582  0.81461307  0.58682645  1
  C  C81  1  0.97390725  0.81461307  0.08682645  1
  C  C82  1  0.84070582  0.02609275  0.08682645  1
  C  C83  1  0.18538693  0.15929418  0.08682645  1
  C  C84  1  0.66990508  0.13779708  0.74666822  1
  C  C85  1  0.46789301  0.33009492  0.74666822  1
  C  C86  1  0.86220292  0.53210699  0.74666822  1
  C  C87  1  0.66990508  0.53210699  0.24666822  1
  C  C88  1  0.86220292  0.33009492  0.24666822  1
  C  C89  1  0.46789301  0.13779708  0.24666822  1
  C  C90  1  0.64057425  0.49262718  0.92015945  1
  C  C91  1  0.85205393  0.35942575  0.92015945  1
  C  C92  1  0.50737282  0.14794607  0.92015945  1
  C  C93  1  0.64057425  0.14794607  0.42015945  1
  C  C94  1  0.50737282  0.35942575  0.42015945  1
  C  C95  1  0.85205393  0.49262718  0.42015945  1
  C  C96  1  0.33657108  0.47113108  0.08000222  1
  C  C97  1  0.13455901  0.66342892  0.08000222  1
  C  C98  1  0.52886892  0.86544099  0.08000222  1
  C  C99  1  0.33657108  0.86544099  0.58000222  1
  C  C100  1  0.52886892  0.66342892  0.58000222  1
  C  C101  1  0.13455901  0.47113108  0.58000222  1
  C  C102  1  0.30724025  0.82596118  0.25349345  1
  C  C103  1  0.51871993  0.69275975  0.25349345  1
  C  C104  1  0.17403882  0.48128007  0.25349345  1
  C  C105  1  0.30724025  0.48128007  0.75349345  1
  C  C106  1  0.17403882  0.69275975  0.75349345  1
  C  C107  1  0.51871993  0.82596118  0.75349345  1
