# generated using pymatgen
data_Cu(NiC11)3
_symmetry_space_group_name_H-M   'P 1'
_cell_length_a   18.23107885
_cell_length_b   9.15430067
_cell_length_c   23.56351983
_cell_angle_alpha   90.00836794
_cell_angle_beta   90.09131117
_cell_angle_gamma   120.05475710
_symmetry_Int_Tables_number   1
_chemical_formula_structural   Cu(NiC11)3
_chemical_formula_sum   'Cu6 Ni18 C198'
_cell_volume   3403.82821218
_cell_formula_units_Z   6
loop_
 _symmetry_equiv_pos_site_id
 _symmetry_equiv_pos_as_xyz
  1  'x, y, z'
loop_
 _atom_site_type_symbol
 _atom_site_label
 _atom_site_symmetry_multiplicity
 _atom_site_fract_x
 _atom_site_fract_y
 _atom_site_fract_z
 _atom_site_occupancy
  Ni  Ni0  1  0.66248603  0.35518742  0.58303655  1
  Ni  Ni1  1  0.51831990  0.67762094  0.58771021  1
  Ni  Ni2  1  0.81868345  0.96218681  0.58460911  1
  Ni  Ni3  1  0.16106705  0.96549840  0.08808210  1
  Ni  Ni4  1  0.31692863  0.67665945  0.08941543  1
  Ni  Ni5  1  0.01902518  0.36335303  0.09272088  1
  Ni  Ni6  1  0.01062776  0.98980912  0.49305449  1
  Ni  Ni7  1  0.48907845  0.01028901  0.50121895  1
  Ni  Ni8  1  0.99222769  0.97201204  0.00589062  1
  Ni  Ni9  1  0.50691054  0.01382899  0.00123124  1
  Ni  Ni10  1  0.32414751  0.31727727  0.82062589  1
  Ni  Ni11  1  0.82418571  0.32633070  0.83589720  1
  Ni  Ni12  1  0.31940913  0.31777042  0.33782478  1
  Ni  Ni13  1  0.83277439  0.34206093  0.32348850  1
  Ni  Ni14  1  0.16241637  0.66439181  0.15627411  1
  Ni  Ni15  1  0.67742937  0.68610942  0.17440264  1
  Ni  Ni16  1  0.17665449  0.66630346  0.66495832  1
  Ni  Ni17  1  0.66430677  0.66301292  0.64757449  1
  Cu  Cu18  1  0.33210334  0.32553154  0.68992624  1
  Cu  Cu19  1  0.83166555  0.33355507  0.68484622  1
  Cu  Cu20  1  0.33167184  0.32958180  0.18634454  1
  Cu  Cu21  1  0.83251564  0.34061439  0.19174667  1
  Cu  Cu22  1  0.16567477  0.66782254  0.01358508  1
  Cu  Cu23  1  0.66591756  0.66427817  0.51269266  1
  C  C24  1  0.00169531  0.99176355  0.35628535  1
  C  C25  1  0.49954760  0.99674653  0.35327788  1
  C  C26  1  0.00035908  0.00212506  0.85348323  1
  C  C27  1  0.50211799  0.00106235  0.85287480  1
  C  C28  1  0.00701714  0.00782841  0.64657288  1
  C  C29  1  0.49216308  0.00378711  0.64485927  1
  C  C30  1  0.99345171  0.98132332  0.14856692  1
  C  C31  1  0.50463305  0.00649350  0.15012022  1
  C  C32  1  0.32882342  0.31638605  0.98612251  1
  C  C33  1  0.83247472  0.34814283  0.97762065  1
  C  C34  1  0.33111863  0.31457303  0.47734273  1
  C  C35  1  0.83344321  0.35185645  0.48449364  1
  C  C36  1  0.67248205  0.67843313  0.01323631  1
  C  C37  1  0.16719025  0.66784852  0.50947908  1
  C  C38  1  0.16391334  0.66066108  0.32033880  1
  C  C39  1  0.67217024  0.67991450  0.31102269  1
  C  C40  1  0.17129525  0.66526823  0.80933184  1
  C  C41  1  0.67244216  0.67976905  0.81615527  1
  C  C42  1  0.64492078  0.99358531  0.25209602  1
  C  C43  1  0.85413011  0.71032852  0.25422428  1
  C  C44  1  0.14449646  0.29481626  0.75223294  1
  C  C45  1  0.35549299  0.00085385  0.75402767  1
  C  C46  1  0.47782265  0.33547410  0.58478336  1
  C  C47  1  0.68458249  0.03972720  0.58444198  1
  C  C48  1  0.83763374  0.64034297  0.58677270  1
  C  C49  1  0.97742583  0.62293885  0.08440519  1
  C  C50  1  0.33989535  0.03715909  0.08503382  1
  C  C51  1  0.18248699  0.32902913  0.08552182  1
  C  C52  1  0.81582975  0.67024411  0.91461735  1
  C  C53  1  0.66649454  0.96385909  0.91708466  1
  C  C54  1  0.31484869  0.95862990  0.41414459  1
  C  C55  1  0.16747166  0.37221642  0.41657041  1
  C  C56  1  0.01528533  0.65697273  0.41674477  1
  C  C57  1  0.14410753  0.99031744  0.25129742  1
  C  C58  1  0.35235387  0.71543698  0.24951792  1
  C  C59  1  0.00846186  0.29369300  0.25001435  1
  C  C60  1  0.50307549  0.29230644  0.25376808  1
  C  C61  1  0.64356677  0.29664946  0.75219695  1
  C  C62  1  0.00241244  0.71456131  0.75353695  1
  C  C63  1  0.50670190  0.71787384  0.75084752  1
  C  C64  1  0.85353508  0.99204954  0.75062145  1
  C  C65  1  0.98522529  0.33816101  0.58409194  1
  C  C66  1  0.18496355  0.03004209  0.58269701  1
  C  C67  1  0.32898201  0.62317915  0.58312027  1
  C  C68  1  0.48372086  0.63060109  0.08212264  1
  C  C69  1  0.83026263  0.03775143  0.08214426  1
  C  C70  1  0.68319085  0.33612933  0.08102961  1
  C  C71  1  0.31762481  0.66119039  0.91542094  1
  C  C72  1  0.01529036  0.36787792  0.91506991  1
  C  C73  1  0.52042485  0.37716349  0.91581936  1
  C  C74  1  0.16987257  0.97197759  0.91459212  1
  C  C75  1  0.81632007  0.97224017  0.41574515  1
  C  C76  1  0.66749575  0.36703115  0.41432027  1
  C  C77  1  0.51478480  0.66209433  0.41508117  1
  C  C78  1  0.09691659  0.99627058  0.30162217  1
  C  C79  1  0.58668956  0.99781465  0.30466159  1
  C  C80  1  0.40210899  0.81795377  0.29920604  1
  C  C81  1  0.90957900  0.82832726  0.30715914  1
  C  C82  1  0.49511179  0.18868277  0.30417448  1
  C  C83  1  0.01056376  0.19468705  0.29888725  1
  C  C84  1  0.08734786  0.17699748  0.80593908  1
  C  C85  1  0.59664540  0.19313125  0.80297557  1
  C  C86  1  0.50892460  0.82262569  0.80086530  1
  C  C87  1  0.99454982  0.80193455  0.80462901  1
  C  C88  1  0.41006248  0.99562240  0.80913370  1
  C  C89  1  0.90203082  0.98768074  0.80080477  1
  C  C90  1  0.40115902  0.97676587  0.69728597  1
  C  C91  1  0.89417620  0.97957717  0.69723836  1
  C  C92  1  0.08951678  0.19792179  0.69436391  1
  C  C93  1  0.59694910  0.21208567  0.69924078  1
  C  C94  1  0.00978919  0.81410655  0.70150465  1
  C  C95  1  0.51532040  0.81190761  0.69740493  1
  C  C96  1  0.39636563  0.81194132  0.19550792  1
  C  C97  1  0.89834652  0.82063562  0.19575664  1
  C  C98  1  0.01364656  0.21288984  0.19497936  1
  C  C99  1  0.50985220  0.20554309  0.20114620  1
  C  C100  1  0.09710247  0.98492417  0.19768756  1
  C  C101  1  0.59047824  0.98125918  0.19308736  1
  C  C102  1  0.44177671  0.38910508  0.63742559  1
  C  C103  1  0.95147320  0.36396494  0.63656199  1
  C  C104  1  0.23265390  0.10484649  0.63382071  1
  C  C105  1  0.74733559  0.10927958  0.63821759  1
  C  C106  1  0.31485037  0.52949508  0.63541746  1
  C  C107  1  0.82037687  0.52459869  0.64122059  1
  C  C108  1  0.45100253  0.53749547  0.13439325  1
  C  C109  1  0.93927163  0.48935324  0.13478346  1
  C  C110  1  0.32435813  0.12338982  0.13868781  1
  C  C111  1  0.81232438  0.09707570  0.13421175  1
  C  C112  1  0.24893709  0.38504396  0.13670694  1
  C  C113  1  0.73244754  0.36800526  0.13213548  1
  C  C114  1  0.23270115  0.29635124  0.02880587  1
  C  C115  1  0.72393791  0.31040350  0.02969073  1
  C  C116  1  0.42663767  0.54304498  0.03202241  1
  C  C117  1  0.91912412  0.52925797  0.02583686  1
  C  C118  1  0.35150732  0.15854689  0.02655633  1
  C  C119  1  0.83839475  0.14135735  0.03149947  1
  C  C120  1  0.22456603  0.13339892  0.53079278  1
  C  C121  1  0.73311104  0.17071561  0.52913881  1
  C  C122  1  0.33856216  0.53716407  0.53263206  1
  C  C123  1  0.85080054  0.54637646  0.52914049  1
  C  C124  1  0.41936293  0.31490974  0.52725802  1
  C  C125  1  0.92871271  0.31083715  0.53432640  1
  C  C126  1  0.28634041  0.69067399  0.96896195  1
  C  C127  1  0.76526658  0.68566509  0.96979047  1
  C  C128  1  0.06022601  0.42663387  0.96885503  1
  C  C129  1  0.57283457  0.45735806  0.96732775  1
  C  C130  1  0.15732573  0.88667982  0.96909278  1
  C  C131  1  0.65274955  0.83967773  0.97152665  1
  C  C132  1  0.26870138  0.84663064  0.47060437  1
  C  C133  1  0.78559311  0.87763733  0.46894900  1
  C  C134  1  0.15477146  0.46528483  0.47207032  1
  C  C135  1  0.65414505  0.42689950  0.46896673  1
  C  C136  1  0.07540446  0.68693586  0.47235724  1
  C  C137  1  0.55970619  0.69293504  0.46917327  1
  C  C138  1  0.06398013  0.63764296  0.36095102  1
  C  C139  1  0.56258292  0.64349645  0.36752143  1
  C  C140  1  0.25662065  0.86647910  0.35820654  1
  C  C141  1  0.75781689  0.87002780  0.36761502  1
  C  C142  1  0.18182014  0.49096279  0.36035623  1
  C  C143  1  0.67359571  0.47871478  0.36682883  1
  C  C144  1  0.06261041  0.48260272  0.86747910  1
  C  C145  1  0.56285456  0.47928949  0.86462526  1
  C  C146  1  0.17689633  0.87476823  0.86689545  1
  C  C147  1  0.67613878  0.86406756  0.86108539  1
  C  C148  1  0.25938015  0.64253532  0.86732806  1
  C  C149  1  0.75625231  0.64781283  0.85903300  1
  C  C150  1  0.00457141  0.82429227  0.41088515  1
  C  C151  1  0.50187389  0.80992983  0.40576748  1
  C  C152  1  0.40993106  0.98285062  0.40997189  1
  C  C153  1  0.90283765  -0.00041080  0.40581107  1
  C  C154  1  0.08398035  0.18517924  0.40998781  1
  C  C155  1  0.59227848  0.19402231  0.40561783  1
  C  C156  1  0.00148128  0.19381791  0.90546808  1
  C  C157  1  0.51143348  0.20587170  0.91132609  1
  C  C158  1  0.09528614  0.99688113  0.90611237  1
  C  C159  1  0.58319654  0.98647943  0.91214228  1
  C  C160  1  0.40410134  0.81093652  0.90628543  1
  C  C161  1  0.90944137  0.83727169  0.91139684  1
  C  C162  1  0.47927701  0.15380295  0.59041949  1
  C  C163  1  0.98821593  0.17443129  0.58799180  1
  C  C164  1  0.09793874  0.01457944  0.58638359  1
  C  C165  1  0.59206859  0.03468832  0.59331241  1
  C  C166  1  0.41342752  0.79073341  0.58676825  1
  C  C167  1  0.92324565  0.83279019  0.59232254  1
  C  C168  1  0.48824805  0.80040983  0.08537141  1
  C  C169  1  0.98010855  0.80783018  0.09101483  1
  C  C170  1  0.42551833  0.01462015  0.08891098  1
  C  C171  1  0.91246363  0.03460428  0.08563554  1
  C  C172  1  0.09111064  0.14945273  0.09160505  1
  C  C173  1  0.59753396  0.17758835  0.08579403  1
  C  C174  1  0.34739384  0.16461762  0.75503124  1
  C  C175  1  0.84792296  0.14577014  0.75347348  1
  C  C176  1  0.23783675  0.32651638  0.75369578  1
  C  C177  1  0.72845953  0.31571860  0.75416334  1
  C  C178  1  0.42869993  0.55636625  0.75386379  1
  C  C179  1  0.92937811  0.54392960  0.75247403  1
  C  C180  1  0.35017879  0.55397363  0.25124360  1
  C  C181  1  0.84526400  0.52964505  0.25487693  1
  C  C182  1  0.42978486  0.31583869  0.25170611  1
  C  C183  1  0.93097344  0.30311901  0.25156217  1
  C  C184  1  0.22820071  0.14266774  0.25257247  1
  C  C185  1  0.73811982  0.14874013  0.25363561  1
  C  C186  1  0.32567198  0.50761210  0.91768145  1
  C  C187  1  0.82203208  0.49845450  0.92024010  1
  C  C188  1  0.43619944  0.36272548  0.92128546  1
  C  C189  1  0.92942397  0.35113540  0.91760187  1
  C  C190  1  0.24885022  0.14305855  0.91604134  1
  C  C191  1  0.75218699  0.14544990  0.92462877  1
  C  C192  1  0.32385312  0.14622130  0.42050656  1
  C  C193  1  0.81949453  0.13602836  0.41783669  1
  C  C194  1  0.25174750  0.35475471  0.42550149  1
  C  C195  1  0.74568100  0.35384541  0.41582423  1
  C  C196  1  0.42930447  0.50812414  0.41749567  1
  C  C197  1  0.92334127  0.48820444  0.42471679  1
  C  C198  1  0.16397147  0.48107763  0.07357271  1
  C  C199  1  0.66698448  0.47943573  0.07112444  1
  C  C200  1  0.07552766  0.67347377  0.07524563  1
  C  C201  1  0.56993240  0.65609917  0.07171928  1
  C  C202  1  0.25875415  0.85094669  0.07572184  1
  C  C203  1  0.75911849  0.85701716  0.07362779  1
  C  C204  1  0.17128473  0.85621946  0.57607251  1
  C  C205  1  0.66316686  0.84774910  0.57309651  1
  C  C206  1  0.25916608  0.66280285  0.57603472  1
  C  C207  1  0.75787553  0.66876210  0.57668232  1
  C  C208  1  0.07263401  0.48112355  0.57559063  1
  C  C209  1  0.57621771  0.47817564  0.57543423  1
  C  C210  1  0.14957976  0.83373245  0.25189599  1
  C  C211  1  0.64206372  0.80824468  0.25767537  1
  C  C212  1  0.26720531  0.69799602  0.24961142  1
  C  C213  1  0.75882006  0.69686070  0.25812893  1
  C  C214  1  0.08614729  0.46666613  0.25097136  1
  C  C215  1  0.58365728  0.45661613  0.25726945  1
  C  C216  1  0.14283831  0.47568859  0.75825541  1
  C  C217  1  0.64725626  0.46274218  0.75646015  1
  C  C218  1  0.08310292  0.71045845  0.75834547  1
  C  C219  1  0.58288417  0.69600746  0.75536523  1
  C  C220  1  0.26061065  0.82354330  0.75905818  1
  C  C221  1  0.76680106  0.83710088  0.75283391  1
