# generated using pymatgen
data_Cu6NiC12
_symmetry_space_group_name_H-M   'P 1'
_cell_length_a   5.51034153
_cell_length_b   5.15804824
_cell_length_c   8.70926694
_cell_angle_alpha   89.80237579
_cell_angle_beta   89.95769539
_cell_angle_gamma   91.37328145
_symmetry_Int_Tables_number   1
_chemical_formula_structural   Cu6NiC12
_chemical_formula_sum   'Cu6 Ni1 C12'
_cell_volume   247.46741972
_cell_formula_units_Z   1
loop_
 _symmetry_equiv_pos_site_id
 _symmetry_equiv_pos_as_xyz
  1  'x, y, z'
loop_
 _atom_site_type_symbol
 _atom_site_label
 _atom_site_symmetry_multiplicity
 _atom_site_fract_x
 _atom_site_fract_y
 _atom_site_fract_z
 _atom_site_occupancy
  Ni  Ni0  1  0.96213700  0.50306200  0.67463100  1
  Cu  Cu1  1  0.92834900  0.94453400  0.99125500  1
  Cu  Cu2  1  0.92315100  0.94146900  0.33765000  1
  Cu  Cu3  1  0.19016900  0.01740300  0.66211600  1
  Cu  Cu4  1  0.59995400  0.43738900  0.16391300  1
  Cu  Cu5  1  0.43712100  0.56027600  0.84910800  1
  Cu  Cu6  1  0.42346500  0.56910700  0.48245300  1
  C  C7  1  0.13266800  0.76391500  0.49056500  1
  C  C8  1  0.11532600  0.77678200  0.83002100  1
  C  C9  1  0.31530800  0.36596000  0.66123000  1
  C  C10  1  0.66820900  0.69403400  0.00456400  1
  C  C11  1  0.65844500  0.68856200  0.33366100  1
  C  C12  1  0.83282800  0.16883900  0.16875500  1
  C  C13  1  0.11722600  0.78939300  0.16727000  1
  C  C14  1  0.35259700  0.28890700  0.02282800  1
  C  C15  1  0.36596800  0.28991400  0.33378100  1
  C  C16  1  0.66465400  0.70470300  0.64773500  1
  C  C17  1  0.85693900  0.23212500  0.83476300  1
  C  C18  1  0.88604300  0.20807300  0.50799100  1
