# generated using pymatgen
data_Cu2NiC16
_symmetry_space_group_name_H-M   'P 1'
_cell_length_a   5.43689272
_cell_length_b   5.43068738
_cell_length_c   9.74824399
_cell_angle_alpha   90.00000000
_cell_angle_beta   90.00000000
_cell_angle_gamma   101.06756140
_symmetry_Int_Tables_number   1
_chemical_formula_structural   Cu2NiC16
_chemical_formula_sum   'Cu2 Ni1 C16'
_cell_volume   282.47412800
_cell_formula_units_Z   1
loop_
 _symmetry_equiv_pos_site_id
 _symmetry_equiv_pos_as_xyz
  1  'x, y, z'
loop_
 _atom_site_type_symbol
 _atom_site_label
 _atom_site_symmetry_multiplicity
 _atom_site_fract_x
 _atom_site_fract_y
 _atom_site_fract_z
 _atom_site_occupancy
  Ni  Ni0  1  0.71168105  0.29052198  0.00000000  1
  Cu  Cu1  1  0.03216210  0.96779386  0.00000000  1
  Cu  Cu2  1  0.56064992  0.43831443  0.50000000  1
  C  C3  1  0.98717040  0.01168033  0.33516068  1
  C  C4  1  0.98717040  0.01168033  0.66483932  1
  C  C5  1  0.42424872  0.57390958  0.18257769  1
  C  C6  1  0.42424872  0.57390958  0.81742231  1
  C  C7  1  0.17287259  0.82456378  0.17150221  1
  C  C8  1  0.17287259  0.82456378  0.82849779  1
  C  C9  1  0.15294012  0.84501195  0.50000000  1
  C  C10  1  0.33447995  0.29074872  0.00000000  1
  C  C11  1  0.31305113  0.30681717  0.34550714  1
  C  C12  1  0.31305113  0.30681717  0.65449286  1
  C  C13  1  0.69115762  0.68657264  0.34532742  1
  C  C14  1  0.69115762  0.68657264  0.65467258  1
  C  C15  1  0.70722037  0.66708932  0.00000000  1
  C  C16  1  0.80816052  0.19107533  0.50000000  1
  C  C17  1  0.85785253  0.14492869  0.15225718  1
  C  C18  1  0.85785253  0.14492869  0.84774282  1
