# generated using pymatgen
data_Cu6NiC12
_symmetry_space_group_name_H-M   'P 1'
_cell_length_a   11.13025095
_cell_length_b   6.77836474
_cell_length_c   2.96354701
_cell_angle_alpha   89.99135730
_cell_angle_beta   90.01898658
_cell_angle_gamma   108.78800856
_symmetry_Int_Tables_number   1
_chemical_formula_structural   Cu6NiC12
_chemical_formula_sum   'Cu6 Ni1 C12'
_cell_volume   211.67117429
_cell_formula_units_Z   1
loop_
 _symmetry_equiv_pos_site_id
 _symmetry_equiv_pos_as_xyz
  1  'x, y, z'
loop_
 _atom_site_type_symbol
 _atom_site_label
 _atom_site_symmetry_multiplicity
 _atom_site_fract_x
 _atom_site_fract_y
 _atom_site_fract_z
 _atom_site_occupancy
  Ni  Ni0  1  0.82860100  0.16407500  0.49250500  1
  Cu  Cu1  1  0.04448400  0.01561600  0.99120600  1
  Cu  Cu2  1  0.34083700  0.15512900  0.49023400  1
  Cu  Cu3  1  0.02399300  0.52955200  0.48874800  1
  Cu  Cu4  1  0.64122700  0.33361000  0.98700600  1
  Cu  Cu5  1  0.32708900  0.68069900  0.98888800  1
  Cu  Cu6  1  0.62944200  0.79464400  0.48531900  1
  C  C7  1  0.15800000  0.10141400  0.49141300  1
  C  C8  1  0.97185700  0.30550700  0.99042900  1
  C  C9  1  0.02819100  0.70964200  0.98929000  1
  C  C10  1  0.69328400  0.01634200  0.98736100  1
  C  C11  1  0.52479300  0.23315000  0.48706400  1
  C  C12  1  0.21045500  0.58901600  0.48942200  1
  C  C13  1  0.44396200  0.74214400  0.48836900  1
  C  C14  1  0.76127200  0.39946000  0.48762100  1
  C  C15  1  0.62847600  0.61431600  0.98553100  1
  C  C16  1  0.32484800  0.96769400  0.98994800  1
  C  C17  1  0.34837200  0.36803000  0.99076500  1
  C  C18  1  0.90206900  0.93620900  0.49054600  1
