# generated using pymatgen
data_Cu3NiC50
_symmetry_space_group_name_H-M   'P 1'
_cell_length_a   8.82197811
_cell_length_b   8.82197782
_cell_length_c   22.68946951
_cell_angle_alpha   90.00000000
_cell_angle_beta   90.00000000
_cell_angle_gamma   120.00000106
_symmetry_Int_Tables_number   1
_chemical_formula_structural   Cu3NiC50
_chemical_formula_sum   'Cu6 Ni2 C100'
_cell_volume   1529.27963899
_cell_formula_units_Z   2
loop_
 _symmetry_equiv_pos_site_id
 _symmetry_equiv_pos_as_xyz
  1  'x, y, z'
loop_
 _atom_site_type_symbol
 _atom_site_label
 _atom_site_symmetry_multiplicity
 _atom_site_fract_x
 _atom_site_fract_y
 _atom_site_fract_z
 _atom_site_occupancy
  C  C0  1  -0.00000000  -0.00000000  0.49870885  1
  C  C1  1  -0.00000000  -0.00000000  0.99870885  1
  C  C2  1  0.66666700  0.33333300  0.82578005  1
  C  C3  1  0.66666700  0.33333300  0.32578005  1
  C  C4  1  0.33333300  0.66666700  0.16654918  1
  C  C5  1  0.33333300  0.66666700  0.66654918  1
  C  C6  1  -0.00000000  -0.00000000  0.35606290  1
  C  C7  1  -0.00000000  -0.00000000  0.85606290  1
  C  C8  1  -0.00000000  -0.00000000  0.64566738  1
  C  C9  1  -0.00000000  -0.00000000  0.14566738  1
  C  C10  1  0.66666700  0.33333300  0.97785050  1
  C  C11  1  0.66666700  0.33333300  0.47785050  1
  C  C12  1  0.33333300  0.66666700  0.01986307  1
  C  C13  1  0.33333300  0.66666700  0.51986307  1
  C  C14  1  0.33333300  0.66666700  0.31182113  1
  C  C15  1  0.33333300  0.66666700  0.81182113  1
  Ni  Ni16  1  0.66666700  0.33333300  0.68597829  1
  Ni  Ni17  1  0.66666700  0.33333300  0.18597829  1
  Cu  Cu18  1  0.61899575  0.66573099  0.91612170  1
  Cu  Cu19  1  0.04673423  0.38100425  0.91612170  1
  Cu  Cu20  1  0.33426901  0.95326577  0.91612170  1
  Cu  Cu21  1  0.61899575  0.95326577  0.41612170  1
  Cu  Cu22  1  0.33426901  0.38100425  0.41612170  1
  Cu  Cu23  1  0.04673423  0.66573099  0.41612170  1
  C  C24  1  0.29017120  0.00151111  0.25021173  1
  C  C25  1  0.71133990  0.70982880  0.25021173  1
  C  C26  1  0.99848889  0.28866010  0.25021173  1
  C  C27  1  0.29017120  0.28866010  0.75021173  1
  C  C28  1  0.99848889  0.70982880  0.75021173  1
  C  C29  1  0.71133990  0.00151111  0.75021173  1
  C  C30  1  0.95465532  0.33518154  0.58519779  1
  C  C31  1  0.38052722  0.04534468  0.58519779  1
  C  C32  1  0.66481846  0.61947278  0.58519779  1
  C  C33  1  0.95465532  0.61947278  0.08519779  1
  C  C34  1  0.66481846  0.04534468  0.08519779  1
  C  C35  1  0.38052722  0.33518154  0.08519779  1
  C  C36  1  0.19109046  0.01591785  0.30449900  1
  C  C37  1  0.82482739  0.80890954  0.30449900  1
  C  C38  1  0.98408215  0.17517261  0.30449900  1
  C  C39  1  0.19109046  0.17517261  0.80449900  1
  C  C40  1  0.98408215  0.80890954  0.80449900  1
  C  C41  1  0.82482739  0.01591785  0.80449900  1
  C  C42  1  0.80393147  0.97576384  0.69453805  1
  C  C43  1  0.17183238  0.19606853  0.69453805  1
  C  C44  1  0.02423616  0.82816762  0.69453805  1
  C  C45  1  0.80393147  0.82816762  0.19453805  1
  C  C46  1  0.02423616  0.19606853  0.19453805  1
  C  C47  1  0.17183238  0.97576384  0.19453805  1
  C  C48  1  0.88147877  0.36805981  0.64003039  1
  C  C49  1  0.48658204  0.11852123  0.64003039  1
  C  C50  1  0.63194019  0.51341796  0.64003039  1
  C  C51  1  0.88147877  0.51341796  0.14003039  1
  C  C52  1  0.63194019  0.11852123  0.14003039  1
  C  C53  1  0.48658204  0.36805981  0.14003039  1
  C  C54  1  0.46516530  0.30498808  0.02967017  1
  C  C55  1  0.83982377  0.53483470  0.02967017  1
  C  C56  1  0.69501192  0.16017623  0.02967017  1
  C  C57  1  0.46516530  0.16017623  0.52967017  1
  C  C58  1  0.69501192  0.53483470  0.52967017  1
  C  C59  1  0.83982377  0.30498808  0.52967017  1
  C  C60  1  0.53038573  0.69859216  0.97391822  1
  C  C61  1  0.16820542  0.46961427  0.97391822  1
  C  C62  1  0.30140784  0.83179458  0.97391822  1
  C  C63  1  0.53038573  0.83179458  0.47391822  1
  C  C64  1  0.30140784  0.46961427  0.47391822  1
  C  C65  1  0.16820542  0.69859216  0.47391822  1
  C  C66  1  0.13588081  0.63304407  0.35816681  1
  C  C67  1  0.49716226  0.86411919  0.35816681  1
  C  C68  1  0.36695593  0.50283774  0.35816681  1
  C  C69  1  0.13588081  0.50283774  0.85816681  1
  C  C70  1  0.36695593  0.86411919  0.85816681  1
  C  C71  1  0.49716226  0.63304407  0.85816681  1
  C  C72  1  0.02511008  0.83676810  0.40731828  1
  C  C73  1  0.81165802  0.97488992  0.40731828  1
  C  C74  1  0.16323190  0.18834198  0.40731828  1
  C  C75  1  0.02511008  0.18834198  0.90731828  1
  C  C76  1  0.16323190  0.97488992  0.90731828  1
  C  C77  1  0.81165802  0.83676810  0.90731828  1
  C  C78  1  0.97525510  0.16694823  0.59106462  1
  C  C79  1  0.19169313  0.02474490  0.59106462  1
  C  C80  1  0.83305177  0.80830687  0.59106462  1
  C  C81  1  0.97525510  0.80830687  0.09106462  1
  C  C82  1  0.83305177  0.02474490  0.09106462  1
  C  C83  1  0.19169313  0.16694823  0.09106462  1
  C  C84  1  0.69470483  0.16204157  0.74658073  1
  C  C85  1  0.46733774  0.30529517  0.74658073  1
  C  C86  1  0.83795843  0.53266226  0.74658073  1
  C  C87  1  0.69470483  0.53266226  0.24658073  1
  C  C88  1  0.83795843  0.30529517  0.24658073  1
  C  C89  1  0.46733774  0.16204157  0.24658073  1
  C  C90  1  0.63954692  0.49464920  0.92676285  1
  C  C91  1  0.85510328  0.36045308  0.92676285  1
  C  C92  1  0.50535080  0.14489672  0.92676285  1
  C  C93  1  0.63954692  0.14489672  0.42676285  1
  C  C94  1  0.50535080  0.36045308  0.42676285  1
  C  C95  1  0.85510328  0.49464920  0.42676285  1
  C  C96  1  0.35040277  0.49365050  0.07491031  1
  C  C97  1  0.14324673  0.64959723  0.07491031  1
  C  C98  1  0.50634950  0.85675327  0.07491031  1
  C  C99  1  0.35040277  0.85675327  0.57491031  1
  C  C100  1  0.50634950  0.64959723  0.57491031  1
  C  C101  1  0.14324673  0.49365050  0.57491031  1
  C  C102  1  0.29817606  0.82841110  0.25491557  1
  C  C103  1  0.53023404  0.70182394  0.25491557  1
  C  C104  1  0.17158890  0.46976596  0.25491557  1
  C  C105  1  0.29817606  0.46976596  0.75491557  1
  C  C106  1  0.17158890  0.70182394  0.75491557  1
  C  C107  1  0.53023404  0.82841110  0.75491557  1
