# generated using pymatgen
data_CuNi5C33
_symmetry_space_group_name_H-M   'P 1'
_cell_length_a   8.89564748
_cell_length_b   8.89735997
_cell_length_c   22.42593660
_cell_angle_alpha   90.34158027
_cell_angle_beta   89.67457345
_cell_angle_gamma   120.18614591
_symmetry_Int_Tables_number   1
_chemical_formula_structural   CuNi5C33
_chemical_formula_sum   'Cu3 Ni15 C99'
_cell_volume   1534.23702686
_cell_formula_units_Z   3
loop_
 _symmetry_equiv_pos_site_id
 _symmetry_equiv_pos_as_xyz
  1  'x, y, z'
loop_
 _atom_site_type_symbol
 _atom_site_label
 _atom_site_symmetry_multiplicity
 _atom_site_fract_x
 _atom_site_fract_y
 _atom_site_fract_z
 _atom_site_occupancy
  C  C0  1  0.63942893  0.99936920  0.25212954  1
  C  C1  1  0.36869863  0.37424488  0.24723666  1
  C  C2  1  0.99356449  0.62348005  0.25248631  1
  C  C3  1  0.64037920  0.63176045  0.74727049  1
  C  C4  1  0.99130201  0.36013546  0.74874030  1
  C  C5  1  0.36897289  0.00942321  0.74876542  1
  C  C6  1  0.30459823  0.96464884  0.07617830  1
  C  C7  1  0.03716823  0.34323596  0.07785662  1
  C  C8  1  0.70758284  0.67810377  0.41697085  1
  C  C9  1  0.00327779  0.00287086  0.49981337  1
  C  C10  1  0.99958052  0.99921333  0.99057462  1
  C  C11  1  0.66736287  0.32918172  0.83375920  1
  C  C12  1  0.67775306  0.32962815  0.33527945  1
  C  C13  1  0.34307586  0.66249672  0.16160273  1
  C  C14  1  0.33343777  0.66669389  0.66320153  1
  C  C15  1  0.99165361  0.99881167  0.35434485  1
  C  C16  1  0.00708419  0.00651155  0.85349690  1
  C  C17  1  0.66765119  0.33455576  0.68193303  1
  C  C18  1  0.67117907  0.33841043  0.18116670  1
  C  C19  1  0.33329177  0.66624502  0.01663789  1
  C  C20  1  0.33033307  0.66544615  0.31932675  1
  C  C21  1  0.99962474  0.99927656  0.64766123  1
  C  C22  1  0.98979958  0.99699559  0.14750772  1
  C  C23  1  0.66763167  0.33023339  0.98131327  1
  C  C24  1  0.67436466  0.32822549  0.48590682  1
  C  C25  1  0.33182640  0.67376708  0.51975699  1
  C  C26  1  0.32870737  0.66829924  0.82005029  1
  Ni  Ni27  1  0.70389221  0.70279006  0.25265090  1
  Ni  Ni28  1  0.00048662  0.29350520  0.25142704  1
  Ni  Ni29  1  0.29308953  0.29251655  0.75169504  1
  Ni  Ni30  1  0.99802263  0.70892466  0.75178104  1
  Ni  Ni31  1  0.70907675  0.99962165  0.75243399  1
  Ni  Ni32  1  0.96467158  0.33274034  0.58583581  1
  Ni  Ni33  1  0.37273194  0.04246269  0.58539433  1
  Ni  Ni34  1  0.66501963  0.62713425  0.58376115  1
  Ni  Ni35  1  0.95964048  0.62681986  0.08479461  1
  Ni  Ni36  1  0.66260138  0.03729083  0.08551954  1
  Ni  Ni37  1  0.37607255  0.33669156  0.08608977  1
  Ni  Ni38  1  0.03657964  0.36765399  0.91929078  1
  Ni  Ni39  1  0.33036223  0.96319152  0.91944090  1
  Ni  Ni40  1  0.62545278  0.96190162  0.41500483  1
  Ni  Ni41  1  0.03890007  0.66779265  0.41527038  1
  Cu  Cu42  1  0.29213679  0.00043597  0.25107797  1
  Cu  Cu43  1  0.62899920  0.66730787  0.91770129  1
  Cu  Cu44  1  0.33174584  0.37026975  0.41600549  1
  C  C45  1  0.20674975  0.02911968  0.30171493  1
  C  C46  1  0.82256692  0.78657033  0.30616414  1
  C  C47  1  0.97171436  0.17149600  0.30255344  1
  C  C48  1  0.20900521  0.17666909  0.80434672  1
  C  C49  1  0.96699381  0.79351528  0.80488680  1
  C  C50  1  0.82436343  0.02945396  0.80502127  1
  C  C51  1  0.77990560  0.95428643  0.69449683  1
  C  C52  1  0.17517901  0.22116423  0.69460691  1
  C  C53  1  0.04390302  0.82597830  0.69452802  1
  C  C54  1  0.78428595  0.82250194  0.19573417  1
  C  C55  1  0.04138271  0.21968452  0.19184951  1
  C  C56  1  0.18501421  0.96597075  0.19459776  1
  C  C57  1  0.88566967  0.36220030  0.64148368  1
  C  C58  1  0.47880229  0.12107092  0.64124749  1
  C  C59  1  0.63870760  0.52025824  0.63917751  1
  C  C60  1  0.88151211  0.51978691  0.14119495  1
  C  C61  1  0.63497963  0.11734048  0.14222320  1
  C  C62  1  0.47656925  0.35530545  0.14302235  1
  C  C63  1  0.45506366  0.29375928  0.03067646  1
  C  C64  1  0.84247564  0.54635925  0.02940838  1
  C  C65  1  0.70750925  0.16086687  0.03096549  1
  C  C66  1  0.45244652  0.15233958  0.52765617  1
  C  C67  1  0.69381264  0.54802706  0.52458543  1
  C  C68  1  0.85531467  0.29911210  0.52810825  1
  C  C69  1  0.53905810  0.68724146  0.96919713  1
  C  C70  1  0.14624451  0.45792836  0.97399713  1
  C  C71  1  0.31528413  0.85620210  0.97418557  1
  C  C72  1  0.54130968  0.83929166  0.47020177  1
  C  C73  1  0.30540618  0.45189906  0.47025526  1
  C  C74  1  0.14924673  0.69105105  0.47155295  1
  C  C75  1  0.11404556  0.63346678  0.35880121  1
  C  C76  1  0.51808330  0.88300432  0.35847446  1
  C  C77  1  0.36583019  0.48040663  0.36251287  1
  C  C78  1  0.11286815  0.47868644  0.85959917  1
  C  C79  1  0.37144829  0.89004239  0.85985289  1
  C  C80  1  0.52354593  0.63302737  0.86044908  1
  C  C81  1  0.01463641  0.82615821  0.41178206  1
  C  C82  1  0.80510956  0.97813349  0.41227764  1
  C  C83  1  0.18116301  0.19762573  0.40984520  1
  C  C84  1  0.01489804  0.18891389  0.91204380  1
  C  C85  1  0.16905342  0.97697134  0.91207890  1
  C  C86  1  0.79960072  0.82090519  0.91092346  1
  C  C87  1  0.98276027  0.16807767  0.58853322  1
  C  C88  1  0.18820202  0.02107446  0.58765988  1
  C  C89  1  0.83086047  0.81093408  0.58673311  1
  C  C90  1  0.98670657  0.81619549  0.08914993  1
  C  C91  1  0.83625933  0.02998329  0.08783523  1
  C  C92  1  0.18914704  0.16236313  0.08904026  1
  C  C93  1  0.68338399  0.15695190  0.74409489  1
  C  C94  1  0.47639716  0.31830316  0.74319300  1
  C  C95  1  0.84044291  0.52511477  0.74344641  1
  C  C96  1  0.68356904  0.52078323  0.24470479  1
  C  C97  1  0.83501494  0.30790837  0.24464358  1
  C  C98  1  0.46694935  0.15698254  0.24438984  1
  C  C99  1  0.64186226  0.50572898  0.92177670  1
  C  C100  1  0.85507156  0.36018644  0.92151255  1
  C  C101  1  0.50079927  0.14859528  0.92150189  1
  C  C102  1  0.63809599  0.14331796  0.42267184  1
  C  C103  1  0.49773321  0.36329859  0.42221760  1
  C  C104  1  0.84813733  0.50147233  0.42218522  1
  C  C105  1  0.34614713  0.48956415  0.07827699  1
  C  C106  1  0.14190361  0.64877531  0.07779594  1
  C  C107  1  0.50201241  0.85889175  0.07708580  1
  C  C108  1  0.35525832  0.85913194  0.57896417  1
  C  C109  1  0.49925269  0.64353381  0.57633263  1
  C  C110  1  0.14779571  0.49816507  0.57760240  1
  C  C111  1  0.31007198  0.84385286  0.25554252  1
  C  C112  1  0.52289190  0.68729761  0.25685984  1
  C  C113  1  0.16411238  0.47670287  0.25539009  1
  C  C114  1  0.31300956  0.48088219  0.75719413  1
  C  C115  1  0.16748592  0.69072269  0.75561793  1
  C  C116  1  0.52106138  0.82913317  0.75695750  1
