# generated using pymatgen
data_Cu2NiC15
_symmetry_space_group_name_H-M   'P 1'
_cell_length_a   3.70070390
_cell_length_b   8.05890834
_cell_length_c   8.53702436
_cell_angle_alpha   67.99241720
_cell_angle_beta   77.41903057
_cell_angle_gamma   76.53083724
_symmetry_Int_Tables_number   1
_chemical_formula_structural   Cu2NiC15
_chemical_formula_sum   'Cu2 Ni1 C15'
_cell_volume   227.14195986
_cell_formula_units_Z   1
loop_
 _symmetry_equiv_pos_site_id
 _symmetry_equiv_pos_as_xyz
  1  'x, y, z'
loop_
 _atom_site_type_symbol
 _atom_site_label
 _atom_site_symmetry_multiplicity
 _atom_site_fract_x
 _atom_site_fract_y
 _atom_site_fract_z
 _atom_site_occupancy
  Ni  Ni0  1  0.46841018  0.11048746  0.94846856  1
  C  C1  1  0.63857012  0.14116681  0.57845550  1
  C  C2  1  0.35333093  0.86491329  0.42994200  1
  C  C3  1  0.80686382  0.18519319  0.19820522  1
  C  C4  1  0.16071390  0.83954730  0.83888835  1
  Cu  Cu5  1  0.89705593  0.50539351  0.70212182  1
  Cu  Cu6  1  0.08565113  0.52859084  0.29788438  1
  C  C7  1  0.50781360  0.28158954  0.69961472  1
  C  C8  1  0.48118927  0.71026465  0.33106650  1
  C  C9  1  0.66621637  0.31804108  0.34286611  1
  C  C10  1  0.31859204  0.71681465  0.64886503  1
  C  C11  1  0.84766415  0.31670700  0.98944781  1
  C  C12  1  0.18503945  0.63983262  0.99138910  1
  C  C13  1  0.02184985  0.99345278  0.96026052  1
  C  C14  1  0.34712096  0.09932479  0.20539727  1
  C  C15  1  0.82277250  0.94353159  0.41156484  1
  C  C16  1  0.17911694  0.06972462  0.57017560  1
  C  C17  1  0.65846085  0.90209329  0.78038369  1
