# generated using pymatgen
data_Cu13NiC2
_symmetry_space_group_name_H-M   'P 1'
_cell_length_a   11.13969100
_cell_length_b   12.12928600
_cell_length_c   30.16591900
_cell_angle_alpha   90.00000000
_cell_angle_beta   90.00000000
_cell_angle_gamma   90.00000000
_symmetry_Int_Tables_number   1
_chemical_formula_structural   Cu13NiC2
_chemical_formula_sum   'Cu104 Ni8 C16'
_cell_volume   4075.91333697
_cell_formula_units_Z   8
loop_
 _symmetry_equiv_pos_site_id
 _symmetry_equiv_pos_as_xyz
  1  'x, y, z'
loop_
 _atom_site_type_symbol
 _atom_site_label
 _atom_site_symmetry_multiplicity
 _atom_site_fract_x
 _atom_site_fract_y
 _atom_site_fract_z
 _atom_site_occupancy
  C  C0  1  0.25000000  0.23591600  0.27961900  1
  C  C1  1  0.75000000  0.76408400  0.72038100  1
  C  C2  1  0.75000000  0.73591600  0.22038100  1
  C  C3  1  0.25000000  0.26408400  0.77961900  1
  C  C4  1  0.25000000  0.09023300  0.18152500  1
  C  C5  1  0.75000000  0.90976700  0.81847500  1
  C  C6  1  0.75000000  0.59023300  0.31847500  1
  C  C7  1  0.25000000  0.40976700  0.68152500  1
  C  C8  1  0.25000000  0.58823300  0.09026500  1
  C  C9  1  0.75000000  0.41176700  0.90973500  1
  C  C10  1  0.75000000  0.08823300  0.40973500  1
  C  C11  1  0.25000000  0.91176700  0.59026500  1
  C  C12  1  0.25000000  0.72792700  0.99108100  1
  C  C13  1  0.75000000  0.27207300  0.00891900  1
  C  C14  1  0.75000000  0.22792700  0.50891900  1
  C  C15  1  0.25000000  0.77207300  0.49108100  1
  Ni  Ni16  1  0.25000000  0.73134300  0.30409200  1
  Ni  Ni17  1  0.75000000  0.26865700  0.69590800  1
  Ni  Ni18  1  0.75000000  0.23134300  0.19590800  1
  Ni  Ni19  1  0.25000000  0.76865700  0.80409200  1
  Ni  Ni20  1  0.25000000  0.30730000  0.45788000  1
  Ni  Ni21  1  0.75000000  0.69270000  0.54212000  1
  Ni  Ni22  1  0.75000000  0.80730000  0.04212000  1
  Ni  Ni23  1  0.25000000  0.19270000  0.95788000  1
  Cu  Cu24  1  0.25000000  0.13603900  0.34224400  1
  Cu  Cu25  1  0.75000000  0.86396100  0.65775600  1
  Cu  Cu26  1  0.75000000  0.63603900  0.15775600  1
  Cu  Cu27  1  0.25000000  0.36396100  0.84224400  1
  Cu  Cu28  1  0.25000000  0.29373300  0.20029700  1
  Cu  Cu29  1  0.75000000  0.70626700  0.79970300  1
  Cu  Cu30  1  0.75000000  0.79373300  0.29970300  1
  Cu  Cu31  1  0.25000000  0.20626700  0.70029700  1
  Cu  Cu32  1  0.09843200  0.35068600  0.29545800  1
  Cu  Cu33  1  0.59843200  0.64931400  0.70454200  1
  Cu  Cu34  1  0.90156800  0.85068600  0.20454200  1
  Cu  Cu35  1  0.40156800  0.14931400  0.79545800  1
  Cu  Cu36  1  0.90156800  0.64931400  0.70454200  1
  Cu  Cu37  1  0.40156800  0.35068600  0.29545800  1
  Cu  Cu38  1  0.09843200  0.14931400  0.79545800  1
  Cu  Cu39  1  0.59843200  0.85068600  0.20454200  1
  Cu  Cu40  1  0.10646700  0.09937100  0.24553700  1
  Cu  Cu41  1  0.60646700  0.90062900  0.75446300  1
  Cu  Cu42  1  0.89353300  0.59937100  0.25446300  1
  Cu  Cu43  1  0.39353300  0.40062900  0.74553700  1
  Cu  Cu44  1  0.89353300  0.90062900  0.75446300  1
  Cu  Cu45  1  0.39353300  0.09937100  0.24553700  1
  Cu  Cu46  1  0.10646700  0.40062900  0.74553700  1
  Cu  Cu47  1  0.60646700  0.59937100  0.25446300  1
  Cu  Cu48  1  0.09837200  0.11373400  0.13333300  1
  Cu  Cu49  1  0.59837200  0.88626600  0.86666700  1
  Cu  Cu50  1  0.90162800  0.61373400  0.36666700  1
  Cu  Cu51  1  0.40162800  0.38626600  0.63333300  1
  Cu  Cu52  1  0.90162800  0.88626600  0.86666700  1
  Cu  Cu53  1  0.40162800  0.11373400  0.13333300  1
  Cu  Cu54  1  0.09837200  0.38626600  0.63333300  1
  Cu  Cu55  1  0.59837200  0.61373400  0.36666700  1
  Cu  Cu56  1  0.25000000  0.90698900  0.18495700  1
  Cu  Cu57  1  0.75000000  0.09301100  0.81504300  1
  Cu  Cu58  1  0.75000000  0.40698900  0.31504300  1
  Cu  Cu59  1  0.25000000  0.59301100  0.68495700  1
  Cu  Cu60  1  0.25000000  0.40503800  0.08717000  1
  Cu  Cu61  1  0.75000000  0.59496200  0.91283000  1
  Cu  Cu62  1  0.75000000  0.90503800  0.41283000  1
  Cu  Cu63  1  0.25000000  0.09496200  0.58717000  1
  Cu  Cu64  1  0.25000000  0.79236700  0.06937400  1
  Cu  Cu65  1  0.75000000  0.20763300  0.93062600  1
  Cu  Cu66  1  0.75000000  0.29236700  0.43062600  1
  Cu  Cu67  1  0.25000000  0.70763300  0.56937400  1
  Cu  Cu68  1  0.09778700  0.61449500  0.13722900  1
  Cu  Cu69  1  0.59778700  0.38550500  0.86277100  1
  Cu  Cu70  1  0.90221300  0.11449500  0.36277100  1
  Cu  Cu71  1  0.40221300  0.88550500  0.63722900  1
  Cu  Cu72  1  0.90221300  0.38550500  0.86277100  1
  Cu  Cu73  1  0.40221300  0.61449500  0.13722900  1
  Cu  Cu74  1  0.09778700  0.88550500  0.63722900  1
  Cu  Cu75  1  0.59778700  0.11449500  0.36277100  1
  Cu  Cu76  1  0.10688300  0.59590300  0.02539800  1
  Cu  Cu77  1  0.60688300  0.40409700  0.97460200  1
  Cu  Cu78  1  0.89311700  0.09590300  0.47460200  1
  Cu  Cu79  1  0.39311700  0.90409700  0.52539800  1
  Cu  Cu80  1  0.89311700  0.40409700  0.97460200  1
  Cu  Cu81  1  0.39311700  0.59590300  0.02539800  1
  Cu  Cu82  1  0.10688300  0.90409700  0.52539800  1
  Cu  Cu83  1  0.60688300  0.09590300  0.47460200  1
  Cu  Cu84  1  0.09871600  0.84369200  0.97350500  1
  Cu  Cu85  1  0.59871600  0.15630800  0.02649500  1
  Cu  Cu86  1  0.90128400  0.34369200  0.52649500  1
  Cu  Cu87  1  0.40128400  0.65630800  0.47350500  1
  Cu  Cu88  1  0.90128400  0.15630800  0.02649500  1
  Cu  Cu89  1  0.40128400  0.84369200  0.97350500  1
  Cu  Cu90  1  0.09871600  0.65630800  0.47350500  1
  Cu  Cu91  1  0.59871600  0.34369200  0.52649500  1
  Cu  Cu92  1  0.25000000  0.62648000  0.92847100  1
  Cu  Cu93  1  0.75000000  0.37352000  0.07152900  1
  Cu  Cu94  1  0.75000000  0.12648000  0.57152900  1
  Cu  Cu95  1  0.25000000  0.87352000  0.42847100  1
  Cu  Cu96  1  0.10679500  0.82349500  0.30766100  1
  Cu  Cu97  1  0.60679500  0.17650500  0.69233900  1
  Cu  Cu98  1  0.89320500  0.32349500  0.19233900  1
  Cu  Cu99  1  0.39320500  0.67650500  0.80766100  1
  Cu  Cu100  1  0.89320500  0.17650500  0.69233900  1
  Cu  Cu101  1  0.39320500  0.82349500  0.30766100  1
  Cu  Cu102  1  0.10679500  0.67650500  0.80766100  1
  Cu  Cu103  1  0.60679500  0.32349500  0.19233900  1
  Cu  Cu104  1  0.25000000  0.62637100  0.35344500  1
  Cu  Cu105  1  0.75000000  0.37362900  0.64655500  1
  Cu  Cu106  1  0.75000000  0.12637100  0.14655500  1
  Cu  Cu107  1  0.25000000  0.87362900  0.85344500  1
  Cu  Cu108  1  0.25000000  0.64943800  0.24832200  1
  Cu  Cu109  1  0.75000000  0.35056200  0.75167800  1
  Cu  Cu110  1  0.75000000  0.14943800  0.25167800  1
  Cu  Cu111  1  0.25000000  0.85056200  0.74832200  1
  Cu  Cu112  1  0.10672300  0.35165200  0.42473400  1
  Cu  Cu113  1  0.60672300  0.64834800  0.57526600  1
  Cu  Cu114  1  0.89327700  0.85165200  0.07526600  1
  Cu  Cu115  1  0.39327700  0.14834800  0.92473400  1
  Cu  Cu116  1  0.89327700  0.64834800  0.57526600  1
  Cu  Cu117  1  0.39327700  0.35165200  0.42473400  1
  Cu  Cu118  1  0.10672300  0.14834800  0.92473400  1
  Cu  Cu119  1  0.60672300  0.85165200  0.07526600  1
  Cu  Cu120  1  0.25000000  0.37948600  0.51590400  1
  Cu  Cu121  1  0.75000000  0.62051400  0.48409600  1
  Cu  Cu122  1  0.75000000  0.87948600  0.98409600  1
  Cu  Cu123  1  0.25000000  0.12051400  0.01590400  1
  Cu  Cu124  1  0.25000000  0.14787500  0.46587000  1
  Cu  Cu125  1  0.75000000  0.85212500  0.53413000  1
  Cu  Cu126  1  0.75000000  0.64787500  0.03413000  1
  Cu  Cu127  1  0.25000000  0.35212500  0.96587000  1
