# generated using pymatgen
data_CuNiC
_symmetry_space_group_name_H-M   'P 1'
_cell_length_a   4.11074200
_cell_length_b   9.01978300
_cell_length_c   10.78673000
_cell_angle_alpha   90.00000000
_cell_angle_beta   90.00000000
_cell_angle_gamma   90.00000000
_symmetry_Int_Tables_number   1
_chemical_formula_structural   CuNiC
_chemical_formula_sum   'Cu4 Ni4 C4'
_cell_volume   399.95038367
_cell_formula_units_Z   4
loop_
 _symmetry_equiv_pos_site_id
 _symmetry_equiv_pos_as_xyz
  1  'x, y, z'
loop_
 _atom_site_type_symbol
 _atom_site_label
 _atom_site_symmetry_multiplicity
 _atom_site_fract_x
 _atom_site_fract_y
 _atom_site_fract_z
 _atom_site_occupancy
  C  C0  1  0.75000000  0.60191900  0.37537900  1
  C  C1  1  0.75000000  0.10191900  0.12462100  1
  C  C2  1  0.25000000  0.39808100  0.62462100  1
  C  C3  1  0.25000000  0.89808100  0.87537900  1
  Ni  Ni4  1  0.75000000  0.84659600  0.03564100  1
  Ni  Ni5  1  0.25000000  0.15340400  0.96435900  1
  Ni  Ni6  1  0.25000000  0.65340400  0.53564100  1
  Ni  Ni7  1  0.75000000  0.34659600  0.46435900  1
  Cu  Cu8  1  0.75000000  0.02447900  0.68394600  1
  Cu  Cu9  1  0.25000000  0.97552100  0.31605400  1
  Cu  Cu10  1  0.75000000  0.52447900  0.81605400  1
  Cu  Cu11  1  0.25000000  0.47552100  0.18394600  1
