# generated using pymatgen
data_CuNiC6
_symmetry_space_group_name_H-M   'P 1'
_cell_length_a   8.90721355
_cell_length_b   8.90721355
_cell_length_c   8.90721420
_cell_angle_alpha   111.81449140
_cell_angle_beta   111.81449140
_cell_angle_gamma   111.81449863
_symmetry_Int_Tables_number   1
_chemical_formula_structural   CuNiC6
_chemical_formula_sum   'Cu6 Ni6 C36'
_cell_volume   491.18704440
_cell_formula_units_Z   6
loop_
 _symmetry_equiv_pos_site_id
 _symmetry_equiv_pos_as_xyz
  1  'x, y, z'
loop_
 _atom_site_type_symbol
 _atom_site_label
 _atom_site_symmetry_multiplicity
 _atom_site_fract_x
 _atom_site_fract_y
 _atom_site_fract_z
 _atom_site_occupancy
  Ni  Ni0  1  0.47049200  0.66150100  0.06138000  1
  Ni  Ni1  1  0.66150100  0.06138000  0.47049200  1
  Ni  Ni2  1  0.06138000  0.47049200  0.66150100  1
  Ni  Ni3  1  0.52950800  0.33849900  0.93862000  1
  Ni  Ni4  1  0.33849900  0.93862000  0.52950800  1
  Ni  Ni5  1  0.93862000  0.52950800  0.33849900  1
  Cu  Cu6  1  0.21651700  0.82410800  0.08252300  1
  Cu  Cu7  1  0.82410800  0.08252300  0.21651700  1
  Cu  Cu8  1  0.08252300  0.21651700  0.82410800  1
  Cu  Cu9  1  0.78348300  0.17589200  0.91747700  1
  Cu  Cu10  1  0.17589200  0.91747700  0.78348300  1
  Cu  Cu11  1  0.91747700  0.78348300  0.17589200  1
  C  C12  1  0.80301600  0.52000600  0.75171700  1
  C  C13  1  0.52000600  0.75171700  0.80301600  1
  C  C14  1  0.75171700  0.80301600  0.52000600  1
  C  C15  1  0.19698400  0.47999400  0.24828300  1
  C  C16  1  0.47999400  0.24828300  0.19698400  1
  C  C17  1  0.24828300  0.19698400  0.47999400  1
  C  C18  1  0.69088300  0.41902100  0.51245700  1
  C  C19  1  0.41902100  0.51245700  0.69088300  1
  C  C20  1  0.51245700  0.69088300  0.41902100  1
  C  C21  1  0.30911700  0.58097900  0.48754300  1
  C  C22  1  0.58097900  0.48754300  0.30911700  1
  C  C23  1  0.48754300  0.30911700  0.58097900  1
  C  C24  1  0.97444800  0.01210000  0.26363800  1
  C  C25  1  0.26363800  0.97444800  0.01210000  1
  C  C26  1  0.01210000  0.26363800  0.97444800  1
  C  C27  1  0.02555200  0.98790000  0.73636200  1
  C  C28  1  0.73636200  0.02555200  0.98790000  1
  C  C29  1  0.98790000  0.73636200  0.02555200  1
  C  C30  1  0.04475100  0.78526300  0.36554200  1
  C  C31  1  0.36554200  0.04475100  0.78526300  1
  C  C32  1  0.78526300  0.36554200  0.04475100  1
  C  C33  1  0.95524900  0.21473700  0.63445800  1
  C  C34  1  0.63445800  0.95524900  0.21473700  1
  C  C35  1  0.21473700  0.63445800  0.95524900  1
  C  C36  1  0.67631800  0.62524000  0.05102500  1
  C  C37  1  0.05102500  0.67631800  0.62524000  1
  C  C38  1  0.62524000  0.05102500  0.67631800  1
  C  C39  1  0.32368200  0.37476000  0.94897500  1
  C  C40  1  0.94897500  0.32368200  0.37476000  1
  C  C41  1  0.37476000  0.94897500  0.32368200  1
  C  C42  1  0.38414700  0.29456900  0.60716300  1
  C  C43  1  0.60716300  0.38414700  0.29456900  1
  C  C44  1  0.29456900  0.60716300  0.38414700  1
  C  C45  1  0.61585300  0.70543100  0.39283700  1
  C  C46  1  0.39283700  0.61585300  0.70543100  1
  C  C47  1  0.70543100  0.39283700  0.61585300  1
