# generated using pymatgen
data_Cu2NiC4
_symmetry_space_group_name_H-M   'P 1'
_cell_length_a   7.79038190
_cell_length_b   7.79038190
_cell_length_c   7.79038190
_cell_angle_alpha   131.29888379
_cell_angle_beta   131.29888379
_cell_angle_gamma   71.33864360
_symmetry_Int_Tables_number   1
_chemical_formula_structural   Cu2NiC4
_chemical_formula_sum   'Cu2 Ni1 C4'
_cell_volume   261.19774487
_cell_formula_units_Z   1
loop_
 _symmetry_equiv_pos_site_id
 _symmetry_equiv_pos_as_xyz
  1  'x, y, z'
loop_
 _atom_site_type_symbol
 _atom_site_label
 _atom_site_symmetry_multiplicity
 _atom_site_fract_x
 _atom_site_fract_y
 _atom_site_fract_z
 _atom_site_occupancy
  Ni  Ni0  1  0.00000000  0.00000000  0.00000000  1
  Cu  Cu1  1  0.50000000  0.50000000  0.00000000  1
  Cu  Cu2  1  0.25000000  0.75000000  0.50000000  1
  C  C3  1  0.41067300  0.90565700  0.04265500  1
  C  C4  1  0.09434300  0.13699800  0.50501600  1
  C  C5  1  0.63198200  0.58932700  0.49498400  1
  C  C6  1  0.86300200  0.36801800  0.95734500  1
