# generated using pymatgen
data_Cu6Ni6C7
_symmetry_space_group_name_H-M   'P 1'
_cell_length_a   5.08737613
_cell_length_b   7.79122316
_cell_length_c   5.93357442
_cell_angle_alpha   95.73871861
_cell_angle_beta   98.28131012
_cell_angle_gamma   89.99867143
_symmetry_Int_Tables_number   1
_chemical_formula_structural   Cu6Ni6C7
_chemical_formula_sum   'Cu6 Ni6 C7'
_cell_volume   231.54492792
_cell_formula_units_Z   1
loop_
 _symmetry_equiv_pos_site_id
 _symmetry_equiv_pos_as_xyz
  1  'x, y, z'
loop_
 _atom_site_type_symbol
 _atom_site_label
 _atom_site_symmetry_multiplicity
 _atom_site_fract_x
 _atom_site_fract_y
 _atom_site_fract_z
 _atom_site_occupancy
  C  C0  1  0.50000000  -0.00000000  -0.00000000  1
  C  C1  1  0.50000000  -0.00000000  0.50000000  1
  C  C2  1  0.51039075  0.63202210  0.19463254  1
  C  C3  1  0.48960925  0.36797790  0.80536746  1
  C  C4  1  0.02744755  0.68171256  0.66297890  1
  C  C5  1  0.97255245  0.31828744  0.33702110  1
  C  C6  1  0.00000000  -0.00000000  -0.00000000  1
  Ni  Ni7  1  0.78592992  0.09467884  0.26266367  1
  Ni  Ni8  1  0.71181079  0.76417155  0.46312597  1
  Ni  Ni9  1  0.70958745  0.43161421  0.11639710  1
  Ni  Ni10  1  0.29041255  0.56838579  0.88360290  1
  Ni  Ni11  1  0.28818921  0.23582845  0.53687403  1
  Ni  Ni12  1  0.21407008  0.90532116  0.73733633  1
  Cu  Cu13  1  0.81235053  0.45364639  0.62551236  1
  Cu  Cu14  1  0.73520623  0.79731244  0.95325870  1
  Cu  Cu15  1  0.69968803  0.13469320  0.80279255  1
  Cu  Cu16  1  0.30031197  0.86530680  0.19720745  1
  Cu  Cu17  1  0.18764947  0.54635361  0.37448764  1
  Cu  Cu18  1  0.26479377  0.20268856  0.04674130  1
