# generated using pymatgen
data_Cu4NiC7
_symmetry_space_group_name_H-M   'P 1'
_cell_length_a   7.16843900
_cell_length_b   7.94446000
_cell_length_c   8.56831900
_cell_angle_alpha   90.00000000
_cell_angle_beta   90.00000000
_cell_angle_gamma   90.00000000
_symmetry_Int_Tables_number   1
_chemical_formula_structural   Cu4NiC7
_chemical_formula_sum   'Cu16 Ni4 C28'
_cell_volume   487.96042811
_cell_formula_units_Z   4
loop_
 _symmetry_equiv_pos_site_id
 _symmetry_equiv_pos_as_xyz
  1  'x, y, z'
loop_
 _atom_site_type_symbol
 _atom_site_label
 _atom_site_symmetry_multiplicity
 _atom_site_fract_x
 _atom_site_fract_y
 _atom_site_fract_z
 _atom_site_occupancy
  C  C0  1  0.15268900  0.21704100  0.69415100  1
  C  C1  1  0.65268900  0.28295900  0.30584900  1
  C  C2  1  0.34731100  0.78295900  0.19415100  1
  C  C3  1  0.84731100  0.71704100  0.80584900  1
  C  C4  1  0.06054900  0.43893300  0.84625000  1
  C  C5  1  0.56054900  0.06106700  0.15375000  1
  C  C6  1  0.43945100  0.56106700  0.34625000  1
  C  C7  1  0.93945100  0.93893300  0.65375000  1
  C  C8  1  0.31910900  0.34826600  0.50784300  1
  C  C9  1  0.81910900  0.15173400  0.49215700  1
  C  C10  1  0.18089100  0.65173400  0.00784300  1
  C  C11  1  0.68089100  0.84826600  0.99215700  1
  C  C12  1  0.65492300  0.23258500  0.93660300  1
  C  C13  1  0.15492300  0.26741500  0.06339700  1
  C  C14  1  0.84507700  0.76741500  0.43660300  1
  C  C15  1  0.34507700  0.73258500  0.56339700  1
  C  C16  1  0.52841100  0.19896800  0.77381100  1
  C  C17  1  0.23330200  0.69475400  0.73435600  1
  C  C18  1  0.97158900  0.80103200  0.27381100  1
  C  C19  1  0.47158900  0.69896800  0.72618900  1
  C  C20  1  0.65952500  0.38197800  0.79547800  1
  C  C21  1  0.15952500  0.11802200  0.20452200  1
  C  C22  1  0.84047500  0.61802200  0.29547800  1
  C  C23  1  0.34047500  0.88197800  0.70452200  1
  C  C24  1  0.76669800  0.19475400  0.76564400  1
  C  C25  1  0.26669800  0.30524600  0.23435600  1
  C  C26  1  0.73330200  0.80524600  0.26564400  1
  C  C27  1  0.02841100  0.30103200  0.22618900  1
  Ni  Ni28  1  0.34769300  0.75206200  0.68289200  1
  Ni  Ni29  1  0.15230700  0.24793800  0.18289200  1
  Ni  Ni30  1  0.65230700  0.25206200  0.81710800  1
  Ni  Ni31  1  0.84769300  0.74793800  0.31710800  1
  Cu  Cu32  1  0.70822700  0.13476700  0.42149700  1
  Cu  Cu33  1  0.47585400  0.37155600  0.36651900  1
  Cu  Cu34  1  0.52414600  0.87155600  0.13348100  1
  Cu  Cu35  1  0.02414600  0.62844400  0.86651900  1
  Cu  Cu36  1  0.20822700  0.36523300  0.57850300  1
  Cu  Cu37  1  0.97585400  0.12844400  0.63348100  1
  Cu  Cu38  1  0.29177300  0.63476700  0.07850300  1
  Cu  Cu39  1  0.79177300  0.86523300  0.92149700  1
  Cu  Cu40  1  0.90282900  0.81353600  0.64912500  1
  Cu  Cu41  1  0.81491700  0.39955600  0.27267500  1
  Cu  Cu42  1  0.31491700  0.10044400  0.72732500  1
  Cu  Cu43  1  0.68508300  0.60044400  0.77267500  1
  Cu  Cu44  1  0.40282900  0.68646400  0.35087500  1
  Cu  Cu45  1  0.59717100  0.18646400  0.14912500  1
  Cu  Cu46  1  0.09717100  0.31353600  0.85087500  1
  Cu  Cu47  1  0.18508300  0.89955600  0.22732500  1
