# generated using pymatgen
data_CuNi3C
_symmetry_space_group_name_H-M   'P 1'
_cell_length_a   4.98798100
_cell_length_b   7.58663800
_cell_length_c   14.47831700
_cell_angle_alpha   90.00000000
_cell_angle_beta   90.00000000
_cell_angle_gamma   90.00000000
_symmetry_Int_Tables_number   1
_chemical_formula_structural   CuNi3C
_chemical_formula_sum   'Cu4 Ni12 C4'
_cell_volume   547.88856165
_cell_formula_units_Z   4
loop_
 _symmetry_equiv_pos_site_id
 _symmetry_equiv_pos_as_xyz
  1  'x, y, z'
loop_
 _atom_site_type_symbol
 _atom_site_label
 _atom_site_symmetry_multiplicity
 _atom_site_fract_x
 _atom_site_fract_y
 _atom_site_fract_z
 _atom_site_occupancy
  C  C0  1  0.79172800  0.75000000  0.75000000  1
  C  C1  1  0.20827200  0.25000000  0.75000000  1
  C  C2  1  0.20827200  0.25000000  0.25000000  1
  C  C3  1  0.79172800  0.75000000  0.25000000  1
  Ni  Ni4  1  0.07366700  0.65500100  0.12635100  1
  Ni  Ni5  1  0.92633300  0.15500100  0.62635100  1
  Ni  Ni6  1  0.07366700  0.84499900  0.62635100  1
  Ni  Ni7  1  0.81730400  0.73455700  0.50000000  1
  Ni  Ni8  1  0.18269600  0.23455700  0.00000000  1
  Ni  Ni9  1  0.81730400  0.76544300  0.00000000  1
  Ni  Ni10  1  0.92633300  0.15500100  0.37364900  1
  Ni  Ni11  1  0.18269600  0.26544300  0.50000000  1
  Ni  Ni12  1  0.92633300  0.34499900  0.87364900  1
  Ni  Ni13  1  0.07366700  0.84499900  0.37364900  1
  Ni  Ni14  1  0.07366700  0.65500100  0.87364900  1
  Ni  Ni15  1  0.92633300  0.34499900  0.12635100  1
  Cu  Cu16  1  0.50000000  0.00000000  0.19150800  1
  Cu  Cu17  1  0.50000000  0.50000000  0.30849200  1
  Cu  Cu18  1  0.50000000  0.00000000  0.80849200  1
  Cu  Cu19  1  0.50000000  0.50000000  0.69150800  1
