# generated using pymatgen
data_Cu2Ni8C13
_symmetry_space_group_name_H-M   'P 1'
_cell_length_a   6.28550600
_cell_length_b   6.89276800
_cell_length_c   12.30215387
_cell_angle_alpha   65.66439260
_cell_angle_beta   90.00000000
_cell_angle_gamma   90.00000000
_symmetry_Int_Tables_number   1
_chemical_formula_structural   Cu2Ni8C13
_chemical_formula_sum   'Cu4 Ni16 C26'
_cell_volume   485.62795790
_cell_formula_units_Z   2
loop_
 _symmetry_equiv_pos_site_id
 _symmetry_equiv_pos_as_xyz
  1  'x, y, z'
loop_
 _atom_site_type_symbol
 _atom_site_label
 _atom_site_symmetry_multiplicity
 _atom_site_fract_x
 _atom_site_fract_y
 _atom_site_fract_z
 _atom_site_occupancy
  C  C0  1  0.84471700  0.23570600  0.68250500  1
  C  C1  1  0.34471700  0.76429400  0.81749500  1
  C  C2  1  0.65528300  0.23570600  0.18250500  1
  C  C3  1  0.15528300  0.76429400  0.31749500  1
  C  C4  1  0.50000000  0.00000000  0.50000000  1
  C  C5  1  0.00000000  0.00000000  0.00000000  1
  Ni  Ni6  1  0.67476800  0.29649200  0.92319700  1
  Ni  Ni7  1  0.17476800  0.70350800  0.57680300  1
  Ni  Ni8  1  0.32523200  0.70350800  0.07680300  1
  Ni  Ni9  1  0.82523200  0.29649200  0.42319700  1
  Ni  Ni10  1  0.88945000  0.42695100  0.89012800  1
  Ni  Ni11  1  0.38945000  0.57304900  0.60987200  1
  Ni  Ni12  1  0.65930600  0.80550500  0.36734700  1
  Ni  Ni13  1  0.15930600  0.19449500  0.13265300  1
  Ni  Ni14  1  0.34069400  0.19449500  0.63265300  1
  Ni  Ni15  1  0.61055000  0.42695100  0.39012800  1
  Ni  Ni16  1  0.30048400  0.20514100  0.01712000  1
  Ni  Ni17  1  0.80048400  0.79485900  0.48288000  1
  Ni  Ni18  1  0.69951600  0.79485900  0.98288000  1
  Ni  Ni19  1  0.19951600  0.20514100  0.51712000  1
  Ni  Ni20  1  0.11055000  0.57304900  0.10987200  1
  Ni  Ni21  1  0.84069400  0.80550500  0.86734700  1
  Cu  Cu22  1  0.65742300  0.74434300  0.18100200  1
  Cu  Cu23  1  0.84257700  0.74434300  0.68100200  1
  Cu  Cu24  1  0.34257700  0.25565700  0.81899800  1
  Cu  Cu25  1  0.15742300  0.25565700  0.31899800  1
  C  C26  1  0.17282200  0.70872600  0.05067700  1
  C  C27  1  0.58530400  0.67240400  0.10500200  1
  C  C28  1  0.71937500  0.89361400  0.40861000  1
  C  C29  1  0.21937500  0.10638600  0.09139000  1
  C  C30  1  0.28062500  0.10638600  0.59139000  1
  C  C31  1  0.78062500  0.89361400  0.90861000  1
  C  C32  1  0.67282200  0.29127400  0.44932300  1
  C  C33  1  0.08530400  0.32759600  0.39499800  1
  C  C34  1  0.32717800  0.70872600  0.55067700  1
  C  C35  1  0.82717800  0.29127400  0.94932300  1
  C  C36  1  0.81620500  0.87631300  0.15374700  1
  C  C37  1  0.31620500  0.12368700  0.34625300  1
  C  C38  1  0.18379500  0.12368700  0.84625300  1
  C  C39  1  0.68379500  0.87631300  0.65374700  1
  C  C40  1  0.06853500  0.31623200  0.21477700  1
  C  C41  1  0.43146500  0.31623200  0.71477700  1
  C  C42  1  0.91469600  0.67240400  0.60500200  1
  C  C43  1  0.56853500  0.68376800  0.28522300  1
  C  C44  1  0.41469600  0.32759600  0.89499800  1
  C  C45  1  0.93146500  0.68376800  0.78522300  1
