# generated using pymatgen
data_Cu2NiC12
_symmetry_space_group_name_H-M   'P 1'
_cell_length_a   3.97659400
_cell_length_b   3.97651300
_cell_length_c   12.94916100
_cell_angle_alpha   90.00000000
_cell_angle_beta   90.00000000
_cell_angle_gamma   90.00000000
_symmetry_Int_Tables_number   1
_chemical_formula_structural   Cu2NiC12
_chemical_formula_sum   'Cu2 Ni1 C12'
_cell_volume   204.76479460
_cell_formula_units_Z   1
loop_
 _symmetry_equiv_pos_site_id
 _symmetry_equiv_pos_as_xyz
  1  'x, y, z'
loop_
 _atom_site_type_symbol
 _atom_site_label
 _atom_site_symmetry_multiplicity
 _atom_site_fract_x
 _atom_site_fract_y
 _atom_site_fract_z
 _atom_site_occupancy
  C  C0  1  0.50000000  0.50000000  0.75552400  1
  C  C1  1  0.50000000  0.50000000  0.24447600  1
  C  C2  1  0.50000000  0.50000000  0.50000000  1
  Ni  Ni3  1  0.50000000  0.50000000  0.00000000  1
  Cu  Cu4  1  0.00000000  0.00000000  0.61494400  1
  Cu  Cu5  1  0.00000000  0.00000000  0.38505600  1
  C  C6  1  0.00000000  0.00000000  0.00000000  1
  C  C7  1  0.50000000  0.00000000  0.00000000  1
  C  C8  1  0.00000000  0.50000000  0.00000000  1
  C  C9  1  0.00000000  0.00000000  0.84249000  1
  C  C10  1  0.00000000  0.00000000  0.15751000  1
  C  C11  1  0.50000000  0.00000000  0.61678600  1
  C  C12  1  0.00000000  0.50000000  0.61678700  1
  C  C13  1  0.50000000  0.00000000  0.38321400  1
  C  C14  1  0.00000000  0.50000000  0.38321300  1
