# generated using pymatgen
data_Cu2Ni10C7
_symmetry_space_group_name_H-M   'P 1'
_cell_length_a   5.07109026
_cell_length_b   5.11606958
_cell_length_c   8.85226297
_cell_angle_alpha   89.62409864
_cell_angle_beta   90.37415582
_cell_angle_gamma   100.12919923
_symmetry_Int_Tables_number   1
_chemical_formula_structural   Cu2Ni10C7
_chemical_formula_sum   'Cu2 Ni10 C7'
_cell_volume   226.07571181
_cell_formula_units_Z   1
loop_
 _symmetry_equiv_pos_site_id
 _symmetry_equiv_pos_as_xyz
  1  'x, y, z'
loop_
 _atom_site_type_symbol
 _atom_site_label
 _atom_site_symmetry_multiplicity
 _atom_site_fract_x
 _atom_site_fract_y
 _atom_site_fract_z
 _atom_site_occupancy
  C  C0  1  0.53502141  0.03742268  0.00034069  1
  C  C1  1  0.01897038  0.95281970  0.00087644  1
  C  C2  1  0.01294762  0.98294025  0.32511207  1
  C  C3  1  0.02623456  0.97180293  0.65989689  1
  C  C4  1  0.44707366  0.54012102  0.17184347  1
  C  C5  1  0.44655645  0.54105900  0.82074724  1
  C  C6  1  0.44173644  0.56048292  0.49529095  1
  Ni  Ni7  1  0.24225222  0.83258235  0.15571055  1
  Ni  Ni8  1  0.19190042  0.81825784  0.49265160  1
  Ni  Ni9  1  0.22319771  0.83419252  0.83774697  1
  Ni  Ni10  1  0.30931618  0.31154101  0.99147374  1
  Ni  Ni11  1  0.28861575  0.31793615  0.33186516  1
  Ni  Ni12  1  0.28130427  0.32557663  0.66594534  1
  Ni  Ni13  1  0.67805924  0.68803883  0.98854843  1
  Ni  Ni14  1  0.69353697  0.68508033  0.33055400  1
  Ni  Ni15  1  0.68559786  0.69197410  0.66738389  1
  Ni  Ni16  1  0.84039894  0.11995306  0.14887154  1
  Cu  Cu17  1  0.81388424  0.14553302  0.83844559  1
  Cu  Cu18  1  0.83728368  0.14268265  0.49812544  1
