# generated using pymatgen
data_Cu4NiC6
_symmetry_space_group_name_H-M   'P 1'
_cell_length_a   9.00879800
_cell_length_b   9.00879800
_cell_length_c   9.56734100
_cell_angle_alpha   90.00000000
_cell_angle_beta   90.00000000
_cell_angle_gamma   90.00000000
_symmetry_Int_Tables_number   1
_chemical_formula_structural   Cu4NiC6
_chemical_formula_sum   'Cu8 Ni2 C12'
_cell_volume   776.47048395
_cell_formula_units_Z   2
loop_
 _symmetry_equiv_pos_site_id
 _symmetry_equiv_pos_as_xyz
  1  'x, y, z'
loop_
 _atom_site_type_symbol
 _atom_site_label
 _atom_site_symmetry_multiplicity
 _atom_site_fract_x
 _atom_site_fract_y
 _atom_site_fract_z
 _atom_site_occupancy
  C  C0  1  0.68681800  0.89418400  0.50000000  1
  C  C1  1  0.31318200  0.10581600  0.50000000  1
  C  C2  1  0.60581600  0.81318200  0.00000000  1
  C  C3  1  0.10581600  0.68681800  0.50000000  1
  C  C4  1  0.89418400  0.31318200  0.50000000  1
  C  C5  1  0.18681800  0.60581600  0.00000000  1
  C  C6  1  0.81318200  0.39418400  0.00000000  1
  C  C7  1  0.39418400  0.18681800  0.00000000  1
  C  C8  1  0.00000000  0.00000000  0.80040200  1
  C  C9  1  0.50000000  0.50000000  0.69959800  1
  C  C10  1  0.00000000  0.00000000  0.19959800  1
  C  C11  1  0.50000000  0.50000000  0.30040200  1
  Ni  Ni12  1  0.00000000  0.00000000  0.50000000  1
  Ni  Ni13  1  0.50000000  0.50000000  0.00000000  1
  Cu  Cu14  1  0.16993100  0.33006900  0.75000000  1
  Cu  Cu15  1  0.66993100  0.16993100  0.75000000  1
  Cu  Cu16  1  0.33006900  0.83006900  0.75000000  1
  Cu  Cu17  1  0.83006900  0.66993100  0.75000000  1
  Cu  Cu18  1  0.83006900  0.66993100  0.25000000  1
  Cu  Cu19  1  0.33006900  0.83006900  0.25000000  1
  Cu  Cu20  1  0.66993100  0.16993100  0.25000000  1
  Cu  Cu21  1  0.16993100  0.33006900  0.25000000  1
