# generated using pymatgen
data_Cu3Ni4C31
_symmetry_space_group_name_H-M   'P 1'
_cell_length_a   9.05267579
_cell_length_b   9.05708024
_cell_length_c   22.85609498
_cell_angle_alpha   89.96943356
_cell_angle_beta   90.10374399
_cell_angle_gamma   119.90291210
_symmetry_Int_Tables_number   1
_chemical_formula_structural   Cu3Ni4C31
_chemical_formula_sum   'Cu9 Ni12 C93'
_cell_volume   1624.50534205
_cell_formula_units_Z   3
loop_
 _symmetry_equiv_pos_site_id
 _symmetry_equiv_pos_as_xyz
  1  'x, y, z'
loop_
 _atom_site_type_symbol
 _atom_site_label
 _atom_site_symmetry_multiplicity
 _atom_site_fract_x
 _atom_site_fract_y
 _atom_site_fract_z
 _atom_site_occupancy
  Ni  Ni0  1  0.64325617  0.00161614  0.25244849  1
  Ni  Ni1  1  0.35786354  0.35560807  0.25235257  1
  Ni  Ni2  1  0.99855779  0.64077810  0.25287267  1
  Ni  Ni3  1  0.30556657  0.34132570  0.58747677  1
  Ni  Ni4  1  0.66402548  0.96540774  0.58720301  1
  Ni  Ni5  1  0.29092022  0.95798135  0.08372677  1
  Ni  Ni6  1  0.00110802  0.98666369  0.50167082  1
  Ni  Ni7  1  0.98554304  0.00068675  0.98966481  1
  Ni  Ni8  1  0.66643551  0.33315410  0.82591446  1
  Ni  Ni9  1  0.66730398  0.33320096  0.33030611  1
  Ni  Ni10  1  0.33354365  0.65178342  0.17275880  1
  Ni  Ni11  1  0.31421731  0.66792424  0.66212938  1
  Cu  Cu12  1  0.00056593  0.00034714  0.34679487  1
  Cu  Cu13  1  0.00136380  0.99976108  0.85686318  1
  Cu  Cu14  1  0.00154547  0.99382316  0.64247175  1
  Cu  Cu15  1  0.99423111  0.00137149  0.15252370  1
  Cu  Cu16  1  0.66886773  0.33555048  0.68204837  1
  Cu  Cu17  1  0.66903454  0.33617554  0.18934123  1
  Cu  Cu18  1  0.33417077  0.66213597  0.01492367  1
  Cu  Cu19  1  0.32747394  0.66653226  0.52194836  1
  Cu  Cu20  1  0.33315557  0.66768674  0.31292201  1
  C  C21  1  0.66921650  0.33500303  0.97086147  1
  C  C22  1  0.66966249  0.33544882  0.48552973  1
  C  C23  1  0.33384104  0.66705680  0.82010825  1
  C  C24  1  0.29017676  0.99901469  0.24691598  1
  C  C25  1  0.70883414  0.71017035  0.25070243  1
  C  C26  1  0.00137519  0.29091594  0.25044456  1
  C  C27  1  0.96145366  0.33568957  0.58649194  1
  C  C28  1  0.37539314  0.04087718  0.58521280  1
  C  C29  1  0.66753367  0.62605669  0.58455545  1
  C  C30  1  0.62734380  0.67262270  0.91878080  1
  C  C31  1  0.04551460  0.37318102  0.91826969  1
  C  C32  1  0.32815091  0.95484372  0.92158332  1
  C  C33  1  0.29460689  0.29958063  0.75008063  1
  C  C34  1  0.00451311  0.70678581  0.75098255  1
  C  C35  1  0.70049562  0.99520501  0.75022177  1
  C  C36  1  0.95748143  0.62493765  0.08234147  1
  C  C37  1  0.66864093  0.04434114  0.08240526  1
  C  C38  1  0.37687779  0.33372992  0.08233154  1
  C  C39  1  0.63215511  0.96795301  0.41779907  1
  C  C40  1  0.33643372  0.36801904  0.41756601  1
  C  C41  1  0.03235265  0.66365743  0.41659277  1
  C  C42  1  0.20468682  0.04540826  0.30130007  1
  C  C43  1  0.83549478  0.78810262  0.30668643  1
  C  C44  1  0.95123616  0.16362829  0.30631269  1
  C  C45  1  0.20137368  0.19382485  0.80045915  1
  C  C46  1  0.99217669  0.79485173  0.80292352  1
  C  C47  1  0.80608103  0.00630793  0.80055335  1
  C  C48  1  0.77480658  0.97594762  0.69468772  1
  C  C49  1  0.20099465  0.22405721  0.69451105  1
  C  C50  1  0.02263001  0.80539377  0.69705808  1
  C  C51  1  0.78816731  0.83676322  0.19406744  1
  C  C52  1  0.04913689  0.21265096  0.19358006  1
  C  C53  1  0.17522508  0.95710254  0.18667042  1
  C  C54  1  0.87505302  0.36915014  0.64225391  1
  C  C55  1  0.50085101  0.12500718  0.64043364  1
  C  C56  1  0.62057620  0.49750015  0.63904109  1
  C  C57  1  0.87492720  0.53297849  0.13669472  1
  C  C58  1  0.65364624  0.12824142  0.13601440  1
  C  C59  1  0.46985347  0.34452499  0.13694357  1
  C  C60  1  0.47666501  0.32328255  0.03120089  1
  C  C61  1  0.85358252  0.52691881  0.03033867  1
  C  C62  1  0.67737971  0.15008748  0.03026242  1
  C  C63  1  0.47546487  0.16973597  0.52598888  1
  C  C64  1  0.69516656  0.52877067  0.52494817  1
  C  C65  1  0.83444040  0.30694912  0.52676356  1
  C  C66  1  0.54104761  0.69918754  0.97566637  1
  C  C67  1  0.15710052  0.46110913  0.97528560  1
  C  C68  1  0.30506010  0.85290348  0.98157652  1
  C  C69  1  0.54161720  0.86749297  0.47019906  1
  C  C70  1  0.32601635  0.45778851  0.47014727  1
  C  C71  1  0.13690714  0.67283616  0.46754456  1
  C  C72  1  0.10929664  0.64590075  0.36168885  1
  C  C73  1  0.53251884  0.88680437  0.36394286  1
  C  C74  1  0.35265260  0.46722712  0.36391751  1
  C  C75  1  0.13706580  0.50095920  0.85977013  1
  C  C76  1  0.36346949  0.85723522  0.86436518  1
  C  C77  1  0.49814995  0.63399805  0.86023002  1
  C  C78  1  0.01351969  0.81655589  0.41646651  1
  C  C79  1  0.80381288  0.98691243  0.41661812  1
  C  C80  1  0.18483778  0.19561731  0.41611838  1
  C  C81  1  0.00857803  0.18414147  0.90743900  1
  C  C82  1  0.17529382  0.98978677  0.90870780  1
  C  C83  1  0.81560612  0.82490886  0.90740601  1
  C  C84  1  0.96591868  0.15756476  0.58966707  1
  C  C85  1  0.19598844  0.03999640  0.58825920  1
  C  C86  1  0.83507935  0.81332913  0.58871568  1
  C  C87  1  0.97298716  0.79653775  0.08033862  1
  C  C88  1  0.82318341  0.02911674  0.08206437  1
  C  C89  1  0.20944148  0.17244666  0.08074677  1
  C  C90  1  0.67946612  0.14777115  0.74965395  1
  C  C91  1  0.46830842  0.32073338  0.74946081  1
  C  C92  1  0.85240872  0.53350458  0.74887344  1
  C  C93  1  0.68229422  0.51861714  0.24147529  1
  C  C94  1  0.83698855  0.31867007  0.24101124  1
  C  C95  1  0.48304627  0.16388102  0.24037569  1
  C  C96  1  0.63564276  0.49088394  0.92555386  1
  C  C97  1  0.85541860  0.36512930  0.92459382  1
  C  C98  1  0.51038932  0.14537607  0.92594889  1
  C  C99  1  0.64727594  0.14276831  0.42053092  1
  C  C100  1  0.49650536  0.35350332  0.42007256  1
  C  C101  1  0.85816301  0.50432115  0.42033202  1
  C  C102  1  0.35726755  0.48590259  0.07970526  1
  C  C103  1  0.13156899  0.64459326  0.08121901  1
  C  C104  1  0.50921107  0.87463297  0.08057301  1
  C  C105  1  0.35843714  0.85674223  0.57399183  1
  C  C106  1  0.50179051  0.64800225  0.57271532  1
  C  C107  1  0.15308467  0.49166873  0.57567684  1
  C  C108  1  0.31223160  0.83183532  0.25847778  1
  C  C109  1  0.51781760  0.68511993  0.26013759  1
  C  C110  1  0.16766872  0.48112867  0.26026552  1
  C  C111  1  0.31003695  0.47464914  0.75473426  1
  C  C112  1  0.16466396  0.69107038  0.75467737  1
  C  C113  1  0.52414670  0.83674719  0.75522806  1
