# generated using pymatgen
data_Cu2Ni4C9
_symmetry_space_group_name_H-M   'P 1'
_cell_length_a   6.67460906
_cell_length_b   6.60626069
_cell_length_c   6.62967903
_cell_angle_alpha   59.88266716
_cell_angle_beta   90.00000000
_cell_angle_gamma   119.95708792
_symmetry_Int_Tables_number   1
_chemical_formula_structural   Cu2Ni4C9
_chemical_formula_sum   'Cu2 Ni4 C9'
_cell_volume   206.47569582
_cell_formula_units_Z   1
loop_
 _symmetry_equiv_pos_site_id
 _symmetry_equiv_pos_as_xyz
  1  'x, y, z'
loop_
 _atom_site_type_symbol
 _atom_site_label
 _atom_site_symmetry_multiplicity
 _atom_site_fract_x
 _atom_site_fract_y
 _atom_site_fract_z
 _atom_site_occupancy
  C  C0  1  0.49900200  0.98150600  0.50924700  1
  Ni  Ni1  1  0.64424300  0.29334800  0.07386500  1
  Ni  Ni2  1  0.64424300  0.29334800  0.63278700  1
  Ni  Ni3  1  0.64925800  0.69724600  0.65137700  1
  Ni  Ni4  1  0.07362100  0.73179200  0.63410400  1
  Cu  Cu5  1  0.00273900  0.03586200  0.98206900  1
  Cu  Cu6  1  0.24399200  0.49096700  0.25451600  1
  C  C7  1  0.83285200  0.21139500  0.39430200  1
  C  C8  1  0.85547700  0.30350600  0.84824700  1
  C  C9  1  0.87344200  0.73116800  0.42045400  1
  C  C10  1  0.37417500  0.19952300  0.40023900  1
  C  C11  1  0.37624200  0.75178100  0.40119800  1
  C  C12  1  0.43103300  0.29560900  0.85219600  1
  C  C13  1  0.87344200  0.73116800  0.84837800  1
  C  C14  1  0.37624200  0.75178100  0.84702100  1
