# generated using pymatgen
data_Cu2NiC16
_symmetry_space_group_name_H-M   'P 1'
_cell_length_a   9.17989996
_cell_length_b   9.19793801
_cell_length_c   23.50840942
_cell_angle_alpha   90.34953454
_cell_angle_beta   89.95162428
_cell_angle_gamma   119.96252809
_symmetry_Int_Tables_number   1
_chemical_formula_structural   Cu2NiC16
_chemical_formula_sum   'Cu12 Ni6 C96'
_cell_volume   1719.63660579
_cell_formula_units_Z   6
loop_
 _symmetry_equiv_pos_site_id
 _symmetry_equiv_pos_as_xyz
  1  'x, y, z'
loop_
 _atom_site_type_symbol
 _atom_site_label
 _atom_site_symmetry_multiplicity
 _atom_site_fract_x
 _atom_site_fract_y
 _atom_site_fract_z
 _atom_site_occupancy
  C  C0  1  0.63621613  0.99932727  0.25692529  1
  C  C1  1  0.36123240  0.36204915  0.25169725  1
  C  C2  1  0.31091073  0.34397900  0.59432946  1
  C  C3  1  0.66541737  0.95049379  0.58088083  1
  C  C4  1  0.98202888  0.67874033  0.91153875  1
  C  C5  1  0.32122351  0.29634454  0.90675614  1
  C  C6  1  0.97601461  0.97133724  0.49639573  1
  C  C7  1  0.98355236  0.00170266  0.99398814  1
  C  C8  1  0.65331822  0.31916869  0.82461316  1
  C  C9  1  0.68063806  0.33719312  0.34159890  1
  C  C10  1  0.31652277  0.66612199  0.16034236  1
  C  C11  1  0.32809868  0.65642285  0.67724060  1
  C  C12  1  0.99399759  0.99600145  0.35461811  1
  C  C13  1  0.99458833  0.00357792  0.84736416  1
  C  C14  1  0.00178728  0.99341095  0.65655829  1
  C  C15  1  0.99946342  0.99435357  0.14442812  1
  C  C16  1  0.66598118  0.34444090  0.68888359  1
  C  C17  1  0.67543534  0.34086854  0.18264746  1
  C  C18  1  0.33992729  0.67036022  0.01666715  1
  C  C19  1  0.33469224  0.66996264  0.51200447  1
  C  C20  1  0.33486264  0.67837507  0.32650301  1
  C  C21  1  0.66565671  0.32684170  0.97956233  1
  C  C22  1  0.66927972  0.33787109  0.48392642  1
  C  C23  1  0.33698929  0.66339590  0.82173123  1
  Ni  Ni24  1  0.30524196  0.31816744  0.75404739  1
  Ni  Ni25  1  0.66782508  0.62698622  0.57977704  1
  Ni  Ni26  1  0.62943437  0.65681544  0.91933280  1
  Ni  Ni27  1  0.03499670  0.37636334  0.91890724  1
  Ni  Ni28  1  0.33983769  0.96363270  0.91714199  1
  Ni  Ni29  1  0.64363730  0.98976455  0.42072429  1
  Cu  Cu30  1  0.30116885  0.00061938  0.24926044  1
  Cu  Cu31  1  0.69442655  0.70016081  0.25008114  1
  Cu  Cu32  1  0.00397943  0.29823778  0.25007348  1
  Cu  Cu33  1  0.01616950  0.69569484  0.75595422  1
  Cu  Cu34  1  0.68033231  0.98705412  0.75071817  1
  Cu  Cu35  1  0.95738976  0.32902781  0.58206133  1
  Cu  Cu36  1  0.37783897  0.04720181  0.58152737  1
  Cu  Cu37  1  0.95838279  0.62629045  0.07851201  1
  Cu  Cu38  1  0.66964907  0.04267254  0.08220641  1
  Cu  Cu39  1  0.37306634  0.33069127  0.08146643  1
  Cu  Cu40  1  0.34410603  0.36052340  0.41811493  1
  Cu  Cu41  1  0.01617963  0.65528633  0.41970507  1
  C  C42  1  0.21909564  0.01957596  0.30033714  1
  C  C43  1  0.79266905  0.77989606  0.30172528  1
  C  C44  1  0.98272445  0.19430296  0.30045255  1
  C  C45  1  0.21381505  0.21731653  0.80685924  1
  C  C46  1  0.99618824  0.77375381  0.80797650  1
  C  C47  1  0.78521607  0.00194339  0.79970471  1
  C  C48  1  0.75020184  0.96217591  0.69653878  1
  C  C49  1  0.20771329  0.24167746  0.69734690  1
  C  C50  1  0.03574975  0.79645814  0.70467820  1
  C  C51  1  0.77602532  0.79873634  0.19875598  1
  C  C52  1  0.02449316  0.21757619  0.19833649  1
  C  C53  1  0.20516728  0.98462315  0.19728286  1
  C  C54  1  0.87688369  0.34737151  0.63223945  1
  C  C55  1  0.48274778  0.12617592  0.63125802  1
  C  C56  1  0.64356822  0.51545663  0.62989870  1
  C  C57  1  0.87208986  0.52960011  0.12923043  1
  C  C58  1  0.65949920  0.12219837  0.13563061  1
  C  C59  1  0.46610946  0.34082155  0.13396454  1
  C  C60  1  0.46485700  0.31710319  0.02899721  1
  C  C61  1  0.85727745  0.53828043  0.02475727  1
  C  C62  1  0.68427169  0.15070432  0.03116004  1
  C  C63  1  0.45930399  0.15332565  0.52861056  1
  C  C64  1  0.68985886  0.54254553  0.52295071  1
  C  C65  1  0.85185699  0.30511192  0.52875365  1
  C  C66  1  0.55446850  0.68267683  0.97245503  1
  C  C67  1  0.14037766  0.45571611  0.97126586  1
  C  C68  1  0.31076447  0.85886255  0.96936497  1
  C  C69  1  0.55254604  0.88772659  0.47342236  1
  C  C70  1  0.32573196  0.44370723  0.46897082  1
  C  C71  1  0.11384896  0.66822944  0.47061505  1
  C  C72  1  0.08995859  0.63037207  0.36742657  1
  C  C73  1  0.54440476  0.91672161  0.36437439  1
  C  C74  1  0.36425392  0.45848878  0.36560945  1
  C  C75  1  0.11503668  0.49707131  0.86562405  1
  C  C76  1  0.37066625  0.88113886  0.86258767  1
  C  C77  1  0.51061664  0.61939269  0.86548471  1
  C  C78  1  0.99448941  0.80318504  0.41673216  1
  C  C79  1  0.82204896  0.01557593  0.41838654  1
  C  C80  1  0.20095015  0.18880142  0.41464002  1
  C  C81  1  0.01250594  0.20186731  0.91024807  1
  C  C82  1  0.18894222  0.99144167  0.90859228  1
  C  C83  1  0.81054737  0.79683849  0.91047007  1
  C  C84  1  0.96946376  0.17220876  0.58377407  1
  C  C85  1  0.21250313  0.03989640  0.58468207  1
  C  C86  1  0.82075725  0.80709162  0.58247803  1
  C  C87  1  0.97053534  0.79245945  0.07820344  1
  C  C88  1  0.82270592  0.02811707  0.08029573  1
  C  C89  1  0.20609213  0.17744674  0.07995467  1
  C  C90  1  0.65853617  0.13471434  0.74820965  1
  C  C91  1  0.48415831  0.34480126  0.75246480  1
  C  C92  1  0.87312225  0.52346185  0.75106777  1
  C  C93  1  0.66520231  0.52541213  0.24705867  1
  C  C94  1  0.84846799  0.31173455  0.24703301  1
  C  C95  1  0.47268801  0.15802715  0.24700276  1
  C  C96  1  0.63251060  0.48249960  0.92290932  1
  C  C97  1  0.85628686  0.36751961  0.92312198  1
  C  C98  1  0.50227355  0.14716457  0.92202124  1
  C  C99  1  0.65594713  0.17018920  0.42483647  1
  C  C100  1  0.50509384  0.35154245  0.42180114  1
  C  C101  1  0.84302203  0.49853181  0.42281007  1
  C  C102  1  0.35956724  0.48347033  0.07918791  1
  C  C103  1  0.12559124  0.64115715  0.07703093  1
  C  C104  1  0.51631749  0.87740671  0.07875773  1
  C  C105  1  0.35970829  0.87923966  0.57466417  1
  C  C106  1  0.50407153  0.63867041  0.57474504  1
  C  C107  1  0.12918974  0.47527056  0.57590000  1
  C  C108  1  0.32919818  0.85400008  0.25218714  1
  C  C109  1  0.52352660  0.68715939  0.25357445  1
  C  C110  1  0.15847551  0.46707327  0.25492852  1
  C  C111  1  0.31673744  0.49829894  0.75862413  1
  C  C112  1  0.17782036  0.68849904  0.75930915  1
  C  C113  1  0.50879092  0.82956012  0.75683740  1
