# generated using pymatgen
data_Cu2NiC
_symmetry_space_group_name_H-M   'P 1'
_cell_length_a   3.63240800
_cell_length_b   4.32301506
_cell_length_c   4.32301506
_cell_angle_alpha   78.74164284
_cell_angle_beta   65.15755994
_cell_angle_gamma   65.15755994
_symmetry_Int_Tables_number   1
_chemical_formula_structural   Cu2NiC
_chemical_formula_sum   'Cu2 Ni1 C1'
_cell_volume   55.88779902
_cell_formula_units_Z   1
loop_
 _symmetry_equiv_pos_site_id
 _symmetry_equiv_pos_as_xyz
  1  'x, y, z'
loop_
 _atom_site_type_symbol
 _atom_site_label
 _atom_site_symmetry_multiplicity
 _atom_site_fract_x
 _atom_site_fract_y
 _atom_site_fract_z
 _atom_site_occupancy
  C  C0  1  0.58569900  0.41430100  0.41430100  1
  Ni  Ni1  1  0.12376400  0.87623600  0.87623600  1
  Cu  Cu2  1  0.00081800  0.80409900  0.19426500  1
  Cu  Cu3  1  0.00081900  0.19426400  0.80409900  1
