# generated using pymatgen
data_CuNi3C17
_symmetry_space_group_name_H-M   'P 1'
_cell_length_a   9.24813620
_cell_length_b   9.24813586
_cell_length_c   21.90307963
_cell_angle_alpha   90.00000000
_cell_angle_beta   90.00000000
_cell_angle_gamma   120.00000120
_symmetry_Int_Tables_number   1
_chemical_formula_structural   CuNi3C17
_chemical_formula_sum   'Cu6 Ni18 C102'
_cell_volume   1622.34878172
_cell_formula_units_Z   6
loop_
 _symmetry_equiv_pos_site_id
 _symmetry_equiv_pos_as_xyz
  1  'x, y, z'
loop_
 _atom_site_type_symbol
 _atom_site_label
 _atom_site_symmetry_multiplicity
 _atom_site_fract_x
 _atom_site_fract_y
 _atom_site_fract_z
 _atom_site_occupancy
  Ni  Ni0  1  0.65038990  0.00000000  0.25000000  1
  Ni  Ni1  1  0.34961010  0.34961010  0.25000000  1
  Ni  Ni2  1  1.00000000  0.65038990  0.25000000  1
  Ni  Ni3  1  0.65038990  0.65038990  0.75000000  1
  Ni  Ni4  1  0.00000000  0.34961010  0.75000000  1
  Ni  Ni5  1  0.34961010  0.00000000  0.75000000  1
  Ni  Ni6  1  0.31705690  0.33333300  0.58333300  1
  Ni  Ni7  1  0.01627710  0.68294310  0.58333300  1
  Ni  Ni8  1  0.66666700  0.98372290  0.58333300  1
  Ni  Ni9  1  0.31705690  0.98372290  0.08333300  1
  Ni  Ni10  1  0.66666700  0.68294310  0.08333300  1
  Ni  Ni11  1  0.01627710  0.33333300  0.08333300  1
  Ni  Ni12  1  0.98372290  0.66666700  0.91666700  1
  Ni  Ni13  1  0.68294310  0.01627710  0.91666700  1
  Ni  Ni14  1  0.33333300  0.31705690  0.91666700  1
  Ni  Ni15  1  0.98372290  0.31705690  0.41666700  1
  Ni  Ni16  1  0.33333300  0.01627710  0.41666700  1
  Ni  Ni17  1  0.68294310  0.66666700  0.41666700  1
  Cu  Cu18  1  0.00000000  0.00000000  0.50000000  1
  Cu  Cu19  1  0.00000000  0.00000000  -0.00000000  1
  Cu  Cu20  1  0.66666700  0.33333300  0.83333300  1
  Cu  Cu21  1  0.66666700  0.33333300  0.33333300  1
  Cu  Cu22  1  0.33333300  0.66666700  0.16666700  1
  Cu  Cu23  1  0.33333300  0.66666700  0.66666700  1
  C  C24  1  0.00000000  0.00000000  0.35128154  1
  C  C25  1  0.00000000  0.00000000  0.85128154  1
  C  C26  1  0.00000000  0.00000000  0.64871846  1
  C  C27  1  0.00000000  0.00000000  0.14871846  1
  C  C28  1  0.66666700  0.33333300  0.68461454  1
  C  C29  1  0.66666700  0.33333300  0.18461454  1
  C  C30  1  0.66666700  0.33333300  0.98205146  1
  C  C31  1  0.66666700  0.33333300  0.48205146  1
  C  C32  1  0.33333300  0.66666700  0.01794854  1
  C  C33  1  0.33333300  0.66666700  0.51794854  1
  C  C34  1  0.33333300  0.66666700  0.31538546  1
  C  C35  1  0.33333300  0.66666700  0.81538546  1
  C  C36  1  0.29492828  0.00000000  0.25000000  1
  C  C37  1  0.70507172  0.70507172  0.25000000  1
  C  C38  1  0.00000000  0.29492828  0.25000000  1
  C  C39  1  0.29492828  0.29492828  0.75000000  1
  C  C40  1  1.00000000  0.70507172  0.75000000  1
  C  C41  1  0.70507172  0.00000000  0.75000000  1
  C  C42  1  0.96159528  0.33333300  0.58333300  1
  C  C43  1  0.37173872  0.03840472  0.58333300  1
  C  C44  1  0.66666700  0.62826128  0.58333300  1
  C  C45  1  0.96159528  0.62826128  0.08333300  1
  C  C46  1  0.66666700  0.03840472  0.08333300  1
  C  C47  1  0.37173872  0.33333300  0.08333300  1
  C  C48  1  0.62826128  0.66666700  0.91666700  1
  C  C49  1  0.03840472  0.37173872  0.91666700  1
  C  C50  1  0.33333300  0.96159528  0.91666700  1
  C  C51  1  0.62826128  0.96159528  0.41666700  1
  C  C52  1  0.33333300  0.37173872  0.41666700  1
  C  C53  1  0.03840472  0.66666700  0.41666700  1
  C  C54  1  0.19054036  0.02031737  0.30827663  1
  C  C55  1  0.82977701  0.80945964  0.30827663  1
  C  C56  1  0.97968263  0.17022299  0.30827663  1
  C  C57  1  0.19054036  0.17022299  0.80827663  1
  C  C58  1  0.97968263  0.80945964  0.80827663  1
  C  C59  1  0.82977701  0.02031737  0.80827663  1
  C  C60  1  0.80945964  0.97968263  0.69172337  1
  C  C61  1  0.17022299  0.19054036  0.69172337  1
  C  C62  1  0.02031737  0.82977701  0.69172337  1
  C  C63  1  0.80945964  0.82977701  0.19172337  1
  C  C64  1  0.02031737  0.19054036  0.19172337  1
  C  C65  1  0.17022299  0.97968263  0.19172337  1
  C  C66  1  0.85720736  0.35365037  0.64160963  1
  C  C67  1  0.49644401  0.14279264  0.64160963  1
  C  C68  1  0.64634963  0.50355599  0.64160963  1
  C  C69  1  0.85720736  0.50355599  0.14160963  1
  C  C70  1  0.64634963  0.14279264  0.14160963  1
  C  C71  1  0.49644401  0.35365037  0.14160963  1
  C  C72  1  0.47612664  0.31301563  0.02505637  1
  C  C73  1  0.83688999  0.52387336  0.02505637  1
  C  C74  1  0.68698437  0.16311001  0.02505637  1
  C  C75  1  0.47612664  0.16311001  0.52505637  1
  C  C76  1  0.68698437  0.52387336  0.52505637  1
  C  C77  1  0.83688999  0.31301563  0.52505637  1
  C  C78  1  0.52387336  0.68698437  0.97494363  1
  C  C79  1  0.16311001  0.47612664  0.97494363  1
  C  C80  1  0.31301563  0.83688999  0.97494363  1
  C  C81  1  0.52387336  0.83688999  0.47494363  1
  C  C82  1  0.31301563  0.47612664  0.47494363  1
  C  C83  1  0.16311001  0.68698437  0.47494363  1
  C  C84  1  0.14279264  0.64634963  0.35839037  1
  C  C85  1  0.50355599  0.85720736  0.35839037  1
  C  C86  1  0.35365037  0.49644401  0.35839037  1
  C  C87  1  0.14279264  0.49644401  0.85839037  1
  C  C88  1  0.35365037  0.85720736  0.85839037  1
  C  C89  1  0.50355599  0.64634963  0.85839037  1
  C  C90  1  0.01710438  0.83222405  0.41160111  1
  C  C91  1  0.81511967  0.98289562  0.41160111  1
  C  C92  1  0.16777595  0.18488033  0.41160111  1
  C  C93  1  0.01710438  0.18488033  0.91160111  1
  C  C94  1  0.16777595  0.98289562  0.91160111  1
  C  C95  1  0.81511967  0.83222405  0.91160111  1
  C  C96  1  0.98289562  0.16777595  0.58839889  1
  C  C97  1  0.18488033  0.01710438  0.58839889  1
  C  C98  1  0.83222405  0.81511967  0.58839889  1
  C  C99  1  0.98289562  0.81511967  0.08839889  1
  C  C100  1  0.83222405  0.01710438  0.08839889  1
  C  C101  1  0.18488033  0.16777595  0.08839889  1
  C  C102  1  0.68377138  0.16555705  0.74493411  1
  C  C103  1  0.48178667  0.31622862  0.74493411  1
  C  C104  1  0.83444295  0.51821333  0.74493411  1
  C  C105  1  0.68377138  0.51821333  0.24493411  1
  C  C106  1  0.83444295  0.31622862  0.24493411  1
  C  C107  1  0.48178667  0.16555705  0.24493411  1
  C  C108  1  0.64956262  0.50110895  0.92173189  1
  C  C109  1  0.85154733  0.35043738  0.92173189  1
  C  C110  1  0.49889105  0.14845267  0.92173189  1
  C  C111  1  0.64956262  0.14845267  0.42173189  1
  C  C112  1  0.49889105  0.35043738  0.42173189  1
  C  C113  1  0.85154733  0.50110895  0.42173189  1
  C  C114  1  0.35043738  0.49889105  0.07826811  1
  C  C115  1  0.14845267  0.64956262  0.07826811  1
  C  C116  1  0.50110895  0.85154733  0.07826811  1
  C  C117  1  0.35043738  0.85154733  0.57826811  1
  C  C118  1  0.50110895  0.64956262  0.57826811  1
  C  C119  1  0.14845267  0.49889105  0.57826811  1
  C  C120  1  0.31622862  0.83444295  0.25506589  1
  C  C121  1  0.51821333  0.68377138  0.25506589  1
  C  C122  1  0.16555705  0.48178667  0.25506589  1
  C  C123  1  0.31622862  0.48178667  0.75506589  1
  C  C124  1  0.16555705  0.68377138  0.75506589  1
  C  C125  1  0.51821333  0.83444295  0.75506589  1
