# generated using pymatgen
data_Cu2NiC7
_symmetry_space_group_name_H-M   'P 1'
_cell_length_a   3.23590182
_cell_length_b   5.14000241
_cell_length_c   6.44155668
_cell_angle_alpha   92.04004759
_cell_angle_beta   103.97960295
_cell_angle_gamma   89.28064922
_symmetry_Int_Tables_number   1
_chemical_formula_structural   Cu2NiC7
_chemical_formula_sum   'Cu2 Ni1 C7'
_cell_volume   103.89943113
_cell_formula_units_Z   1
loop_
 _symmetry_equiv_pos_site_id
 _symmetry_equiv_pos_as_xyz
  1  'x, y, z'
loop_
 _atom_site_type_symbol
 _atom_site_label
 _atom_site_symmetry_multiplicity
 _atom_site_fract_x
 _atom_site_fract_y
 _atom_site_fract_z
 _atom_site_occupancy
  Ni  Ni0  1  0.52530200  0.78182900  0.06062500  1
  Cu  Cu1  1  0.84985200  0.58114200  0.68278600  1
  Cu  Cu2  1  0.14259400  0.39230100  0.29724100  1
  C  C3  1  0.68058600  0.00907300  0.36146900  1
  C  C4  1  0.34997100  0.03304000  0.69131800  1
  C  C5  1  0.00523700  0.56289700  0.00922900  1
  C  C6  1  0.66930200  0.63414000  0.36729700  1
  C  C7  1  0.29774200  0.34399500  0.61119400  1
  C  C8  1  0.38089600  0.84984400  0.74411600  1
  C  C9  1  0.61935100  0.12424000  0.23722500  1
