# generated using pymatgen
data_Cu5NiC30
_symmetry_space_group_name_H-M   'P 1'
_cell_length_a   8.81054851
_cell_length_b   8.78522764
_cell_length_c   22.71734479
_cell_angle_alpha   89.86823800
_cell_angle_beta   90.24421204
_cell_angle_gamma   119.90559784
_symmetry_Int_Tables_number   1
_chemical_formula_structural   Cu5NiC30
_chemical_formula_sum   'Cu15 Ni3 C90'
_cell_volume   1524.23719128
_cell_formula_units_Z   3
loop_
 _symmetry_equiv_pos_site_id
 _symmetry_equiv_pos_as_xyz
  1  'x, y, z'
loop_
 _atom_site_type_symbol
 _atom_site_label
 _atom_site_symmetry_multiplicity
 _atom_site_fract_x
 _atom_site_fract_y
 _atom_site_fract_z
 _atom_site_occupancy
  C  C0  1  0.98749694  0.98466929  0.49189205  1
  C  C1  1  0.00455051  0.01541014  0.99866245  1
  C  C2  1  0.66685016  0.33032566  0.82534849  1
  C  C3  1  0.67067294  0.33521168  0.32859570  1
  C  C4  1  0.33317680  0.66099625  0.16457841  1
  C  C5  1  0.33804364  0.67080220  0.65280898  1
  C  C6  1  0.67506224  0.33534074  0.98081789  1
  C  C7  1  0.67333604  0.33266028  0.47693545  1
  C  C8  1  0.33007550  0.67335373  0.31816077  1
  C  C9  1  0.32189262  0.65843077  0.81270085  1
  C  C10  1  0.98450865  0.98853681  0.35401474  1
  C  C11  1  0.99835171  0.01213867  0.84984135  1
  C  C12  1  0.99615351  0.99710393  0.64244150  1
  C  C13  1  0.99902514  0.99974519  0.15523613  1
  C  C14  1  0.66732441  0.33201490  0.67725697  1
  C  C15  1  0.66663820  0.33249066  0.18650752  1
  C  C16  1  0.32773578  0.65506528  0.01747550  1
  C  C17  1  0.33931735  0.68306669  0.51333489  1
  Ni  Ni18  1  0.04378554  0.36511281  0.92058703  1
  Ni  Ni19  1  0.63346941  0.95577479  0.42169316  1
  Ni  Ni20  1  0.04648288  0.67867798  0.42163484  1
  Cu  Cu21  1  0.29393808  0.00132267  0.24930234  1
  Cu  Cu22  1  0.70171819  0.70153138  0.24828923  1
  Cu  Cu23  1  0.00105904  0.29406596  0.24894166  1
  Cu  Cu24  1  0.29713357  0.29040115  0.75001833  1
  Cu  Cu25  1  0.99500991  0.71039705  0.75124890  1
  Cu  Cu26  1  0.70561942  0.00215869  0.74994885  1
  Cu  Cu27  1  0.96220179  0.33290395  0.58519337  1
  Cu  Cu28  1  0.37130042  0.04166516  0.58601385  1
  Cu  Cu29  1  0.66471030  0.62530807  0.58533160  1
  Cu  Cu30  1  0.96118386  0.63061367  0.08589164  1
  Cu  Cu31  1  0.66441830  0.03570485  0.08463948  1
  Cu  Cu32  1  0.37466211  0.33235653  0.08503790  1
  Cu  Cu33  1  0.62493301  0.66694841  0.91800333  1
  Cu  Cu34  1  0.33261104  0.95741503  0.91813935  1
  Cu  Cu35  1  0.33364623  0.37598200  0.41838867  1
  C  C36  1  0.20997429  0.01906832  0.30122390  1
  C  C37  1  0.80534752  0.78574505  0.30051701  1
  C  C38  1  0.98469336  0.19144222  0.30110007  1
  C  C39  1  0.21827257  0.19240678  0.80386417  1
  C  C40  1  0.98126280  0.79307228  0.80499601  1
  C  C41  1  0.80574929  0.02152907  0.80377851  1
  C  C42  1  0.77802709  0.96810163  0.69710454  1
  C  C43  1  0.19008956  0.22076378  0.69729742  1
  C  C44  1  0.02623279  0.81415905  0.69797465  1
  C  C45  1  0.77572705  0.80448342  0.19350791  1
  C  C46  1  0.02507715  0.21871603  0.19366412  1
  C  C47  1  0.19355349  0.97353687  0.19401333  1
  C  C48  1  0.88104592  0.35433569  0.63884320  1
  C  C49  1  0.46975646  0.12345864  0.64081185  1
  C  C50  1  0.65110100  0.52853535  0.64031702  1
  C  C51  1  0.87324546  0.52169226  0.13678434  1
  C  C52  1  0.64424704  0.12137630  0.13630140  1
  C  C53  1  0.47749445  0.34610753  0.13745602  1
  C  C54  1  0.47384986  0.32071005  0.03042792  1
  C  C55  1  0.84764665  0.52786434  0.03008944  1
  C  C56  1  0.68047066  0.15343855  0.02943660  1
  C  C57  1  0.46956434  0.15181522  0.53345085  1
  C  C58  1  0.67922039  0.52726121  0.53283252  1
  C  C59  1  0.84788568  0.31865635  0.53182435  1
  C  C60  1  0.55143859  0.69580442  0.97106667  1
  C  C61  1  0.15338573  0.45965244  0.97704675  1
  C  C62  1  0.31957893  0.86054887  0.97149894  1
  C  C63  1  0.55450142  0.84274640  0.47851263  1
  C  C64  1  0.30959049  0.45203472  0.47155601  1
  C  C65  1  0.14436733  0.68416515  0.47988749  1
  C  C66  1  0.13547626  0.63539462  0.36096811  1
  C  C67  1  0.49985700  0.85813693  0.36185366  1
  C  C68  1  0.36425100  0.49303996  0.36457465  1
  C  C69  1  0.14129551  0.49730711  0.86064271  1
  C  C70  1  0.36370882  0.87306893  0.86464175  1
  C  C71  1  0.51083332  0.64260888  0.86494714  1
  C  C72  1  0.02327004  0.84166164  0.40905821  1
  C  C73  1  0.82986822  0.01279137  0.40868530  1
  C  C74  1  0.18923364  0.20200487  0.40723899  1
  C  C75  1  0.00725618  0.17097503  0.91100481  1
  C  C76  1  0.17925477  0.97599566  0.90937310  1
  C  C77  1  0.80333356  0.80784234  0.90856839  1
  C  C78  1  0.96428824  0.16616498  0.58503913  1
  C  C79  1  0.19957404  0.03382230  0.58600655  1
  C  C80  1  0.82716898  0.79859699  0.58519207  1
  C  C81  1  0.96383775  0.79862227  0.08412476  1
  C  C82  1  0.82704408  0.02889524  0.08359929  1
  C  C83  1  0.20232013  0.17164957  0.08390738  1
  C  C84  1  0.67696020  0.15374451  0.74498034  1
  C  C85  1  0.47754807  0.32415785  0.74508362  1
  C  C86  1  0.85035276  0.52815140  0.74703611  1
  C  C87  1  0.67834822  0.52243901  0.24397971  1
  C  C88  1  0.84791214  0.32168058  0.24485343  1
  C  C89  1  0.47515070  0.15095886  0.24486202  1
  C  C90  1  0.62740412  0.49479920  0.92199578  1
  C  C91  1  0.84732315  0.35980482  0.92586878  1
  C  C92  1  0.49548717  0.13873037  0.92105430  1
  C  C93  1  0.62569014  0.14485228  0.42680260  1
  C  C94  1  0.50248720  0.36979937  0.42156167  1
  C  C95  1  0.84816876  0.49176525  0.42598370  1
  C  C96  1  0.36326588  0.49358849  0.08019974  1
  C  C97  1  0.13515336  0.65059908  0.07909573  1
  C  C98  1  0.50746256  0.86411841  0.07554032  1
  C  C99  1  0.35256856  0.86635176  0.58237666  1
  C  C100  1  0.50646609  0.63961400  0.58063089  1
  C  C101  1  0.13688885  0.48523083  0.57926980  1
  C  C102  1  0.31141977  0.83432522  0.25412633  1
  C  C103  1  0.51928737  0.67956166  0.25378463  1
  C  C104  1  0.16499710  0.47523350  0.25362433  1
  C  C105  1  0.31892611  0.47974632  0.75845856  1
  C  C106  1  0.16591134  0.69443491  0.75834144  1
  C  C107  1  0.52245624  0.83880261  0.75896469  1
