# generated using pymatgen
data_Cu2NiC11
_symmetry_space_group_name_H-M   'P 1'
_cell_length_a   8.45919061
_cell_length_b   8.45919152
_cell_length_c   8.45919124
_cell_angle_alpha   41.87436876
_cell_angle_beta   41.87436135
_cell_angle_gamma   41.87436454
_symmetry_Int_Tables_number   1
_chemical_formula_structural   Cu2NiC11
_chemical_formula_sum   'Cu2 Ni1 C11'
_cell_volume   243.90551827
_cell_formula_units_Z   1
loop_
 _symmetry_equiv_pos_site_id
 _symmetry_equiv_pos_as_xyz
  1  'x, y, z'
loop_
 _atom_site_type_symbol
 _atom_site_label
 _atom_site_symmetry_multiplicity
 _atom_site_fract_x
 _atom_site_fract_y
 _atom_site_fract_z
 _atom_site_occupancy
  C  C0  1  0.00000000  0.00000000  0.00000000  1
  C  C1  1  0.80174100  0.80174100  0.80174100  1
  C  C2  1  0.19825900  0.19825900  0.19825900  1
  Ni  Ni3  1  0.50000000  0.50000000  0.50000000  1
  Cu  Cu4  1  0.38851200  0.38851200  0.38851200  1
  Cu  Cu5  1  0.61148800  0.61148800  0.61148800  1
  C  C6  1  0.28461300  0.28461300  0.74537800  1
  C  C7  1  0.74537800  0.28461300  0.28461300  1
  C  C8  1  0.28461300  0.74537800  0.28461300  1
  C  C9  1  0.71538700  0.71538700  0.25462200  1
  C  C10  1  0.25462200  0.71538700  0.71538700  1
  C  C11  1  0.71538700  0.25462200  0.71538700  1
  C  C12  1  0.30771000  0.30771000  0.30771000  1
  C  C13  1  0.69229000  0.69229000  0.69229000  1
