# generated using pymatgen
data_CuNi5C31
_symmetry_space_group_name_H-M   'P 1'
_cell_length_a   9.24725688
_cell_length_b   9.23779750
_cell_length_c   23.99334870
_cell_angle_alpha   90.14177229
_cell_angle_beta   89.90549689
_cell_angle_gamma   119.62503739
_symmetry_Int_Tables_number   1
_chemical_formula_structural   CuNi5C31
_chemical_formula_sum   'Cu3 Ni15 C93'
_cell_volume   1781.68134462
_cell_formula_units_Z   3
loop_
 _symmetry_equiv_pos_site_id
 _symmetry_equiv_pos_as_xyz
  1  'x, y, z'
loop_
 _atom_site_type_symbol
 _atom_site_label
 _atom_site_symmetry_multiplicity
 _atom_site_fract_x
 _atom_site_fract_y
 _atom_site_fract_z
 _atom_site_occupancy
  C  C0  1  0.00314357  0.36346989  0.75109043  1
  C  C1  1  0.66899692  0.96188402  0.58348244  1
  C  C2  1  0.03949399  0.33209559  0.08366453  1
  C  C3  1  0.00740099  0.99284623  0.49943581  1
  C  C4  1  0.00795643  0.99506290  0.99843600  1
  C  C5  1  0.65843912  0.32635363  0.83357011  1
  C  C6  1  0.67818624  0.33621819  0.33267331  1
  C  C7  1  0.34642614  0.66917786  0.16721362  1
  C  C8  1  0.33504754  0.66738047  0.66684503  1
  C  C9  1  0.01091965  0.99572826  0.64592842  1
  C  C10  1  0.99500609  0.99021762  0.14598163  1
  C  C11  1  0.33492927  0.67534913  0.01670218  1
  C  C12  1  0.32184197  0.66433750  0.51650037  1
  C  C13  1  0.32921765  0.66528290  0.31910410  1
  C  C14  1  0.33747323  0.67901045  0.82051583  1
  C  C15  1  0.98045025  0.99120023  0.34859498  1
  C  C16  1  0.00766369  0.00612740  0.84770123  1
  C  C17  1  0.66093563  0.33747192  0.68655713  1
  C  C18  1  0.67055406  0.33952615  0.18637367  1
  C  C19  1  0.66352837  0.32669344  0.98220247  1
  C  C20  1  0.67440720  0.33799508  0.48206969  1
  Ni  Ni21  1  0.70464283  0.69707891  0.24997537  1
  Ni  Ni22  1  0.99048944  0.29059284  0.24829195  1
  Ni  Ni23  1  0.29832699  0.29316157  0.75063446  1
  Ni  Ni24  1  0.98958077  0.69631348  0.75128230  1
  Ni  Ni25  1  0.71040665  0.00877035  0.74785311  1
  Ni  Ni26  1  0.94712245  0.33478890  0.58538075  1
  Ni  Ni27  1  0.39206965  0.05625004  0.58206996  1
  Ni  Ni28  1  0.66236586  0.61545587  0.58281298  1
  Ni  Ni29  1  0.94532558  0.60973351  0.08220098  1
  Ni  Ni30  1  0.66481706  0.05330078  0.08451462  1
  Ni  Ni31  1  0.38584590  0.33596647  0.08380636  1
  Ni  Ni32  1  0.02058405  0.35258399  0.91659766  1
  Ni  Ni33  1  0.33120573  0.98202774  0.91701796  1
  Ni  Ni34  1  0.64250647  0.97749590  0.41854066  1
  Ni  Ni35  1  0.02012799  0.66971041  0.41595782  1
  Cu  Cu36  1  0.30179633  0.01234086  0.25124943  1
  Cu  Cu37  1  0.65040114  0.66845003  0.91635784  1
  Cu  Cu38  1  0.33114093  0.34932458  0.41610026  1
  C  C39  1  0.21188974  0.02696881  0.30044152  1
  C  C40  1  0.81901549  0.79339737  0.30156225  1
  C  C41  1  0.97424727  0.17299411  0.29863374  1
  C  C42  1  0.20549398  0.17809056  0.80177741  1
  C  C43  1  0.97543385  0.79374067  0.80225186  1
  C  C44  1  0.82993960  0.03015950  0.79793162  1
  C  C45  1  0.78354631  0.98720473  0.69316990  1
  C  C46  1  0.19206998  0.21878734  0.69855969  1
  C  C47  1  0.01757754  0.79642253  0.69813705  1
  C  C48  1  0.78378451  0.79832643  0.19776872  1
  C  C49  1  0.01510677  0.21864457  0.19381157  1
  C  C50  1  0.20647762  0.98928983  0.19978062  1
  C  C51  1  0.85631771  0.34423975  0.63929609  1
  C  C52  1  0.49127432  0.14881586  0.63586770  1
  C  C53  1  0.65662994  0.51477900  0.63611165  1
  C  C54  1  0.85372661  0.50985620  0.13606624  1
  C  C55  1  0.65702634  0.14812100  0.13715703  1
  C  C56  1  0.48762396  0.34329684  0.13686979  1
  C  C57  1  0.48053799  0.32911395  0.03146575  1
  C  C58  1  0.84361357  0.51500210  0.03050928  1
  C  C59  1  0.67189519  0.15361862  0.03159212  1
  C  C60  1  0.48716776  0.15687358  0.53022705  1
  C  C61  1  0.66925249  0.51973713  0.53086127  1
  C  C62  1  0.84478139  0.32906498  0.53304912  1
  C  C63  1  0.57467121  0.70039017  0.96609137  1
  C  C64  1  0.13019480  0.42847888  0.96893607  1
  C  C65  1  0.29709109  0.86998629  0.96818893  1
  C  C66  1  0.57478069  0.87239039  0.47186624  1
  C  C67  1  0.29810673  0.42352394  0.46611490  1
  C  C68  1  0.12986507  0.70504402  0.46794549  1
  C  C69  1  0.09410522  0.62973871  0.36528186  1
  C  C70  1  0.53055250  0.89732322  0.36809793  1
  C  C71  1  0.36485631  0.45639791  0.36725850  1
  C  C72  1  0.09572871  0.46055890  0.86435019  1
  C  C73  1  0.37242060  0.91134768  0.86558312  1
  C  C74  1  0.54438790  0.63474838  0.86697828  1
  C  C75  1  0.00290260  0.82744158  0.40437252  1
  C  C76  1  0.81990715  0.99803609  0.40598553  1
  C  C77  1  0.18185247  0.18232101  0.40635699  1
  C  C78  1  -0.00012567  0.17556794  0.90549503  1
  C  C79  1  0.17303290  0.99761890  0.90596335  1
  C  C80  1  0.81641775  0.81801460  0.90738016  1
  C  C81  1  0.94889333  0.16884033  0.58380352  1
  C  C82  1  0.21781142  0.03543030  0.58052199  1
  C  C83  1  0.81696017  0.79085857  0.58198114  1
  C  C84  1  0.96694197  0.78444422  0.08146477  1
  C  C85  1  0.83087561  0.05148126  0.08336592  1
  C  C86  1  0.21015732  0.18116920  0.08345843  1
  C  C87  1  0.70617850  0.17777948  0.74500711  1
  C  C88  1  0.47192670  0.30598380  0.74491448  1
  C  C89  1  0.82812139  0.52087102  0.74613691  1
  C  C90  1  0.69531183  0.52353509  0.24565067  1
  C  C91  1  0.82620571  0.30115279  0.24471663  1
  C  C92  1  0.46774779  0.16646153  0.24704017  1
  C  C93  1  0.66967474  0.51982932  0.92537224  1
  C  C94  1  0.84456849  0.33248486  0.92669689  1
  C  C95  1  0.48345583  0.15811638  0.92730832  1
  C  C96  1  0.66713696  0.15551615  0.42705391  1
  C  C97  1  0.47966499  0.33012840  0.42531090  1
  C  C98  1  0.84408532  0.51672650  0.42661924  1
  C  C99  1  0.36365006  0.49178616  0.08305471  1
  C  C100  1  0.11420519  0.61208003  0.08215885  1
  C  C101  1  0.51194312  0.87864526  0.08360408  1
  C  C102  1  0.38836840  0.88632270  0.58238442  1
  C  C103  1  0.50653223  0.63635905  0.58273645  1
  C  C104  1  0.12132812  0.48824926  0.58389526  1
  C  C105  1  0.32605310  0.86580230  0.25606394  1
  C  C106  1  0.53073608  0.67434946  0.25724661  1
  C  C107  1  0.14024950  0.46498215  0.25680363  1
  C  C108  1  0.31302458  0.46473096  0.75899088  1
  C  C109  1  0.13489966  0.65961439  0.75701141  1
  C  C110  1  0.53597416  0.86068592  0.75585956  1
