# generated using pymatgen
data_Cu2NiC14
_symmetry_space_group_name_H-M   'P 1'
_cell_length_a   3.96252400
_cell_length_b   5.51576781
_cell_length_c   10.68522686
_cell_angle_alpha   91.51369273
_cell_angle_beta   90.00072396
_cell_angle_gamma   111.04621084
_symmetry_Int_Tables_number   1
_chemical_formula_structural   Cu2NiC14
_chemical_formula_sum   'Cu2 Ni1 C14'
_cell_volume   217.87362477
_cell_formula_units_Z   1
loop_
 _symmetry_equiv_pos_site_id
 _symmetry_equiv_pos_as_xyz
  1  'x, y, z'
loop_
 _atom_site_type_symbol
 _atom_site_label
 _atom_site_symmetry_multiplicity
 _atom_site_fract_x
 _atom_site_fract_y
 _atom_site_fract_z
 _atom_site_occupancy
  Ni  Ni0  1  0.95527200  0.91045200  0.61403100  1
  C  C1  1  0.38195800  0.76391600  0.40863300  1
  C  C2  1  0.29706500  0.59408400  0.75481500  1
  C  C3  1  0.69203700  0.38406000  0.23467500  1
  C  C4  1  0.62516000  0.25046500  0.94902500  1
  Cu  Cu5  1  0.35307400  0.70631000  0.04956900  1
  Cu  Cu6  1  0.65535100  0.31058300  0.54913800  1
  C  C7  1  0.44062600  0.88169100  0.88621700  1
  C  C8  1  0.15324200  0.30621900  0.58694500  1
  C  C9  1  0.26989900  0.53977900  0.24491800  1
  C  C10  1  0.18088800  0.36196700  0.91008600  1
  C  C11  1  0.45549100  0.91081600  0.60803000  1
  C  C12  1  0.78385300  0.56767500  0.71191900  1
  C  C13  1  0.80280300  0.60571200  0.06548000  1
  C  C14  1  0.57007200  0.14019700  0.38230000  1
  C  C15  1  0.53708400  0.07426600  0.11545600  1
  C  C16  1  0.83279100  0.66561700  0.44626600  1
