# generated using pymatgen
data_Cu3NiC16
_symmetry_space_group_name_H-M   'P 1'
_cell_length_a   16.02878149
_cell_length_b   9.16395439
_cell_length_c   9.20403780
_cell_angle_alpha   90.38991409
_cell_angle_beta   124.98781175
_cell_angle_gamma   89.61847061
_symmetry_Int_Tables_number   1
_chemical_formula_structural   Cu3NiC16
_chemical_formula_sum   'Cu12 Ni4 C64'
_cell_volume   1107.58865714
_cell_formula_units_Z   4
loop_
 _symmetry_equiv_pos_site_id
 _symmetry_equiv_pos_as_xyz
  1  'x, y, z'
loop_
 _atom_site_type_symbol
 _atom_site_label
 _atom_site_symmetry_multiplicity
 _atom_site_fract_x
 _atom_site_fract_y
 _atom_site_fract_z
 _atom_site_occupancy
  C  C0  1  0.23831000  0.76941869  0.99006618  1
  C  C1  1  0.75520885  0.72653834  0.51722912  1
  C  C2  1  0.75516183  0.26528319  0.02008539  1
  C  C3  1  0.23938158  0.22770623  0.49459049  1
  C  C4  1  0.50465067  0.08837774  0.77047276  1
  C  C5  1  0.50066519  0.92789189  0.23080704  1
  C  C6  1  0.00694789  0.59480497  0.75248323  1
  C  C7  1  0.99802112  0.39017161  0.23598104  1
  C  C8  1  0.82097897  0.92932566  0.20885148  1
  C  C9  1  0.81717415  0.08342027  0.70713993  1
  C  C10  1  0.29827255  0.42458616  0.17640291  1
  C  C11  1  0.31197761  0.56327210  0.71858312  1
  C  C12  1  0.10405138  0.76756467  0.54870428  1
  C  C13  1  0.60109036  0.26420075  0.55681266  1
  C  C14  1  0.39658479  0.74849883  0.44076272  1
  C  C15  1  0.60838529  0.73636899  0.05602380  1
  Ni  Ni16  1  0.90329587  0.75381025  0.94666074  1
  Ni  Ni17  1  0.90193975  0.25067482  0.45065365  1
  Ni  Ni18  1  0.09756783  0.24628666  0.04265231  1
  Ni  Ni19  1  0.38913401  0.25533525  0.93847161  1
  Cu  Cu20  1  0.99643446  0.96482089  0.75740183  1
  Cu  Cu21  1  0.99497520  0.06005483  0.23081482  1
  Cu  Cu22  1  0.48582395  0.42249316  0.75365650  1
  Cu  Cu23  1  0.48261510  0.55127009  0.22232404  1
  Cu  Cu24  1  0.35626883  0.91813067  0.78019774  1
  Cu  Cu25  1  0.67255772  0.89316025  0.75911421  1
  Cu  Cu26  1  0.66208388  0.11478862  0.25181472  1
  Cu  Cu27  1  0.34205076  0.10781004  0.23309274  1
  Cu  Cu28  1  0.86757313  0.40618276  0.75814232  1
  Cu  Cu29  1  0.14543184  0.38080198  0.74863458  1
  Cu  Cu30  1  0.14214672  0.59086522  0.22557905  1
  Cu  Cu31  1  0.86288641  0.58673168  0.26238874  1
  C  C32  1  0.15482011  0.55072058  0.74933510  1
  C  C33  1  0.86157358  0.57638747  0.76103825  1
  C  C34  1  0.85720087  0.41669044  0.26154642  1
  C  C35  1  0.14632755  0.42038644  0.21546617  1
  C  C36  1  0.68651861  0.06105264  0.76043488  1
  C  C37  1  0.34608577  0.08696944  0.77397399  1
  C  C38  1  0.33606941  0.93926726  0.21528432  1
  C  C39  1  0.67297198  0.94501503  0.25099533  1
  C  C40  1  0.42562281  0.51275310  0.57920503  1
  C  C41  1  0.54121691  0.52613798  0.91127075  1
  C  C42  1  0.52893556  0.46595968  0.39524608  1
  C  C43  1  0.43383609  0.44575781  0.05992118  1
  C  C44  1  0.92988510  0.05518780  0.58074298  1
  C  C45  1  0.05386643  0.06717652  0.91842178  1
  C  C46  1  0.06962212  0.97893486  0.40416473  1
  C  C47  1  0.92781158  0.94789041  0.07729246  1
  C  C48  1  0.27134086  0.83815583  0.77831354  1
  C  C49  1  0.76031512  0.81214895  0.76509682  1
  C  C50  1  0.75507132  0.18253586  0.26250165  1
  C  C51  1  0.24727348  0.17823300  0.21225541  1
  C  C52  1  0.77884621  0.33511754  0.75447651  1
  C  C53  1  0.23940092  0.31817574  0.75993531  1
  C  C54  1  0.22698823  0.65414285  0.21188783  1
  C  C55  1  0.77477877  0.65962920  0.26080529  1
  C  C56  1  0.35596321  0.87301342  0.61673677  1
  C  C57  1  0.67632046  0.86009349  0.92689544  1
  C  C58  1  0.66831375  0.14852572  0.42307584  1
  C  C59  1  0.36043993  0.16832067  0.09460002  1
  C  C60  1  0.86610644  0.36303458  0.59221061  1
  C  C61  1  0.14639773  0.34660684  0.91527408  1
  C  C62  1  0.16468190  0.62183682  0.41077448  1
  C  C63  1  0.86491426  0.63544789  0.10218117  1
  C  C64  1  0.45912258  0.87426489  0.94981365  1
  C  C65  1  0.56866623  0.84626594  0.58952194  1
  C  C66  1  0.55822441  0.16643044  0.08563180  1
  C  C67  1  0.43689521  0.14741993  0.42074016  1
  C  C68  1  0.96812235  0.35254175  0.92821118  1
  C  C69  1  0.04581215  0.32361087  0.57646531  1
  C  C70  1  0.03815687  0.65828162  0.07527971  1
  C  C71  1  0.96032784  0.63507826  0.43917559  1
  C  C72  1  0.07096313  0.85804809  0.75659109  1
  C  C73  1  0.91934557  0.86833923  0.76890744  1
  C  C74  1  0.91828038  0.15031712  0.25062644  1
  C  C75  1  0.06014502  0.16765360  0.20495028  1
  C  C76  1  0.56509034  0.31397046  0.76940113  1
  C  C77  1  0.40222908  0.33616289  0.75402122  1
  C  C78  1  0.39363426  0.64535583  0.19538872  1
  C  C79  1  0.56581986  0.65430598  0.24731838  1
