# generated using pymatgen
data_Cu2Ni10C7
_symmetry_space_group_name_H-M   'P 1'
_cell_length_a   11.35061476
_cell_length_b   6.76713041
_cell_length_c   2.95801909
_cell_angle_alpha   89.97066691
_cell_angle_beta   90.06779916
_cell_angle_gamma   71.16339639
_symmetry_Int_Tables_number   1
_chemical_formula_structural   Cu2Ni10C7
_chemical_formula_sum   'Cu2 Ni10 C7'
_cell_volume   215.03985237
_cell_formula_units_Z   1
loop_
 _symmetry_equiv_pos_site_id
 _symmetry_equiv_pos_as_xyz
  1  'x, y, z'
loop_
 _atom_site_type_symbol
 _atom_site_label
 _atom_site_symmetry_multiplicity
 _atom_site_fract_x
 _atom_site_fract_y
 _atom_site_fract_z
 _atom_site_occupancy
  C  C0  1  0.83185600  0.83778600  0.50798100  1
  C  C1  1  0.04131500  0.99437400  0.00886400  1
  C  C2  1  0.04041300  0.47058200  0.50718200  1
  C  C3  1  0.33204600  0.34499800  0.01251900  1
  C  C4  1  0.62006800  0.20493100  0.51304400  1
  C  C5  1  0.33728400  0.80762200  0.51335300  1
  C  C6  1  0.63871300  0.66885600  0.01242500  1
  Ni  Ni7  1  0.02647900  0.29341200  0.00726600  1
  Ni  Ni8  1  0.97118000  0.70700100  0.00805500  1
  Ni  Ni9  1  0.21637400  0.41008100  0.51165200  1
  Ni  Ni10  1  0.44630800  0.24899900  0.51302900  1
  Ni  Ni11  1  0.15138600  0.90033600  0.50984500  1
  Ni  Ni12  1  0.35096200  0.62178300  0.01340000  1
  Ni  Ni13  1  0.63503400  0.37847300  0.01314400  1
  Ni  Ni14  1  0.52168800  0.76007000  0.51236200  1
  Ni  Ni15  1  0.75377300  0.61311500  0.51251700  1
  Ni  Ni16  1  0.69159100  0.98158700  0.01071100  1
  Cu  Cu17  1  0.32388200  0.02574400  0.01321600  1
  Cu  Cu18  1  0.90089500  0.07025100  0.50776800  1
