# generated using pymatgen
data_Cu5NiC31
_symmetry_space_group_name_H-M   'P 1'
_cell_length_a   8.65325712
_cell_length_b   8.61780139
_cell_length_c   22.21886866
_cell_angle_alpha   90.04729187
_cell_angle_beta   89.94009682
_cell_angle_gamma   119.81338796
_symmetry_Int_Tables_number   1
_chemical_formula_structural   Cu5NiC31
_chemical_formula_sum   'Cu15 Ni3 C93'
_cell_volume   1437.61299496
_cell_formula_units_Z   3
loop_
 _symmetry_equiv_pos_site_id
 _symmetry_equiv_pos_as_xyz
  1  'x, y, z'
loop_
 _atom_site_type_symbol
 _atom_site_label
 _atom_site_symmetry_multiplicity
 _atom_site_fract_x
 _atom_site_fract_y
 _atom_site_fract_z
 _atom_site_occupancy
  C  C0  1  0.36215060  0.99389227  0.75208883  1
  C  C1  1  0.67003456  0.97226728  0.58712238  1
  C  C2  1  0.67416669  0.69974830  0.08406811  1
  C  C3  1  0.01510864  0.00119629  0.50532295  1
  C  C4  1  0.01142620  0.00672826  0.00519827  1
  C  C5  1  0.67626458  0.34219659  0.83996239  1
  C  C6  1  0.66539487  0.33220241  0.33913537  1
  C  C7  1  0.32210363  0.66578496  0.17357991  1
  C  C8  1  0.32661628  0.65102990  0.67246166  1
  C  C9  1  0.00051574  0.00018242  0.35586349  1
  C  C10  1  0.99486389  -0.00001215  0.85638313  1
  C  C11  1  0.66816245  0.33224771  0.68831998  1
  C  C12  1  0.67173781  0.33480829  0.18982544  1
  C  C13  1  0.32696249  0.66625858  0.02180083  1
  C  C14  1  0.32965726  0.66692875  0.52114513  1
  C  C15  1  0.00329808  0.99959061  0.64700657  1
  C  C16  1  0.00734186  0.00204046  0.14691427  1
  C  C17  1  0.66854823  0.33753525  0.98021946  1
  C  C18  1  0.65958080  0.33013101  0.47920974  1
  C  C19  1  0.33282123  0.66648539  0.31332914  1
  C  C20  1  0.33794244  0.66506042  0.81340173  1
  Ni  Ni21  1  0.70788985  0.98628460  0.74660709  1
  Ni  Ni22  1  0.36811786  0.05405243  0.58095098  1
  Ni  Ni23  1  0.95120395  0.62673646  0.08152189  1
  Cu  Cu24  1  0.28202551  0.98901041  0.24868124  1
  Cu  Cu25  1  0.70564704  0.71847769  0.24842264  1
  Cu  Cu26  1  0.01146578  0.29054496  0.24822566  1
  Cu  Cu27  1  0.27945822  0.29269259  0.74895584  1
  Cu  Cu28  1  0.00448356  0.71449789  0.74957797  1
  Cu  Cu29  1  0.95114747  0.32892817  0.58068136  1
  Cu  Cu30  1  0.67572072  0.62167149  0.58006116  1
  Cu  Cu31  1  0.67666994  0.05489130  0.08124777  1
  Cu  Cu32  1  0.37476325  0.32021622  0.08172158  1
  Cu  Cu33  1  0.61425549  0.65439220  0.91569348  1
  Cu  Cu34  1  0.04243879  0.38698696  0.91399686  1
  Cu  Cu35  1  0.34503424  0.96289300  0.91427730  1
  Cu  Cu36  1  0.61484544  0.95875115  0.41443197  1
  Cu  Cu37  1  0.34484123  0.38655424  0.41377553  1
  Cu  Cu38  1  0.03887599  0.65325984  0.41404557  1
  C  C39  1  0.19750991  0.02445970  0.30584813  1
  C  C40  1  0.82813124  0.80333363  0.30452029  1
  C  C41  1  0.97577202  0.17268379  0.30568369  1
  C  C42  1  0.20443925  0.16810972  0.80555996  1
  C  C43  1  0.97349799  0.80021671  0.80689171  1
  C  C44  1  0.83575534  0.02850505  0.80653339  1
  C  C45  1  0.80103627  0.96755477  0.68681952  1
  C  C46  1  0.16942531  0.20318573  0.69343712  1
  C  C47  1  0.03998514  0.83467602  0.69495661  1
  C  C48  1  0.79227168  0.82618943  0.19149873  1
  C  C49  1  0.03111668  0.19852641  0.19304893  1
  C  C50  1  0.16924722  0.96665404  0.19368081  1
  C  C51  1  0.87112506  0.36736742  0.63866596  1
  C  C52  1  0.49800395  0.13012419  0.64239300  1
  C  C53  1  0.63963261  0.50696957  0.63811380  1
  C  C54  1  0.86305525  0.49886203  0.14181247  1
  C  C55  1  0.63372650  0.12997750  0.13890317  1
  C  C56  1  0.49735163  0.36404451  0.13838895  1
  C  C57  1  0.46105759  0.29512224  0.02562832  1
  C  C58  1  0.82211816  0.53315198  0.02508366  1
  C  C59  1  0.69662473  0.16524510  0.02581414  1
  C  C60  1  0.47246098  0.17061108  0.52391018  1
  C  C61  1  0.70038531  0.53309709  0.52502093  1
  C  C62  1  0.83387760  0.30052976  0.52629100  1
  C  C63  1  0.53931550  0.69257237  0.97443602  1
  C  C64  1  0.16097198  0.46931984  0.97165422  1
  C  C65  1  0.30999302  0.83950904  0.97077099  1
  C  C66  1  0.53722279  0.84328415  0.47321018  1
  C  C67  1  0.30669095  0.46631233  0.47146863  1
  C  C68  1  0.15923102  0.69267357  0.47157337  1
  C  C69  1  0.13193659  0.63316380  0.35936332  1
  C  C70  1  0.49974298  0.86432216  0.36041845  1
  C  C71  1  0.36321989  0.49839675  0.35886265  1
  C  C72  1  0.13535427  0.50013555  0.85945606  1
  C  C73  1  0.36437808  0.87350286  0.85763394  1
  C  C74  1  0.50211406  0.63696553  0.86107038  1
  C  C75  1  0.02391651  0.82785958  0.40935796  1
  C  C76  1  0.80349726  0.97321454  0.40899713  1
  C  C77  1  0.17197797  0.19598364  0.40889445  1
  C  C78  1  0.03034696  0.19858222  0.91052044  1
  C  C79  1  0.17222399  0.97746425  0.91087135  1
  C  C80  1  0.80500072  0.82690394  0.91045519  1
  C  C81  1  0.96824869  0.16275696  0.58967129  1
  C  C82  1  0.17351465  0.02375511  0.59217568  1
  C  C83  1  0.83180293  0.81125389  0.58815612  1
  C  C84  1  0.97123458  0.82096646  0.09235966  1
  C  C85  1  0.83654306  0.02785090  0.09083450  1
  C  C86  1  0.18909734  0.16539530  0.09188167  1
  C  C87  1  0.68779606  0.17017140  0.74433797  1
  C  C88  1  0.46995069  0.31024691  0.74303977  1
  C  C89  1  0.83261227  0.53012893  0.74445720  1
  C  C90  1  0.68813879  0.52734389  0.24428446  1
  C  C91  1  0.83576946  0.30344688  0.24438170  1
  C  C92  1  0.46976885  0.16146717  0.24367121  1
  C  C93  1  0.63562356  0.48984966  0.92255864  1
  C  C94  1  0.85659022  0.36066807  0.92329704  1
  C  C95  1  0.50836608  0.14569555  0.92444865  1
  C  C96  1  0.64205036  0.14609153  0.42291838  1
  C  C97  1  0.50737336  0.36409881  0.42190374  1
  C  C98  1  0.85507969  0.49292800  0.42445487  1
  C  C99  1  0.36627998  0.49938844  0.07568293  1
  C  C100  1  0.14951261  0.64380463  0.07766206  1
  C  C101  1  0.50923085  0.86001209  0.07538769  1
  C  C102  1  0.36026319  0.85499618  0.57591047  1
  C  C103  1  0.50340680  0.64113540  0.57497538  1
  C  C104  1  0.13969196  0.49707782  0.57632265  1
  C  C105  1  0.30416253  0.82575658  0.25844280  1
  C  C106  1  0.52099938  0.69557699  0.25819319  1
  C  C107  1  0.17152397  0.47667241  0.25742025  1
  C  C108  1  0.30077746  0.47623664  0.75909490  1
  C  C109  1  0.16749872  0.69193219  0.75878985  1
  C  C110  1  0.50740127  0.82345298  0.75719735  1
