# generated using pymatgen
data_Cu2NiC2
_symmetry_space_group_name_H-M   'P 1'
_cell_length_a   11.35718000
_cell_length_b   12.34200300
_cell_length_c   11.72907400
_cell_angle_alpha   90.00000000
_cell_angle_beta   90.00000000
_cell_angle_gamma   90.00000000
_symmetry_Int_Tables_number   1
_chemical_formula_structural   Cu2NiC2
_chemical_formula_sum   'Cu16 Ni8 C16'
_cell_volume   1644.06840343
_cell_formula_units_Z   8
loop_
 _symmetry_equiv_pos_site_id
 _symmetry_equiv_pos_as_xyz
  1  'x, y, z'
loop_
 _atom_site_type_symbol
 _atom_site_label
 _atom_site_symmetry_multiplicity
 _atom_site_fract_x
 _atom_site_fract_y
 _atom_site_fract_z
 _atom_site_occupancy
  C  C0  1  0.00000000  0.00000000  0.00000000  1
  C  C1  1  0.50000000  0.00000000  0.00000000  1
  C  C2  1  0.50000000  0.50000000  0.00000000  1
  C  C3  1  0.00000000  0.50000000  0.00000000  1
  C  C4  1  0.00000000  0.00000000  0.50000000  1
  C  C5  1  0.50000000  0.00000000  0.50000000  1
  C  C6  1  0.50000000  0.50000000  0.50000000  1
  C  C7  1  0.00000000  0.50000000  0.50000000  1
  C  C8  1  0.77922900  0.25000000  0.78854000  1
  C  C9  1  0.77922900  0.75000000  0.21146000  1
  C  C10  1  0.72077100  0.25000000  0.21146000  1
  C  C11  1  0.72077100  0.75000000  0.78854000  1
  C  C12  1  0.22077100  0.75000000  0.21146000  1
  C  C13  1  0.22077100  0.25000000  0.78854000  1
  C  C14  1  0.27922900  0.75000000  0.78854000  1
  C  C15  1  0.27922900  0.25000000  0.21146000  1
  Ni  Ni16  1  0.00000000  0.25000000  0.75485800  1
  Ni  Ni17  1  0.00000000  0.75000000  0.24514200  1
  Ni  Ni18  1  0.50000000  0.25000000  0.24514200  1
  Ni  Ni19  1  0.50000000  0.75000000  0.75485800  1
  Ni  Ni20  1  0.25000000  0.25000000  0.00000000  1
  Ni  Ni21  1  0.25000000  0.75000000  0.00000000  1
  Ni  Ni22  1  0.75000000  0.75000000  0.00000000  1
  Ni  Ni23  1  0.75000000  0.25000000  0.00000000  1
  Cu  Cu24  1  0.25000000  0.00000000  0.23935900  1
  Cu  Cu25  1  0.25000000  0.00000000  0.76064100  1
  Cu  Cu26  1  0.75000000  0.00000000  0.76064100  1
  Cu  Cu27  1  0.75000000  0.00000000  0.23935900  1
  Cu  Cu28  1  0.75000000  0.50000000  0.23935900  1
  Cu  Cu29  1  0.75000000  0.50000000  0.76064100  1
  Cu  Cu30  1  0.25000000  0.50000000  0.76064100  1
  Cu  Cu31  1  0.25000000  0.50000000  0.23935900  1
  Cu  Cu32  1  0.00000000  0.25000000  0.24615100  1
  Cu  Cu33  1  0.00000000  0.75000000  0.75384900  1
  Cu  Cu34  1  0.50000000  0.25000000  0.75384900  1
  Cu  Cu35  1  0.50000000  0.75000000  0.24615100  1
  Cu  Cu36  1  0.25000000  0.25000000  0.50000000  1
  Cu  Cu37  1  0.25000000  0.75000000  0.50000000  1
  Cu  Cu38  1  0.75000000  0.75000000  0.50000000  1
  Cu  Cu39  1  0.75000000  0.25000000  0.50000000  1
