# generated using pymatgen
data_Cu(NiC8)2
_symmetry_space_group_name_H-M   'P 1'
_cell_length_a   8.81207221
_cell_length_b   8.85508597
_cell_length_c   22.55583606
_cell_angle_alpha   89.44826753
_cell_angle_beta   89.60282103
_cell_angle_gamma   119.83335339
_symmetry_Int_Tables_number   1
_chemical_formula_structural   Cu(NiC8)2
_chemical_formula_sum   'Cu6 Ni12 C96'
_cell_volume   1526.60764559
_cell_formula_units_Z   6
loop_
 _symmetry_equiv_pos_site_id
 _symmetry_equiv_pos_as_xyz
  1  'x, y, z'
loop_
 _atom_site_type_symbol
 _atom_site_label
 _atom_site_symmetry_multiplicity
 _atom_site_fract_x
 _atom_site_fract_y
 _atom_site_fract_z
 _atom_site_occupancy
  Ni  Ni0  1  -0.00007397  0.62760574  0.25034127  1
  Ni  Ni1  1  0.37386270  0.00227044  0.74948039  1
  Ni  Ni2  1  0.66236558  0.96730647  0.58883454  1
  Ni  Ni3  1  0.03051754  0.33887754  0.09010474  1
  Ni  Ni4  1  0.98008334  0.67395299  0.92248374  1
  Ni  Ni5  1  0.32742568  0.02458778  0.42047553  1
  Ni  Ni6  1  0.00719173  0.99330818  0.50018914  1
  Ni  Ni7  1  0.00934430  0.98924101  0.00082212  1
  Ni  Ni8  1  0.66179023  0.31581958  0.83251373  1
  Ni  Ni9  1  0.68035808  0.33642601  0.33451314  1
  Ni  Ni10  1  0.33507745  0.66412832  0.16876981  1
  Ni  Ni11  1  0.33421203  0.66394728  0.66648233  1
  Cu  Cu12  1  0.99663303  0.00756050  0.85080063  1
  Cu  Cu13  1  0.00118705  0.99602645  0.15026961  1
  Cu  Cu14  1  0.66004286  0.33021893  0.98119509  1
  Cu  Cu15  1  0.32618478  0.68002754  0.02018245  1
  Cu  Cu16  1  0.31787678  0.67776447  0.51807267  1
  Cu  Cu17  1  0.35254340  0.68655981  0.81245146  1
  C  C18  1  0.98564442  0.99413618  0.35018391  1
  C  C19  1  0.00868621  0.00056286  0.64922067  1
  C  C20  1  0.66535814  0.31660428  0.68259342  1
  C  C21  1  0.68690872  0.32919509  0.18624772  1
  C  C22  1  0.66861189  0.34599885  0.48378081  1
  C  C23  1  0.30253480  0.63416365  0.31750547  1
  C  C24  1  -0.00002252  0.28751880  0.25088456  1
  C  C25  1  0.71738816  0.00800059  0.74411002  1
  C  C26  1  0.37246028  0.05168486  0.58308646  1
  C  C27  1  0.95428984  0.62825059  0.08323790  1
  C  C28  1  0.33534782  0.96982679  0.91411505  1
  C  C29  1  0.02515561  0.66518353  0.41417953  1
  C  C30  1  0.30258703  0.00520473  0.25146142  1
  C  C31  1  0.69807288  0.70408667  0.25259316  1
  C  C32  1  0.29445947  0.29480777  0.74719096  1
  C  C33  1  0.99086972  0.70048995  0.74836735  1
  C  C34  1  0.95521171  0.33316886  0.58350344  1
  C  C35  1  0.66947831  0.62036442  0.58495903  1
  C  C36  1  0.66437003  0.04125473  0.08547417  1
  C  C37  1  0.38040432  0.33392746  0.08661782  1
  C  C38  1  0.62449766  0.66571023  0.91697166  1
  C  C39  1  0.04427696  0.37406551  0.91731378  1
  C  C40  1  0.62530030  0.95537280  0.41494384  1
  C  C41  1  0.33352506  0.37555193  0.41650294  1
  C  C42  1  0.22381524  0.03097714  0.30605163  1
  C  C43  1  0.81750631  0.78061563  0.30415283  1
  C  C44  1  0.97252900  0.16349742  0.30832802  1
  C  C45  1  0.21844886  0.18144093  0.80085193  1
  C  C46  1  0.96788837  0.77783937  0.80342576  1
  C  C47  1  0.82878109  0.03039530  0.80327333  1
  C  C48  1  0.80848443  0.97901890  0.68461746  1
  C  C49  1  0.18724130  0.21231114  0.69446888  1
  C  C50  1  0.03342481  0.82181170  0.69652541  1
  C  C51  1  0.78007571  0.81145882  0.19844114  1
  C  C52  1  0.02686896  0.20939828  0.18914807  1
  C  C53  1  0.18367599  0.96797056  0.20012579  1
  C  C54  1  0.87989386  0.36604336  0.63764604  1
  C  C55  1  0.49596266  0.13179954  0.64132762  1
  C  C56  1  0.64765665  0.51382370  0.63876518  1
  C  C57  1  0.86604749  0.50177642  0.14257005  1
  C  C58  1  0.63186939  0.11772877  0.13891755  1
  C  C59  1  0.48406330  0.35083199  0.13955628  1
  C  C60  1  0.45707079  0.30773683  0.03190873  1
  C  C61  1  0.84770257  0.53881825  0.02270642  1
  C  C62  1  0.69200421  0.14947800  0.03187936  1
  C  C63  1  0.46698099  0.16655901  0.52175340  1
  C  C64  1  0.69874533  0.54519688  0.53053394  1
  C  C65  1  0.84425370  0.30468932  0.53081765  1
  C  C66  1  0.54067486  0.68358791  0.97062061  1
  C  C67  1  0.14462389  0.44982859  0.97219176  1
  C  C68  1  0.29806922  0.83807933  0.97086053  1
  C  C69  1  0.54987914  0.85333347  0.47117651  1
  C  C70  1  0.31110717  0.45893665  0.46928824  1
  C  C71  1  0.15922809  0.71270254  0.46997997  1
  C  C72  1  0.11570698  0.63594393  0.35472444  1
  C  C73  1  0.51132231  0.86819949  0.36371245  1
  C  C74  1  0.36600564  0.48510149  0.36198128  1
  C  C75  1  0.13107076  0.48431600  0.86458432  1
  C  C76  1  0.35754860  0.87747853  0.85416855  1
  C  C77  1  0.52023270  0.64137410  0.86346355  1
  C  C78  1  0.02050217  0.85062150  0.40484695  1
  C  C79  1  0.80257540  0.97562454  0.41018983  1
  C  C80  1  0.17720848  0.19897035  0.41108699  1
  C  C81  1  0.02137848  0.19795064  0.91284298  1
  C  C82  1  0.15185587  0.97364321  0.90970125  1
  C  C83  1  0.80155984  0.82239913  0.91148461  1
  C  C84  1  0.96727622  0.17182635  0.58861011  1
  C  C85  1  0.17521107  0.02667237  0.59180691  1
  C  C86  1  0.82449039  0.79985317  0.58834080  1
  C  C87  1  0.97968330  0.82175191  0.08981567  1
  C  C88  1  0.82791606  0.03237223  0.09033987  1
  C  C89  1  0.19943370  0.17985908  0.09008357  1
  C  C90  1  0.68782311  0.17959985  0.74204744  1
  C  C91  1  0.47263643  0.31403744  0.74141275  1
  C  C92  1  0.83237747  0.53022995  0.74018186  1
  C  C93  1  0.68037381  0.52834975  0.24600631  1
  C  C94  1  0.82625201  0.31657937  0.24752314  1
  C  C95  1  0.47426215  0.16516374  0.24135619  1
  C  C96  1  0.65137804  0.51273302  0.92012726  1
  C  C97  1  0.86966794  0.36237351  0.92142610  1
  C  C98  1  0.50811304  0.15864240  0.92069707  1
  C  C99  1  0.63723466  0.12942421  0.41986516  1
  C  C100  1  0.49014572  0.35174792  0.42023599  1
  C  C101  1  0.83533592  0.48888532  0.42636482  1
  C  C102  1  0.36071856  0.49081833  0.08051192  1
  C  C103  1  0.14542308  0.63335808  0.08109494  1
  C  C104  1  0.51365982  0.86461036  0.08010359  1
  C  C105  1  0.36350945  0.86006407  0.57792550  1
  C  C106  1  0.51099994  0.63931607  0.57950014  1
  C  C107  1  0.13306339  0.48512857  0.57715303  1
  C  C108  1  0.32245518  0.84766576  0.25681813  1
  C  C109  1  0.52639706  0.69323172  0.26111218  1
  C  C110  1  0.17216912  0.48857656  0.25570929  1
  C  C111  1  0.30755416  0.46568200  0.75438609  1
  C  C112  1  0.14896246  0.68003668  0.75351496  1
  C  C113  1  0.51719668  0.83604138  0.74820442  1
