# generated using pymatgen
data_Cu2NiC8
_symmetry_space_group_name_H-M   'P 1'
_cell_length_a   5.78247844
_cell_length_b   5.78247837
_cell_length_c   5.78247880
_cell_angle_alpha   54.53796751
_cell_angle_beta   54.53796535
_cell_angle_gamma   54.53796494
_symmetry_Int_Tables_number   1
_chemical_formula_structural   Cu2NiC8
_chemical_formula_sum   'Cu2 Ni1 C8'
_cell_volume   119.31145336
_cell_formula_units_Z   1
loop_
 _symmetry_equiv_pos_site_id
 _symmetry_equiv_pos_as_xyz
  1  'x, y, z'
loop_
 _atom_site_type_symbol
 _atom_site_label
 _atom_site_symmetry_multiplicity
 _atom_site_fract_x
 _atom_site_fract_y
 _atom_site_fract_z
 _atom_site_occupancy
  Ni  Ni0  1  0.20143986  0.20143986  0.20143986  1
  C  C1  1  0.01222471  0.01222471  0.01222471  1
  C  C2  1  0.84946237  0.84946237  0.84946237  1
  Cu  Cu3  1  0.42737233  0.42737233  0.42737233  1
  Cu  Cu4  1  0.65389837  0.65389837  0.65389837  1
  C  C5  1  0.80577572  0.42876404  0.07048257  1
  C  C6  1  0.42876404  0.07048257  0.80577572  1
  C  C7  1  0.07048257  0.80577572  0.42876404  1
  C  C8  1  0.24044467  0.61930108  0.94083426  1
  C  C9  1  0.94083426  0.24044467  0.61930109  1
  C  C10  1  0.61930108  0.94083426  0.24044467  1
