# generated using pymatgen
data_Cu2NiC5
_symmetry_space_group_name_H-M   'P 1'
_cell_length_a   8.09239600
_cell_length_b   9.04336500
_cell_length_c   12.78297741
_cell_angle_alpha   89.94727595
_cell_angle_beta   90.00000000
_cell_angle_gamma   90.00000000
_symmetry_Int_Tables_number   1
_chemical_formula_structural   Cu2NiC5
_chemical_formula_sum   'Cu8 Ni4 C20'
_cell_volume   935.48973018
_cell_formula_units_Z   4
loop_
 _symmetry_equiv_pos_site_id
 _symmetry_equiv_pos_as_xyz
  1  'x, y, z'
loop_
 _atom_site_type_symbol
 _atom_site_label
 _atom_site_symmetry_multiplicity
 _atom_site_fract_x
 _atom_site_fract_y
 _atom_site_fract_z
 _atom_site_occupancy
  Ni  Ni0  1  0.95350400  0.51246100  0.83162400  1
  Ni  Ni1  1  0.45350400  0.48753900  0.66837600  1
  Ni  Ni2  1  0.04649600  0.48753900  0.16837600  1
  Ni  Ni3  1  0.54649600  0.51246100  0.33162400  1
  Cu  Cu4  1  0.50383800  0.00773800  0.32464500  1
  Cu  Cu5  1  0.00383800  0.99226200  0.17535500  1
  Cu  Cu6  1  0.49616200  0.99226200  0.67535500  1
  Cu  Cu7  1  0.99616200  0.00773800  0.82464500  1
  Cu  Cu8  1  0.56193800  0.25252400  0.00459400  1
  Cu  Cu9  1  0.06193800  0.74747600  0.49540600  1
  Cu  Cu10  1  0.43806200  0.74747600  0.99540600  1
  Cu  Cu11  1  0.93806200  0.25252400  0.50459400  1
  C  C12  1  0.84668900  0.77672500  0.31282400  1
  C  C13  1  0.34668900  0.22327500  0.18717600  1
  C  C14  1  0.15331100  0.22327500  0.68717600  1
  C  C15  1  0.65331100  0.77672500  0.81282400  1
  C  C16  1  0.81543800  0.22837100  0.28193900  1
  C  C17  1  0.31543800  0.77162900  0.21806100  1
  C  C18  1  0.18456200  0.77162900  0.71806100  1
  C  C19  1  0.68456200  0.22837100  0.78193900  1
  C  C20  1  0.67382800  0.53665500  0.08272100  1
  C  C21  1  0.17382800  0.46334500  0.41727900  1
  C  C22  1  0.32617200  0.46334500  0.91727900  1
  C  C23  1  0.82617200  0.53665500  0.58272100  1
  C  C24  1  0.83529700  0.96016300  0.60004800  1
  C  C25  1  0.33529700  0.03983700  0.89995200  1
  C  C26  1  0.16470300  0.03983700  0.39995200  1
  C  C27  1  0.66470300  0.96016300  0.10004800  1
  C  C28  1  0.95488700  0.21659000  0.00193900  1
  C  C29  1  0.45488700  0.78341000  0.49806100  1
  C  C30  1  0.04511300  0.78341000  0.99806100  1
  C  C31  1  0.54511300  0.21659000  0.50193900  1
