# generated using pymatgen
data_Cu2NiC7
_symmetry_space_group_name_H-M   'P 1'
_cell_length_a   7.00373200
_cell_length_b   12.69569800
_cell_length_c   13.60149900
_cell_angle_alpha   90.00000000
_cell_angle_beta   90.00000000
_cell_angle_gamma   90.00000000
_symmetry_Int_Tables_number   1
_chemical_formula_structural   Cu2NiC7
_chemical_formula_sum   'Cu8 Ni4 C28'
_cell_volume   1209.40810927
_cell_formula_units_Z   4
loop_
 _symmetry_equiv_pos_site_id
 _symmetry_equiv_pos_as_xyz
  1  'x, y, z'
loop_
 _atom_site_type_symbol
 _atom_site_label
 _atom_site_symmetry_multiplicity
 _atom_site_fract_x
 _atom_site_fract_y
 _atom_site_fract_z
 _atom_site_occupancy
  Ni  Ni0  1  0.25000000  0.19492800  0.04048700  1
  Ni  Ni1  1  0.75000000  0.80507200  0.95951300  1
  Ni  Ni2  1  0.75000000  0.69492800  0.45951300  1
  Ni  Ni3  1  0.25000000  0.30507200  0.54048700  1
  Cu  Cu4  1  0.25000000  0.65712100  0.74907300  1
  Cu  Cu5  1  0.75000000  0.34287900  0.25092700  1
  Cu  Cu6  1  0.75000000  0.15712100  0.75092700  1
  Cu  Cu7  1  0.25000000  0.84287900  0.24907300  1
  Cu  Cu8  1  0.25000000  0.53987300  0.23728900  1
  Cu  Cu9  1  0.75000000  0.46012700  0.76271100  1
  Cu  Cu10  1  0.75000000  0.03987300  0.26271100  1
  Cu  Cu11  1  0.25000000  0.96012700  0.73728900  1
  C  C12  1  0.99027800  0.46030600  0.36578300  1
  C  C13  1  0.49027800  0.53969400  0.63421700  1
  C  C14  1  0.00972200  0.96030600  0.13421700  1
  C  C15  1  0.50972200  0.03969400  0.86578300  1
  C  C16  1  0.00972200  0.53969400  0.63421700  1
  C  C17  1  0.50972200  0.46030600  0.36578300  1
  C  C18  1  0.99027800  0.03969400  0.86578300  1
  C  C19  1  0.49027800  0.96030600  0.13421700  1
  C  C20  1  0.01047700  0.42194000  0.12460300  1
  C  C21  1  0.51047700  0.57806000  0.87539700  1
  C  C22  1  0.98952300  0.92194000  0.37539700  1
  C  C23  1  0.48952300  0.07806000  0.62460300  1
  C  C24  1  0.25000000  0.68817200  0.38858100  1
  C  C25  1  0.75000000  0.31182800  0.61141900  1
  C  C26  1  0.75000000  0.18817200  0.11141900  1
  C  C27  1  0.25000000  0.81182800  0.88858100  1
  C  C28  1  0.48988300  0.69321100  0.17602900  1
  C  C29  1  0.98988300  0.30678900  0.82397100  1
  C  C30  1  0.51011700  0.19321100  0.32397100  1
  C  C31  1  0.01011700  0.80678900  0.67602900  1
  C  C32  1  0.51011700  0.30678900  0.82397100  1
  C  C33  1  0.01011700  0.69321100  0.17602900  1
  C  C34  1  0.48988300  0.80678900  0.67602900  1
  C  C35  1  0.98988300  0.19321100  0.32397100  1
  C  C36  1  0.51047700  0.92194000  0.37539700  1
  C  C37  1  0.01047700  0.07806000  0.62460300  1
  C  C38  1  0.48952300  0.42194000  0.12460300  1
  C  C39  1  0.98952300  0.57806000  0.87539700  1
