# generated using pymatgen
data_Cu4NiC22
_symmetry_space_group_name_H-M   'P 1'
_cell_length_a   5.80368934
_cell_length_b   5.91374385
_cell_length_c   9.81817894
_cell_angle_alpha   91.84003787
_cell_angle_beta   83.99458882
_cell_angle_gamma   119.89778902
_symmetry_Int_Tables_number   1
_chemical_formula_structural   Cu4NiC22
_chemical_formula_sum   'Cu4 Ni1 C22'
_cell_volume   290.44727128
_cell_formula_units_Z   1
loop_
 _symmetry_equiv_pos_site_id
 _symmetry_equiv_pos_as_xyz
  1  'x, y, z'
loop_
 _atom_site_type_symbol
 _atom_site_label
 _atom_site_symmetry_multiplicity
 _atom_site_fract_x
 _atom_site_fract_y
 _atom_site_fract_z
 _atom_site_occupancy
  Ni  Ni0  1  0.60947900  0.50640400  0.02970800  1
  Cu  Cu1  1  0.81750700  0.15735700  0.98993100  1
  Cu  Cu2  1  0.31278500  0.66692600  0.52860500  1
  Cu  Cu3  1  0.66568700  0.33673400  0.42592900  1
  Cu  Cu4  1  0.25510300  0.67490200  0.85318400  1
  C  C5  1  0.70671800  0.85380200  0.26552300  1
  C  C6  1  0.78496800  0.15824500  0.71985500  1
  C  C7  1  0.20284600  0.34726400  0.26148700  1
  C  C8  1  0.77673200  0.67602400  0.73076400  1
  C  C9  1  0.28896000  0.16647500  0.74730000  1
  C  C10  1  0.19996300  0.85768100  0.25570600  1
  C  C11  1  0.88851300  0.17153900  0.17389400  1
  C  C12  1  0.63988200  0.82846600  0.62883000  1
  C  C13  1  0.13958700  0.32149100  0.64989300  1
  C  C14  1  0.89569600  0.72236000  0.16484100  1
  C  C15  1  0.36909400  0.19773300  0.16124300  1
  C  C16  1  0.14820300  0.84631200  0.65895100  1
  C  C17  1  0.43404500  0.47221800  0.85631000  1
  C  C18  1  0.05254200  0.52633500  0.37214400  1
  C  C19  1  0.48870700  0.97144700  0.36852400  1
  C  C20  1  0.46998200  0.04181700  0.85698100  1
  C  C21  1  0.01433100  0.03005500  0.36539100  1
  C  C22  1  0.93787500  0.98702100  0.85097200  1
  C  C23  1  0.41403400  0.67841400  0.14872000  1
  C  C24  1  0.88291900  0.47551100  0.89417500  1
  C  C25  1  0.49713600  0.53239000  0.36814200  1
  C  C26  1  0.62753800  0.33675100  0.63142400  1
