# generated using pymatgen
data_Cu9NiC50
_symmetry_space_group_name_H-M   'P 1'
_cell_length_a   9.06298483
_cell_length_b   27.16673946
_cell_length_c   22.37897576
_cell_angle_alpha   90.00312600
_cell_angle_beta   89.97243956
_cell_angle_gamma   120.05427931
_symmetry_Int_Tables_number   1
_chemical_formula_structural   Cu9NiC50
_chemical_formula_sum   'Cu54 Ni6 C300'
_cell_volume   4769.15842038
_cell_formula_units_Z   6
loop_
 _symmetry_equiv_pos_site_id
 _symmetry_equiv_pos_as_xyz
  1  'x, y, z'
loop_
 _atom_site_type_symbol
 _atom_site_label
 _atom_site_symmetry_multiplicity
 _atom_site_fract_x
 _atom_site_fract_y
 _atom_site_fract_z
 _atom_site_occupancy
  C  C0  1  0.00190357  0.00187052  0.49537782  1
  C  C1  1  0.98643645  0.32797851  0.49849178  1
  C  C2  1  0.00616403  0.66893129  0.50521507  1
  C  C3  1  0.98378747  0.99589921  0.99843454  1
  C  C4  1  0.99637958  0.32736996  0.99900841  1
  C  C5  1  0.01295323  0.66896883  0.00827122  1
  C  C6  1  0.66626048  0.11024266  0.83025643  1
  C  C7  1  0.66885885  0.44164520  0.83745857  1
  C  C8  1  0.66598165  0.78861245  0.83356382  1
  C  C9  1  0.66320109  0.10950461  0.32883221  1
  C  C10  1  0.65902048  0.44288770  0.33787831  1
  C  C11  1  0.68544893  0.78320442  0.33433791  1
  C  C12  1  0.34511338  0.22654930  0.16797033  1
  C  C13  1  0.34041266  0.55148850  0.16925585  1
  C  C14  1  0.33480643  0.88941027  0.16693580  1
  C  C15  1  0.33566845  0.22710611  0.66806906  1
  C  C16  1  0.31550839  0.55121119  0.66713018  1
  C  C17  1  0.34699769  0.88815760  0.66887278  1
  C  C18  1  0.62284693  0.00525284  0.24175230  1
  C  C19  1  0.64809929  0.66494873  0.24616313  1
  C  C20  1  0.38621860  0.12347401  0.24104651  1
  C  C21  1  0.35092512  0.78520321  0.24453635  1
  C  C22  1  0.98254791  0.20212354  0.24147125  1
  C  C23  1  0.00702412  0.55029907  0.24369251  1
  C  C24  1  0.62537971  0.20271138  0.74145275  1
  C  C25  1  0.64139853  0.54962452  0.74120896  1
  C  C26  1  0.98376714  0.12416975  0.74290277  1
  C  C27  1  0.00517158  0.78641788  0.74460663  1
  C  C28  1  0.39366727  0.00561062  0.74276353  1
  C  C29  1  0.34661636  0.66442794  0.74334009  1
  C  C30  1  0.32033299  0.11264385  0.58710076  1
  C  C31  1  0.32057394  0.44260403  0.57539313  1
  C  C32  1  0.27300405  0.77163114  0.59171184  1
  C  C33  1  0.01795349  0.22643702  0.58993223  1
  C  C34  1  0.03009541  0.57324014  0.58900430  1
  C  C35  1  0.02887509  0.89966411  0.57973612  1
  C  C36  1  0.67298954  0.32872668  0.57459148  1
  C  C37  1  0.68244911  0.65286554  0.59464698  1
  C  C38  1  0.66088421  0.99452596  0.58765935  1
  C  C39  1  0.31232158  0.32808769  0.07551417  1
  C  C40  1  0.28091166  0.65382535  0.09687413  1
  C  C41  1  0.31726869  0.99337718  0.08852578  1
  C  C42  1  0.66080548  0.22557211  0.09047498  1
  C  C43  1  0.68954355  0.57361981  0.09171465  1
  C  C44  1  0.01991121  0.11254194  0.08949847  1
  C  C45  1  0.00572345  0.44227390  0.07728713  1
  C  C46  1  0.04479767  0.77288617  0.09269461  1
  C  C47  1  0.93976719  0.54957495  0.92896540  1
  C  C48  1  0.70403492  0.35020268  0.92545626  1
  C  C49  1  0.70385616  0.67975999  0.91902343  1
  C  C50  1  0.34874829  0.43068201  0.92530494  1
  C  C51  1  0.94554166  0.43177583  0.42517298  1
  C  C52  1  0.34788796  0.35092055  0.42490168  1
  C  C53  1  0.71116568  0.55026513  0.42735617  1
  Ni  Ni54  1  0.99991033  0.66622693  0.64644709  1
  Ni  Ni55  1  0.00146988  0.66677065  0.14720485  1
  Ni  Ni56  1  0.66826847  0.11122032  0.68804196  1
  Ni  Ni57  1  0.66497979  0.11094118  0.18764053  1
  Ni  Ni58  1  0.66246905  0.44185540  0.97918742  1
  Ni  Ni59  1  0.66516321  0.44265097  0.47880610  1
  C  C60  1  0.99713655  0.99809098  0.35737682  1
  C  C61  1  0.99925952  0.33370327  0.35565427  1
  C  C62  1  0.00411005  0.66794096  0.35422296  1
  C  C63  1  0.99921857  0.99872734  0.85816690  1
  C  C64  1  0.00128800  0.33334369  0.85586790  1
  C  C65  1  0.00320635  0.66818364  0.85346979  1
  C  C66  1  0.99734704  0.00004275  0.64598541  1
  C  C67  1  0.00221429  0.33347073  0.64763025  1
  C  C68  1  0.99708245  0.99843982  0.14494754  1
  C  C69  1  0.99790846  0.33337531  0.14776087  1
  C  C70  1  0.66458980  0.44310244  0.68688808  1
  C  C71  1  0.66647429  0.77889577  0.68897335  1
  C  C72  1  0.66477260  0.44326317  0.18714838  1
  C  C73  1  0.67026003  0.77955482  0.18866196  1
  C  C74  1  0.66717156  0.11068475  0.97855383  1
  C  C75  1  0.66971197  0.78170195  0.97652023  1
  C  C76  1  0.66505145  0.11107355  0.47801592  1
  C  C77  1  0.66884121  0.77883362  0.47473475  1
  C  C78  1  0.32955924  0.22173070  0.01876268  1
  C  C79  1  0.33248380  0.55607345  0.02262741  1
  C  C80  1  0.33855364  0.88847810  0.02144888  1
  C  C81  1  0.33640837  0.22200041  0.51863114  1
  C  C82  1  0.33472630  0.55638820  0.52155633  1
  C  C83  1  0.32933953  0.88812247  0.51962785  1
  C  C84  1  0.33324091  0.22093613  0.31109032  1
  C  C85  1  0.33560887  0.55542993  0.31269836  1
  C  C86  1  0.33019212  0.89027652  0.31214070  1
  C  C87  1  0.32989649  0.22110319  0.81121881  1
  C  C88  1  0.32951958  0.55460409  0.81204669  1
  C  C89  1  0.34040996  0.89060341  0.81252862  1
  Cu  Cu90  1  0.28610153  0.99878738  0.25070590  1
  Cu  Cu91  1  0.29145777  0.33377757  0.25118010  1
  Cu  Cu92  1  0.29267165  0.66675166  0.24786190  1
  Cu  Cu93  1  0.70744269  0.23599868  0.25125969  1
  Cu  Cu94  1  0.71129366  0.57009914  0.24711570  1
  Cu  Cu95  1  0.70948166  0.90367401  0.25185192  1
  Cu  Cu96  1  0.99910990  0.09518373  0.25057582  1
  Cu  Cu97  1  0.99897054  0.43089637  0.25190735  1
  Cu  Cu98  1  0.00157974  0.76356906  0.24669958  1
  Cu  Cu99  1  0.28871848  0.09583721  0.75125149  1
  Cu  Cu100  1  0.29343579  0.43051306  0.75202757  1
  Cu  Cu101  1  0.29025658  0.76446573  0.74598744  1
  Cu  Cu102  1  0.00100332  0.23614728  0.75104091  1
  Cu  Cu103  1  0.99771754  0.56980715  0.74709863  1
  Cu  Cu104  1  0.00200082  0.90380197  0.75055027  1
  Cu  Cu105  1  0.70990778  0.99918655  0.75189485  1
  Cu  Cu106  1  0.71020080  0.33394130  0.75127683  1
  Cu  Cu107  1  0.70750061  0.66675864  0.74835255  1
  Cu  Cu108  1  0.95656532  0.11166014  0.58558381  1
  Cu  Cu109  1  0.95541292  0.44453047  0.58050283  1
  Cu  Cu110  1  0.95613984  0.77808639  0.58241777  1
  Cu  Cu111  1  0.37844866  0.01505134  0.58661250  1
  Cu  Cu112  1  0.37312722  0.34630454  0.57981456  1
  Cu  Cu113  1  0.38049820  0.68204772  0.58260719  1
  Cu  Cu114  1  0.66645195  0.20771997  0.58631365  1
  Cu  Cu115  1  0.66978237  0.54105312  0.57989082  1
  Cu  Cu116  1  0.66180371  0.87358302  0.58203419  1
  Cu  Cu117  1  0.95673732  0.20769818  0.08611348  1
  Cu  Cu118  1  0.95227374  0.54095910  0.07986243  1
  Cu  Cu119  1  0.95927357  0.87450592  0.08222787  1
  Cu  Cu120  1  0.66644688  0.01482824  0.08663067  1
  Cu  Cu121  1  0.66570412  0.34623620  0.07994679  1
  Cu  Cu122  1  0.66689321  0.68245493  0.08127527  1
  Cu  Cu123  1  0.37769514  0.11153736  0.08565011  1
  Cu  Cu124  1  0.37854835  0.44427681  0.08027505  1
  Cu  Cu125  1  0.38073095  0.77955912  0.08357869  1
  Cu  Cu126  1  0.62123993  0.22069967  0.91566737  1
  Cu  Cu127  1  0.62526337  0.55632155  0.91536696  1
  Cu  Cu128  1  0.62494558  0.88924452  0.91643654  1
  Cu  Cu129  1  0.03808060  0.12415461  0.91482018  1
  Cu  Cu130  1  0.04314321  0.45761556  0.91863181  1
  Cu  Cu131  1  0.04541910  0.79368555  0.91552307  1
  Cu  Cu132  1  0.33189405  0.31891807  0.91550137  1
  Cu  Cu133  1  0.33011709  0.65267435  0.91646250  1
  Cu  Cu134  1  0.33334496  0.98555067  0.91822514  1
  Cu  Cu135  1  0.62535053  0.31910252  0.41517143  1
  Cu  Cu136  1  0.62712637  0.65275385  0.41605217  1
  Cu  Cu137  1  0.62452909  0.98614792  0.41705147  1
  Cu  Cu138  1  0.33372476  0.12414437  0.41480958  1
  Cu  Cu139  1  0.33063112  0.45790811  0.41852032  1
  Cu  Cu140  1  0.33370264  0.79273444  0.41477681  1
  Cu  Cu141  1  0.04172548  0.22114895  0.41575031  1
  Cu  Cu142  1  0.04586306  0.55764121  0.41561535  1
  Cu  Cu143  1  0.04065590  0.88922983  0.41713271  1
  C  C144  1  0.17369770  0.99914039  0.30786330  1
  C  C145  1  0.19888244  0.34186911  0.31073059  1
  C  C146  1  0.19369603  0.67569664  0.30539409  1
  C  C147  1  0.83245015  0.27533589  0.30640221  1
  C  C148  1  0.83515776  0.60110667  0.30605670  1
  C  C149  1  0.81747940  0.93375676  0.31189633  1
  C  C150  1  0.98897420  0.05496556  0.30677482  1
  C  C151  1  0.98842377  0.39507970  0.31241115  1
  C  C152  1  0.96766733  0.71996880  0.30362224  1
  C  C153  1  0.17755525  0.05567090  0.80721268  1
  C  C154  1  0.19711629  0.39515243  0.81277482  1
  C  C155  1  0.18867835  0.72110402  0.80328655  1
  C  C156  1  0.99371534  0.27535957  0.80634358  1
  C  C157  1  0.96853679  0.60202318  0.80598997  1
  C  C158  1  0.98562337  0.93528094  0.80953996  1
  C  C159  1  0.82466869  0.99974680  0.80832165  1
  C  C160  1  0.82712329  0.34192266  0.81078552  1
  C  C161  1  0.82612935  0.67524983  0.80844421  1
  C  C162  1  0.80718181  0.32528983  0.69303025  1
  C  C163  1  0.78652525  0.65375100  0.69077978  1
  C  C164  1  0.80429990  0.99306776  0.69000044  1
  C  C165  1  0.17076051  0.06396034  0.69035613  1
  C  C166  1  0.17435175  0.39617285  0.69413493  1
  C  C167  1  0.17915861  0.74039781  0.68681000  1
  C  C168  1  0.01398200  0.27259549  0.68987781  1
  C  C169  1  0.05058638  0.60949361  0.68918489  1
  C  C170  1  0.02083916  0.94210945  0.69032439  1
  C  C171  1  0.80418088  0.27255301  0.19006713  1
  C  C172  1  0.77919048  0.60961882  0.18900566  1
  C  C173  1  0.81177001  0.94462649  0.19416291  1
  C  C174  1  0.02591731  0.06509860  0.18965746  1
  C  C175  1  0.01466949  0.39639120  0.19392385  1
  C  C176  1  0.04405566  0.74038635  0.18737542  1
  C  C177  1  0.16885904  0.32530523  0.19290224  1
  C  C178  1  0.17720438  0.65318837  0.18967001  1
  C  C179  1  0.17458752  0.99294963  0.18926951  1
  C  C180  1  0.89152158  0.12731610  0.64529511  1
  C  C181  1  0.85596756  0.45273149  0.63821780  1
  C  C182  1  0.86253509  0.78682505  0.64267254  1
  C  C183  1  0.49068817  0.03799617  0.64580417  1
  C  C184  1  0.49974071  0.38012226  0.63674260  1
  C  C185  1  0.49775083  0.71215426  0.64379663  1
  C  C186  1  0.62324067  0.17024843  0.64570523  1
  C  C187  1  0.63606556  0.49974234  0.64064214  1
  C  C188  1  0.63884745  0.83306981  0.64012109  1
  C  C189  1  0.88758793  0.17047253  0.14569057  1
  C  C190  1  0.86291500  0.49948501  0.14011210  1
  C  C191  1  0.85641827  0.83379656  0.13949386  1
  C  C192  1  0.62336144  0.03815034  0.14580802  1
  C  C193  1  0.64014319  0.38013911  0.13656779  1
  C  C194  1  0.64053413  0.71366604  0.14097215  1
  C  C195  1  0.49293064  0.12846341  0.14470346  1
  C  C196  1  0.50271839  0.45296846  0.13780965  1
  C  C197  1  0.49218494  0.78518573  0.14446855  1
  C  C198  1  0.47500992  0.10167750  0.02894630  1
  C  C199  1  0.43965627  0.42621094  0.02149054  1
  C  C200  1  0.49514193  0.77936569  0.02641244  1
  C  C201  1  0.83029563  0.17660132  0.02908657  1
  C  C202  1  0.84398937  0.50988188  0.02167023  1
  C  C203  1  0.85064540  0.84288400  0.02213787  1
  C  C204  1  0.70026656  0.05818769  0.02983929  1
  C  C205  1  0.70614060  0.38228266  0.01987889  1
  C  C206  1  0.67598466  0.72019168  0.02231339  1
  C  C207  1  0.47262620  0.05801500  0.52994384  1
  C  C208  1  0.44202436  0.38233471  0.51982887  1
  C  C209  1  0.49110974  0.72352016  0.52703948  1
  C  C210  1  0.69957574  0.17632129  0.52944689  1
  C  C211  1  0.68583938  0.50996059  0.52188040  1
  C  C212  1  0.69103485  0.84453180  0.52354763  1
  C  C213  1  0.82803265  0.10069758  0.52928546  1
  C  C214  1  0.83920080  0.42612527  0.52193298  1
  C  C215  1  0.84537282  0.77893118  0.52529501  1
  C  C216  1  0.52691504  0.23092199  0.97376932  1
  C  C217  1  0.52524735  0.56506748  0.97371158  1
  C  C218  1  0.52012599  0.89230620  0.97462933  1
  C  C219  1  0.15993472  0.15980380  0.97236152  1
  C  C220  1  0.15956888  0.48892129  0.97920225  1
  C  C221  1  0.15745881  0.82415715  0.97568809  1
  C  C222  1  0.31924130  0.28328302  0.97721173  1
  C  C223  1  0.30388903  0.61129620  0.97472278  1
  C  C224  1  0.30982878  0.94535541  0.97667963  1
  C  C225  1  0.53048121  0.28327174  0.47699233  1
  C  C226  1  0.52670944  0.61123580  0.47409582  1
  C  C227  1  0.52365050  0.94623923  0.47635857  1
  C  C228  1  0.31939364  0.15953920  0.47281478  1
  C  C229  1  0.30790352  0.48881786  0.47942394  1
  C  C230  1  0.31215594  0.82455640  0.47510806  1
  C  C231  1  0.16537521  0.23068564  0.47413728  1
  C  C232  1  0.16392636  0.56295442  0.47534128  1
  C  C233  1  0.15011700  0.89281431  0.47803417  1
  C  C234  1  0.13533451  0.21350627  0.35620856  1
  C  C235  1  0.15026729  0.55558633  0.35616244  1
  C  C236  1  0.15045910  0.88553179  0.36083802  1
  C  C237  1  0.49991767  0.28012446  0.35999751  1
  C  C238  1  0.51439282  0.62114227  0.35636297  1
  C  C239  1  0.51028037  0.95457402  0.35736243  1
  C  C240  1  0.34924560  0.16143312  0.35463300  1
  C  C241  1  0.33120732  0.49779186  0.36302358  1
  C  C242  1  0.35927069  0.83256840  0.35613772  1
  C  C243  1  0.13477844  0.16110234  0.85424705  1
  C  C244  1  0.16205611  0.49758854  0.86293937  1
  C  C245  1  0.13878182  0.83213471  0.85600151  1
  C  C246  1  0.34014862  0.28005071  0.86005418  1
  C  C247  1  0.35341315  0.62098316  0.85782464  1
  C  C248  1  0.35382292  0.95409441  0.85790627  1
  C  C249  1  0.50529360  0.21355698  0.85600340  1
  C  C250  1  0.51809909  0.55535073  0.85541937  1
  C  C251  1  0.50837089  0.88461928  0.85832243  1
  C  C252  1  0.03459960  0.28054851  0.41121917  1
  C  C253  1  0.02615289  0.61454595  0.41218877  1
  C  C254  1  0.02367272  0.94599401  0.41553062  1
  C  C255  1  0.81460056  0.32426945  0.41296156  1
  C  C256  1  0.81032750  0.65490311  0.41127669  1
  C  C257  1  0.81314652  0.99266991  0.41362301  1
  C  C258  1  0.16400274  0.06140946  0.41240399  1
  C  C259  1  0.15322660  0.39519220  0.41657385  1
  C  C260  1  0.16047018  0.73090971  0.40827757  1
  C  C261  1  0.01995961  0.06131820  0.91250502  1
  C  C262  1  0.03262619  0.39508094  0.91663912  1
  C  C263  1  0.02541994  0.73003234  0.90886317  1
  C  C264  1  0.15834950  0.32424525  0.91297162  1
  C  C265  1  0.15429032  0.65530528  0.91074270  1
  C  C266  1  0.16398995  0.99211761  0.91269967  1
  C  C267  1  0.80675892  0.28030640  0.91099453  1
  C  C268  1  0.81385043  0.61510929  0.91233079  1
  C  C269  1  0.81358265  0.94531689  0.91452104  1
  C  C270  1  0.97381284  0.05333175  0.58810692  1
  C  C271  1  0.99292779  0.39111056  0.59306959  1
  C  C272  1  0.97035987  0.72214578  0.58332450  1
  C  C273  1  0.18381950  0.00742318  0.58837542  1
  C  C274  1  0.18039689  0.33723069  0.59140974  1
  C  C275  1  0.19550354  0.67519648  0.58355047  1
  C  C276  1  0.83652298  0.27278310  0.58834229  1
  C  C277  1  0.83182325  0.60357930  0.58663583  1
  C  C278  1  0.83287751  0.93689652  0.58912370  1
  C  C279  1  0.98250788  0.27291608  0.08835027  1
  C  C280  1  0.97990516  0.60371489  0.08633897  1
  C  C281  1  0.98243434  0.93814746  0.08782133  1
  C  C282  1  0.84125834  0.00959838  0.08886947  1
  C  C283  1  0.83108732  0.33705935  0.09155620  1
  C  C284  1  0.83165250  0.67572180  0.08193143  1
  C  C285  1  0.18696066  0.05365830  0.08827821  1
  C  C286  1  0.18049031  0.39119380  0.09280472  1
  C  C287  1  0.19911252  0.72269874  0.08302040  1
  C  C288  1  0.69734464  0.05581136  0.75081951  1
  C  C289  1  0.68849360  0.38926033  0.74252871  1
  C  C290  1  0.69569171  0.72566887  0.74573141  1
  C  C291  1  0.47214691  0.10155255  0.74988355  1
  C  C292  1  0.48138199  0.43680998  0.74465222  1
  C  C293  1  0.47810083  0.76797351  0.74526565  1
  C  C294  1  0.83251429  0.17510007  0.75281692  1
  C  C295  1  0.82119024  0.50791228  0.74216911  1
  C  C296  1  0.83425467  0.83994241  0.74469304  1
  C  C297  1  0.69264619  0.17499570  0.25284259  1
  C  C298  1  0.70164286  0.50790387  0.24130156  1
  C  C299  1  0.68521935  0.83995952  0.24461367  1
  C  C300  1  0.83301014  0.10122296  0.24980885  1
  C  C301  1  0.82899490  0.43670908  0.24427093  1
  C  C302  1  0.82549597  0.76790552  0.24398801  1
  C  C303  1  0.46912575  0.05553815  0.25033459  1
  C  C304  1  0.47891216  0.38918300  0.24224670  1
  C  C305  1  0.48286963  0.72509878  0.24595460  1
  C  C306  1  0.64230951  0.16550539  0.92420626  1
  C  C307  1  0.63824877  0.49999147  0.91722260  1
  C  C308  1  0.64264710  0.83226761  0.91846302  1
  C  C309  1  0.85382345  0.12009081  0.92306680  1
  C  C310  1  0.86058731  0.45239623  0.91562239  1
  C  C311  1  0.85005510  0.78293103  0.91929599  1
  C  C312  1  0.50534128  0.04775534  0.92523304  1
  C  C313  1  0.49990483  0.37999432  0.91374179  1
  C  C314  1  0.50093251  0.71485434  0.92193510  1
  C  C315  1  0.63818414  0.04813478  0.42517358  1
  C  C316  1  0.64096620  0.38023516  0.41377809  1
  C  C317  1  0.64828114  0.71565447  0.42286835  1
  C  C318  1  0.50623586  0.12023108  0.42348930  1
  C  C319  1  0.49740708  0.45266887  0.41572675  1
  C  C320  1  0.50170120  0.78561229  0.42180331  1
  C  C321  1  0.85488168  0.16579158  0.42483721  1
  C  C322  1  0.86346797  0.50053785  0.41685885  1
  C  C323  1  0.85305006  0.83227490  0.41830181  1
  C  C324  1  0.34338386  0.16567732  0.07400593  1
  C  C325  1  0.37055700  0.50404288  0.07793437  1
  C  C326  1  0.35665153  0.83593120  0.08100053  1
  C  C327  1  0.15130302  0.21773357  0.07509165  1
  C  C328  1  0.14595855  0.54483048  0.07910954  1
  C  C329  1  0.14853932  0.88012619  0.08130377  1
  C  C330  1  0.49435497  0.28208176  0.07966476  1
  C  C331  1  0.48709082  0.61941670  0.07905584  1
  C  C332  1  0.49815272  0.95166177  0.07436347  1
  C  C333  1  0.35186846  0.28208908  0.57978082  1
  C  C334  1  0.37291084  0.61965530  0.57918870  1
  C  C335  1  0.35020277  0.95042785  0.57544405  1
  C  C336  1  0.50225355  0.21780262  0.57506137  1
  C  C337  1  0.48880544  0.54516461  0.57946139  1
  C  C338  1  0.49180500  0.88045616  0.58026646  1
  C  C339  1  0.15320837  0.16543198  0.57420862  1
  C  C340  1  0.14248565  0.50390948  0.57893772  1
  C  C341  1  0.14837423  0.83651419  0.58123013  1
  C  C342  1  0.29647027  0.27398689  0.25508917  1
  C  C343  1  0.32833335  0.61288694  0.25538825  1
  C  C344  1  0.31089794  0.94240211  0.25288545  1
  C  C345  1  0.51802304  0.23091873  0.25333488  1
  C  C346  1  0.51714658  0.55950245  0.25913327  1
  C  C347  1  0.51923321  0.89771385  0.25229970  1
  C  C348  1  0.17678724  0.15840484  0.25236300  1
  C  C349  1  0.16335635  0.49602019  0.25339131  1
  C  C350  1  0.16890163  0.82681339  0.25918926  1
  C  C351  1  0.29797988  0.15840801  0.75164282  1
  C  C352  1  0.32355140  0.49578277  0.75322515  1
  C  C353  1  0.31086501  0.82730024  0.75783775  1
  C  C354  1  0.17494480  0.23095833  0.75330216  1
  C  C355  1  0.16047996  0.55981207  0.76042447  1
  C  C356  1  0.17407985  0.89773870  0.75171779  1
  C  C357  1  0.52568720  0.27408638  0.75504743  1
  C  C358  1  0.50944023  0.61310281  0.75500008  1
  C  C359  1  0.51649492  0.94274682  0.75284714  1
