# generated using pymatgen
data_Cu5Ni4C69
_symmetry_space_group_name_H-M   'P 1'
_cell_length_a   18.08364437
_cell_length_b   9.13711476
_cell_length_c   22.68954413
_cell_angle_alpha   89.92010577
_cell_angle_beta   88.58243929
_cell_angle_gamma   120.34591980
_symmetry_Int_Tables_number   1
_chemical_formula_structural   Cu5Ni4C69
_chemical_formula_sum   'Cu15 Ni12 C207'
_cell_volume   3233.98336419
_cell_formula_units_Z   3
loop_
 _symmetry_equiv_pos_site_id
 _symmetry_equiv_pos_as_xyz
  1  'x, y, z'
loop_
 _atom_site_type_symbol
 _atom_site_label
 _atom_site_symmetry_multiplicity
 _atom_site_fract_x
 _atom_site_fract_y
 _atom_site_fract_z
 _atom_site_occupancy
  C  C0  1  0.32495396  0.02777286  0.25033150  1
  C  C1  1  0.67655502  0.34617551  0.25244209  1
  C  C2  1  0.99636699  0.63155005  0.23916374  1
  C  C3  1  0.49776513  0.62559150  0.23801256  1
  C  C4  1  0.32271590  0.61899371  0.75335383  1
  C  C5  1  0.82245409  0.61868401  0.75205302  1
  C  C6  1  0.99598828  0.36805018  0.73808289  1
  C  C7  1  0.49648036  0.36852986  0.73830736  1
  C  C8  1  0.17664234  0.01036021  0.75055606  1
  C  C9  1  0.67757086  0.01092117  0.74962637  1
  C  C10  1  0.33280384  0.96752114  0.57157055  1
  C  C11  1  0.83246303  0.96799341  0.57065514  1
  C  C12  1  0.33336048  0.69834071  0.07146565  1
  C  C13  1  0.83098255  0.69719656  0.07052980  1
  C  C14  1  0.48296954  0.68431567  0.90940368  1
  C  C15  1  0.98311172  0.68461061  0.90839227  1
  C  C16  1  0.48497919  0.28447034  0.40725226  1
  C  C17  1  0.16367477  0.02879446  0.40603319  1
  C  C18  1  0.98777518  0.00620378  0.49200664  1
  C  C19  1  0.50057271  0.99663121  0.49128192  1
  C  C20  1  0.99750110  0.00551002  0.98974088  1
  C  C21  1  0.49657287  0.00036890  0.99239298  1
  C  C22  1  0.32465053  0.34132980  0.82850901  1
  C  C23  1  0.82460830  0.34101679  0.82752199  1
  C  C24  1  0.32688333  0.32717683  0.32208005  1
  C  C25  1  0.81930711  0.28382448  0.32980952  1
  C  C26  1  0.15393748  0.66172802  0.15512934  1
  C  C27  1  0.65195147  0.67179199  0.15810191  1
  C  C28  1  0.14801509  0.63501164  0.65660603  1
  C  C29  1  0.65005680  0.63753165  0.65536074  1
  C  C30  1  0.00701109  0.01206033  0.64794257  1
  C  C31  1  0.50807523  0.01383007  0.64808232  1
  C  C32  1  0.00494269  0.99296770  0.14682586  1
  C  C33  1  0.50727366  0.00180070  0.14866622  1
  C  C34  1  0.33485151  0.34648609  0.98154216  1
  C  C35  1  0.83503506  0.34546258  0.98090606  1
  C  C36  1  0.33816464  0.33132844  0.48164542  1
  C  C37  1  0.83716585  0.32082419  0.48000862  1
  C  C38  1  0.16874144  0.67552532  0.31623085  1
  C  C39  1  0.67086679  0.68604479  0.31328977  1
  C  C40  1  0.16769184  0.65642174  0.81517762  1
  C  C41  1  0.66761331  0.65664264  0.81533010  1
  Ni  Ni42  1  0.99629068  0.00681607  0.35042598  1
  Ni  Ni43  1  0.50103306  0.01359490  0.34681808  1
  Ni  Ni44  1  0.99801034  0.98550900  0.84764096  1
  Ni  Ni45  1  0.49808571  0.98545768  0.84814051  1
  Ni  Ni46  1  0.34395045  0.36004132  0.68329673  1
  Ni  Ni47  1  0.84386612  0.36041894  0.68265235  1
  Ni  Ni48  1  0.34047437  0.32851162  0.18436745  1
  Ni  Ni49  1  0.83524959  0.31992253  0.18134505  1
  Ni  Ni50  1  0.16482028  0.67057311  0.01636468  1
  Ni  Ni51  1  0.66368601  0.66925821  0.01636458  1
  Ni  Ni52  1  0.16241111  0.65165560  0.51628949  1
  Ni  Ni53  1  0.66713063  0.66017886  0.51542266  1
  Cu  Cu54  1  0.14654038  0.00528689  0.25497801  1
  Cu  Cu55  1  0.65049860  0.01018594  0.25139059  1
  Cu  Cu56  1  0.50100670  0.29738807  0.25291311  1
  Cu  Cu57  1  0.14678886  0.28841634  0.75206691  1
  Cu  Cu58  1  0.64698828  0.28890741  0.75238256  1
  Cu  Cu59  1  0.00078626  0.70536327  0.75304602  1
  Cu  Cu60  1  0.50087224  0.70567469  0.75309902  1
  Cu  Cu61  1  0.48543817  0.33811556  0.58450492  1
  Cu  Cu62  1  0.98399389  0.33676754  0.58549113  1
  Cu  Cu63  1  0.48422401  0.63115390  0.08495437  1
  Cu  Cu64  1  0.98302400  0.62286344  0.08599745  1
  Cu  Cu65  1  0.31544684  0.67633693  0.92093261  1
  Cu  Cu66  1  0.81542457  0.67697095  0.92105535  1
  Cu  Cu67  1  0.31492040  0.95415823  0.42191028  1
  Cu  Cu68  1  0.81671319  0.95562976  0.42048094  1
  C  C69  1  0.35242905  0.70788744  0.25134192  1
  C  C70  1  0.85438037  0.71069137  0.25108915  1
  C  C71  1  0.00139711  0.29358002  0.25114417  1
  C  C72  1  0.35330943  0.99734075  0.75098346  1
  C  C73  1  0.85335121  0.99734227  0.75139545  1
  C  C74  1  0.18677602  0.04207679  0.58531881  1
  C  C75  1  0.68724507  0.04218657  0.58596404  1
  C  C76  1  0.33400001  0.62987895  0.58522940  1
  C  C77  1  0.83417894  0.62927259  0.58488879  1
  C  C78  1  0.33392689  0.03919216  0.08514321  1
  C  C79  1  0.83492447  0.04051983  0.08463673  1
  C  C80  1  0.18771024  0.33191032  0.08673768  1
  C  C81  1  0.68611080  0.33223700  0.08562790  1
  C  C82  1  0.01913189  0.36911121  0.91898900  1
  C  C83  1  0.51862764  0.36827435  0.91883295  1
  C  C84  1  0.16971495  0.96305747  0.91751296  1
  C  C85  1  0.66998908  0.96365002  0.91739319  1
  C  C86  1  0.16812746  0.37440405  0.41836384  1
  C  C87  1  0.67029263  0.37656912  0.41707128  1
  C  C88  1  0.01881802  0.66424798  0.41854730  1
  C  C89  1  0.52067281  0.67100709  0.41789276  1
  C  C90  1  0.10069406  0.01760219  0.31507188  1
  C  C91  1  0.60437275  0.03879775  0.30788824  1
  C  C92  1  0.40412533  0.78814543  0.30238480  1
  C  C93  1  0.90758745  0.79424874  0.30082266  1
  C  C94  1  0.47888456  0.18509403  0.31288857  1
  C  C95  1  0.99012021  0.19553030  0.30445025  1
  C  C96  1  0.10080236  0.16839762  0.80849159  1
  C  C97  1  0.60044452  0.16800885  0.80845339  1
  C  C98  1  0.47964234  0.77297690  0.81320467  1
  C  C99  1  0.98009378  0.77331083  0.81323951  1
  C  C100  1  0.40595797  0.02534030  0.80160532  1
  C  C101  1  0.90595786  0.02522371  0.80206343  1
  C  C102  1  0.39191152  0.96911324  0.69561807  1
  C  C103  1  0.89208589  0.96921118  0.69614269  1
  C  C104  1  0.08392606  0.20772434  0.69418495  1
  C  C105  1  0.58409705  0.20904186  0.69430578  1
  C  C106  1  0.01469629  0.83567638  0.69705722  1
  C  C107  1  0.51418765  0.83568774  0.69705336  1
  C  C108  1  0.39101280  0.81538357  0.19611084  1
  C  C109  1  0.89223650  0.81421260  0.19483790  1
  C  C110  1  0.01098111  0.20963489  0.19713677  1
  C  C111  1  0.51339312  0.19173570  0.19726084  1
  C  C112  1  0.08065557  0.96608065  0.19874202  1
  C  C113  1  0.58677138  0.96690617  0.19359674  1
  C  C114  1  0.43850271  0.34781390  0.64491554  1
  C  C115  1  0.93987964  0.34780550  0.64711276  1
  C  C116  1  0.23575377  0.12627584  0.63765260  1
  C  C117  1  0.73429744  0.12285624  0.63942296  1
  C  C118  1  0.32238704  0.53443656  0.64044082  1
  C  C119  1  0.82300468  0.53530267  0.64066809  1
  C  C120  1  0.43761574  0.52763820  0.14525126  1
  C  C121  1  0.93666419  0.51941364  0.14670030  1
  C  C122  1  0.32303718  0.11178861  0.14029072  1
  C  C123  1  0.82259935  0.11510470  0.13824121  1
  C  C124  1  0.23803401  0.34648232  0.13763506  1
  C  C125  1  0.73429831  0.34870270  0.13876267  1
  C  C126  1  0.22678723  0.30507768  0.03115962  1
  C  C127  1  0.73056636  0.30984888  0.03226037  1
  C  C128  1  0.41894794  0.53063461  0.02796827  1
  C  C129  1  0.91851817  0.52910491  0.02911518  1
  C  C130  1  0.34110778  0.14539795  0.03271207  1
  C  C131  1  0.84437031  0.14506337  0.03107328  1
  C  C132  1  0.22967181  0.14942939  0.53035446  1
  C  C133  1  0.73087764  0.15101433  0.53236571  1
  C  C134  1  0.34169792  0.53707045  0.53304398  1
  C  C135  1  0.84247833  0.53923283  0.53298964  1
  C  C136  1  0.42011857  0.30854422  0.52750579  1
  C  C137  1  0.91741606  0.30678932  0.53057585  1
  C  C138  1  0.26694005  0.68296754  0.98067482  1
  C  C139  1  0.76685720  0.68362021  0.98070079  1
  C  C140  1  0.06920163  0.45381779  0.97007731  1
  C  C141  1  0.56894255  0.45311867  0.96972633  1
  C  C142  1  0.15543185  0.85229326  0.96849895  1
  C  C143  1  0.65626928  0.85334918  0.96826439  1
  C  C144  1  0.26430568  0.84828945  0.48060599  1
  C  C145  1  0.77208239  0.85446287  0.48187386  1
  C  C146  1  0.15687745  0.45097651  0.47110784  1
  C  C147  1  0.65554386  0.45842869  0.46791997  1
  C  C148  1  0.07155177  0.68271081  0.46832078  1
  C  C149  1  0.57002916  0.68617200  0.46939730  1
  C  C150  1  0.05796620  0.63570230  0.36239241  1
  C  C151  1  0.55936633  0.63703997  0.36302197  1
  C  C152  1  0.25230921  0.86313183  0.36305201  1
  C  C153  1  0.75371179  0.85700886  0.36436480  1
  C  C154  1  0.17717992  0.47842380  0.36406833  1
  C  C155  1  0.67992588  0.47487234  0.36101082  1
  C  C156  1  0.05890929  0.48111685  0.86381375  1
  C  C157  1  0.55842931  0.48098043  0.86362258  1
  C  C158  1  0.17944257  0.88278929  0.86155843  1
  C  C159  1  0.68031988  0.88454045  0.86137307  1
  C  C160  1  0.25744440  0.65140874  0.86149437  1
  C  C161  1  0.75730985  0.65160578  0.86177563  1
  C  C162  1  0.01166919  0.81638292  0.41238116  1
  C  C163  1  0.50697068  0.81313732  0.41020423  1
  C  C164  1  0.41172303  0.98930248  0.41527805  1
  C  C165  1  0.91197799  0.98290247  0.41082866  1
  C  C166  1  0.09578363  0.19878305  0.41393985  1
  C  C167  1  0.59477441  0.20374663  0.41414349  1
  C  C168  1  0.00669055  0.20087145  0.91120075  1
  C  C169  1  0.50647701  0.20018843  0.91088196  1
  C  C170  1  0.09475234  0.98535159  0.91412314  1
  C  C171  1  0.59508902  0.98593505  0.91400739  1
  C  C172  1  0.41270683  0.83768149  0.91536442  1
  C  C173  1  0.91279897  0.83816190  0.91540416  1
  C  C174  1  0.48414220  0.15236702  0.58699289  1
  C  C175  1  0.98391136  0.15200756  0.58736828  1
  C  C176  1  0.09981792  0.02501868  0.58654619  1
  C  C177  1  0.59986657  0.02496645  0.58684445  1
  C  C178  1  0.41486703  0.80118650  0.58590933  1
  C  C179  1  0.91460138  0.80271245  0.58653671  1
  C  C180  1  0.48400105  0.81568565  0.08730865  1
  C  C181  1  0.98464312  0.81141954  0.09012497  1
  C  C182  1  0.41442373  0.02777146  0.08582857  1
  C  C183  1  0.91639092  0.03048946  0.08754232  1
  C  C184  1  0.09899286  0.17671295  0.09034017  1
  C  C185  1  0.59944517  0.17518458  0.08674075  1
  C  C186  1  0.33694150  0.13887576  0.74419315  1
  C  C187  1  0.83691456  0.13872528  0.74475794  1
  C  C188  1  0.24206917  0.31261068  0.74176537  1
  C  C189  1  0.74211917  0.31308219  0.74197219  1
  C  C190  1  0.42053572  0.51240909  0.74697958  1
  C  C191  1  0.92019721  0.51270016  0.74705733  1
  C  C192  1  0.33903898  0.53711598  0.24457723  1
  C  C193  1  0.84351073  0.53985432  0.24534334  1
  C  C194  1  0.42122510  0.33121319  0.24646602  1
  C  C195  1  0.92835523  0.32397188  0.24708412  1
  C  C196  1  0.24341162  0.15987800  0.24424712  1
  C  C197  1  0.74383943  0.18159515  0.24117671  1
  C  C198  1  0.32541752  0.49910527  0.92350603  1
  C  C199  1  0.82609636  0.50023560  0.92389170  1
  C  C200  1  0.43176142  0.35789396  0.92285025  1
  C  C201  1  0.93243419  0.35943734  0.92283261  1
  C  C202  1  0.25031624  0.13185787  0.92200944  1
  C  C203  1  0.75058965  0.13318550  0.92213065  1
  C  C204  1  0.31965314  0.14759435  0.42414449  1
  C  C205  1  0.82351726  0.14819595  0.42337391  1
  C  C206  1  0.24950451  0.36409500  0.42039576  1
  C  C207  1  0.75040177  0.36752630  0.42245395  1
  C  C208  1  0.43300804  0.50631088  0.42233463  1
  C  C209  1  0.93121140  0.51030789  0.42293206  1
  C  C210  1  0.17931893  0.48313617  0.08080771  1
  C  C211  1  0.67799935  0.48316373  0.07932513  1
  C  C212  1  0.07776700  0.65102484  0.07568527  1
  C  C213  1  0.57857138  0.65525613  0.07492684  1
  C  C214  1  0.26041722  0.86372435  0.08130865  1
  C  C215  1  0.76275341  0.86461207  0.08071332  1
  C  C216  1  0.17880328  0.87491832  0.58001242  1
  C  C217  1  0.67864226  0.87421872  0.58030490  1
  C  C218  1  0.26102447  0.65835456  0.58070823  1
  C  C219  1  0.76069490  0.65761681  0.58143960  1
  C  C220  1  0.07795409  0.50172115  0.57544855  1
  C  C221  1  0.57909681  0.50289954  0.57405758  1
  C  C222  1  0.15202601  0.82272402  0.25864948  1
  C  C223  1  0.65580581  0.83342267  0.25668810  1
  C  C224  1  0.26577994  0.69748445  0.25681159  1
  C  C225  1  0.76637760  0.68840039  0.25586885  1
  C  C226  1  0.08215798  0.46851025  0.25376864  1
  C  C227  1  0.59174133  0.48356217  0.25684207  1
  C  C228  1  0.15790185  0.48207633  0.75785154  1
  C  C229  1  0.65798403  0.48236755  0.75815305  1
  C  C230  1  0.09145399  0.69881956  0.75691403  1
  C  C231  1  0.59154266  0.69939499  0.75690267  1
  C  C232  1  0.26701410  0.83599945  0.75641773  1
  C  C233  1  0.76712488  0.83581992  0.75667538  1
