# generated using pymatgen
data_Cu2NiC17
_symmetry_space_group_name_H-M   'P 1'
_cell_length_a   9.04185344
_cell_length_b   9.06445995
_cell_length_c   22.54612606
_cell_angle_alpha   89.99085338
_cell_angle_beta   90.00000000
_cell_angle_gamma   119.91753429
_symmetry_Int_Tables_number   1
_chemical_formula_structural   Cu2NiC17
_chemical_formula_sum   'Cu12 Ni6 C102'
_cell_volume   1601.63017850
_cell_formula_units_Z   6
loop_
 _symmetry_equiv_pos_site_id
 _symmetry_equiv_pos_as_xyz
  1  'x, y, z'
loop_
 _atom_site_type_symbol
 _atom_site_label
 _atom_site_symmetry_multiplicity
 _atom_site_fract_x
 _atom_site_fract_y
 _atom_site_fract_z
 _atom_site_occupancy
  C  C0  1  0.62768924  0.00685821  0.25247666  1
  C  C1  1  0.00612418  0.64182454  0.24231197  1
  C  C2  1  0.63570036  0.64182454  0.74231197  1
  C  C3  1  0.37916897  0.00685821  0.75247666  1
  C  C4  1  0.31769681  0.34883855  0.58528901  1
  C  C5  1  0.65816301  0.94846511  0.57995273  1
  C  C6  1  0.29030310  0.94846511  0.07995273  1
  C  C7  1  0.03114275  0.34883855  0.08528901  1
  C  C8  1  0.98384156  0.68025335  0.92255923  1
  C  C9  1  0.69108020  0.02879223  0.90865523  1
  C  C10  1  0.33771103  0.02879223  0.40865523  1
  C  C11  1  0.69641079  0.68025335  0.42255923  1
  C  C12  1  0.97934734  0.98904535  0.49681191  1
  C  C13  1  0.00969801  0.98904535  0.99681191  1
  C  C14  1  0.66032629  0.31256015  0.83067449  1
  C  C15  1  0.65223486  0.31256015  0.33067449  1
  C  C16  1  0.32727882  0.66438769  0.16419791  1
  C  C17  1  0.33710787  0.66438769  0.66419791  1
  C  C18  1  0.00481857  0.01375984  0.34976822  1
  C  C19  1  0.00894127  0.01375984  0.84976822  1
  C  C20  1  0.67445170  0.33494747  0.68321258  1
  C  C21  1  0.66049677  0.33494747  0.18321258  1
  C  C22  1  0.32267065  0.67258429  0.01626490  1
  C  C23  1  0.34991264  0.67258429  0.51626490  1
  C  C24  1  0.97565922  0.97978505  0.64908610  1
  C  C25  1  0.00412583  0.97978505  0.14908610  1
  C  C26  1  0.66099130  0.33742109  0.98286116  1
  C  C27  1  0.67643079  0.33742109  0.48286116  1
  C  C28  1  0.34063929  0.68546384  0.31650066  1
  C  C29  1  0.34482355  0.68546384  0.81650066  1
  Ni  Ni30  1  0.30179427  0.00788533  0.25306692  1
  Ni  Ni31  1  0.70609106  0.00788533  0.75306692  1
  Ni  Ni32  1  0.66322111  0.62341638  0.58470389  1
  Ni  Ni33  1  0.96019626  0.62341638  0.08470389  1
  Ni  Ni34  1  0.33013695  0.96935036  0.91809955  1
  Ni  Ni35  1  0.63921242  0.96935036  0.41809955  1
  Cu  Cu36  1  0.70585328  0.70413756  0.25162728  1
  Cu  Cu37  1  0.00060816  0.29269059  0.24920984  1
  Cu  Cu38  1  0.29208243  0.29269059  0.74920984  1
  Cu  Cu39  1  0.99828429  0.70413756  0.75162728  1
  Cu  Cu40  1  0.96487600  0.33828373  0.58411170  1
  Cu  Cu41  1  0.37102126  0.03913351  0.58384686  1
  Cu  Cu42  1  0.66811326  0.03913351  0.08384686  1
  Cu  Cu43  1  0.37340873  0.33828373  0.08411170  1
  Cu  Cu44  1  0.62416506  0.66515950  0.91719022  1
  Cu  Cu45  1  0.04303961  0.37199502  0.91796294  1
  Cu  Cu46  1  0.32895441  0.37199502  0.41796294  1
  Cu  Cu47  1  0.04099344  0.66515950  0.41719022  1
  C  C48  1  0.20838607  0.02203674  0.31196718  1
  C  C49  1  0.81006368  0.78356143  0.30512440  1
  C  C50  1  0.97277341  0.18152825  0.30068807  1
  C  C51  1  0.20875485  0.18152825  0.80068807  1
  C  C52  1  0.97349774  0.78356143  0.80512440  1
  C  C53  1  0.81365067  0.02203674  0.81196718  1
  C  C54  1  0.79026057  0.96929087  0.69352793  1
  C  C55  1  0.19423524  0.21455344  0.69400673  1
  C  C56  1  0.03302108  0.81725137  0.69903618  1
  C  C57  1  0.78423030  0.81725137  0.19903618  1
  C  C58  1  0.02031820  0.21455344  0.19400673  1
  C  C59  1  0.17903030  0.96929087  0.19352793  1
  C  C60  1  0.88250144  0.35803715  0.63705093  1
  C  C61  1  0.47965785  0.11663222  0.63677528  1
  C  C62  1  0.63571390  0.50743400  0.64301196  1
  C  C63  1  0.87172110  0.50743400  0.14301196  1
  C  C64  1  0.63697537  0.11663222  0.13677528  1
  C  C65  1  0.47553671  0.35803715  0.13705093  1
  C  C66  1  0.44876032  0.30166573  0.03127586  1
  C  C67  1  0.84735336  0.53397540  0.02423244  1
  C  C68  1  0.69287380  0.14543468  0.02998207  1
  C  C69  1  0.45256188  0.14543468  0.52998207  1
  C  C70  1  0.68662304  0.53397540  0.52423244  1
  C  C71  1  0.85290641  0.30166573  0.53127586  1
  C  C72  1  0.53626325  0.68469382  0.96900837  1
  C  C73  1  0.14321768  0.44907681  0.97250899  1
  C  C74  1  0.30254766  0.85038558  0.97568706  1
  C  C75  1  0.54783692  0.85038558  0.47568706  1
  C  C76  1  0.30585813  0.44907681  0.47250899  1
  C  C77  1  0.14842957  0.68469382  0.46900837  1
  C  C78  1  0.11610602  0.63937925  0.36213263  1
  C  C79  1  0.51483164  0.87902323  0.35854781  1
  C  C80  1  0.35415572  0.48046598  0.36575158  1
  C  C81  1  0.12630926  0.48046598  0.86575158  1
  C  C82  1  0.36419060  0.87902323  0.85854781  1
  C  C83  1  0.52327223  0.63937925  0.86213263  1
  C  C84  1  0.02461213  0.82058646  0.41252360  1
  C  C85  1  0.82053427  0.97342168  0.40940613  1
  C  C86  1  0.18247076  0.19724781  0.41254052  1
  C  C87  1  0.01477705  0.19724781  0.91254052  1
  C  C88  1  0.15288741  0.97342168  0.90940613  1
  C  C89  1  0.79597433  0.82058646  0.91252360  1
  C  C90  1  0.98844599  0.18448523  0.58941123  1
  C  C91  1  0.20393356  0.03332546  0.59009411  1
  C  C92  1  0.83233103  0.82012737  0.58578734  1
  C  C93  1  0.98779634  0.82012737  0.08578734  1
  C  C94  1  0.82939190  0.03332546  0.09009411  1
  C  C95  1  0.19603924  0.18448523  0.08941123  1
  C  C96  1  0.66795336  0.16462865  0.74459360  1
  C  C97  1  0.46695952  0.31275613  0.74550289  1
  C  C98  1  0.84256377  0.53716602  0.74355635  1
  C  C99  1  0.69460325  0.53716602  0.24355635  1
  C  C100  1  0.84579761  0.31275613  0.24550289  1
  C  C101  1  0.49667629  0.16462865  0.24459360  1
  C  C102  1  0.64991938  0.51488611  0.92119998  1
  C  C103  1  0.86900274  0.35813912  0.92219100  1
  C  C104  1  0.51294303  0.15249684  0.92226979  1
  C  C105  1  0.63955481  0.15249684  0.42226979  1
  C  C106  1  0.48913738  0.35813912  0.42219100  1
  C  C107  1  0.86496774  0.51488611  0.42119998  1
  C  C108  1  0.35486706  0.48971598  0.07563289  1
  C  C109  1  0.15281643  0.64327929  0.08119865  1
  C  C110  1  0.51815023  0.86647856  0.07680206  1
  C  C111  1  0.34832733  0.86647856  0.57680206  1
  C  C112  1  0.49046186  0.64327929  0.58119865  1
  C  C113  1  0.13484792  0.48971598  0.57563289  1
  C  C114  1  0.31093549  0.82466340  0.25391459  1
  C  C115  1  0.53216249  0.68483287  0.25640831  1
  C  C116  1  0.15305699  0.46499829  0.25620954  1
  C  C117  1  0.31194030  0.46499829  0.75620954  1
  C  C118  1  0.15266938  0.68483287  0.75640831  1
  C  C119  1  0.51372691  0.82466340  0.75391459  1
