# generated using pymatgen
data_Cu2NiC16
_symmetry_space_group_name_H-M   'P 1'
_cell_length_a   5.83870140
_cell_length_b   6.63496181
_cell_length_c   6.63496181
_cell_angle_alpha   90.00000000
_cell_angle_beta   90.00000000
_cell_angle_gamma   90.00000000
_symmetry_Int_Tables_number   1
_chemical_formula_structural   Cu2NiC16
_chemical_formula_sum   'Cu2 Ni1 C16'
_cell_volume   257.03550650
_cell_formula_units_Z   1
loop_
 _symmetry_equiv_pos_site_id
 _symmetry_equiv_pos_as_xyz
  1  'x, y, z'
loop_
 _atom_site_type_symbol
 _atom_site_label
 _atom_site_symmetry_multiplicity
 _atom_site_fract_x
 _atom_site_fract_y
 _atom_site_fract_z
 _atom_site_occupancy
  C  C0  1  0.98772003  0.97652153  0.97652153  1
  C  C1  1  0.98772003  0.52347847  0.97652153  1
  C  C2  1  0.98772003  0.52347847  0.52347847  1
  C  C3  1  0.98772003  0.97652153  0.52347847  1
  Ni  Ni4  1  0.16877865  0.25000000  0.25000000  1
  C  C5  1  0.53552865  0.75000000  0.75000000  1
  C  C6  1  0.55790479  0.25000000  0.25000000  1
  Cu  Cu7  1  0.47670998  0.25000000  0.75000000  1
  Cu  Cu8  1  0.47670998  0.75000000  0.25000000  1
  C  C9  1  0.66135243  0.75000000  0.46589352  1
  C  C10  1  0.66135243  0.75000000  0.03410648  1
  C  C11  1  0.66135243  0.46589352  0.75000000  1
  C  C12  1  0.66135243  0.03410648  0.75000000  1
  C  C13  1  0.29851898  0.96716046  0.25000000  1
  C  C14  1  0.29851898  0.25000000  0.96716046  1
  C  C15  1  0.29851898  0.25000000  0.53283954  1
  C  C16  1  0.29851898  0.53283954  0.25000000  1
  C  C17  1  0.86106539  0.25000000  0.25000000  1
  C  C18  1  0.23293683  0.75000000  0.75000000  1
