# generated using pymatgen
data_Cu6NiC12
_symmetry_space_group_name_H-M   'P 1'
_cell_length_a   4.97388390
_cell_length_b   5.11600726
_cell_length_c   8.56213863
_cell_angle_alpha   90.03281271
_cell_angle_beta   89.95652192
_cell_angle_gamma   100.66025296
_symmetry_Int_Tables_number   1
_chemical_formula_structural   Cu6NiC12
_chemical_formula_sum   'Cu6 Ni1 C12'
_cell_volume   214.11550545
_cell_formula_units_Z   1
loop_
 _symmetry_equiv_pos_site_id
 _symmetry_equiv_pos_as_xyz
  1  'x, y, z'
loop_
 _atom_site_type_symbol
 _atom_site_label
 _atom_site_symmetry_multiplicity
 _atom_site_fract_x
 _atom_site_fract_y
 _atom_site_fract_z
 _atom_site_occupancy
  Ni  Ni0  1  0.94587100  0.48628300  0.16570200  1
  Cu  Cu1  1  0.02310200  0.99339400  0.99712600  1
  Cu  Cu2  1  0.02169200  0.99269800  0.33551600  1
  Cu  Cu3  1  0.99259300  0.98588500  0.66680500  1
  Cu  Cu4  1  0.44766500  0.58653400  0.16661200  1
  Cu  Cu5  1  0.48730800  0.50830900  0.83336900  1
  Cu  Cu6  1  0.48716500  0.50850500  0.49988500  1
  C  C7  1  0.21689700  0.83326700  0.16655000  1
  C  C8  1  0.26207800  0.36374900  0.32469400  1
  C  C9  1  0.26147700  0.36422600  0.00837400  1
  C  C10  1  0.29629500  0.32389300  0.66671400  1
  C  C11  1  0.70272200  0.67669200  0.66675400  1
  C  C12  1  0.71445200  0.65178600  0.00536600  1
  C  C13  1  0.71432900  0.65143000  0.32743900  1
  C  C14  1  0.21943300  0.83417400  0.82615100  1
  C  C15  1  0.21725300  0.83418300  0.50749000  1
  C  C16  1  0.77760000  0.12652800  0.16652700  1
  C  C17  1  0.80575300  0.15229600  0.83393700  1
  C  C18  1  0.80909100  0.15394200  0.49927700  1
