# generated using pymatgen
data_Cu2Ni2C9
_symmetry_space_group_name_H-M   'P 1'
_cell_length_a   3.39648401
_cell_length_b   3.39714486
_cell_length_c   45.62049682
_cell_angle_alpha   90.02840323
_cell_angle_beta   90.00811944
_cell_angle_gamma   119.99425185
_symmetry_Int_Tables_number   1
_chemical_formula_structural   Cu2Ni2C9
_chemical_formula_sum   'Cu2 Ni2 C9'
_cell_volume   455.88923543
_cell_formula_units_Z   1
loop_
 _symmetry_equiv_pos_site_id
 _symmetry_equiv_pos_as_xyz
  1  'x, y, z'
loop_
 _atom_site_type_symbol
 _atom_site_label
 _atom_site_symmetry_multiplicity
 _atom_site_fract_x
 _atom_site_fract_y
 _atom_site_fract_z
 _atom_site_occupancy
  C  C0  1  0.99871200  0.99754000  0.19809000  1
  C  C1  1  0.33346400  0.66700000  0.69868900  1
  C  C2  1  0.66634500  0.33283600  0.04586300  1
  C  C3  1  0.66698400  0.33379800  0.12819800  1
  C  C4  1  0.33278600  0.66598000  0.61654800  1
  C  C5  1  0.33335700  0.66669400  0.08685100  1
  C  C6  1  0.66729900  0.33454200  0.28937700  1
  C  C7  1  0.66642900  0.33311600  0.65762800  1
  C  C8  1  0.33334800  0.66646000  0.46962100  1
  Ni  Ni9  1  0.66637200  0.33269000  0.43335900  1
  Ni  Ni10  1  0.66693500  0.33351300  0.50592300  1
  Cu  Cu11  1  0.33418700  0.66820500  0.32202900  1
  Cu  Cu12  1  0.33378300  0.66762500  0.25622500  1
