# generated using pymatgen
data_Cu2Ni4C
_symmetry_space_group_name_H-M   'P 1'
_cell_length_a   12.41091297
_cell_length_b   12.41091297
_cell_length_c   12.41091297
_cell_angle_alpha   131.83676269
_cell_angle_beta   131.83676269
_cell_angle_gamma   70.48696497
_symmetry_Int_Tables_number   1
_chemical_formula_structural   Cu2Ni4C
_chemical_formula_sum   'Cu32 Ni64 C16'
_cell_volume   1039.77150538
_cell_formula_units_Z   16
loop_
 _symmetry_equiv_pos_site_id
 _symmetry_equiv_pos_as_xyz
  1  'x, y, z'
loop_
 _atom_site_type_symbol
 _atom_site_label
 _atom_site_symmetry_multiplicity
 _atom_site_fract_x
 _atom_site_fract_y
 _atom_site_fract_z
 _atom_site_occupancy
  C  C0  1  0.68273600  0.42168900  0.48385600  1
  C  C1  1  0.30111900  0.56216600  0.48385600  1
  C  C2  1  0.07831100  0.81726400  0.51614400  1
  C  C3  1  0.56726400  0.55111900  0.23895300  1
  C  C4  1  0.31216600  0.32831100  0.76104700  1
  C  C5  1  0.17168900  0.18783400  0.23895300  1
  C  C6  1  0.94888100  0.93273600  0.76104700  1
  C  C7  1  0.93783400  0.19888100  0.51614400  1
  C  C8  1  0.06726400  0.82831100  0.01614400  1
  C  C9  1  0.44888100  0.68783400  0.01614400  1
  C  C10  1  0.67168900  0.43273600  0.98385600  1
  C  C11  1  0.18273600  0.69888100  0.26104700  1
  C  C12  1  0.43783400  0.92168900  0.73895300  1
  C  C13  1  0.57831100  0.06216600  0.26104700  1
  C  C14  1  0.80111900  0.31726400  0.73895300  1
  C  C15  1  0.81216600  0.05111900  0.98385600  1
  Ni  Ni16  1  0.10419100  0.74242600  0.78936200  1
  Ni  Ni17  1  0.18517000  0.54693600  0.78936200  1
  Ni  Ni18  1  0.75757400  0.39580900  0.21063800  1
  Ni  Ni19  1  0.14580900  0.43517000  0.13823500  1
  Ni  Ni20  1  0.29693600  0.00757400  0.86176500  1
  Ni  Ni21  1  0.49242600  0.20306400  0.13823500  1
  Ni  Ni22  1  0.06483000  0.35419100  0.86176500  1
  Ni  Ni23  1  0.95306400  0.31483000  0.21063800  1
  Ni  Ni24  1  0.64580900  0.50757400  0.71063800  1
  Ni  Ni25  1  0.56483000  0.70306400  0.71063800  1
  Ni  Ni26  1  0.99242600  0.85419100  0.28936200  1
  Ni  Ni27  1  0.60419100  0.81483000  0.36176500  1
  Ni  Ni28  1  0.45306400  0.24242600  0.63823500  1
  Ni  Ni29  1  0.25757400  0.04693600  0.36176500  1
  Ni  Ni30  1  0.68517000  0.89580900  0.63823500  1
  Ni  Ni31  1  0.79693600  0.93517000  0.28936200  1
  Ni  Ni32  1  0.82544800  0.56462000  0.33631700  1
  Ni  Ni33  1  0.01086900  0.27169700  0.33631700  1
  Ni  Ni34  1  0.93538000  0.67455200  0.66368300  1
  Ni  Ni35  1  0.42455200  0.26086900  0.23917200  1
  Ni  Ni36  1  0.02169700  0.18538000  0.76082800  1
  Ni  Ni37  1  0.31462000  0.47830300  0.23917200  1
  Ni  Ni38  1  0.23913100  0.07544800  0.76082800  1
  Ni  Ni39  1  0.22830300  0.48913100  0.66368300  1
  Ni  Ni40  1  0.92455200  0.68538000  0.16368300  1
  Ni  Ni41  1  0.73913100  0.97830300  0.16368300  1
  Ni  Ni42  1  0.81462000  0.57544800  0.83631700  1
  Ni  Ni43  1  0.16378400  0.65718700  0.61244700  1
  Ni  Ni44  1  0.32544800  0.98913100  0.26082800  1
  Ni  Ni45  1  0.43538000  0.77169700  0.26082800  1
  Ni  Ni46  1  0.51086900  0.17455200  0.73917200  1
  Ni  Ni47  1  0.52169700  0.76086900  0.83631700  1
  Ni  Ni48  1  0.71082400  0.67738300  0.58518800  1
  Ni  Ni49  1  0.37436300  0.40780400  0.58518800  1
  Ni  Ni50  1  0.82261700  0.78917600  0.41481200  1
  Ni  Ni51  1  0.53917600  0.62436300  0.46655900  1
  Ni  Ni52  1  0.15780400  0.07261700  0.53344100  1
  Ni  Ni53  1  0.42738300  0.34219600  0.46655900  1
  Ni  Ni54  1  0.87563700  0.96082400  0.53344100  1
  Ni  Ni55  1  0.09219600  0.12563700  0.41481200  1
  Ni  Ni56  1  0.03917600  0.57261700  0.91481200  1
  Ni  Ni57  1  0.37563700  0.84219600  0.91481200  1
  Ni  Ni58  1  0.92738300  0.46082400  0.08518800  1
  Ni  Ni59  1  0.21082400  0.62563700  0.03344100  1
  Ni  Ni60  1  0.59219600  0.17738300  0.96655900  1
  Ni  Ni61  1  0.32261700  0.90780400  0.03344100  1
  Ni  Ni62  1  0.87436300  0.28917600  0.96655900  1
  Ni  Ni63  1  0.65780400  0.12436300  0.08518800  1
  Ni  Ni64  1  0.70526000  0.69866200  0.11244700  1
  Ni  Ni65  1  0.44866200  0.83621600  0.49340200  1
  Ni  Ni66  1  0.34281300  0.95526000  0.50659800  1
  Ni  Ni67  1  0.54474000  0.15718700  0.49340200  1
  Ni  Ni68  1  0.66378400  0.05133800  0.50659800  1
  Ni  Ni69  1  0.90718700  0.91378400  0.11244700  1
  Ni  Ni70  1  0.80133800  0.79474000  0.88755300  1
  Ni  Ni71  1  0.58621600  0.59281300  0.88755300  1
  Ni  Ni72  1  0.04474000  0.55133800  0.38755300  1
  Ni  Ni73  1  0.30133800  0.41378400  0.00659800  1
  Ni  Ni74  1  0.40718700  0.29474000  0.99340200  1
  Ni  Ni75  1  0.20526000  0.09281300  0.00659800  1
  Ni  Ni76  1  0.08621600  0.19866200  0.99340200  1
  Ni  Ni77  1  0.84281300  0.33621600  0.38755300  1
  Ni  Ni78  1  0.94866200  0.45526000  0.61244700  1
  Ni  Ni79  1  0.72830300  0.06462000  0.73917200  1
  Cu  Cu80  1  0.01404800  0.76964800  0.78407800  1
  Cu  Cu81  1  0.27003000  0.51443000  0.78407800  1
  Cu  Cu82  1  0.73035200  0.48595200  0.21592200  1
  Cu  Cu83  1  0.23595200  0.52003000  0.25560000  1
  Cu  Cu84  1  0.26443000  0.98035200  0.74440000  1
  Cu  Cu85  1  0.51964800  0.23557000  0.25560000  1
  Cu  Cu86  1  0.97997000  0.26404800  0.74440000  1
  Cu  Cu87  1  0.98557000  0.22997000  0.21592200  1
  Cu  Cu88  1  0.73595200  0.48035200  0.71592200  1
  Cu  Cu89  1  0.47997000  0.73557000  0.71592200  1
  Cu  Cu90  1  0.01964800  0.76404800  0.28407800  1
  Cu  Cu91  1  0.51404800  0.72997000  0.24440000  1
  Cu  Cu92  1  0.48557000  0.26964800  0.75560000  1
  Cu  Cu93  1  0.23035200  0.01443000  0.24440000  1
  Cu  Cu94  1  0.77003000  0.98595200  0.75560000  1
  Cu  Cu95  1  0.76443000  0.02003000  0.28407800  1
  Cu  Cu96  1  0.62500000  0.58835800  0.46335800  1
  Cu  Cu97  1  0.33835800  0.37500000  0.46335800  1
  Cu  Cu98  1  0.91164200  0.87500000  0.53664200  1
  Cu  Cu99  1  0.12500000  0.16164200  0.53664200  1
  Cu  Cu100  1  0.12500000  0.66164200  0.03664200  1
  Cu  Cu101  1  0.41164200  0.87500000  0.03664200  1
  Cu  Cu102  1  0.83835800  0.37500000  0.96335800  1
  Cu  Cu103  1  0.62500000  0.08835800  0.96335800  1
  Cu  Cu104  1  0.13536000  0.63536000  0.50000000  1
  Cu  Cu105  1  0.38536000  0.38536000  0.00000000  1
  Cu  Cu106  1  0.11464000  0.11464000  0.00000000  1
  Cu  Cu107  1  0.86464000  0.36464000  0.50000000  1
  Cu  Cu108  1  0.61464000  0.61464000  0.00000000  1
  Cu  Cu109  1  0.36464000  0.86464000  0.50000000  1
  Cu  Cu110  1  0.63536000  0.13536000  0.50000000  1
  Cu  Cu111  1  0.88536000  0.88536000  0.00000000  1
