# generated using pymatgen
data_Cu(NiC4)2
_symmetry_space_group_name_H-M   'P 1'
_cell_length_a   6.38703793
_cell_length_b   6.38703834
_cell_length_c   6.04762200
_cell_angle_alpha   61.74288000
_cell_angle_beta   61.74287804
_cell_angle_gamma   58.21698648
_symmetry_Int_Tables_number   1
_chemical_formula_structural   Cu(NiC4)2
_chemical_formula_sum   'Cu1 Ni2 C8'
_cell_volume   176.25719201
_cell_formula_units_Z   1
loop_
 _symmetry_equiv_pos_site_id
 _symmetry_equiv_pos_as_xyz
  1  'x, y, z'
loop_
 _atom_site_type_symbol
 _atom_site_label
 _atom_site_symmetry_multiplicity
 _atom_site_fract_x
 _atom_site_fract_y
 _atom_site_fract_z
 _atom_site_occupancy
  Ni  Ni0  1  0.68798500  0.68798500  0.81201500  1
  Ni  Ni1  1  0.31201500  0.31201500  0.18798500  1
  Cu  Cu2  1  0.00000000  0.00000000  0.00000000  1
  C  C3  1  0.00000000  0.00000000  0.50000000  1
  C  C4  1  0.50000000  0.50000000  0.50000000  1
  C  C5  1  0.24843800  0.75156200  0.72098700  1
  C  C6  1  0.24843800  0.75156200  0.27901300  1
  C  C7  1  0.75156200  0.24843800  0.72098700  1
  C  C8  1  0.26976400  0.26976400  0.73023600  1
  C  C9  1  0.75156200  0.24843800  0.27901300  1
  C  C10  1  0.73023600  0.73023600  0.26976400  1
