# generated using pymatgen
data_Cu2Ni2C33
_symmetry_space_group_name_H-M   'P 1'
_cell_length_a   17.76928872
_cell_length_b   8.88984017
_cell_length_c   22.81221747
_cell_angle_alpha   90.04606620
_cell_angle_beta   90.08077486
_cell_angle_gamma   120.05401202
_symmetry_Int_Tables_number   1
_chemical_formula_structural   Cu2Ni2C33
_chemical_formula_sum   'Cu12 Ni12 C198'
_cell_volume   3119.06490541
_cell_formula_units_Z   6
loop_
 _symmetry_equiv_pos_site_id
 _symmetry_equiv_pos_as_xyz
  1  'x, y, z'
loop_
 _atom_site_type_symbol
 _atom_site_label
 _atom_site_symmetry_multiplicity
 _atom_site_fract_x
 _atom_site_fract_y
 _atom_site_fract_z
 _atom_site_occupancy
  C  C0  1  0.00168020  0.62685247  0.25024711  1
  C  C1  1  0.50029198  0.62465714  0.24994197  1
  C  C2  1  0.00052975  0.36929875  0.74999758  1
  C  C3  1  0.50201676  0.37611931  0.75021886  1
  C  C4  1  0.33067178  0.96475367  0.58088309  1
  C  C5  1  0.83039069  0.69683557  0.08300253  1
  C  C6  1  0.99518711  0.98897618  0.49704485  1
  C  C7  1  0.50232848  0.99930716  0.49820958  1
  C  C8  1  0.00287598  0.00428723  0.00185594  1
  C  C9  1  0.49390562  0.99840418  0.00054992  1
  C  C10  1  0.32845755  0.34237863  0.82868415  1
  C  C11  1  0.82151526  0.32233675  0.82636112  1
  C  C12  1  0.32814811  0.32312602  0.32101488  1
  C  C13  1  0.82633498  0.31333965  0.32624900  1
  C  C14  1  0.17168670  0.67631972  0.16960331  1
  C  C15  1  0.66622183  0.67698091  0.17117238  1
  C  C16  1  0.17311020  0.65744667  0.66534438  1
  C  C17  1  0.66866727  0.66308459  0.66847836  1
  Ni  Ni18  1  0.33155182  0.34319637  0.68466495  1
  Ni  Ni19  1  0.82501448  0.32372364  0.68913738  1
  Ni  Ni20  1  0.33043217  0.32621378  0.19243380  1
  Ni  Ni21  1  0.83099015  0.31952518  0.18523325  1
  Ni  Ni22  1  0.17231206  0.67414868  0.02090306  1
  Ni  Ni23  1  0.66248426  0.66531584  0.01810606  1
  Ni  Ni24  1  0.16511746  0.66344885  0.51604882  1
  Ni  Ni25  1  0.66955589  0.66837076  0.51874660  1
  Ni  Ni26  1  0.16681196  0.67483281  0.31146242  1
  Ni  Ni27  1  0.67017970  0.67900122  0.31050026  1
  Ni  Ni28  1  0.17541270  0.66401267  0.81432478  1
  Ni  Ni29  1  0.66555636  0.65836637  0.81158383  1
  Cu  Cu30  1  0.00298517  0.99872737  0.35731030  1
  Cu  Cu31  1  0.50045758  0.00135208  0.34583469  1
  Cu  Cu32  1  0.00203974  0.01118255  0.85057900  1
  Cu  Cu33  1  0.50334280  0.00707545  0.85795548  1
  Cu  Cu34  1  0.99692370  0.00710180  0.64837363  1
  Cu  Cu35  1  0.50437323  0.00884663  0.64253920  1
  Cu  Cu36  1  0.00472024  0.00041521  0.14307078  1
  Cu  Cu37  1  0.49756153  0.99843829  0.15332263  1
  Cu  Cu38  1  0.33839922  0.34023442  0.97643353  1
  Cu  Cu39  1  0.83676039  0.33294625  0.98630289  1
  Cu  Cu40  1  0.34005179  0.34534509  0.48339157  1
  Cu  Cu41  1  0.83498730  0.33396696  0.47320848  1
  C  C42  1  0.14888235  0.00127392  0.25070562  1
  C  C43  1  0.65508064  0.00823746  0.24919512  1
  C  C44  1  0.34516628  0.69654620  0.25037098  1
  C  C45  1  0.50325874  0.30398239  0.24992737  1
  C  C46  1  0.15499856  0.30509513  0.74936761  1
  C  C47  1  0.64981490  0.29679364  0.75085105  1
  C  C48  1  0.84613814  0.99655166  0.75039482  1
  C  C49  1  0.48530529  0.35247895  0.58882955  1
  C  C50  1  0.32681104  0.62249267  0.58715722  1
  C  C51  1  0.98573895  0.61978429  0.08913473  1
  C  C52  1  0.82728322  0.02936848  0.08758128  1
  C  C53  1  0.30692014  0.66944161  0.91721349  1
  C  C54  1  0.52962366  0.39120945  0.91559506  1
  C  C55  1  0.80621083  0.93872191  0.41675013  1
  C  C56  1  0.03045995  0.66996657  0.41579414  1
  C  C57  1  0.85524223  0.71216250  0.24949988  1
  C  C58  1  0.99966970  0.28667179  0.25023603  1
  C  C59  1  0.00178649  0.71414145  0.74981601  1
  C  C60  1  0.49957519  0.71249408  0.75015376  1
  C  C61  1  0.35397064  0.99743695  0.74960816  1
  C  C62  1  0.97798868  0.33732171  0.58458499  1
  C  C63  1  0.18724648  0.04329804  0.58407892  1
  C  C64  1  0.69174585  0.04360515  0.58375617  1
  C  C65  1  0.83333066  0.62030526  0.58513259  1
  C  C66  1  0.47884625  0.62376398  0.08428645  1
  C  C67  1  0.33340861  0.04526931  0.08443273  1
  C  C68  1  0.19231902  0.33916550  0.08419702  1
  C  C69  1  0.68660646  0.33084379  0.08389967  1
  C  C70  1  0.81304742  0.66542688  0.91672506  1
  C  C71  1  0.02085901  0.37864579  0.91615140  1
  C  C72  1  0.16525571  0.95259651  0.91669572  1
  C  C73  1  0.66954929  0.95768732  0.91672740  1
  C  C74  1  0.31297806  0.95946741  0.41796238  1
  C  C75  1  0.16916671  0.38063184  0.41694088  1
  C  C76  1  0.66370410  0.37594511  0.41753196  1
  C  C77  1  0.52218179  0.66896086  0.41718566  1
  C  C78  1  0.09128598  0.02062589  0.30586677  1
  C  C79  1  0.59702512  0.02505897  0.30650442  1
  C  C80  1  0.41559663  0.80623170  0.30660036  1
  C  C81  1  0.91249896  0.80191507  0.30149026  1
  C  C82  1  0.48768692  0.16891296  0.30662878  1
  C  C83  1  0.98739486  0.17752952  0.30287024  1
  C  C84  1  0.09528121  0.16930808  0.80647852  1
  C  C85  1  0.59254022  0.16159465  0.80568395  1
  C  C86  1  0.48748726  0.79694310  0.80283736  1
  C  C87  1  0.98813385  0.79816439  0.80298176  1
  C  C88  1  0.41049900  0.02060041  0.80152214  1
  C  C89  1  0.91744518  0.02069153  0.80549371  1
  C  C90  1  0.39470600  0.97076087  0.69505566  1
  C  C91  1  0.90337566  0.97299626  0.69322108  1
  C  C92  1  0.08223869  0.18444802  0.69413369  1
  C  C93  1  0.58215688  0.18233050  0.69386929  1
  C  C94  1  0.01377638  0.82415784  0.69681401  1
  C  C95  1  0.50731818  0.81923945  0.69690929  1
  C  C96  1  0.40126843  0.83386963  0.19344390  1
  C  C97  1  0.89653175  0.81993291  0.19473764  1
  C  C98  1  0.00729284  0.19499033  0.19687178  1
  C  C99  1  0.51457004  0.19525934  0.19278635  1
  C  C100  1  0.08053464  0.97830996  0.19384166  1
  C  C101  1  0.58368141  0.97673169  0.19295524  1
  C  C102  1  0.43424354  0.35041162  0.64599393  1
  C  C103  1  0.93777578  0.35459230  0.63811395  1
  C  C104  1  0.24044988  0.12206940  0.63598642  1
  C  C105  1  0.74289329  0.12632363  0.63609698  1
  C  C106  1  0.31216790  0.50268602  0.64105558  1
  C  C107  1  0.82619863  0.51887090  0.63723224  1
  C  C108  1  0.43741673  0.52166068  0.13634612  1
  C  C109  1  0.93387273  0.51725612  0.14557399  1
  C  C110  1  0.32514016  0.13165547  0.13588887  1
  C  C111  1  0.81349052  0.12487213  0.14012795  1
  C  C112  1  0.24328401  0.35760492  0.13601492  1
  C  C113  1  0.74086047  0.35944956  0.13500327  1
  C  C114  1  0.22891842  0.30224016  0.03048343  1
  C  C115  1  0.73047415  0.30515371  0.02912571  1
  C  C116  1  0.42176591  0.53465272  0.03040935  1
  C  C117  1  0.91510322  0.52796346  0.02884343  1
  C  C118  1  0.34487599  0.15398525  0.03012879  1
  C  C119  1  0.84588098  0.16542757  0.02688169  1
  C  C120  1  0.22730210  0.15317397  0.53010719  1
  C  C121  1  0.72953117  0.15597529  0.53100954  1
  C  C122  1  0.34528521  0.52546435  0.52704593  1
  C  C123  1  0.84725268  0.54057034  0.53135203  1
  C  C124  1  0.41511032  0.30236516  0.52912269  1
  C  C125  1  0.92199309  0.30490358  0.53198920  1
  C  C126  1  0.27207942  0.70586980  0.97598736  1
  C  C127  1  0.77977713  0.69619392  0.97114769  1
  C  C128  1  0.07219733  0.45290014  0.96832414  1
  C  C129  1  0.58232201  0.46104918  0.97438272  1
  C  C130  1  0.14991792  0.85085692  0.96932783  1
  C  C131  1  0.65583401  0.85794638  0.96971855  1
  C  C132  1  0.27696115  0.86218746  0.47268322  1
  C  C133  1  0.77305999  0.83948285  0.47705337  1
  C  C134  1  0.15486586  0.45246870  0.47041110  1
  C  C135  1  0.65171410  0.45094008  0.47081479  1
  C  C136  1  0.08109911  0.70194265  0.47548557  1
  C  C137  1  0.57221240  0.68911310  0.46999354  1
  C  C138  1  0.05750914  0.62323184  0.35523489  1
  C  C139  1  0.55482968  0.63702500  0.36315952  1
  C  C140  1  0.26091172  0.87988802  0.36598105  1
  C  C141  1  0.75113318  0.87527470  0.35857076  1
  C  C142  1  0.18328392  0.48151377  0.36417267  1
  C  C143  1  0.67977061  0.47551554  0.36442498  1
  C  C144  1  0.05531638  0.47336004  0.86122317  1
  C  C145  1  0.55688059  0.49058260  0.85460031  1
  C  C146  1  0.17816550  0.87940442  0.86284906  1
  C  C147  1  0.68346011  0.88467041  0.86338015  1
  C  C148  1  0.25354458  0.62215154  0.85781243  1
  C  C149  1  0.76091799  0.64293730  0.86454525  1
  C  C150  1  0.00869197  0.83446629  0.40726440  1
  C  C151  1  0.50789326  0.82174855  0.41307561  1
  C  C152  1  0.40363587  0.98501003  0.41264270  1
  C  C153  1  0.90998678  0.99016104  0.40505320  1
  C  C154  1  0.08910673  0.19977204  0.41103830  1
  C  C155  1  0.58756788  0.19322057  0.41261025  1
  C  C156  1  0.00849431  0.19366540  0.91015275  1
  C  C157  1  0.50858199  0.18295841  0.90662027  1
  C  C158  1  0.08625570  0.97814115  0.90912205  1
  C  C159  1  0.58940055  0.97804968  0.91066822  1
  C  C160  1  0.40996654  0.82930963  0.90476051  1
  C  C161  1  0.90506364  0.82206868  0.90880104  1
  C  C162  1  0.48528523  0.15810650  0.59084171  1
  C  C163  1  0.98485266  0.16954018  0.58892430  1
  C  C164  1  0.09805717  0.02513247  0.58928913  1
  C  C165  1  0.60150936  0.02742282  0.58902270  1
  C  C166  1  0.41975891  0.81607672  0.59116824  1
  C  C167  1  0.91687196  0.80032162  0.59038423  1
  C  C168  1  0.48475250  0.79897235  0.08564327  1
  C  C169  1  0.98536977  0.81263025  0.09008720  1
  C  C170  1  0.41540216  0.03168655  0.08654678  1
  C  C171  1  0.92001513  0.02282895  0.09034140  1
  C  C172  1  0.10120978  0.17473459  0.08893882  1
  C  C173  1  0.59986274  0.16992432  0.08578809  1
  C  C174  1  0.35101553  0.15936179  0.74515476  1
  C  C175  1  0.85883635  0.18673973  0.74443745  1
  C  C176  1  0.24200735  0.29965649  0.74766761  1
  C  C177  1  0.74147074  0.30863589  0.74670906  1
  C  C178  1  0.42292137  0.53673885  0.74614730  1
  C  C179  1  0.92452398  0.54193692  0.74342861  1
  C  C180  1  0.35557089  0.53069134  0.24348938  1
  C  C181  1  0.85273060  0.54478269  0.24506975  1
  C  C182  1  0.41735208  0.31425847  0.24425863  1
  C  C183  1  0.92294358  0.30843671  0.24612651  1
  C  C184  1  0.23748830  0.17525355  0.24580396  1
  C  C185  1  0.74281627  0.18825753  0.24719164  1
  C  C186  1  0.32324507  0.49528126  0.93034766  1
  C  C187  1  0.82388121  0.50750253  0.92224067  1
  C  C188  1  0.42459399  0.34618044  0.92892520  1
  C  C189  1  0.92963039  0.35093696  0.92234161  1
  C  C190  1  0.24242112  0.13445941  0.92398237  1
  C  C191  1  0.74547117  0.14196946  0.92352930  1
  C  C192  1  0.32270302  0.13932058  0.42457378  1
  C  C193  1  0.82325724  0.14895100  0.43006137  1
  C  C194  1  0.24489456  0.34833999  0.42482011  1
  C  C195  1  0.74372900  0.35139299  0.42588212  1
  C  C196  1  0.42965918  0.50612842  0.42451838  1
  C  C197  1  0.92500876  0.50303845  0.42978105  1
  C  C198  1  0.17774461  0.48500312  0.07629636  1
  C  C199  1  0.67946716  0.48618684  0.07453486  1
  C  C200  1  0.07839907  0.64823883  0.07407997  1
  C  C201  1  0.56498691  0.64503110  0.07575324  1
  C  C202  1  0.25763129  0.87216639  0.07748294  1
  C  C203  1  0.75155608  0.83523326  0.07349237  1
  C  C204  1  0.17800701  0.87068348  0.57612120  1
  C  C205  1  0.67808720  0.86980009  0.57638164  1
  C  C206  1  0.25111297  0.66716685  0.57438682  1
  C  C207  1  0.75917341  0.64605026  0.57898743  1
  C  C208  1  0.06557573  0.48321057  0.57732142  1
  C  C209  1  0.57912889  0.50854166  0.57523258  1
  C  C210  1  0.14308070  0.81672837  0.25254383  1
  C  C211  1  0.64717520  0.82213949  0.25230905  1
  C  C212  1  0.25576994  0.69069851  0.25610186  1
  C  C213  1  0.77029108  0.69523753  0.25491583  1
  C  C214  1  0.07927106  0.45548849  0.25382508  1
  C  C215  1  0.59092623  0.48434523  0.25650596  1
  C  C216  1  0.14381488  0.47324605  0.75197582  1
  C  C217  1  0.64459937  0.47049917  0.75242884  1
  C  C218  1  0.08007877  0.70012797  0.75680872  1
  C  C219  1  0.57935758  0.70282856  0.75360737  1
  C  C220  1  0.26730225  0.84452750  0.75474276  1
  C  C221  1  0.75677443  0.82477024  0.75594403  1
