# generated using pymatgen
data_Cu4NiC4
_symmetry_space_group_name_H-M   'P 1'
_cell_length_a   10.68837479
_cell_length_b   10.68837479
_cell_length_c   10.68837479
_cell_angle_alpha   129.43681824
_cell_angle_beta   129.43681824
_cell_angle_gamma   74.30872282
_symmetry_Int_Tables_number   1
_chemical_formula_structural   Cu4NiC4
_chemical_formula_sum   'Cu8 Ni2 C8'
_cell_volume   709.98999259
_cell_formula_units_Z   2
loop_
 _symmetry_equiv_pos_site_id
 _symmetry_equiv_pos_as_xyz
  1  'x, y, z'
loop_
 _atom_site_type_symbol
 _atom_site_label
 _atom_site_symmetry_multiplicity
 _atom_site_fract_x
 _atom_site_fract_y
 _atom_site_fract_z
 _atom_site_occupancy
  Ni  Ni0  1  0.00000000  0.00000000  0.00000000  1
  Ni  Ni1  1  0.50000000  0.50000000  0.00000000  1
  Cu  Cu2  1  0.49987400  0.99987400  0.80998600  1
  Cu  Cu3  1  0.99987400  0.18988800  0.50000000  1
  Cu  Cu4  1  0.18988800  0.68988800  0.19001400  1
  Cu  Cu5  1  0.50012600  0.00012600  0.19001400  1
  Cu  Cu6  1  0.68988800  0.49987400  0.50000000  1
  Cu  Cu7  1  0.81011200  0.31011200  0.80998600  1
  Cu  Cu8  1  0.31011200  0.50012600  0.50000000  1
  Cu  Cu9  1  0.00012600  0.81011200  0.50000000  1
  C  C10  1  0.37955700  0.12044300  0.50000000  1
  C  C11  1  0.87955700  0.37955700  0.25911400  1
  C  C12  1  0.25000000  0.25000000  0.00000000  1
  C  C13  1  0.75000000  0.75000000  0.00000000  1
  C  C14  1  0.12044300  0.62044300  0.74088600  1
  C  C15  1  0.62044300  0.87955700  0.50000000  1
  C  C16  1  0.25000000  0.75000000  0.50000000  1
  C  C17  1  0.75000000  0.25000000  0.50000000  1
