# generated using pymatgen
data_Cu3NiC
_symmetry_space_group_name_H-M   'P 1'
_cell_length_a   4.70948218
_cell_length_b   4.70955201
_cell_length_c   5.72068623
_cell_angle_alpha   114.30473954
_cell_angle_beta   90.00030195
_cell_angle_gamma   60.00408288
_symmetry_Int_Tables_number   1
_chemical_formula_structural   Cu3NiC
_chemical_formula_sum   'Cu6 Ni2 C2'
_cell_volume   96.68542241
_cell_formula_units_Z   2
loop_
 _symmetry_equiv_pos_site_id
 _symmetry_equiv_pos_as_xyz
  1  'x, y, z'
loop_
 _atom_site_type_symbol
 _atom_site_label
 _atom_site_symmetry_multiplicity
 _atom_site_fract_x
 _atom_site_fract_y
 _atom_site_fract_z
 _atom_site_occupancy
  C  C0  1  0.00000000  0.00000000  0.00000000  1
  C  C1  1  0.50000000  0.00000000  0.50000000  1
  Ni  Ni2  1  0.74998900  0.50003400  0.75004600  1
  Ni  Ni3  1  0.25001100  0.49996600  0.24995400  1
  Cu  Cu4  1  0.75002300  0.22435500  0.75002900  1
  Cu  Cu5  1  0.24997700  0.77564500  0.24997100  1
  Cu  Cu6  1  0.02561800  0.50006300  0.75005100  1
  Cu  Cu7  1  0.47435000  0.77565300  0.75003500  1
  Cu  Cu8  1  0.97438200  0.49993700  0.24994900  1
  Cu  Cu9  1  0.52565000  0.22434700  0.24996500  1
