# generated using pymatgen
data_Cu2Ni2C9
_symmetry_space_group_name_H-M   'P 1'
_cell_length_a   5.13912302
_cell_length_b   7.71269469
_cell_length_c   8.46151300
_cell_angle_alpha   90.00019295
_cell_angle_beta   90.00012811
_cell_angle_gamma   99.66122586
_symmetry_Int_Tables_number   1
_chemical_formula_structural   Cu2Ni2C9
_chemical_formula_sum   'Cu4 Ni4 C18'
_cell_volume   330.62797746
_cell_formula_units_Z   2
loop_
 _symmetry_equiv_pos_site_id
 _symmetry_equiv_pos_as_xyz
  1  'x, y, z'
loop_
 _atom_site_type_symbol
 _atom_site_label
 _atom_site_symmetry_multiplicity
 _atom_site_fract_x
 _atom_site_fract_y
 _atom_site_fract_z
 _atom_site_occupancy
  C  C0  1  0.00006600  0.00009600  0.00005000  1
  C  C1  1  0.50028600  0.50011800  0.49989300  1
  Ni  Ni2  1  0.22049800  0.65632600  0.01809300  1
  Ni  Ni3  1  0.27948700  0.84366400  0.51808600  1
  Ni  Ni4  1  0.77949000  0.34366400  0.98192000  1
  Ni  Ni5  1  0.72049900  0.15632800  0.48191200  1
  Cu  Cu6  1  0.43947300  0.77773900  0.82189400  1
  Cu  Cu7  1  0.06046600  0.72223700  0.32190500  1
  Cu  Cu8  1  0.56049600  0.22223800  0.17810800  1
  Cu  Cu9  1  0.93945100  0.27774300  0.67810800  1
  C  C10  1  0.28587600  0.61525300  0.91496200  1
  C  C11  1  0.21410900  0.88473800  0.41496100  1
  C  C12  1  0.78587600  0.11525100  0.58504200  1
  C  C13  1  0.71411700  0.38474100  0.08504300  1
  C  C14  1  0.80627600  0.42912800  0.65153200  1
  C  C15  1  0.69370400  0.07086900  0.15154600  1
  C  C16  1  0.19367600  0.57087500  0.34844800  1
  C  C17  1  0.30630400  0.92912000  0.84845500  1
  C  C18  1  0.21366200  0.30689000  0.62479900  1
  C  C19  1  0.28626900  0.19306600  0.12477600  1
  C  C20  1  0.78624000  0.69304800  0.37524100  1
  C  C21  1  0.71369200  0.80690700  0.87521600  1
  C  C22  1  0.91579600  0.21960000  0.84481200  1
  C  C23  1  0.58420000  0.28038300  0.34480700  1
  C  C24  1  0.08420300  0.78037800  0.15519700  1
  C  C25  1  0.41578700  0.71960000  0.65519600  1
