# generated using pymatgen
data_CuNiC15
_symmetry_space_group_name_H-M   'P 1'
_cell_length_a   8.75293290
_cell_length_b   8.75549064
_cell_length_c   22.54978381
_cell_angle_alpha   90.45287273
_cell_angle_beta   89.97722232
_cell_angle_gamma   119.97381243
_symmetry_Int_Tables_number   1
_chemical_formula_structural   CuNiC15
_chemical_formula_sum   'Cu6 Ni6 C90'
_cell_volume   1496.94011931
_cell_formula_units_Z   6
loop_
 _symmetry_equiv_pos_site_id
 _symmetry_equiv_pos_as_xyz
  1  'x, y, z'
loop_
 _atom_site_type_symbol
 _atom_site_label
 _atom_site_symmetry_multiplicity
 _atom_site_fract_x
 _atom_site_fract_y
 _atom_site_fract_z
 _atom_site_occupancy
  Ni  Ni0  1  0.00229043  0.00090815  0.85480788  1
  Ni  Ni1  1  0.67018830  0.33748488  0.19327319  1
  Ni  Ni2  1  0.65937980  0.33785091  0.97814631  1
  Ni  Ni3  1  0.33420017  0.67065907  0.02444386  1
  Ni  Ni4  1  0.33722757  0.66915411  0.52376726  1
  Ni  Ni5  1  0.34527184  0.67168584  0.80678018  1
  Cu  Cu6  1  0.99869943  0.00465564  0.35664228  1
  Cu  Cu7  1  0.98959445  0.00728733  0.64179959  1
  Cu  Cu8  1  0.01760271  0.00595092  0.14581953  1
  Cu  Cu9  1  0.66360042  0.33500511  0.68835043  1
  Cu  Cu10  1  0.68585654  0.34096330  0.47639821  1
  Cu  Cu11  1  0.32224839  0.67367087  0.31095293  1
  C  C12  1  0.27965840  0.99719133  0.25221303  1
  C  C13  1  0.00889722  0.28445803  0.25172032  1
  C  C14  1  0.28527746  0.28015455  0.74633975  1
  C  C15  1  0.71860533  0.01050328  0.74691043  1
  C  C16  1  0.94690481  0.33253390  0.58406279  1
  C  C17  1  0.67422067  0.61625651  0.58384212  1
  C  C18  1  0.95233721  0.62659338  0.08577722  1
  C  C19  1  0.37534570  0.33000966  0.08583447  1
  C  C20  1  0.62124112  0.66903593  0.91633804  1
  C  C21  1  0.33387574  0.95269827  0.91618038  1
  C  C22  1  0.61842677  0.95428423  0.41538712  1
  C  C23  1  0.04706389  0.67130050  0.41590558  1
  C  C24  1  0.71235450  0.72255854  0.25154441  1
  C  C25  1  0.99524369  0.70999563  0.74664696  1
  C  C26  1  0.37987358  0.05428559  0.58349002  1
  C  C27  1  0.67661783  0.04823198  0.08524292  1
  C  C28  1  0.04569033  0.38082970  0.91612012  1
  C  C29  1  0.33650709  0.37839534  0.41541723  1
  C  C30  1  0.18951120  0.02392280  0.30612744  1
  C  C31  1  0.82517925  0.80163223  0.30456299  1
  C  C32  1  0.97841990  0.16693859  0.30629114  1
  C  C33  1  0.20796947  0.16827841  0.80222884  1
  C  C34  1  0.96447721  0.78758786  0.80126298  1
  C  C35  1  0.83149925  0.04049910  0.80247056  1
  C  C36  1  0.80794643  0.97674190  0.69264923  1
  C  C37  1  0.16524933  0.18572597  0.69230762  1
  C  C38  1  0.02646063  0.82180973  0.69534755  1
  C  C39  1  0.79091785  0.82745875  0.19812681  1
  C  C40  1  0.03522971  0.19517191  0.19641791  1
  C  C41  1  0.16505881  0.96369678  0.19571292  1
  C  C42  1  0.85769166  0.35896690  0.63820958  1
  C  C43  1  0.49148529  0.13219760  0.63706891  1
  C  C44  1  0.64332258  0.49983171  0.63864204  1
  C  C45  1  0.86593998  0.50784729  0.13960542  1
  C  C46  1  0.64341238  0.13012181  0.13750393  1
  C  C47  1  0.49270924  0.35887857  0.13976784  1
  C  C48  1  0.45553100  0.29374804  0.03018717  1
  C  C49  1  0.83772375  0.54103108  0.03017871  1
  C  C50  1  0.70383374  0.15545986  0.03182876  1
  C  C51  1  0.45956431  0.16121256  0.53055777  1
  C  C52  1  0.70075454  0.52608075  0.52844086  1
  C  C53  1  0.83095031  0.29932329  0.52767478  1
  C  C54  1  0.53435034  0.69507713  0.97150184  1
  C  C55  1  0.15472456  0.46111843  0.96956571  1
  C  C56  1  0.30391141  0.83865250  0.97120679  1
  C  C57  1  0.53942328  0.83802461  0.47035682  1
  C  C58  1  0.30082744  0.45657496  0.46906090  1
  C  C59  1  0.16320619  0.70264872  0.47054878  1
  C  C60  1  0.13313892  0.63483988  0.36105773  1
  C  C61  1  0.49685641  0.86223569  0.36114160  1
  C  C62  1  0.36622649  0.48973691  0.36345824  1
  C  C63  1  0.12520438  0.48761376  0.86317139  1
  C  C64  1  0.35711408  0.86268519  0.86079153  1
  C  C65  1  0.50467414  0.63679282  0.86115933  1
  C  C66  1  0.02084377  0.82866819  0.40342981  1
  C  C67  1  0.80333926  0.97876122  0.40265516  1
  C  C68  1  0.17681142  0.20053882  0.40723224  1
  C  C69  1  0.02855412  0.20505882  0.90926626  1
  C  C70  1  0.17265668  0.97567674  0.90761270  1
  C  C71  1  0.80215213  0.83179907  0.90665475  1
  C  C72  1  0.96454394  0.16558268  0.59287053  1
  C  C73  1  0.20266363  0.03081525  0.59265807  1
  C  C74  1  0.83901758  0.79888226  0.59520407  1
  C  C75  1  0.96862741  0.80857232  0.09726140  1
  C  C76  1  0.83001387  0.02644437  0.09432122  1
  C  C77  1  0.19125062  0.16455970  0.09559683  1
  C  C78  1  0.69650617  0.17097705  0.73574132  1
  C  C79  1  0.47018254  0.30380203  0.73501112  1
  C  C80  1  0.83725371  0.53318298  0.73980947  1
  C  C81  1  0.69489671  0.54417880  0.24474890  1
  C  C82  1  0.84591804  0.30497080  0.24271594  1
  C  C83  1  0.46299232  0.15716848  0.24285494  1
  C  C84  1  0.64162964  0.50569731  0.92397063  1
  C  C85  1  0.86926542  0.35871228  0.92482167  1
  C  C86  1  0.50019465  0.13296311  0.92528958  1
  C  C87  1  0.63883076  0.13831391  0.42738397  1
  C  C88  1  0.49077086  0.35622148  0.42572783  1
  C  C89  1  0.86288103  0.50387387  0.42614610  1
  C  C90  1  0.35173384  0.48924924  0.07569296  1
  C  C91  1  0.13655293  0.65046664  0.07632945  1
  C  C92  1  0.51698937  0.87197364  0.07795269  1
  C  C93  1  0.36265546  0.87627064  0.57637328  1
  C  C94  1  0.51173277  0.63766115  0.57439915  1
  C  C95  1  0.12977222  0.49307399  0.57432947  1
  C  C96  1  0.29704955  0.83008593  0.26133470  1
  C  C97  1  0.53505087  0.69894896  0.26052644  1
  C  C98  1  0.17375393  0.46726561  0.26324561  1
  C  C99  1  0.30229690  0.46225711  0.75487398  1
  C  C100  1  0.15050758  0.68778977  0.75580512  1
  C  C101  1  0.53531149  0.84477918  0.75380563  1
