# generated using pymatgen
data_CuNiC15
_symmetry_space_group_name_H-M   'P 1'
_cell_length_a   8.52598745
_cell_length_b   8.52598718
_cell_length_c   21.90156560
_cell_angle_alpha   90.00000000
_cell_angle_beta   90.00000000
_cell_angle_gamma   120.00000099
_symmetry_Int_Tables_number   1
_chemical_formula_structural   CuNiC15
_chemical_formula_sum   'Cu6 Ni6 C90'
_cell_volume   1378.78056396
_cell_formula_units_Z   6
loop_
 _symmetry_equiv_pos_site_id
 _symmetry_equiv_pos_as_xyz
  1  'x, y, z'
loop_
 _atom_site_type_symbol
 _atom_site_label
 _atom_site_symmetry_multiplicity
 _atom_site_fract_x
 _atom_site_fract_y
 _atom_site_fract_z
 _atom_site_occupancy
  Ni  Ni0  1  0.00000000  -0.00000000  0.35578557  1
  Ni  Ni1  1  0.00000000  -0.00000000  0.85578557  1
  Ni  Ni2  1  0.66666700  0.33333300  0.68911857  1
  Ni  Ni3  1  0.66666700  0.33333300  0.18911857  1
  Ni  Ni4  1  0.33333300  0.66666700  0.02245257  1
  Ni  Ni5  1  0.33333300  0.66666700  0.52245257  1
  Cu  Cu6  1  0.00000000  -0.00000000  0.64875933  1
  Cu  Cu7  1  0.00000000  -0.00000000  0.14875933  1
  Cu  Cu8  1  0.66666700  0.33333300  0.98209233  1
  Cu  Cu9  1  0.66666700  0.33333300  0.48209233  1
  Cu  Cu10  1  0.33333300  0.66666700  0.31542633  1
  Cu  Cu11  1  0.33333300  0.66666700  0.81542633  1
  C  C12  1  0.28659875  0.98889334  0.25124704  1
  C  C13  1  0.70229458  0.71340125  0.25124704  1
  C  C14  1  0.01110666  0.29770542  0.25124704  1
  C  C15  1  0.28659875  0.29770542  0.75124704  1
  C  C16  1  0.01110666  0.71340125  0.75124704  1
  C  C17  1  0.70229458  0.98889334  0.75124704  1
  C  C18  1  0.95326575  0.32222634  0.58458004  1
  C  C19  1  0.36896158  0.04673425  0.58458004  1
  C  C20  1  0.67777366  0.63103842  0.58458004  1
  C  C21  1  0.95326575  0.63103842  0.08458004  1
  C  C22  1  0.67777366  0.04673425  0.08458004  1
  C  C23  1  0.36896158  0.32222634  0.08458004  1
  C  C24  1  0.61993175  0.65556034  0.91791404  1
  C  C25  1  0.03562758  0.38006825  0.91791404  1
  C  C26  1  0.34443966  0.96437242  0.91791404  1
  C  C27  1  0.61993175  0.96437242  0.41791404  1
  C  C28  1  0.34443966  0.38006825  0.41791404  1
  C  C29  1  0.03562758  0.65556034  0.41791404  1
  C  C30  1  0.20543517  0.01844537  0.30466196  1
  C  C31  1  0.81301020  0.79456483  0.30466196  1
  C  C32  1  0.98155463  0.18698980  0.30466196  1
  C  C33  1  0.20543517  0.18698980  0.80466196  1
  C  C34  1  0.98155463  0.79456483  0.80466196  1
  C  C35  1  0.81301020  0.01844537  0.80466196  1
  C  C36  1  0.78170720  0.94751709  0.69411258  1
  C  C37  1  0.16580989  0.21829280  0.69411258  1
  C  C38  1  0.05248291  0.83419011  0.69411258  1
  C  C39  1  0.78170720  0.83419011  0.19411258  1
  C  C40  1  0.05248291  0.21829280  0.19411258  1
  C  C41  1  0.16580989  0.94751709  0.19411258  1
  C  C42  1  0.87210217  0.35177837  0.63799496  1
  C  C43  1  0.47967720  0.12789783  0.63799496  1
  C  C44  1  0.64822163  0.52032280  0.63799496  1
  C  C45  1  0.87210217  0.52032280  0.13799496  1
  C  C46  1  0.64822163  0.12789783  0.13799496  1
  C  C47  1  0.47967720  0.35177837  0.13799496  1
  C  C48  1  0.44837420  0.28085009  0.02744558  1
  C  C49  1  0.83247689  0.55162580  0.02744558  1
  C  C50  1  0.71914991  0.16752311  0.02744558  1
  C  C51  1  0.44837420  0.16752311  0.52744558  1
  C  C52  1  0.71914991  0.55162580  0.52744558  1
  C  C53  1  0.83247689  0.28085009  0.52744558  1
  C  C54  1  0.53876817  0.68511237  0.97132896  1
  C  C55  1  0.14634320  0.46123183  0.97132896  1
  C  C56  1  0.31488763  0.85365680  0.97132896  1
  C  C57  1  0.53876817  0.85365680  0.47132896  1
  C  C58  1  0.31488763  0.46123183  0.47132896  1
  C  C59  1  0.14634320  0.68511237  0.47132896  1
  C  C60  1  0.11504020  0.61418409  0.36077958  1
  C  C61  1  0.49914289  0.88495980  0.36077958  1
  C  C62  1  0.38581591  0.50085711  0.36077958  1
  C  C63  1  0.11504020  0.50085711  0.86077958  1
  C  C64  1  0.38581591  0.88495980  0.86077958  1
  C  C65  1  0.49914289  0.61418409  0.86077958  1
  C  C66  1  0.00893908  0.80835771  0.40808638  1
  C  C67  1  0.79941863  0.99106092  0.40808638  1
  C  C68  1  0.19164229  0.20058137  0.40808638  1
  C  C69  1  0.00893908  0.20058137  0.90808638  1
  C  C70  1  0.19164229  0.99106092  0.90808638  1
  C  C71  1  0.79941863  0.80835771  0.90808638  1
  C  C72  1  0.96228152  0.14934425  0.59037707  1
  C  C73  1  0.18706273  0.03771848  0.59037707  1
  C  C74  1  0.85065575  0.81293727  0.59037707  1
  C  C75  1  0.96228152  0.81293727  0.09037707  1
  C  C76  1  0.85065575  0.03771848  0.09037707  1
  C  C77  1  0.18706273  0.14934425  0.09037707  1
  C  C78  1  0.67560608  0.14169071  0.74141938  1
  C  C79  1  0.46608563  0.32439392  0.74141938  1
  C  C80  1  0.85830929  0.53391437  0.74141938  1
  C  C81  1  0.67560608  0.53391437  0.24141938  1
  C  C82  1  0.85830929  0.32439392  0.24141938  1
  C  C83  1  0.46608563  0.14169071  0.24141938  1
  C  C84  1  0.62894852  0.48267725  0.92371007  1
  C  C85  1  0.85372973  0.37105148  0.92371007  1
  C  C86  1  0.51732275  0.14627027  0.92371007  1
  C  C87  1  0.62894852  0.14627027  0.42371007  1
  C  C88  1  0.51732275  0.37105148  0.42371007  1
  C  C89  1  0.85372973  0.48267725  0.42371007  1
  C  C90  1  0.34227208  0.47502471  0.07475338  1
  C  C91  1  0.13275163  0.65772792  0.07475338  1
  C  C92  1  0.52497529  0.86724837  0.07475338  1
  C  C93  1  0.34227208  0.86724837  0.57475338  1
  C  C94  1  0.52497529  0.65772792  0.57475338  1
  C  C95  1  0.13275163  0.47502471  0.57475338  1
  C  C96  1  0.29561452  0.81601125  0.25704407  1
  C  C97  1  0.52039573  0.70438548  0.25704407  1
  C  C98  1  0.18398875  0.47960427  0.25704407  1
  C  C99  1  0.29561452  0.47960427  0.75704407  1
  C  C100  1  0.18398875  0.70438548  0.75704407  1
  C  C101  1  0.52039573  0.81601125  0.75704407  1
