# generated using pymatgen
data_Cu2Ni2C9
_symmetry_space_group_name_H-M   'P 1'
_cell_length_a   3.33961700
_cell_length_b   3.33946696
_cell_length_c   44.76164096
_cell_angle_alpha   90.03660195
_cell_angle_beta   89.99999745
_cell_angle_gamma   120.00145915
_symmetry_Int_Tables_number   1
_chemical_formula_structural   Cu2Ni2C9
_chemical_formula_sum   'Cu2 Ni2 C9'
_cell_volume   432.31862078
_cell_formula_units_Z   1
loop_
 _symmetry_equiv_pos_site_id
 _symmetry_equiv_pos_as_xyz
  1  'x, y, z'
loop_
 _atom_site_type_symbol
 _atom_site_label
 _atom_site_symmetry_multiplicity
 _atom_site_fract_x
 _atom_site_fract_y
 _atom_site_fract_z
 _atom_site_occupancy
  C  C0  1  0.99998100  0.99996300  0.37415600  1
  C  C1  1  0.33357000  0.66714000  0.70047500  1
  C  C2  1  0.33320900  0.66642000  0.61512300  1
  Ni  Ni3  1  0.33330000  0.66659800  0.09373100  1
  Ni  Ni4  1  0.66677800  0.33356000  0.27569800  1
  Cu  Cu5  1  0.33338400  0.66676600  0.47750200  1
  Cu  Cu6  1  0.66673300  0.33346800  0.65780500  1
  C  C7  1  0.33362100  0.66724300  0.31361600  1
  C  C8  1  0.66644400  0.33288500  0.05643700  1
  C  C9  1  0.66683400  0.33366600  0.13100900  1
  C  C10  1  0.33316000  0.66632100  0.23859600  1
  C  C11  1  0.66632100  0.33264100  0.44334200  1
  C  C12  1  0.66666500  0.33333000  0.51146700  1
