# generated using pymatgen
data_Cu4Ni7C59
_symmetry_space_group_name_H-M   'P 1'
_cell_length_a   17.49017602
_cell_length_b   8.67387282
_cell_length_c   22.40472510
_cell_angle_alpha   90.59700269
_cell_angle_beta   89.75407352
_cell_angle_gamma   119.97015704
_symmetry_Int_Tables_number   1
_chemical_formula_structural   Cu4Ni7C59
_chemical_formula_sum   'Cu12 Ni21 C177'
_cell_volume   2944.31441916
_cell_formula_units_Z   3
loop_
 _symmetry_equiv_pos_site_id
 _symmetry_equiv_pos_as_xyz
  1  'x, y, z'
loop_
 _atom_site_type_symbol
 _atom_site_label
 _atom_site_symmetry_multiplicity
 _atom_site_fract_x
 _atom_site_fract_y
 _atom_site_fract_z
 _atom_site_occupancy
  C  C0  1  0.99760682  0.00592852  0.49779804  1
  C  C1  1  0.49679412  0.98803780  0.00267631  1
  C  C2  1  0.32854580  0.33385438  0.83918758  1
  C  C3  1  0.82715851  0.33025807  0.83872633  1
  C  C4  1  0.33046747  0.32400533  0.33658899  1
  C  C5  1  0.82636409  0.32060527  0.33821859  1
  C  C6  1  0.50414716  0.01955873  0.35990361  1
  C  C7  1  0.00539921  0.99878618  0.86174322  1
  C  C8  1  0.50107506  0.01835873  0.64081101  1
  C  C9  1  0.00195924  0.98615781  0.14115595  1
  C  C10  1  0.33161535  0.34091488  0.68831408  1
  C  C11  1  0.83258845  0.34454663  0.68966129  1
  C  C12  1  0.33733497  0.32207723  0.19303822  1
  C  C13  1  0.83181590  0.32330772  0.18950208  1
  C  C14  1  0.17538221  0.68755963  0.02508425  1
  C  C15  1  0.66742926  0.68318364  0.02521746  1
  C  C16  1  0.16853488  0.65374861  0.52393330  1
  C  C17  1  0.67509952  0.66259389  0.52324511  1
  Ni  Ni18  1  0.13958913  0.98622859  0.25612694  1
  Ni  Ni19  1  0.63772145  0.98385568  0.24944651  1
  Ni  Ni20  1  0.51074751  0.29535868  0.24940649  1
  Ni  Ni21  1  0.13833726  0.29340528  0.74973694  1
  Ni  Ni22  1  0.63975619  0.29293261  0.75662644  1
  Ni  Ni23  1  0.47278485  0.34424625  0.57820657  1
  Ni  Ni24  1  0.97144233  0.32925807  0.58080064  1
  Ni  Ni25  1  0.33699441  0.61812249  0.57933805  1
  Ni  Ni26  1  0.84412672  0.63095845  0.58185062  1
  Ni  Ni27  1  0.47088669  0.62181806  0.08328258  1
  Ni  Ni28  1  0.97222843  0.60079008  0.07879427  1
  Ni  Ni29  1  0.34562576  0.06263716  0.08146439  1
  Ni  Ni30  1  0.83871157  0.05782433  0.07925317  1
  Ni  Ni31  1  0.31637868  0.66560117  0.91546093  1
  Ni  Ni32  1  0.80744049  0.65290455  0.91805447  1
  Ni  Ni33  1  0.17783182  0.95705307  0.91454059  1
  Ni  Ni34  1  0.66956026  0.95661668  0.91331027  1
  Ni  Ni35  1  0.30885804  0.96120296  0.41801501  1
  Ni  Ni36  1  0.81252159  0.95889150  0.41227614  1
  Ni  Ni37  1  0.16993594  0.38094696  0.41181126  1
  Ni  Ni38  1  0.67819536  0.39370014  0.41393812  1
  Cu  Cu39  1  0.00507610  0.01620608  0.35747512  1
  Cu  Cu40  1  0.50728050  0.99566639  0.85899302  1
  Cu  Cu41  1  0.99893231  0.02165312  0.64230093  1
  Cu  Cu42  1  0.50146001  0.99854602  0.14740893  1
  Cu  Cu43  1  0.33714340  0.33898771  0.97954329  1
  Cu  Cu44  1  0.82989457  0.33049258  0.97835740  1
  Cu  Cu45  1  0.33588730  0.33883001  0.47483449  1
  Cu  Cu46  1  0.83919595  0.33938105  0.47610252  1
  Cu  Cu47  1  0.17796077  0.68875229  0.31580519  1
  Cu  Cu48  1  0.66885858  0.67166889  0.31113757  1
  Cu  Cu49  1  0.17839986  0.66153503  0.81684262  1
  Cu  Cu50  1  0.67512642  0.66140346  0.81821796  1
  C  C51  1  0.35257934  0.71493931  0.25038946  1
  C  C52  1  0.85658618  0.71844733  0.25251143  1
  C  C53  1  0.00395307  0.29258326  0.25292483  1
  C  C54  1  0.00596672  0.71820677  0.74974022  1
  C  C55  1  0.50422080  0.71620523  0.75251910  1
  C  C56  1  0.35478210  0.99405442  0.75308017  1
  C  C57  1  0.85383198  0.99177969  0.75028740  1
  C  C58  1  0.18576050  0.04772439  0.58275736  1
  C  C59  1  0.69121399  0.05244313  0.58199491  1
  C  C60  1  0.19179246  0.33184498  0.08244090  1
  C  C61  1  0.68766803  0.32717936  0.08220386  1
  C  C62  1  0.02243536  0.38664448  0.91526404  1
  C  C63  1  0.52169943  0.37580813  0.91499917  1
  C  C64  1  0.02228372  0.66799573  0.41541859  1
  C  C65  1  0.52250230  0.66167370  0.41612692  1
  C  C66  1  0.09084791  0.02553657  0.31155884  1
  C  C67  1  0.59299948  0.02122766  0.30779003  1
  C  C68  1  0.40755703  0.78999442  0.30361531  1
  C  C69  1  0.91318684  0.79731297  0.30502478  1
  C  C70  1  0.48446121  0.16653776  0.30819790  1
  C  C71  1  0.98201895  0.17695078  0.30620927  1
  C  C72  1  0.09263798  0.16576269  0.80723560  1
  C  C73  1  0.59187449  0.15699993  0.81148331  1
  C  C74  1  0.48219463  0.78902553  0.80652758  1
  C  C75  1  0.98549692  0.79372053  0.80395003  1
  C  C76  1  0.41054773  0.02676122  0.80541019  1
  C  C77  1  0.91018063  0.02426340  0.80239806  1
  C  C78  1  0.39553547  0.96861221  0.69747740  1
  C  C79  1  0.89322368  0.96395016  0.69422091  1
  C  C80  1  0.07827535  0.19307816  0.69046330  1
  C  C81  1  0.58133369  0.19654846  0.69560745  1
  C  C82  1  0.01378235  0.81969980  0.69637673  1
  C  C83  1  0.51272447  0.81944962  0.69891666  1
  C  C84  1  0.39135513  0.81915032  0.19557208  1
  C  C85  1  0.89836379  0.82407401  0.19717097  1
  C  C86  1  0.01274952  0.20576172  0.19856878  1
  C  C87  1  0.51766289  0.19390343  0.19022923  1
  C  C88  1  0.08033133  0.96429585  0.19516323  1
  C  C89  1  0.57988898  0.96145087  0.18984260  1
  C  C90  1  0.42607460  0.35776633  0.64061289  1
  C  C91  1  0.92421290  0.35088450  0.64193496  1
  C  C92  1  0.24140806  0.12762366  0.63786490  1
  C  C93  1  0.74379950  0.13009792  0.63749019  1
  C  C94  1  0.31759091  0.49708965  0.64033394  1
  C  C95  1  0.82026796  0.50453677  0.64225436  1
  C  C96  1  0.42423451  0.49931705  0.14180328  1
  C  C97  1  0.92670251  0.49535057  0.14016002  1
  C  C98  1  0.31943720  0.13635293  0.14126458  1
  C  C99  1  0.81763183  0.13868367  0.14006833  1
  C  C100  1  0.24416794  0.36323675  0.13635492  1
  C  C101  1  0.74315011  0.35937823  0.13612624  1
  C  C102  1  0.22720440  0.29340082  0.02802579  1
  C  C103  1  0.72689075  0.29497921  0.02754972  1
  C  C104  1  0.40994394  0.53476508  0.02367825  1
  C  C105  1  0.90884365  0.52258900  0.02154528  1
  C  C106  1  0.35412242  0.17865444  0.02292252  1
  C  C107  1  0.85061111  0.17589499  0.02160540  1
  C  C108  1  0.22425984  0.15778885  0.52988654  1
  C  C109  1  0.72770990  0.16109638  0.52934880  1
  C  C110  1  0.35059165  0.52496381  0.52202001  1
  C  C111  1  0.85607636  0.53323502  0.52414226  1
  C  C112  1  0.40803932  0.29423667  0.52237954  1
  C  C113  1  0.90866949  0.28920954  0.52329202  1
  C  C114  1  0.26803455  0.69791035  0.97310811  1
  C  C115  1  0.76065310  0.68633601  0.97487009  1
  C  C116  1  0.07638679  0.45903764  0.96864276  1
  C  C117  1  0.57520525  0.45282930  0.96869594  1
  C  C118  1  0.15425350  0.83363529  0.97317217  1
  C  C119  1  0.65087849  0.83326229  0.97263137  1
  C  C120  1  0.25861392  0.83611185  0.47538003  1
  C  C121  1  0.76678071  0.83705591  0.47257106  1
  C  C122  1  0.15070991  0.46684456  0.47275620  1
  C  C123  1  0.65577799  0.47177681  0.47480222  1
  C  C124  1  0.07432554  0.69600085  0.46964214  1
  C  C125  1  0.57575248  0.69182630  0.47004772  1
  C  C126  1  0.06173963  0.63632407  0.36162501  1
  C  C127  1  0.56150357  0.62910460  0.36226559  1
  C  C128  1  0.24858455  0.87991339  0.35829792  1
  C  C129  1  0.74805823  0.86722095  0.35538543  1
  C  C130  1  0.18264867  0.50887037  0.35466891  1
  C  C131  1  0.69010069  0.51432686  0.35688079  1
  C  C132  1  0.06387102  0.49445764  0.86121811  1
  C  C133  1  0.56200164  0.48687558  0.86109712  1
  C  C134  1  0.18606120  0.85559305  0.85459101  1
  C  C135  1  0.68318694  0.85633747  0.85438312  1
  C  C136  1  0.25338989  0.61988555  0.85618322  1
  C  C137  1  0.74865545  0.61583672  0.85764414  1
  C  C138  1  0.01044783  0.82592817  0.41027785  1
  C  C139  1  0.51020502  0.81649754  0.40946401  1
  C  C140  1  0.40236784  0.96646736  0.40928818  1
  C  C141  1  0.91050835  0.97149154  0.40446324  1
  C  C142  1  0.08012448  0.18462986  0.40910544  1
  C  C143  1  0.58906213  0.19683957  0.40959265  1
  C  C144  1  0.01080243  0.20327278  0.90786444  1
  C  C145  1  0.51085538  0.19431808  0.90867608  1
  C  C146  1  0.08814516  0.97499258  0.90589678  1
  C  C147  1  0.58129519  0.97645247  0.90945311  1
  C  C148  1  0.41205161  0.85090790  0.90523388  1
  C  C149  1  0.90404913  0.83214333  0.90508619  1
  C  C150  1  0.48475677  0.16822808  0.59150567  1
  C  C151  1  0.98596834  0.15758073  0.58833849  1
  C  C152  1  0.09749337  0.02920847  0.59154948  1
  C  C153  1  0.60183812  0.03082518  0.59212484  1
  C  C154  1  0.42313706  0.80801164  0.59597477  1
  C  C155  1  0.93153049  0.82330870  0.59605917  1
  C  C156  1  0.48687967  0.82248703  0.09225345  1
  C  C157  1  0.98492359  0.80154238  0.09036588  1
  C  C158  1  0.42974690  0.03723048  0.09159729  1
  C  C159  1  0.92354598  0.03885636  0.09529093  1
  C  C160  1  0.10193973  0.17290158  0.09103796  1
  C  C161  1  0.60035946  0.16711399  0.08804518  1
  C  C162  1  0.34436634  0.15347177  0.74546022  1
  C  C163  1  0.84436378  0.15313257  0.74425816  1
  C  C164  1  0.23681992  0.31021117  0.74293264  1
  C  C165  1  0.73790255  0.30970574  0.74657656  1
  C  C166  1  0.42172336  0.53175994  0.74680912  1
  C  C167  1  0.92249438  0.53410833  0.74615562  1
  C  C168  1  0.33935574  0.53187078  0.24404558  1
  C  C169  1  0.84720838  0.53808458  0.24489952  1
  C  C170  1  0.42037623  0.31569744  0.24446206  1
  C  C171  1  0.92223346  0.31255128  0.24701342  1
  C  C172  1  0.23620969  0.16622879  0.24653051  1
  C  C173  1  0.73717373  0.17196600  0.24236176  1
  C  C174  1  0.32615619  0.48955043  0.92452548  1
  C  C175  1  0.82116734  0.48192647  0.92434745  1
  C  C176  1  0.43330371  0.35887531  0.91947174  1
  C  C177  1  0.93380843  0.36474469  0.91917505  1
  C  C178  1  0.26169236  0.15378297  0.92404307  1
  C  C179  1  0.75878195  0.14995493  0.92266238  1
  C  C180  1  0.32100240  0.15963858  0.42423886  1
  C  C181  1  0.82493616  0.15835612  0.42297016  1
  C  C182  1  0.25881676  0.36754693  0.42208776  1
  C  C183  1  0.76328726  0.36885074  0.42507312  1
  C  C184  1  0.43268963  0.49974173  0.42065335  1
  C  C185  1  0.93280057  0.50488072  0.41981523  1
  C  C186  1  0.17894545  0.48522494  0.07420518  1
  C  C187  1  0.67887008  0.48560991  0.07557266  1
  C  C188  1  0.06917921  0.62445388  0.07128035  1
  C  C189  1  0.56574598  0.62938665  0.07213880  1
  C  C190  1  0.25556498  0.86439695  0.07517811  1
  C  C191  1  0.75069168  0.86263379  0.07525079  1
  C  C192  1  0.17660751  0.87099626  0.57721673  1
  C  C193  1  0.67995793  0.87438872  0.57626535  1
  C  C194  1  0.25051602  0.64001670  0.57546669  1
  C  C195  1  0.75715666  0.65347037  0.57585019  1
  C  C196  1  0.06576937  0.50890592  0.57320850  1
  C  C197  1  0.56948597  0.51500537  0.57204413  1
  C  C198  1  0.14768059  0.80839915  0.26348888  1
  C  C199  1  0.65445618  0.82039901  0.26031565  1
  C  C200  1  0.26371036  0.69776559  0.25649345  1
  C  C201  1  0.77005933  0.70251210  0.25588926  1
  C  C202  1  0.08171058  0.46657192  0.25979583  1
  C  C203  1  0.59518241  0.48642970  0.26181119  1
  C  C204  1  0.14853897  0.48923635  0.76068766  1
  C  C205  1  0.64808830  0.48783091  0.76306766  1
  C  C206  1  0.08186314  0.69664431  0.75811113  1
  C  C207  1  0.58122216  0.69696838  0.75955856  1
  C  C208  1  0.26648771  0.83346382  0.75682227  1
  C  C209  1  0.76560782  0.83368585  0.75604075  1
