# generated using pymatgen
data_Cu2NiC17
_symmetry_space_group_name_H-M   'P 1'
_cell_length_a   5.85290290
_cell_length_b   5.85230203
_cell_length_c   10.26413249
_cell_angle_alpha   73.40104560
_cell_angle_beta   73.38722122
_cell_angle_gamma   60.01880630
_symmetry_Int_Tables_number   1
_chemical_formula_structural   Cu2NiC17
_chemical_formula_sum   'Cu2 Ni1 C17'
_cell_volume   287.46947246
_cell_formula_units_Z   1
loop_
 _symmetry_equiv_pos_site_id
 _symmetry_equiv_pos_as_xyz
  1  'x, y, z'
loop_
 _atom_site_type_symbol
 _atom_site_label
 _atom_site_symmetry_multiplicity
 _atom_site_fract_x
 _atom_site_fract_y
 _atom_site_fract_z
 _atom_site_occupancy
  C  C0  1  0.28663900  0.28655700  0.14072400  1
  C  C1  1  0.71336100  0.71344300  0.85927600  1
  C  C2  1  0.12958200  0.12959700  0.61129700  1
  C  C3  1  0.87041800  0.87040300  0.38870300  1
  C  C4  1  0.50000000  0.50000000  0.50000000  1
  Ni  Ni5  1  0.00000000  0.00000000  0.00000000  1
  Cu  Cu6  1  0.40930000  0.40935500  0.77196700  1
  Cu  Cu7  1  0.59070000  0.59064500  0.22803300  1
  C  C8  1  0.30593100  0.78476100  0.12461700  1
  C  C9  1  0.78518500  0.78515500  0.12401500  1
  C  C10  1  0.78485600  0.30581200  0.12453700  1
  C  C11  1  0.69406900  0.21523900  0.87538300  1
  C  C12  1  0.21481500  0.21484500  0.87598500  1
  C  C13  1  0.21514300  0.69418800  0.87546300  1
  C  C14  1  0.14802500  0.60478500  0.64197200  1
  C  C15  1  0.60512500  0.60516700  0.64163000  1
  C  C16  1  0.60478000  0.14803700  0.64190600  1
  C  C17  1  0.85197500  0.39521500  0.35802800  1
  C  C18  1  0.39487500  0.39483300  0.35837000  1
  C  C19  1  0.39522000  0.85196300  0.35809400  1
