# generated using pymatgen
data_CuNiC9
_symmetry_space_group_name_H-M   'P 1'
_cell_length_a   5.78994709
_cell_length_b   6.41730842
_cell_length_c   6.41730864
_cell_angle_alpha   52.06054121
_cell_angle_beta   63.18445751
_cell_angle_gamma   63.18445604
_symmetry_Int_Tables_number   1
_chemical_formula_structural   CuNiC9
_chemical_formula_sum   'Cu1 Ni1 C9'
_cell_volume   162.63234730
_cell_formula_units_Z   1
loop_
 _symmetry_equiv_pos_site_id
 _symmetry_equiv_pos_as_xyz
  1  'x, y, z'
loop_
 _atom_site_type_symbol
 _atom_site_label
 _atom_site_symmetry_multiplicity
 _atom_site_fract_x
 _atom_site_fract_y
 _atom_site_fract_z
 _atom_site_occupancy
  C  C0  1  0.17616300  0.32383900  0.32383800  1
  C  C1  1  0.82383900  0.67616200  0.67616100  1
  Ni  Ni2  1  0.50000000  0.00000000  0.00000000  1
  Cu  Cu3  1  0.50000000  0.49999900  0.50000100  1
  C  C4  1  0.00000000  0.00000000  0.00000000  1
  C  C5  1  0.20638400  0.79361600  0.79361500  1
  C  C6  1  0.25882200  0.74647500  0.25352500  1
  C  C7  1  0.74117800  0.25352600  0.74647400  1
  C  C8  1  0.25882100  0.25352600  0.74647600  1
  C  C9  1  0.79361600  0.20638500  0.20638400  1
  C  C10  1  0.74117800  0.74647500  0.25352500  1
