# generated using pymatgen
data_CuNiC11
_symmetry_space_group_name_H-M   'P 1'
_cell_length_a   8.87697780
_cell_length_b   8.92158195
_cell_length_c   22.23347651
_cell_angle_alpha   89.91411739
_cell_angle_beta   90.83594172
_cell_angle_gamma   120.18647272
_symmetry_Int_Tables_number   1
_chemical_formula_structural   CuNiC11
_chemical_formula_sum   'Cu9 Ni9 C99'
_cell_volume   1521.84268756
_cell_formula_units_Z   9
loop_
 _symmetry_equiv_pos_site_id
 _symmetry_equiv_pos_as_xyz
  1  'x, y, z'
loop_
 _atom_site_type_symbol
 _atom_site_label
 _atom_site_symmetry_multiplicity
 _atom_site_fract_x
 _atom_site_fract_y
 _atom_site_fract_z
 _atom_site_occupancy
  C  C0  1  0.63988406  0.00161687  0.25512370  1
  C  C1  1  0.00247648  0.62456619  0.24840978  1
  C  C2  1  0.62864423  0.63264193  0.74412664  1
  C  C3  1  0.37016178  0.01199975  0.75509773  1
  C  C4  1  0.66749291  0.95892047  0.58602379  1
  C  C5  1  0.97340542  0.68366209  0.92187115  1
  C  C6  1  0.69082892  0.01824566  0.91028175  1
  C  C7  1  0.96249898  0.30012777  0.40816611  1
  C  C8  1  0.70955593  0.68392468  0.42167813  1
  C  C9  1  0.00517400  0.98100629  0.50231806  1
  C  C10  1  0.01025228  0.98949896  0.00067795  1
  C  C11  1  0.64569951  0.32187401  0.83072680  1
  C  C12  1  0.66029888  0.32149114  0.33013487  1
  C  C13  1  0.31578782  0.64083295  0.16169067  1
  C  C14  1  0.32492902  0.63902333  0.66283364  1
  C  C15  1  0.66226418  0.34556519  0.98275607  1
  C  C16  1  0.67315899  0.34128004  0.48022694  1
  C  C17  1  0.34355202  0.66597741  0.81135350  1
  C  C18  1  0.98675019  0.99438115  0.35305977  1
  C  C19  1  0.00670903  0.01252408  0.85148105  1
  C  C20  1  0.98259267  0.99283894  0.65186895  1
  C  C21  1  0.00987152  0.00609383  0.14671948  1
  C  C22  1  0.64741133  0.33233350  0.68779478  1
  C  C23  1  0.70108475  0.34287493  0.17905097  1
  C  C24  1  0.33054915  0.69072979  0.01633762  1
  C  C25  1  0.34953240  0.68143749  0.51576364  1
  C  C26  1  0.31474562  0.65632529  0.31761835  1
  Ni  Ni27  1  0.00876190  0.28843584  0.24932796  1
  Ni  Ni28  1  0.27697657  0.27976488  0.74652669  1
  Ni  Ni29  1  0.71637162  0.01485860  0.74877429  1
  Ni  Ni30  1  0.66620142  0.63189265  0.58589005  1
  Ni  Ni31  1  0.98014215  0.64573778  0.08593792  1
  Ni  Ni32  1  0.62526336  0.67330103  0.92038548  1
  Ni  Ni33  1  0.32607615  0.96300342  0.91455168  1
  Ni  Ni34  1  0.61900704  0.95369565  0.41307553  1
  Ni  Ni35  1  0.05436322  0.67968170  0.41600529  1
  Cu  Cu36  1  0.29375399  0.00648745  0.24964334  1
  Cu  Cu37  1  0.70234724  0.70124056  0.24907989  1
  Cu  Cu38  1  0.99451319  0.70469901  0.74922400  1
  Cu  Cu39  1  0.96640891  0.33829694  0.58507517  1
  Cu  Cu40  1  0.36807782  0.03751613  0.58429663  1
  Cu  Cu41  1  0.66816999  0.03789994  0.08570320  1
  Cu  Cu42  1  0.37582933  0.33433356  0.08845243  1
  Cu  Cu43  1  0.04691331  0.37532825  0.91991656  1
  Cu  Cu44  1  0.32955591  0.37499493  0.41613183  1
  C  C45  1  0.21390844  0.02772797  0.30449824  1
  C  C46  1  0.81212215  0.77412825  0.30582848  1
  C  C47  1  0.96823939  0.16999972  0.31066495  1
  C  C48  1  0.20150445  0.15618453  0.80521803  1
  C  C49  1  0.96484835  0.77818146  0.80463119  1
  C  C50  1  0.82390028  0.03360863  0.81123973  1
  C  C51  1  0.78218751  0.95639965  0.68982106  1
  C  C52  1  0.16781104  0.18517735  0.68568193  1
  C  C53  1  0.02825244  0.81613120  0.69607430  1
  C  C54  1  0.78852348  0.81505504  0.19744110  1
  C  C55  1  0.02597211  0.18834547  0.19164931  1
  C  C56  1  0.18019921  0.97089449  0.19586139  1
  C  C57  1  0.87669172  0.35576158  0.63703158  1
  C  C58  1  0.47872450  0.11634768  0.63954680  1
  C  C59  1  0.64489496  0.51400438  0.64487535  1
  C  C60  1  0.89238982  0.52892359  0.14714640  1
  C  C61  1  0.64119858  0.11938246  0.14095669  1
  C  C62  1  0.48672956  0.34947194  0.14182915  1
  C  C63  1  0.45671755  0.30872704  0.03281583  1
  C  C64  1  0.85266412  0.54681201  0.02685362  1
  C  C65  1  0.68430731  0.14405393  0.03193100  1
  C  C66  1  0.46084784  0.14568056  0.53102656  1
  C  C67  1  0.68710292  0.54048456  0.52442167  1
  C  C68  1  0.85493014  0.31098569  0.52823197  1
  C  C69  1  0.52386423  0.69972916  0.97617699  1
  C  C70  1  0.15227613  0.45664546  0.97400811  1
  C  C71  1  0.27818361  0.83265918  0.97155492  1
  C  C72  1  0.54842203  0.83630954  0.47380249  1
  C  C73  1  0.30084202  0.45211252  0.47022233  1
  C  C74  1  0.16903567  0.69334688  0.47523020  1
  C  C75  1  0.11323582  0.61966069  0.35516129  1
  C  C76  1  0.50583796  0.85740765  0.35192477  1
  C  C77  1  0.36690091  0.48523647  0.36220768  1
  C  C78  1  0.11932434  0.48228731  0.86524397  1
  C  C79  1  0.35763135  0.87339784  0.85486182  1
  C  C80  1  0.51385564  0.63508022  0.85704685  1
  C  C81  1  0.02615126  0.84711166  0.40784010  1
  C  C82  1  0.81920816  0.98261708  0.41035554  1
  C  C83  1  0.17534292  0.20097879  0.40944692  1
  C  C84  1  0.02147897  0.19986003  0.91435907  1
  C  C85  1  0.15322551  0.98121532  0.90894381  1
  C  C86  1  0.81735254  0.84749724  0.91425878  1
  C  C87  1  0.97577817  0.17686514  0.58585351  1
  C  C88  1  0.19659199  0.02136945  0.58667504  1
  C  C89  1  0.84260407  0.82877441  0.58924998  1
  C  C90  1  0.98835144  0.83383453  0.09288645  1
  C  C91  1  0.82893165  0.02870863  0.08983839  1
  C  C92  1  0.20095207  0.17632301  0.08979938  1
  C  C93  1  0.68967863  0.18288037  0.74013584  1
  C  C94  1  0.48070432  0.31500502  0.74510145  1
  C  C95  1  0.83919610  0.53017201  0.74280473  1
  C  C96  1  0.68312947  0.52575370  0.24358397  1
  C  C97  1  0.82578512  0.30543329  0.24435978  1
  C  C98  1  0.47040169  0.16126613  0.24335129  1
  C  C99  1  0.65885378  0.50651422  0.92266386  1
  C  C100  1  0.86698340  0.35455136  0.92492066  1
  C  C101  1  0.51349205  0.14515634  0.92351707  1
  C  C102  1  0.64426783  0.14954884  0.41945505  1
  C  C103  1  0.48793723  0.35729997  0.42243559  1
  C  C104  1  0.85139951  0.50686315  0.42292836  1
  C  C105  1  0.36293767  0.49032079  0.08285028  1
  C  C106  1  0.16667372  0.65119628  0.07854590  1
  C  C107  1  0.51260799  0.86377037  0.08208755  1
  C  C108  1  0.35649653  0.86509038  0.57973454  1
  C  C109  1  0.49161333  0.65539873  0.57908650  1
  C  C110  1  0.13840048  0.49352123  0.57843254  1
  C  C111  1  0.31480776  0.84866323  0.25287703  1
  C  C112  1  0.53057055  0.68939419  0.25448070  1
  C  C113  1  0.17657338  0.48929220  0.25482636  1
  C  C114  1  0.30149915  0.47593887  0.75054862  1
  C  C115  1  0.15199862  0.68736199  0.75471827  1
  C  C116  1  0.51459917  0.83924889  0.75314053  1
