# generated using pymatgen
data_Cu4NiC16
_symmetry_space_group_name_H-M   'P 1'
_cell_length_a   5.35019680
_cell_length_b   5.59587722
_cell_length_c   8.69237455
_cell_angle_alpha   97.34557643
_cell_angle_beta   92.54016852
_cell_angle_gamma   87.71894465
_symmetry_Int_Tables_number   1
_chemical_formula_structural   Cu4NiC16
_chemical_formula_sum   'Cu4 Ni1 C16'
_cell_volume   257.69891894
_cell_formula_units_Z   1
loop_
 _symmetry_equiv_pos_site_id
 _symmetry_equiv_pos_as_xyz
  1  'x, y, z'
loop_
 _atom_site_type_symbol
 _atom_site_label
 _atom_site_symmetry_multiplicity
 _atom_site_fract_x
 _atom_site_fract_y
 _atom_site_fract_z
 _atom_site_occupancy
  Ni  Ni0  1  0.03837500  0.80340600  0.39025400  1
  Cu  Cu1  1  0.52530700  0.60707600  0.20283200  1
  Cu  Cu2  1  0.03142500  0.94812100  0.75806400  1
  Cu  Cu3  1  0.48947000  0.46212100  0.74923600  1
  Cu  Cu4  1  0.01882400  0.14578100  0.18348200  1
  C  C5  1  0.51970600  0.02399500  0.96960200  1
  C  C6  1  0.51730500  0.95914200  0.51834700  1
  C  C7  1  0.98072600  0.41809500  0.53757500  1
  C  C8  1  0.00553400  0.53720500  0.98292100  1
  C  C9  1  0.83606400  0.12740100  0.43371300  1
  C  C10  1  0.69676100  0.32175500  0.04270600  1
  C  C11  1  0.24843900  0.21504500  0.60103200  1
  C  C12  1  0.72866000  0.64489300  0.44333800  1
  C  C13  1  0.79237200  0.83993600  0.06163000  1
  C  C14  1  0.33990400  0.95208400  0.30242700  1
  C  C15  1  0.20702900  0.20821100  0.94452700  1
  C  C16  1  0.63430800  0.03788200  0.74725800  1
  C  C17  1  0.88033700  0.53917600  0.75921300  1
  C  C18  1  0.31868000  0.73170900  0.93223500  1
  C  C19  1  0.11633100  0.52552300  0.21419900  1
  C  C20  1  0.22444400  0.70144500  0.57541000  1
