# generated using pymatgen
data_CuNiC16
_symmetry_space_group_name_H-M   'P 1'
_cell_length_a   8.69027551
_cell_length_b   8.69441461
_cell_length_c   22.67974624
_cell_angle_alpha   89.43531232
_cell_angle_beta   90.00000000
_cell_angle_gamma   119.98425315
_symmetry_Int_Tables_number   1
_chemical_formula_structural   CuNiC16
_chemical_formula_sum   'Cu6 Ni6 C96'
_cell_volume   1484.16945472
_cell_formula_units_Z   6
loop_
 _symmetry_equiv_pos_site_id
 _symmetry_equiv_pos_as_xyz
  1  'x, y, z'
loop_
 _atom_site_type_symbol
 _atom_site_label
 _atom_site_symmetry_multiplicity
 _atom_site_fract_x
 _atom_site_fract_y
 _atom_site_fract_z
 _atom_site_occupancy
  C  C0  1  0.02498589  0.01781449  0.50377884  1
  C  C1  1  0.99282860  0.01781449  0.00377884  1
  C  C2  1  0.68302744  0.32497807  0.83551558  1
  C  C3  1  0.64195163  0.32497807  0.33551558  1
  C  C4  1  0.34295660  0.68998639  0.16979337  1
  C  C5  1  0.34702879  0.68998639  0.66979337  1
  Ni  Ni6  1  0.99388847  0.99592096  0.64817481  1
  Ni  Ni7  1  0.00203249  0.99592096  0.14817481  1
  Ni  Ni8  1  0.69935256  0.32343253  0.97973676  1
  Ni  Ni9  1  0.62408098  0.32343253  0.47973676  1
  Ni  Ni10  1  0.33432752  0.67141662  0.31338906  1
  Ni  Ni11  1  0.33708810  0.67141662  0.81338906  1
  C  C12  1  0.28570166  0.98863923  0.24835130  1
  C  C13  1  0.70293757  0.98863923  0.74835130  1
  C  C14  1  0.35857506  0.03478887  0.58319737  1
  C  C15  1  0.67621481  0.03478887  0.08319737  1
  C  C16  1  0.05152025  0.38813059  0.91437189  1
  C  C17  1  0.33660934  0.38813059  0.41437189  1
  Cu  Cu18  1  0.01580476  0.01306574  0.35292082  1
  Cu  Cu19  1  0.99726097  0.01306574  0.85292082  1
  Cu  Cu20  1  0.65904795  0.31194229  0.68478551  1
  Cu  Cu21  1  0.65289534  0.31194229  0.18478551  1
  Cu  Cu22  1  0.33633798  0.66869825  0.01832042  1
  Cu  Cu23  1  0.33235927  0.66869825  0.51832042  1
  C  C24  1  0.70960247  0.70905512  0.24925995  1
  C  C25  1  0.00253521  0.29570437  0.24854062  1
  C  C26  1  0.29316916  0.29570437  0.74854062  1
  C  C27  1  0.99945265  0.70905512  0.74925995  1
  C  C28  1  0.95234742  0.33151639  0.58065235  1
  C  C29  1  0.67063617  0.62201220  0.58302746  1
  C  C30  1  0.95137703  0.62201220  0.08302746  1
  C  C31  1  0.37916998  0.33151639  0.08065235  1
  C  C32  1  0.62831049  0.65804067  0.91681028  1
  C  C33  1  0.33581561  0.96549509  0.91457911  1
  C  C34  1  0.62967848  0.96549509  0.41457911  1
  C  C35  1  0.02972918  0.65804067  0.41681028  1
  C  C36  1  0.21234101  0.02936440  0.30901956  1
  C  C37  1  0.81342897  0.78799336  0.30425758  1
  C  C38  1  0.95721104  0.18256649  0.30331835  1
  C  C39  1  0.22535545  0.18256649  0.80331835  1
  C  C40  1  0.97456438  0.78799336  0.80425758  1
  C  C41  1  0.81702339  0.02936440  0.80901956  1
  C  C42  1  0.79751238  0.96418572  0.69008604  1
  C  C43  1  0.18714244  0.20789186  0.69615748  1
  C  C44  1  0.02856502  0.82005579  0.69619989  1
  C  C45  1  0.79149077  0.82005579  0.19619989  1
  C  C46  1  0.02074942  0.20789186  0.19615748  1
  C  C47  1  0.16667334  0.96418572  0.19008604  1
  C  C48  1  0.88415145  0.37018385  0.63654262  1
  C  C49  1  0.47969673  0.10682973  0.64252905  1
  C  C50  1  0.64603843  0.51711319  0.63853745  1
  C  C51  1  0.87107576  0.51711319  0.13853745  1
  C  C52  1  0.62713400  0.10682973  0.14252905  1
  C  C53  1  0.48603340  0.37018385  0.13654262  1
  C  C54  1  0.47120710  0.31796557  0.02884787  1
  C  C55  1  0.84311627  0.53951114  0.03040743  1
  C  C56  1  0.70569427  0.15276886  0.02408214  1
  C  C57  1  0.44707558  0.15276886  0.52408214  1
  C  C58  1  0.69639587  0.53951114  0.53040743  1
  C  C59  1  0.84675947  0.31796557  0.52884787  1
  C  C60  1  0.55872613  0.70477969  0.97011813  1
  C  C61  1  0.16077662  0.46391277  0.97615466  1
  C  C62  1  0.30249034  0.85904748  0.97022092  1
  C  C63  1  0.55655614  0.85904748  0.47022092  1
  C  C64  1  0.30313514  0.46391277  0.47615466  1
  C  C65  1  0.14605257  0.70477969  0.47011813  1
  C  C66  1  0.11605682  0.64131536  0.36326369  1
  C  C67  1  0.51646049  0.88640599  0.36268614  1
  C  C68  1  0.35843622  0.50829701  0.35674072  1
  C  C69  1  0.14985979  0.50829701  0.85674072  1
  C  C70  1  0.36994450  0.88640599  0.86268614  1
  C  C71  1  0.52525754  0.64131536  0.86326369  1
  C  C72  1  0.99659291  0.81191669  0.41215561  1
  C  C73  1  0.80330431  0.96963109  0.40807357  1
  C  C74  1  0.15714576  0.18804012  0.41424416  1
  C  C75  1  0.03089436  0.18804012  0.91424416  1
  C  C76  1  0.16632678  0.96963109  0.90807357  1
  C  C77  1  0.81532378  0.81191669  0.91215561  1
  C  C78  1  0.96353061  0.16822408  0.58717213  1
  C  C79  1  0.16500815  0.01858864  0.59320387  1
  C  C80  1  0.82738732  0.80075342  0.58730892  1
  C  C81  1  0.97336611  0.80075342  0.08730892  1
  C  C82  1  0.85358049  0.01858864  0.09320387  1
  C  C83  1  0.20469347  0.16822408  0.08717213  1
  C  C84  1  0.68927238  0.17214265  0.74734334  1
  C  C85  1  0.47920737  0.32856829  0.74420267  1
  C  C86  1  0.83300891  0.53257712  0.74386216  1
  C  C87  1  0.69956921  0.53257712  0.24386216  1
  C  C88  1  0.84936192  0.32856829  0.24420267  1
  C  C89  1  0.48287127  0.17214265  0.24734334  1
  C  C90  1  0.63212351  0.49300526  0.92609208  1
  C  C91  1  0.85576360  0.37239027  0.91810942  1
  C  C92  1  0.48591078  0.14659715  0.92192309  1
  C  C93  1  0.66068736  0.14659715  0.42192309  1
  C  C94  1  0.51662766  0.37239027  0.41810942  1
  C  C95  1  0.86088275  0.49300526  0.42609208  1
  C  C96  1  0.35211843  0.48854169  0.07838870  1
  C  C97  1  0.12980872  0.63582188  0.07988673  1
  C  C98  1  0.49417570  0.83721739  0.07713688  1
  C  C99  1  0.34304069  0.83721739  0.57713688  1
  C  C100  1  0.50601216  0.63582188  0.57988673  1
  C  C101  1  0.13642226  0.48854169  0.57838870  1
  C  C102  1  0.30773816  0.81307193  0.25731249  1
  C  C103  1  0.52989030  0.68525047  0.25422355  1
  C  C104  1  0.16673760  0.46683572  0.25498542  1
  C  C105  1  0.30009712  0.46683572  0.75498542  1
  C  C106  1  0.15535918  0.68525047  0.75422355  1
  C  C107  1  0.50533277  0.81307193  0.75731249  1
