# generated using pymatgen
data_Cu7(Ni8C3)2
_symmetry_space_group_name_H-M   'P 1'
_cell_length_a   8.25237596
_cell_length_b   8.25237596
_cell_length_c   8.25237596
_cell_angle_alpha   60.00000000
_cell_angle_beta   60.00000000
_cell_angle_gamma   60.00000000
_symmetry_Int_Tables_number   1
_chemical_formula_structural   Cu7(Ni8C3)2
_chemical_formula_sum   'Cu7 Ni16 C6'
_cell_volume   397.39465126
_cell_formula_units_Z   1
loop_
 _symmetry_equiv_pos_site_id
 _symmetry_equiv_pos_as_xyz
  1  'x, y, z'
loop_
 _atom_site_type_symbol
 _atom_site_label
 _atom_site_symmetry_multiplicity
 _atom_site_fract_x
 _atom_site_fract_y
 _atom_site_fract_z
 _atom_site_occupancy
  C  C0  1  0.29786200  0.70213800  0.29786200  1
  C  C1  1  0.29786200  0.70213800  0.70213800  1
  C  C2  1  0.70213800  0.29786200  0.29786200  1
  C  C3  1  0.70213800  0.70213800  0.29786200  1
  C  C4  1  0.29786200  0.29786200  0.70213800  1
  C  C5  1  0.70213800  0.29786200  0.70213800  1
  Ni  Ni6  1  0.11986500  0.11986500  0.11986500  1
  Ni  Ni7  1  0.35959400  0.88013500  0.88013500  1
  Ni  Ni8  1  0.88013500  0.35959400  0.88013500  1
  Ni  Ni9  1  0.88013500  0.88013500  0.35959400  1
  Ni  Ni10  1  0.11986500  0.64040600  0.11986500  1
  Ni  Ni11  1  0.11986500  0.11986500  0.64040600  1
  Ni  Ni12  1  0.64040600  0.11986500  0.11986500  1
  Ni  Ni13  1  0.88013500  0.88013500  0.88013500  1
  Ni  Ni14  1  0.33288100  0.33288100  0.33288100  1
  Ni  Ni15  1  0.99864300  0.66711900  0.66711900  1
  Ni  Ni16  1  0.66711900  0.99864300  0.66711900  1
  Ni  Ni17  1  0.66711900  0.66711900  0.99864300  1
  Ni  Ni18  1  0.33288100  0.00135700  0.33288100  1
  Ni  Ni19  1  0.33288100  0.33288100  0.00135700  1
  Ni  Ni20  1  0.00135700  0.33288100  0.33288100  1
  Ni  Ni21  1  0.66711900  0.66711900  0.66711900  1
  Cu  Cu22  1  0.00000000  0.00000000  0.00000000  1
  Cu  Cu23  1  0.00000000  0.50000000  0.00000000  1
  Cu  Cu24  1  0.50000000  0.00000000  0.00000000  1
  Cu  Cu25  1  0.00000000  0.50000000  0.50000000  1
  Cu  Cu26  1  0.50000000  0.00000000  0.50000000  1
  Cu  Cu27  1  0.00000000  0.00000000  0.50000000  1
  Cu  Cu28  1  0.50000000  0.50000000  0.00000000  1
