# generated using pymatgen
data_Cu5Ni6C67
_symmetry_space_group_name_H-M   'P 1'
_cell_length_a   17.95828370
_cell_length_b   9.01026956
_cell_length_c   22.50058527
_cell_angle_alpha   89.70903527
_cell_angle_beta   89.71813892
_cell_angle_gamma   119.89612512
_symmetry_Int_Tables_number   1
_chemical_formula_structural   Cu5Ni6C67
_chemical_formula_sum   'Cu15 Ni18 C201'
_cell_volume   3156.16027758
_cell_formula_units_Z   3
loop_
 _symmetry_equiv_pos_site_id
 _symmetry_equiv_pos_as_xyz
  1  'x, y, z'
loop_
 _atom_site_type_symbol
 _atom_site_label
 _atom_site_symmetry_multiplicity
 _atom_site_fract_x
 _atom_site_fract_y
 _atom_site_fract_z
 _atom_site_occupancy
  C  C0  1  0.31923760  0.99967784  0.24275402  1
  C  C1  1  0.19630757  0.37195500  0.24432924  1
  C  C2  1  0.69080854  0.37216810  0.24238349  1
  C  C3  1  0.99928946  0.64393347  0.25046174  1
  C  C4  1  0.31632037  0.61833947  0.75781860  1
  C  C5  1  0.81762288  0.62603328  0.74787320  1
  C  C6  1  0.99280350  0.35527084  0.75277811  1
  C  C7  1  0.49795849  0.37832944  0.73961991  1
  C  C8  1  0.18177135  0.01194809  0.74828960  1
  C  C9  1  0.68710481  0.01444128  0.74973404  1
  C  C10  1  0.64675383  0.34311258  0.57440929  1
  C  C11  1  0.32473997  0.68983102  0.07620791  1
  C  C12  1  0.82559545  0.68744809  0.08893012  1
  C  C13  1  0.16424218  0.31999784  0.92495566  1
  C  C14  1  0.99390278  0.31043825  0.42132657  1
  C  C15  1  0.16408123  0.02515388  0.42043914  1
  C  C16  1  0.66564803  0.03074337  0.41165783  1
  C  C17  1  0.84115406  0.66650851  0.41844925  1
  C  C18  1  0.00127647  0.00026864  0.49957088  1
  C  C19  1  0.49093438  0.01931933  0.49446308  1
  C  C20  1  0.00685533  0.02642778  0.00104157  1
  C  C21  1  0.50396400  0.03153628  0.99631278  1
  C  C22  1  0.34760018  0.36392909  0.83520067  1
  C  C23  1  0.83866329  0.33269074  0.82885888  1
  C  C24  1  0.34002208  0.36959578  0.32719112  1
  C  C25  1  0.83195695  0.33354124  0.33182697  1
  C  C26  1  0.16814507  0.66214890  0.15842594  1
  C  C27  1  0.66214929  0.66288937  0.15996233  1
  C  C28  1  0.16065010  0.65619606  0.66238909  1
  C  C29  1  0.65556941  0.66399334  0.66106571  1
  C  C30  1  0.49847489  0.00091767  0.35322647  1
  C  C31  1  0.33817973  0.34944652  0.68441437  1
  C  C32  1  0.83645119  0.33648353  0.68997709  1
  C  C33  1  0.33185038  0.34336764  0.18664861  1
  C  C34  1  0.83087666  0.33524398  0.18354207  1
  C  C35  1  0.16254320  0.63926722  0.01547244  1
  C  C36  1  0.65766341  0.63965261  0.01872433  1
  C  C37  1  0.16445263  0.65856300  0.51586849  1
  C  C38  1  0.66188955  0.65153593  0.51635429  1
  Ni  Ni39  1  0.15087217  0.99856152  0.25256178  1
  Ni  Ni40  1  0.35868242  0.71293731  0.25213639  1
  Ni  Ni41  1  0.85242078  0.70633386  0.24851575  1
  Ni  Ni42  1  0.14840076  0.29746527  0.74972991  1
  Ni  Ni43  1  0.64596465  0.29216211  0.74971582  1
  Ni  Ni44  1  0.00392135  0.71248816  0.75225118  1
  Ni  Ni45  1  0.49848841  0.71451588  0.74898667  1
  Ni  Ni46  1  0.85148706  0.99445349  0.75000614  1
  Ni  Ni47  1  0.48137162  0.33639216  0.58751920  1
  Ni  Ni48  1  0.18396463  0.33062143  0.08632682  1
  Ni  Ni49  1  0.68407902  0.33260892  0.08767363  1
  Ni  Ni50  1  0.31571071  0.67338683  0.92002443  1
  Ni  Ni51  1  0.01052865  0.35811700  0.91783026  1
  Ni  Ni52  1  0.51636341  0.36838511  0.91695327  1
  Ni  Ni53  1  0.81095840  0.95588803  0.41965522  1
  Ni  Ni54  1  0.17109871  0.37454173  0.41813996  1
  Ni  Ni55  1  0.66051852  0.36041788  0.41965605  1
  Ni  Ni56  1  0.02541487  0.66893275  0.41842773  1
  Cu  Cu57  1  0.00150819  0.99620779  0.35342375  1
  Cu  Cu58  1  0.99885072  0.00606121  0.84986938  1
  Cu  Cu59  1  0.50106508  0.99865612  0.85554741  1
  Cu  Cu60  1  0.00116365  0.00109243  0.65374140  1
  Cu  Cu61  1  0.50061191  0.00981565  0.64747469  1
  Cu  Cu62  1  0.00564962  0.99515143  0.14867802  1
  Cu  Cu63  1  0.50112486  0.00387345  0.14829137  1
  Cu  Cu64  1  0.33358616  0.34011048  0.98012705  1
  Cu  Cu65  1  0.82777414  0.32243240  0.98282652  1
  Cu  Cu66  1  0.33668468  0.33894897  0.48571388  1
  Cu  Cu67  1  0.83474225  0.33626693  0.47956698  1
  Cu  Cu68  1  0.17298759  0.66493570  0.31790962  1
  Cu  Cu69  1  0.67532962  0.67423903  0.31853029  1
  Cu  Cu70  1  0.15621450  0.64314648  0.82116218  1
  Cu  Cu71  1  0.65841964  0.65731001  0.81423986  1
  C  C72  1  0.64701666  0.99186505  0.25185821  1
  C  C73  1  0.99806850  0.29227103  0.24968525  1
  C  C74  1  0.50433902  0.30127179  0.25196184  1
  C  C75  1  0.35033278  0.99723555  0.75059547  1
  C  C76  1  0.98067136  0.32790717  0.58472532  1
  C  C77  1  0.18185770  0.03444539  0.58524094  1
  C  C78  1  0.68769641  0.04010512  0.58411161  1
  C  C79  1  0.33199101  0.63487423  0.58456992  1
  C  C80  1  0.83958979  0.63389648  0.58506864  1
  C  C81  1  0.48095434  0.62818232  0.08532832  1
  C  C82  1  0.98067213  0.62567446  0.08344102  1
  C  C83  1  0.33432478  0.04452330  0.08583548  1
  C  C84  1  0.83459494  0.04027291  0.08543568  1
  C  C85  1  0.81422011  0.66652601  0.91904872  1
  C  C86  1  0.16478003  0.95379547  0.91805405  1
  C  C87  1  0.66902472  0.95639307  0.91900568  1
  C  C88  1  0.31555745  0.96399351  0.41988132  1
  C  C89  1  0.51996283  0.66184374  0.41620794  1
  C  C90  1  0.10949288  0.04466661  0.31030715  1
  C  C91  1  0.60856104  0.01920949  0.30551094  1
  C  C92  1  0.41374167  0.82186213  0.30654415  1
  C  C93  1  0.91064319  0.79941148  0.30703236  1
  C  C94  1  0.49449988  0.19844486  0.30457245  1
  C  C95  1  0.98617373  0.19836590  0.30660516  1
  C  C96  1  0.11038709  0.17993622  0.81058949  1
  C  C97  1  0.60259374  0.15712453  0.80468383  1
  C  C98  1  0.47556705  0.79781493  0.80513927  1
  C  C99  1  0.97971384  0.79450939  0.80888437  1
  C  C100  1  0.40649004  0.03317323  0.80235256  1
  C  C101  1  0.91713710  0.05110427  0.80592783  1
  C  C102  1  0.38656350  0.95796437  0.69652334  1
  C  C103  1  0.88899327  0.93284572  0.69333077  1
  C  C104  1  0.07797661  0.21922527  0.69508133  1
  C  C105  1  0.58470707  0.22219985  0.68985592  1
  C  C106  1  0.03281338  0.84416268  0.69429227  1
  C  C107  1  0.51814515  0.83678049  0.68898777  1
  C  C108  1  0.39433366  0.83631722  0.18885019  1
  C  C109  1  0.89471038  0.82080786  0.18716743  1
  C  C110  1  0.01145610  0.20422877  0.19883893  1
  C  C111  1  0.52687806  0.22973037  0.19787746  1
  C  C112  1  0.08143816  0.94371519  0.19764579  1
  C  C113  1  0.59459428  0.97165590  0.19754589  1
  C  C114  1  0.43341939  0.33780827  0.64716484  1
  C  C115  1  0.93396370  0.33603503  0.63659465  1
  C  C116  1  0.23095113  0.12660509  0.63741509  1
  C  C117  1  0.73691055  0.12784582  0.63670894  1
  C  C118  1  0.32229910  0.53349530  0.63800579  1
  C  C119  1  0.83396983  0.52777177  0.63634667  1
  C  C120  1  0.44066198  0.52229130  0.13758493  1
  C  C121  1  0.94317434  0.52969352  0.13914438  1
  C  C122  1  0.33529434  0.13198925  0.14092083  1
  C  C123  1  0.83108655  0.13303187  0.13721740  1
  C  C124  1  0.23864249  0.34646123  0.14430714  1
  C  C125  1  0.73908685  0.35377224  0.14663763  1
  C  C126  1  0.22738624  0.30082749  0.02361213  1
  C  C127  1  0.72913340  0.29771591  0.02767820  1
  C  C128  1  0.42757093  0.55298055  0.03046353  1
  C  C129  1  0.92323727  0.53787018  0.03159851  1
  C  C130  1  0.34648107  0.15097312  0.03183965  1
  C  C131  1  0.84992671  0.14303152  0.02924949  1
  C  C132  1  0.22182068  0.13520620  0.52813800  1
  C  C133  1  0.72869452  0.15171335  0.52852037  1
  C  C134  1  0.34420262  0.55278302  0.52975410  1
  C  C135  1  0.84898615  0.55427480  0.52763177  1
  C  C136  1  0.42120922  0.30419367  0.52681282  1
  C  C137  1  0.93102781  0.30897191  0.52777717  1
  C  C138  1  0.27284141  0.69361256  0.97903193  1
  C  C139  1  0.77280703  0.68503807  0.97214166  1
  C  C140  1  0.07821232  0.45564238  0.96824903  1
  C  C141  1  0.57476245  0.46281772  0.97171406  1
  C  C142  1  0.15805398  0.84911000  0.96848856  1
  C  C143  1  0.66748195  0.85630765  0.96974245  1
  C  C144  1  0.27286264  0.85821496  0.47112187  1
  C  C145  1  0.76648197  0.82409207  0.47270998  1
  C  C146  1  0.15066230  0.46311404  0.47126446  1
  C  C147  1  0.65220040  0.44464002  0.47929350  1
  C  C148  1  0.09027239  0.71867870  0.47177295  1
  C  C149  1  0.57273375  0.68304152  0.46785257  1
  C  C150  1  0.06082671  0.62060242  0.35674479  1
  C  C151  1  0.55715501  0.63181279  0.36009193  1
  C  C152  1  0.26268358  0.89321913  0.36339280  1
  C  C153  1  0.74901215  0.89420927  0.35936855  1
  C  C154  1  0.18723088  0.47477066  0.35292461  1
  C  C155  1  0.68351871  0.48533463  0.35860086  1
  C  C156  1  0.04392338  0.45586122  0.85197913  1
  C  C157  1  0.55145441  0.47866457  0.85276666  1
  C  C158  1  0.17420114  0.88046128  0.85990361  1
  C  C159  1  0.67993786  0.88624431  0.86071881  1
  C  C160  1  0.25650244  0.64320589  0.85833485  1
  C  C161  1  0.76567125  0.65023929  0.86304420  1
  C  C162  1  0.00601169  0.82825935  0.41161680  1
  C  C163  1  0.51249779  0.81679251  0.40985515  1
  C  C164  1  0.40178449  0.98782369  0.41251078  1
  C  C165  1  0.90863758  0.98573736  0.40962695  1
  C  C166  1  0.08348262  0.18114993  0.41242196  1
  C  C167  1  0.58427265  0.16587121  0.41027074  1
  C  C168  1  0.00795639  0.16942608  0.91473212  1
  C  C169  1  0.51086625  0.18105721  0.90987430  1
  C  C170  1  0.08588137  0.97251267  0.91553109  1
  C  C171  1  0.58969535  0.96872385  0.91743204  1
  C  C172  1  0.41300762  0.83469979  0.91367005  1
  C  C173  1  0.90214889  0.81985051  0.91530190  1
  C  C174  1  0.49241405  0.15816358  0.58411568  1
  C  C175  1  0.98742986  0.16657804  0.58537165  1
  C  C176  1  0.09366018  0.02125001  0.58508023  1
  C  C177  1  0.60117874  0.03052334  0.58402718  1
  C  C178  1  0.41247395  0.80752332  0.58625755  1
  C  C179  1  0.91947278  0.80673198  0.58572564  1
  C  C180  1  0.48204152  0.79859776  0.08926071  1
  C  C181  1  0.97946035  0.79426885  0.08437804  1
  C  C182  1  0.41186511  0.01650969  0.08441702  1
  C  C183  1  0.91125151  0.01230048  0.08720950  1
  C  C184  1  0.08547186  0.15325356  0.08747092  1
  C  C185  1  0.58659580  0.15541954  0.08921030  1
  C  C186  1  0.33815644  0.14567974  0.74289216  1
  C  C187  1  0.83928462  0.15748059  0.74002154  1
  C  C188  1  0.24039298  0.31169419  0.73968577  1
  C  C189  1  0.74116192  0.31975184  0.74157019  1
  C  C190  1  0.41756291  0.52276267  0.74497498  1
  C  C191  1  0.92304779  0.52380700  0.74336145  1
  C  C192  1  0.34614311  0.52459962  0.24536001  1
  C  C193  1  0.84589783  0.51865460  0.24662682  1
  C  C194  1  0.42599765  0.30916006  0.24219977  1
  C  C195  1  0.92349921  0.31637461  0.24213965  1
  C  C196  1  0.24666404  0.15753163  0.24532688  1
  C  C197  1  0.73440594  0.14165467  0.24521890  1
  C  C198  1  0.31660078  0.48810445  0.91907886  1
  C  C199  1  0.82223327  0.50774207  0.92128827  1
  C  C200  1  0.41642948  0.33563604  0.92218076  1
  C  C201  1  0.91393946  0.33793715  0.92405188  1
  C  C202  1  0.24116838  0.13078834  0.91927907  1
  C  C203  1  0.74561807  0.13519457  0.91943922  1
  C  C204  1  0.32012161  0.13662172  0.42311522  1
  C  C205  1  0.82584242  0.15141453  0.42569945  1
  C  C206  1  0.25399781  0.33908196  0.42558907  1
  C  C207  1  0.75393755  0.35439445  0.42144768  1
  C  C208  1  0.43153934  0.50573802  0.42025164  1
  C  C209  1  0.92933122  0.49518876  0.42431906  1
  C  C210  1  0.17586122  0.50187858  0.08131375  1
  C  C211  1  0.67981781  0.50773720  0.08064981  1
  C  C212  1  0.06755006  0.65814329  0.07519623  1
  C  C213  1  0.56898156  0.66201950  0.07808049  1
  C  C214  1  0.25626698  0.87582629  0.08262414  1
  C  C215  1  0.75679167  0.87054771  0.08076270  1
  C  C216  1  0.17348321  0.86422375  0.58197740  1
  C  C217  1  0.67891191  0.87196933  0.57725335  1
  C  C218  1  0.25651022  0.65658065  0.57810070  1
  C  C219  1  0.76158717  0.64712453  0.58247259  1
  C  C220  1  0.06581072  0.48172443  0.58113130  1
  C  C221  1  0.57725490  0.50134328  0.58127319  1
  C  C222  1  0.15274051  0.81749776  0.25975368  1
  C  C223  1  0.64988405  0.82819093  0.25439535  1
  C  C224  1  0.25860232  0.69187005  0.25292518  1
  C  C225  1  0.75437382  0.68163552  0.25201519  1
  C  C226  1  0.07849016  0.46430952  0.25126338  1
  C  C227  1  0.58147605  0.47891831  0.25576675  1
  C  C228  1  0.16010170  0.49152282  0.75458451  1
  C  C229  1  0.65415150  0.48168553  0.75634473  1
  C  C230  1  0.09440175  0.70641068  0.75905598  1
  C  C231  1  0.58959859  0.71174091  0.75388170  1
  C  C232  1  0.26452622  0.84014702  0.75792136  1
  C  C233  1  0.75826623  0.82075538  0.76135656  1
