# generated using pymatgen
data_CuNi8C61
_symmetry_space_group_name_H-M   'P 1'
_cell_length_a   16.61287703
_cell_length_b   8.30190576
_cell_length_c   21.65303030
_cell_angle_alpha   89.99515416
_cell_angle_beta   89.98022112
_cell_angle_gamma   120.04331137
_symmetry_Int_Tables_number   1
_chemical_formula_structural   CuNi8C61
_chemical_formula_sum   'Cu3 Ni24 C183'
_cell_volume   2585.12896404
_cell_formula_units_Z   3
loop_
 _symmetry_equiv_pos_site_id
 _symmetry_equiv_pos_as_xyz
  1  'x, y, z'
loop_
 _atom_site_type_symbol
 _atom_site_label
 _atom_site_symmetry_multiplicity
 _atom_site_fract_x
 _atom_site_fract_y
 _atom_site_fract_z
 _atom_site_occupancy
  C  C0  1  0.00105857  0.99278973  0.49948696  1
  C  C1  1  0.50106693  0.00922259  0.99634148  1
  C  C2  1  0.33711259  0.33341500  0.83504538  1
  C  C3  1  0.83774503  0.34401562  0.83011823  1
  C  C4  1  0.33170926  0.33107700  0.33404082  1
  C  C5  1  0.83923672  0.34248459  0.33625460  1
  Ni  Ni6  1  0.00151180  0.99373947  0.35489181  1
  Ni  Ni7  1  0.49914813  0.99992125  0.35577872  1
  Ni  Ni8  1  0.99783291  0.98822709  0.85215361  1
  Ni  Ni9  1  0.50104302  0.01049793  0.85379309  1
  Ni  Ni10  1  0.00022932  0.99472628  0.65070191  1
  Ni  Ni11  1  0.50084695  -0.00014819  0.64570109  1
  Ni  Ni12  1  -0.00001193  0.00152155  0.14431905  1
  Ni  Ni13  1  0.50005862  0.99920248  0.14672676  1
  Ni  Ni14  1  0.33226097  0.33337264  0.68642328  1
  Ni  Ni15  1  0.83742103  0.34060429  0.68868710  1
  Ni  Ni16  1  0.33182686  0.33324281  0.18421067  1
  Ni  Ni17  1  0.83486661  0.33290018  0.18460932  1
  Ni  Ni18  1  0.33617404  0.33301419  0.97709947  1
  Ni  Ni19  1  0.83395550  0.33455530  0.97951174  1
  Ni  Ni20  1  0.33250583  0.33214174  0.48288765  1
  Ni  Ni21  1  0.83895839  0.34217028  0.48087687  1
  Ni  Ni22  1  0.16533329  0.66512535  0.01945674  1
  Ni  Ni23  1  0.66453721  0.65773742  0.01791027  1
  Ni  Ni24  1  0.16183603  0.66942068  0.52181209  1
  Ni  Ni25  1  0.66705395  0.66784302  0.52374830  1
  Ni  Ni26  1  0.16093854  0.66372703  0.31432648  1
  Ni  Ni27  1  0.66734144  0.66604582  0.31268466  1
  Ni  Ni28  1  0.16274516  0.66763180  0.80875601  1
  Ni  Ni29  1  0.66290863  0.65831724  0.81268731  1
  Cu  Cu30  1  0.99993494  0.71053831  0.74974078  1
  Cu  Cu31  1  0.52270747  0.37831078  0.91644248  1
  Cu  Cu32  1  0.02157386  0.66544649  0.41699915  1
  C  C33  1  0.14486308  0.00009942  0.24891629  1
  C  C34  1  0.64413999  0.99934530  0.25043895  1
  C  C35  1  0.35467345  0.71184118  0.25044125  1
  C  C36  1  0.85506242  0.71125880  0.24930215  1
  C  C37  1  0.00084309  0.28716569  0.24988779  1
  C  C38  1  0.50032974  0.28911680  0.25004379  1
  C  C39  1  0.14499560  0.28977725  0.75029052  1
  C  C40  1  0.64353075  0.28758973  0.74897984  1
  C  C41  1  0.50078809  0.71420610  0.75000419  1
  C  C42  1  0.35626145  -0.00042598  0.74911449  1
  C  C43  1  0.85347569  0.99595803  0.75076580  1
  C  C44  1  0.47774904  0.33253381  0.58360532  1
  C  C45  1  0.97833416  0.33035227  0.58415914  1
  C  C46  1  0.18895736  0.04438368  0.58376467  1
  C  C47  1  0.69010221  0.04806277  0.58331316  1
  C  C48  1  0.33300055  0.62391264  0.58329678  1
  C  C49  1  0.83241797  0.62251425  0.58336381  1
  C  C50  1  0.47827879  0.62276616  0.08376467  1
  C  C51  1  0.97852800  0.62358363  0.08315096  1
  C  C52  1  0.33224313  0.04227269  0.08351527  1
  C  C53  1  0.83252777  0.04217558  0.08290370  1
  C  C54  1  0.18909686  0.33394001  0.08231077  1
  C  C55  1  0.68965996  0.33526966  0.08394129  1
  C  C56  1  0.30837810  0.66539912  0.91613146  1
  C  C57  1  0.81236577  0.67011892  0.91722166  1
  C  C58  1  0.02257377  0.37450859  0.91675426  1
  C  C59  1  0.16501861  0.95357852  0.91717490  1
  C  C60  1  0.66788533  0.95496226  0.91658300  1
  C  C61  1  0.31174527  0.95513752  0.41669980  1
  C  C62  1  0.80892946  0.95322550  0.41675161  1
  C  C63  1  0.16825107  0.38144997  0.41665188  1
  C  C64  1  0.66485697  0.37705066  0.41676796  1
  C  C65  1  0.52284255  0.66726706  0.41669582  1
  C  C66  1  0.10552828  0.04079717  0.30388247  1
  C  C67  1  0.60304157  0.03579196  0.30563188  1
  C  C68  1  0.41508965  0.79337295  0.30543961  1
  C  C69  1  0.91297834  0.79237430  0.30450248  1
  C  C70  1  0.48204894  0.17114681  0.30529862  1
  C  C71  1  0.98206337  0.16907913  0.30536354  1
  C  C72  1  0.10531223  0.17485573  0.80609912  1
  C  C73  1  0.60344743  0.16918203  0.80431542  1
  C  C74  1  0.48199849  0.79483152  0.80544758  1
  C  C75  1  0.97864347  0.79631966  0.81073343  1
  C  C76  1  0.41506158  0.03774752  0.80433570  1
  C  C77  1  0.91322904  0.04021969  0.80614152  1
  C  C78  1  0.39778953  0.96899228  0.69316996  1
  C  C79  1  0.89431917  0.96686436  0.69442245  1
  C  C80  1  0.08847643  0.21388579  0.69404694  1
  C  C81  1  0.58430855  0.20491593  0.69374546  1
  C  C82  1  0.01859567  0.83637608  0.68866886  1
  C  C83  1  0.51475963  0.82741399  0.69404751  1
  C  C84  1  0.39693601  0.82729861  0.19487300  1
  C  C85  1  0.89602859  0.82576351  0.19369715  1
  C  C86  1  0.01464526  0.20135098  0.19411019  1
  C  C87  1  0.51683110  0.20655941  0.19459846  1
  C  C88  1  0.08666578  0.96805318  0.19372699  1
  C  C89  1  0.58645703  0.96635118  0.19490593  1
  C  C90  1  0.43637862  0.36924364  0.63831878  1
  C  C91  1  0.93606105  0.36386143  0.63814141  1
  C  C92  1  0.24766819  0.13092414  0.63847916  1
  C  C93  1  0.74848435  0.12923761  0.63830608  1
  C  C94  1  0.31572521  0.50493496  0.63811138  1
  C  C95  1  0.81403467  0.50512234  0.63781609  1
  C  C96  1  0.43636759  0.50698834  0.13990993  1
  C  C97  1  0.93723386  0.50561719  0.13885577  1
  C  C98  1  0.31666031  0.12464091  0.13991985  1
  C  C99  1  0.81549875  0.12561861  0.13881605  1
  C  C100  1  0.24724957  0.36919392  0.13864224  1
  C  C101  1  0.74673437  0.36277986  0.13979128  1
  C  C102  1  0.23145647  0.29818720  0.02834722  1
  C  C103  1  0.72954380  0.29625936  0.02874163  1
  C  C104  1  0.41789208  0.54279019  0.02966096  1
  C  C105  1  0.91859321  0.54012933  0.02855896  1
  C  C106  1  0.35075423  0.16070116  0.02921723  1
  C  C107  1  0.85124778  0.16369091  0.02852039  1
  C  C108  1  0.23104836  0.16157010  0.52747543  1
  C  C109  1  0.73120855  0.16379897  0.52732109  1
  C  C110  1  0.35170815  0.54111210  0.52781730  1
  C  C111  1  0.84925843  0.54067175  0.52752579  1
  C  C112  1  0.41947095  0.29820176  0.52766405  1
  C  C113  1  0.91952532  0.29237366  0.52824667  1
  C  C114  1  0.26937695  0.70199940  0.97278498  1
  C  C115  1  0.77181378  0.70187602  0.97357100  1
  C  C116  1  0.07905998  0.45734192  0.97330125  1
  C  C117  1  0.58408625  0.46284834  0.97857667  1
  C  C118  1  0.14957780  0.83813605  0.97335160  1
  C  C119  1  0.65251697  0.84568216  0.97359138  1
  C  C120  1  0.27362391  0.84155456  0.47239376  1
  C  C121  1  0.76838573  0.83455566  0.47187383  1
  C  C122  1  0.15308991  0.46078763  0.47296780  1
  C  C123  1  0.64803987  0.46103929  0.47159930  1
  C  C124  1  0.08603936  0.70564215  0.47721711  1
  C  C125  1  0.58059618  0.70022627  0.47177719  1
  C  C126  1  0.06456503  0.62664836  0.35538080  1
  C  C127  1  0.56296037  0.63087997  0.36064965  1
  C  C128  1  0.25565491  0.87741848  0.36018092  1
  C  C129  1  0.75162262  0.87041243  0.36042868  1
  C  C130  1  0.18860946  0.49546162  0.36022338  1
  C  C131  1  0.68299228  0.49451524  0.36062599  1
  C  C132  1  0.06358240  0.49417911  0.86266874  1
  C  C133  1  0.56669117  0.50612260  0.85584986  1
  C  C134  1  0.18649350  0.87430282  0.86308719  1
  C  C135  1  0.68817127  0.88107497  0.86086164  1
  C  C136  1  0.25110390  0.63376197  0.86086017  1
  C  C137  1  0.75471542  0.63196056  0.86158948  1
  C  C138  1  0.01080255  0.84888073  0.40890552  1
  C  C139  1  0.51335125  0.83228459  0.40731993  1
  C  C140  1  0.40482388  0.97690646  0.40723488  1
  C  C141  1  0.90191616  0.97668953  0.40831054  1
  C  C142  1  0.08392963  0.19838433  0.40822927  1
  C  C143  1  0.58136960  0.19380004  0.40695939  1
  C  C144  1  0.01205707  0.19002218  0.90818836  1
  C  C145  1  0.51090512  0.17235182  0.90933211  1
  C  C146  1  0.08343554  0.97523758  0.91012556  1
  C  C147  1  0.58363724  0.96966712  0.90890225  1
  C  C148  1  0.40242388  0.82735712  0.90885358  1
  C  C149  1  0.90374348  0.83686608  0.91110227  1
  C  C150  1  0.48712102  0.16740500  0.59210890  1
  C  C151  1  0.98755744  0.16208370  0.59167567  1
  C  C152  1  0.09759796  0.03216819  0.58847164  1
  C  C153  1  0.59691303  0.02587370  0.59197068  1
  C  C154  1  0.41648926  0.80713011  0.59223109  1
  C  C155  1  0.91464799  0.81074775  0.58901752  1
  C  C156  1  0.48643828  0.80944958  0.09234198  1
  C  C157  1  0.98707357  0.80698288  0.09284911  1
  C  C158  1  0.41677214  0.02485380  0.09218109  1
  C  C159  1  0.91616089  0.02652114  0.09259128  1
  C  C160  1  0.09710295  0.16782894  0.09242000  1
  C  C161  1  0.59613747  0.16570345  0.09195282  1
  C  C162  1  0.34697359  0.16836864  0.74112651  1
  C  C163  1  0.84148836  0.15922360  0.74190731  1
  C  C164  1  0.23851947  0.30586792  0.74183383  1
  C  C165  1  0.73424196  0.29951174  0.74080359  1
  C  C166  1  0.41634551  0.52651999  0.74196233  1
  C  C167  1  0.90754797  0.50593452  0.74248758  1
  C  C168  1  0.34660115  0.52557629  0.24225210  1
  C  C169  1  0.84495574  0.52336107  0.24136081  1
  C  C170  1  0.41640530  0.30791406  0.24208776  1
  C  C171  1  0.91632219  0.30622443  0.24209283  1
  C  C172  1  0.23876404  0.17065506  0.24120436  1
  C  C173  1  0.73744671  0.16696937  0.24237308  1
  C  C174  1  0.31502011  0.49644933  0.92505455  1
  C  C175  1  0.82060457  0.49925080  0.92567712  1
  C  C176  1  0.42030127  0.35665844  0.92437740  1
  C  C177  1  0.92933261  0.35820844  0.92563619  1
  C  C178  1  0.24781421  0.13963739  0.92608839  1
  C  C179  1  0.75108177  0.14455535  0.92501187  1
  C  C180  1  0.32214016  0.14400261  0.42436038  1
  C  C181  1  0.81484994  0.13455098  0.42445373  1
  C  C182  1  0.25152904  0.35773934  0.42419477  1
  C  C183  1  0.74623662  0.35423733  0.42429968  1
  C  C184  1  0.42918641  0.49950673  0.42421903  1
  C  C185  1  0.91874962  0.48254120  0.42421086  1
  C  C186  1  0.17964108  0.49968124  0.07405142  1
  C  C187  1  0.68243286  0.50267029  0.07793912  1
  C  C188  1  0.07026611  0.64121795  0.07452844  1
  C  C189  1  0.57127997  0.64677452  0.07707348  1
  C  C190  1  0.25003189  0.85720529  0.07539049  1
  C  C191  1  0.74980530  0.85875013  0.07404170  1
  C  C192  1  0.18388154  0.86374780  0.57708416  1
  C  C193  1  0.67949762  0.86167298  0.57374294  1
  C  C194  1  0.25008708  0.64071443  0.57323311  1
  C  C195  1  0.74872429  0.63984844  0.57402082  1
  C  C196  1  0.07113136  0.49459483  0.57596240  1
  C  C197  1  0.56954948  0.49922513  0.57395644  1
  C  C198  1  0.15688135  0.83832887  0.25646628  1
  C  C199  1  0.65329776  0.83343624  0.25919285  1
  C  C200  1  0.26307827  0.69270845  0.25930702  1
  C  C201  1  0.76230461  0.69091287  0.25827156  1
  C  C202  1  0.08466591  0.46970893  0.25601145  1
  C  C203  1  0.58302463  0.47367788  0.25887786  1
  C  C204  1  0.15845189  0.47569774  0.75943085  1
  C  C205  1  0.65479915  0.47305693  0.75648724  1
  C  C206  1  0.08979018  0.68978961  0.75932908  1
  C  C207  1  0.58446354  0.69949302  0.75617071  1
  C  C208  1  0.26593919  0.83447199  0.75831982  1
  C  C209  1  0.76183948  0.82842985  0.76033902  1
