# generated using pymatgen
data_Cu4Ni9C65
_symmetry_space_group_name_H-M   'P 1'
_cell_length_a   18.07609290
_cell_length_b   9.05415386
_cell_length_c   22.97786833
_cell_angle_alpha   90.17513599
_cell_angle_beta   89.96508211
_cell_angle_gamma   120.05705060
_symmetry_Int_Tables_number   1
_chemical_formula_structural   Cu4Ni9C65
_chemical_formula_sum   'Cu12 Ni27 C195'
_cell_volume   3254.92191106
_cell_formula_units_Z   3
loop_
 _symmetry_equiv_pos_site_id
 _symmetry_equiv_pos_as_xyz
  1  'x, y, z'
loop_
 _atom_site_type_symbol
 _atom_site_label
 _atom_site_symmetry_multiplicity
 _atom_site_fract_x
 _atom_site_fract_y
 _atom_site_fract_z
 _atom_site_occupancy
  C  C0  1  0.32020581  0.99922108  0.24934909  1
  C  C1  1  0.82126742  -0.00019482  0.24963974  1
  C  C2  1  0.18380470  0.99257528  0.74828005  1
  C  C3  1  0.68313243  0.99586382  0.74765641  1
  C  C4  1  0.01775179  0.70522183  0.58139112  1
  C  C5  1  0.51715277  0.70499898  0.58167949  1
  C  C6  1  0.01875478  0.33146456  0.08148283  1
  C  C7  1  0.51583896  0.32615223  0.08223749  1
  C  C8  1  0.48419771  0.66538232  0.91461000  1
  C  C9  1  0.34841123  0.03171652  0.91655322  1
  C  C10  1  0.85109272  0.04050243  0.91477832  1
  C  C11  1  0.16598607  0.30342876  0.91941590  1
  C  C12  1  0.48448671  0.30268356  0.41487905  1
  C  C13  1  0.98544891  0.30484349  0.41496943  1
  C  C14  1  0.16657928  0.03140079  0.41886317  1
  C  C15  1  0.66645479  0.03173687  0.41880588  1
  C  C16  1  0.34896810  0.66561798  0.41613731  1
  C  C17  1  0.84902717  0.66551995  0.41650376  1
  C  C18  1  0.00150201  0.00091946  0.50068226  1
  C  C19  1  0.50028594  0.99977722  0.50108525  1
  C  C20  1  0.00522274  0.00215167  0.00121319  1
  C  C21  1  0.50325888  0.00718935  0.99970103  1
  C  C22  1  0.33871878  0.33841113  0.83252141  1
  C  C23  1  0.84111341  0.34176330  0.83226373  1
  C  C24  1  0.33656443  0.34518107  0.33203830  1
  C  C25  1  0.83728150  0.34578196  0.33244511  1
  C  C26  1  0.17119092  0.66193888  0.16661283  1
  C  C27  1  0.67053911  0.66066381  0.16802250  1
  C  C28  1  0.17412905  0.67422440  0.66691495  1
  C  C29  1  0.67378117  0.67229418  0.66515057  1
  C  C30  1  0.99500974  0.99627348  0.35218344  1
  C  C31  1  0.99750459  0.99431730  0.85067764  1
  C  C32  1  0.49543119  0.99666027  0.85353544  1
  C  C33  1  0.99462456  0.98236821  0.64675891  1
  C  C34  1  0.99647930  0.00852528  0.14753252  1
  C  C35  1  0.83243686  0.33990504  0.18600420  1
  C  C36  1  0.82868131  0.31920893  0.98180002  1
  C  C37  1  0.17360202  0.67172954  0.01849953  1
  C  C38  1  0.66809954  0.66753028  0.02012292  1
  C  C39  1  0.17470976  0.67700269  0.51926900  1
  C  C40  1  0.16652156  0.67165065  0.81583717  1
  C  C41  1  0.66166373  0.67208736  0.81260746  1
  Ni  Ni42  1  0.35407398  0.70482017  0.24963181  1
  Ni  Ni43  1  0.85215786  0.70451059  0.25024489  1
  Ni  Ni44  1  0.00172423  0.30021594  0.25067269  1
  Ni  Ni45  1  0.50106319  0.29912480  0.25009467  1
  Ni  Ni46  1  0.99766081  0.70000560  0.74927464  1
  Ni  Ni47  1  0.49582004  0.70246728  0.74963335  1
  Ni  Ni48  1  0.35467045  0.00245034  0.74867220  1
  Ni  Ni49  1  0.85397324  0.00197524  0.74961724  1
  Ni  Ni50  1  0.18796511  0.04425076  0.58440006  1
  Ni  Ni51  1  0.68697737  0.04250085  0.58468637  1
  Ni  Ni52  1  0.33135435  0.62067359  0.58449969  1
  Ni  Ni53  1  0.82882373  0.61838791  0.58326216  1
  Ni  Ni54  1  0.33070372  0.04097555  0.08487277  1
  Ni  Ni55  1  0.83068969  0.03883525  0.08487884  1
  Ni  Ni56  1  0.18807015  0.33275874  0.08388309  1
  Ni  Ni57  1  0.68574045  0.32927859  0.08423902  1
  Ni  Ni58  1  0.31227860  0.66267717  0.91602365  1
  Ni  Ni59  1  0.02017981  0.37852107  0.91725117  1
  Ni  Ni60  1  0.52181695  0.37521789  0.91814180  1
  Ni  Ni61  1  0.16296363  0.95320772  0.91759352  1
  Ni  Ni62  1  0.66566877  0.95896875  0.91702414  1
  Ni  Ni63  1  0.31203634  0.96014852  0.41472149  1
  Ni  Ni64  1  0.81085996  0.95889409  0.41517653  1
  Ni  Ni65  1  0.16582805  0.37459765  0.41803167  1
  Ni  Ni66  1  0.66512015  0.37432153  0.41773374  1
  Ni  Ni67  1  0.02217906  0.66539216  0.41785575  1
  Ni  Ni68  1  0.52260266  0.66657682  0.41735038  1
  Cu  Cu69  1  0.49522188  0.99665360  0.35173489  1
  Cu  Cu70  1  0.49541345  0.98300961  0.64785213  1
  Cu  Cu71  1  0.49558377  0.00890940  0.14797982  1
  Cu  Cu72  1  0.33454558  0.33355761  0.68542967  1
  Cu  Cu73  1  0.83418732  0.33438990  0.68528185  1
  Cu  Cu74  1  0.33236991  0.33798218  0.18598027  1
  Cu  Cu75  1  0.32791153  0.31940124  0.98048268  1
  Cu  Cu76  1  0.32922557  0.33582029  0.48126587  1
  Cu  Cu77  1  0.82884593  0.33441639  0.48117746  1
  Cu  Cu78  1  0.67336234  0.67614269  0.51802186  1
  Cu  Cu79  1  0.16608343  0.65313133  0.31569728  1
  Cu  Cu80  1  0.66565305  0.65288016  0.31565625  1
  C  C81  1  0.14467499  0.99814850  0.24994847  1
  C  C82  1  0.64441797  0.99876307  0.24942690  1
  C  C83  1  0.14420067  0.29083299  0.74912648  1
  C  C84  1  0.64424721  0.29075440  0.74961752  1
  C  C85  1  0.48018871  0.33131811  0.58290465  1
  C  C86  1  0.97935809  0.33105994  0.58283926  1
  C  C87  1  0.47943901  0.62852582  0.08316384  1
  C  C88  1  0.97808158  0.62493515  0.08312457  1
  C  C89  1  0.81077674  0.66343302  0.91598801  1
  C  C90  1  0.10612425  0.02485711  0.30326065  1
  C  C91  1  0.60848760  0.02960057  0.30358614  1
  C  C92  1  0.41149408  0.78537714  0.30921760  1
  C  C93  1  0.91038127  0.79187814  0.30857358  1
  C  C94  1  0.48065355  0.17581498  0.30801070  1
  C  C95  1  0.98436732  0.17517248  0.30711553  1
  C  C96  1  0.10545859  0.18370721  0.80267051  1
  C  C97  1  0.60508487  0.18108254  0.80126284  1
  C  C98  1  0.48666822  0.79625420  0.80738767  1
  C  C99  1  0.98546367  0.79920582  0.80501608  1
  C  C100  1  0.41289497  0.03415973  0.80688999  1
  C  C101  1  0.91089516  0.03036752  0.80863701  1
  C  C102  1  0.40025002  0.97555725  0.69143936  1
  C  C103  1  0.90247222  0.97917854  0.69398189  1
  C  C104  1  0.09172911  0.20915398  0.69779244  1
  C  C105  1  0.59278246  0.21698459  0.69643730  1
  C  C106  1  0.01741721  0.82648842  0.69276069  1
  C  C107  1  0.52358848  0.82770997  0.69234955  1
  C  C108  1  0.39874137  0.83112730  0.19357522  1
  C  C109  1  0.90061184  0.83138116  0.19530530  1
  C  C110  1  0.01512856  0.20700141  0.19323390  1
  C  C111  1  0.51907712  0.21784984  0.19186772  1
  C  C112  1  0.09200809  0.97471568  0.19829207  1
  C  C113  1  0.59102343  0.97062520  0.19762319  1
  C  C114  1  0.44182368  0.36534914  0.63480700  1
  C  C115  1  0.94083122  0.36562551  0.63473212  1
  C  C116  1  0.24607421  0.12553777  0.64301880  1
  C  C117  1  0.74531786  0.12396531  0.64314326  1
  C  C118  1  0.31843832  0.50320756  0.64102145  1
  C  C119  1  0.81755348  0.50308380  0.64018152  1
  C  C120  1  0.44264898  0.51801006  0.13493412  1
  C  C121  1  0.93790433  0.51440267  0.13506068  1
  C  C122  1  0.31912236  0.13001893  0.14379730  1
  C  C123  1  0.81984339  0.13175883  0.14209241  1
  C  C124  1  0.24914787  0.36994655  0.14031917  1
  C  C125  1  0.74722126  0.36236720  0.13991392  1
  C  C126  1  0.22807748  0.30234039  0.02367610  1
  C  C127  1  0.73322137  0.30755850  0.02713857  1
  C  C128  1  0.42807819  0.55414104  0.02962583  1
  C  C129  1  0.92463385  0.54572846  0.03096119  1
  C  C130  1  0.35652692  0.16619558  0.02682093  1
  C  C131  1  0.85137486  0.16206086  0.02727772  1
  C  C132  1  0.22899513  0.15426616  0.52451765  1
  C  C133  1  0.72758335  0.15283247  0.52487978  1
  C  C134  1  0.35647365  0.54851422  0.52553206  1
  C  C135  1  0.85595913  0.54813704  0.52494158  1
  C  C136  1  0.42797712  0.30175281  0.52934446  1
  C  C137  1  0.92688216  0.30120192  0.52932570  1
  C  C138  1  0.27144740  0.70510089  0.97220133  1
  C  C139  1  0.77277594  0.69720863  0.96839551  1
  C  C140  1  0.07948403  0.45790339  0.97553215  1
  C  C141  1  0.57876834  0.46398343  0.97612321  1
  C  C142  1  0.14988979  0.83627889  0.97369165  1
  C  C143  1  0.65111207  0.83299649  0.97170614  1
  C  C144  1  0.27009080  0.83586694  0.47054336  1
  C  C145  1  0.77427388  0.83675570  0.47163698  1
  C  C146  1  0.14590711  0.46064979  0.47338056  1
  C  C147  1  0.64252153  0.45425781  0.47407545  1
  C  C148  1  0.07996072  0.69953648  0.47614951  1
  C  C149  1  0.58014902  0.70440049  0.47667330  1
  C  C150  1  0.06306958  0.62673551  0.36039881  1
  C  C151  1  0.56347537  0.62748316  0.36037759  1
  C  C152  1  0.25170295  0.88254229  0.35674896  1
  C  C153  1  0.75090306  0.88212363  0.35690229  1
  C  C154  1  0.19018083  0.49614152  0.36100116  1
  C  C155  1  0.69000445  0.49606178  0.36097082  1
  C  C156  1  0.06678813  0.49309858  0.86019392  1
  C  C157  1  0.56752287  0.50013772  0.86238357  1
  C  C158  1  0.18457414  0.87663454  0.85929416  1
  C  C159  1  0.68580729  0.87436869  0.85978886  1
  C  C160  1  0.25039109  0.62489160  0.86034497  1
  C  C161  1  0.75857252  0.63762405  0.86411893  1
  C  C162  1  0.01246062  0.83543381  0.41005144  1
  C  C163  1  0.51368533  0.83893162  0.41030643  1
  C  C164  1  0.40704185  0.97747469  0.41206101  1
  C  C165  1  0.90618472  0.97918864  0.40986733  1
  C  C166  1  0.08289117  0.18366372  0.40934364  1
  C  C167  1  0.58130849  0.18177323  0.40922361  1
  C  C168  1  0.00900129  0.18440364  0.90976939  1
  C  C169  1  0.50785725  0.18458592  0.91048358  1
  C  C170  1  0.08322579  0.98875968  0.90886804  1
  C  C171  1  0.58037049  0.97170727  0.90886087  1
  C  C172  1  0.40667640  0.83417216  0.91058944  1
  C  C173  1  0.89641954  0.82348429  0.91069067  1
  C  C174  1  0.48979313  0.17974961  0.58976968  1
  C  C175  1  0.98912859  0.18123868  0.59041108  1
  C  C176  1  0.09245064  0.02359215  0.59034672  1
  C  C177  1  0.59071793  0.02332114  0.59040922  1
  C  C178  1  0.42023054  0.80984421  0.58710569  1
  C  C179  1  0.91721938  0.80675494  0.58912976  1
  C  C180  1  0.49028513  0.80008201  0.09067317  1
  C  C181  1  0.98811948  0.79554706  0.09107853  1
  C  C182  1  0.41974356  0.02964738  0.08738451  1
  C  C183  1  0.91894348  0.02730330  0.08907620  1
  C  C184  1  0.09254641  0.16136796  0.09054665  1
  C  C185  1  0.58977072  0.15628960  0.09004148  1
  C  C186  1  0.33936592  0.16886609  0.74400251  1
  C  C187  1  0.83790111  0.16684525  0.74425403  1
  C  C188  1  0.22941423  0.30177592  0.74566105  1
  C  C189  1  0.72980682  0.30254418  0.74499978  1
  C  C190  1  0.41224193  0.51366549  0.74329071  1
  C  C191  1  0.91153724  0.51341770  0.74313890  1
  C  C192  1  0.34436841  0.51582220  0.24433392  1
  C  C193  1  0.84275425  0.51732265  0.24398451  1
  C  C194  1  0.40983604  0.30002357  0.24344814  1
  C  C195  1  0.91178737  0.30145319  0.24280375  1
  C  C196  1  0.23220440  0.15218480  0.24592711  1
  C  C197  1  0.73167359  0.15239996  0.24376098  1
  C  C198  1  0.32485662  0.49636738  0.92400502  1
  C  C199  1  0.82275028  0.51603888  0.92406629  1
  C  C200  1  0.42719324  0.36238201  0.92385073  1
  C  C201  1  0.92401821  0.35301750  0.92383133  1
  C  C202  1  0.25090001  0.14444102  0.92013832  1
  C  C203  1  0.75329292  0.14478927  0.92267484  1
  C  C204  1  0.32425277  0.15133427  0.42364674  1
  C  C205  1  0.82372334  0.15099843  0.42348786  1
  C  C206  1  0.25197562  0.35595082  0.42134620  1
  C  C207  1  0.75080672  0.35469681  0.42165260  1
  C  C208  1  0.42731032  0.49402901  0.42374924  1
  C  C209  1  0.92630650  0.49226442  0.42349422  1
  C  C210  1  0.17083878  0.49443555  0.07816643  1
  C  C211  1  0.67078237  0.49358980  0.07681376  1
  C  C212  1  0.06215972  0.63547607  0.07780602  1
  C  C213  1  0.56472517  0.63997218  0.07694676  1
  C  C214  1  0.24645477  0.85448538  0.07882597  1
  C  C215  1  0.74802624  0.85110404  0.07583551  1
  C  C216  1  0.17143858  0.84825036  0.57844562  1
  C  C217  1  0.66995350  0.84488681  0.57891407  1
  C  C218  1  0.24698991  0.63879418  0.57825874  1
  C  C219  1  0.74405924  0.63748454  0.57845900  1
  C  C220  1  0.06351803  0.48978842  0.57711367  1
  C  C221  1  0.56446189  0.49090052  0.57778858  1
  C  C222  1  0.15582793  0.84690935  0.25486699  1
  C  C223  1  0.65615040  0.84825383  0.25487107  1
  C  C224  1  0.26287486  0.70587683  0.25526759  1
  C  C225  1  0.76084095  0.70559633  0.25524865  1
  C  C226  1  0.08650763  0.48892943  0.25424644  1
  C  C227  1  0.58529586  0.48866998  0.25466820  1
  C  C228  1  0.15425627  0.46209523  0.75572818  1
  C  C229  1  0.65593310  0.46318378  0.75768930  1
  C  C230  1  0.08582589  0.69238958  0.75533159  1
  C  C231  1  0.58418697  0.69104213  0.75604284  1
  C  C232  1  0.25924688  0.83405840  0.75511317  1
  C  C233  1  0.75895619  0.83123511  0.75705480  1
