# generated using pymatgen
data_Cu6NiC10
_symmetry_space_group_name_H-M   'P 1'
_cell_length_a   3.86934801
_cell_length_b   5.32390185
_cell_length_c   9.98485800
_cell_angle_alpha   90.00000000
_cell_angle_beta   90.00000000
_cell_angle_gamma   111.31512455
_symmetry_Int_Tables_number   1
_chemical_formula_structural   Cu6NiC10
_chemical_formula_sum   'Cu6 Ni1 C10'
_cell_volume   191.61831497
_cell_formula_units_Z   1
loop_
 _symmetry_equiv_pos_site_id
 _symmetry_equiv_pos_as_xyz
  1  'x, y, z'
loop_
 _atom_site_type_symbol
 _atom_site_label
 _atom_site_symmetry_multiplicity
 _atom_site_fract_x
 _atom_site_fract_y
 _atom_site_fract_z
 _atom_site_occupancy
  Ni  Ni0  1  0.49633100  0.99109700  0.25000000  1
  Cu  Cu1  1  0.20846600  0.41548700  0.25000000  1
  Cu  Cu2  1  0.14683200  0.29330000  0.95128200  1
  Cu  Cu3  1  0.14683200  0.29330000  0.54871800  1
  Cu  Cu4  1  0.79744500  0.59446300  0.75000000  1
  Cu  Cu5  1  0.85626000  0.71176700  0.03817900  1
  Cu  Cu6  1  0.85626000  0.71176700  0.46182100  1
  C  C7  1  0.32844000  0.65604200  0.40923400  1
  C  C8  1  0.32844000  0.65604200  0.09076600  1
  C  C9  1  0.69042500  0.38033100  0.57629100  1
  C  C10  1  0.69042500  0.38033100  0.92370900  1
  C  C11  1  0.25023500  0.50014800  0.75000000  1
  C  C12  1  0.04363500  0.08636900  0.12380700  1
  C  C13  1  0.04363500  0.08636900  0.37619300  1
  C  C14  1  0.95640700  0.91236300  0.87910000  1
  C  C15  1  0.70352400  0.40596200  0.25000000  1
  C  C16  1  0.95640700  0.91236300  0.62090000  1
