# generated using pymatgen
data_Cu5NiC35
_symmetry_space_group_name_H-M   'P 1'
_cell_length_a   9.06579921
_cell_length_b   9.05222813
_cell_length_c   22.01804838
_cell_angle_alpha   89.75802180
_cell_angle_beta   90.11333737
_cell_angle_gamma   119.84115901
_symmetry_Int_Tables_number   1
_chemical_formula_structural   Cu5NiC35
_chemical_formula_sum   'Cu15 Ni3 C105'
_cell_volume   1567.32862586
_cell_formula_units_Z   3
loop_
 _symmetry_equiv_pos_site_id
 _symmetry_equiv_pos_as_xyz
  1  'x, y, z'
loop_
 _atom_site_type_symbol
 _atom_site_label
 _atom_site_symmetry_multiplicity
 _atom_site_fract_x
 _atom_site_fract_y
 _atom_site_fract_z
 _atom_site_occupancy
  C  C0  1  0.65328394  0.01759746  0.24248062  1
  C  C1  1  0.98478934  0.63267701  0.24240595  1
  C  C2  1  0.65050698  0.63453367  0.74561526  1
  C  C3  1  0.98245950  0.34736158  0.74695291  1
  C  C4  1  0.36666970  0.01686447  0.74604448  1
  C  C5  1  0.29293186  0.33553417  0.58532394  1
  C  C6  1  0.04603591  0.70956757  0.58217918  1
  C  C7  1  0.66269219  0.95320118  0.58260121  1
  C  C8  1  0.29173341  0.95738862  0.08481180  1
  C  C9  1  0.66513684  0.70588016  0.08452628  1
  C  C10  1  0.04592431  0.33699508  0.08175928  1
  C  C11  1  0.97670960  0.68114454  0.91462430  1
  C  C12  1  0.97607601  0.28867435  0.40872436  1
  C  C13  1  0.30986428  0.01884794  0.41112541  1
  C  C14  1  0.71630097  0.69549661  0.41188158  1
  C  C15  1  0.99455714  0.99363790  0.49656444  1
  C  C16  1  0.00215758  0.01922688  0.99411638  1
  C  C17  1  0.65809637  0.32148439  0.83065270  1
  C  C18  1  0.65500994  0.33439303  0.32065836  1
  C  C19  1  0.33359946  0.65294036  0.15802458  1
  C  C20  1  0.33501581  0.66819732  0.65927002  1
  C  C21  1  0.66541087  0.32965968  0.97877622  1
  C  C22  1  0.66900610  0.33309742  0.47956910  1
  C  C23  1  0.33165825  0.66615410  0.31522275  1
  C  C24  1  0.33186206  0.66438894  0.81895725  1
  C  C25  1  0.99544662  0.99474373  0.34594781  1
  C  C26  1  0.00078852  0.01407415  0.85131068  1
  C  C27  1  0.99906015  0.00115920  0.65563115  1
  C  C28  1  0.00293524  0.00394910  0.15364200  1
  C  C29  1  0.66730368  0.33301207  0.68047455  1
  C  C30  1  0.66017479  0.33340244  0.18085325  1
  C  C31  1  0.33137180  0.65924707  0.01206099  1
  C  C32  1  0.33658544  0.67382746  0.51099142  1
  Ni  Ni33  1  0.03473136  0.36257863  0.92189345  1
  Ni  Ni34  1  0.63003068  0.96152687  0.42006753  1
  Ni  Ni35  1  0.03869360  0.66879038  0.42036196  1
  Cu  Cu36  1  0.29723804  0.99937732  0.25173156  1
  Cu  Cu37  1  0.69915985  0.70052805  0.25050135  1
  Cu  Cu38  1  0.00407341  0.29903899  0.25050981  1
  Cu  Cu39  1  0.29717549  0.29915969  0.74965517  1
  Cu  Cu40  1  0.00465984  0.70575019  0.75139159  1
  Cu  Cu41  1  0.69966897  0.99574569  0.74901866  1
  Cu  Cu42  1  0.96215636  0.33352712  0.58550973  1
  Cu  Cu43  1  0.37261523  0.04003100  0.58560449  1
  Cu  Cu44  1  0.66466308  0.62563745  0.58508580  1
  Cu  Cu45  1  0.95894047  0.62636809  0.08479892  1
  Cu  Cu46  1  0.66501321  0.03860737  0.08526976  1
  Cu  Cu47  1  0.37643345  0.33469651  0.08407159  1
  Cu  Cu48  1  0.63007549  0.66575104  0.91992759  1
  Cu  Cu49  1  0.33459092  0.96185227  0.91932525  1
  Cu  Cu50  1  0.33600366  0.37615335  0.42053466  1
  C  C51  1  0.21645063  0.01828990  0.30974060  1
  C  C52  1  0.80455345  0.78011917  0.30825906  1
  C  C53  1  0.97857392  0.19186171  0.30789255  1
  C  C54  1  0.21094335  0.17759795  0.80189472  1
  C  C55  1  0.97717441  0.78784167  0.80705509  1
  C  C56  1  0.81772984  0.02556506  0.80179151  1
  C  C57  1  0.76297205  0.95333952  0.68937306  1
  C  C58  1  0.19035009  0.24000779  0.69021064  1
  C  C59  1  0.04374800  0.81496221  0.69269988  1
  C  C60  1  0.76994559  0.81552062  0.19367789  1
  C  C61  1  0.03166168  0.22418532  0.19225726  1
  C  C62  1  0.18559884  0.95925840  0.19460406  1
  C  C63  1  0.88065193  0.35893141  0.64224293  1
  C  C64  1  0.47768114  0.12301292  0.64259501  1
  C  C65  1  0.64397325  0.52173984  0.64265171  1
  C  C66  1  0.87916066  0.51840473  0.14192799  1
  C  C67  1  0.63919104  0.11649568  0.14319276  1
  C  C68  1  0.48608775  0.36254579  0.13977075  1
  C  C69  1  0.47828380  0.31836925  0.02729864  1
  C  C70  1  0.83965038  0.52258427  0.02784666  1
  C  C71  1  0.67919537  0.16174844  0.02963646  1
  C  C72  1  0.47649125  0.15780999  0.52848612  1
  C  C73  1  0.67829273  0.52124461  0.52815719  1
  C  C74  1  0.84157575  0.31943753  0.52839987  1
  C  C75  1  0.55242753  0.69122142  0.97754440  1
  C  C76  1  0.13523507  0.45388452  0.98235708  1
  C  C77  1  0.31269593  0.85819387  0.97672071  1
  C  C78  1  0.55736707  0.84815119  0.48016236  1
  C  C79  1  0.30480966  0.44728520  0.47838213  1
  C  C80  1  0.14600677  0.69650543  0.48100999  1
  C  C81  1  0.13344424  0.62946552  0.36192583  1
  C  C82  1  0.49704785  0.86187570  0.36174339  1
  C  C83  1  0.36727411  0.50108233  0.36584089  1
  C  C84  1  0.13843472  0.50062883  0.86225313  1
  C  C85  1  0.36394500  0.86764822  0.86252354  1
  C  C86  1  0.50872421  0.64404548  0.86348536  1
  C  C87  1  0.01122003  0.82970585  0.41113196  1
  C  C88  1  0.82192355  0.00055500  0.41071056  1
  C  C89  1  0.18866667  0.19754643  0.41012618  1
  C  C90  1  0.00666584  0.17746778  0.91243146  1
  C  C91  1  0.17631625  0.97306223  0.90826649  1
  C  C92  1  0.81008449  0.80591049  0.90984791  1
  C  C93  1  0.96451528  0.16458763  0.58242736  1
  C  C94  1  0.19989845  0.03475825  0.58269157  1
  C  C95  1  0.83139094  0.79808275  0.58202854  1
  C  C96  1  0.96268586  0.79880899  0.08259370  1
  C  C97  1  0.83226357  0.03403043  0.08241960  1
  C  C98  1  0.20314599  0.16812568  0.08284163  1
  C  C99  1  0.67026589  0.15051538  0.74538396  1
  C  C100  1  0.48139528  0.33141794  0.74557058  1
  C  C101  1  0.85298450  0.52155209  0.74692254  1
  C  C102  1  0.68332046  0.52436141  0.24522002  1
  C  C103  1  0.84954032  0.32863046  0.24802786  1
  C  C104  1  0.48272637  0.14338921  0.24756825  1
  C  C105  1  0.63242735  0.49156900  0.92160990  1
  C  C106  1  0.84909718  0.36744928  0.92165773  1
  C  C107  1  0.50128261  0.14073891  0.92144442  1
  C  C108  1  0.62915111  0.14729196  0.42322773  1
  C  C109  1  0.50734738  0.36940826  0.42299875  1
  C  C110  1  0.84780836  0.48898034  0.42302220  1
  C  C111  1  0.35673005  0.49426205  0.07900945  1
  C  C112  1  0.13918685  0.65075283  0.07997585  1
  C  C113  1  0.50658118  0.86130903  0.07808651  1
  C  C114  1  0.35431157  0.86232509  0.58165995  1
  C  C115  1  0.50429927  0.64176550  0.58044780  1
  C  C116  1  0.13961217  0.48989043  0.57960991  1
  C  C117  1  0.30970667  0.82546067  0.25824145  1
  C  C118  1  0.51671005  0.68482907  0.25955288  1
  C  C119  1  0.16914592  0.48346624  0.25795855  1
  C  C120  1  0.31636166  0.48442128  0.76026894  1
  C  C121  1  0.17375545  0.68999790  0.75856865  1
  C  C122  1  0.51578256  0.83059899  0.75846484  1
