# generated using pymatgen
data_CuNiC5
_symmetry_space_group_name_H-M   'P 1'
_cell_length_a   3.18669500
_cell_length_b   3.18661669
_cell_length_c   22.35012500
_cell_angle_alpha   90.00015125
_cell_angle_beta   89.99999231
_cell_angle_gamma   120.00061160
_symmetry_Int_Tables_number   1
_chemical_formula_structural   CuNiC5
_chemical_formula_sum   'Cu1 Ni1 C5'
_cell_volume   196.55234847
_cell_formula_units_Z   1
loop_
 _symmetry_equiv_pos_site_id
 _symmetry_equiv_pos_as_xyz
  1  'x, y, z'
loop_
 _atom_site_type_symbol
 _atom_site_label
 _atom_site_symmetry_multiplicity
 _atom_site_fract_x
 _atom_site_fract_y
 _atom_site_fract_z
 _atom_site_occupancy
  C  C0  1  0.33361800  0.73964300  0.79980200  1
  Ni  Ni1  1  0.33331200  0.66662300  0.15043800  1
  Cu  Cu2  1  0.66668800  0.33337600  0.45143500  1
  C  C3  1  0.33335600  0.66671200  0.52176000  1
  C  C4  1  0.66664400  0.33328700  0.08043300  1
  C  C5  1  0.66664700  0.33329100  0.22043700  1
  C  C6  1  0.33335400  0.66670800  0.38109700  1
