# generated using pymatgen
data_Cu12Ni3C2
_symmetry_space_group_name_H-M   'P 1'
_cell_length_a   9.68423354
_cell_length_b   9.68423316
_cell_length_c   24.60576719
_cell_angle_alpha   90.00000000
_cell_angle_beta   90.00000000
_cell_angle_gamma   120.00000131
_symmetry_Int_Tables_number   1
_chemical_formula_structural   Cu12Ni3C2
_chemical_formula_sum   'Cu72 Ni18 C12'
_cell_volume   1998.47181481
_cell_formula_units_Z   6
loop_
 _symmetry_equiv_pos_site_id
 _symmetry_equiv_pos_as_xyz
  1  'x, y, z'
loop_
 _atom_site_type_symbol
 _atom_site_label
 _atom_site_symmetry_multiplicity
 _atom_site_fract_x
 _atom_site_fract_y
 _atom_site_fract_z
 _atom_site_occupancy
  C  C0  1  -0.00000000  -0.00000000  0.35505660  1
  C  C1  1  -0.00000000  -0.00000000  0.85505660  1
  C  C2  1  -0.00000000  -0.00000000  0.64494340  1
  C  C3  1  -0.00000000  -0.00000000  0.14494340  1
  C  C4  1  0.66666700  0.33333300  0.68838960  1
  C  C5  1  0.66666700  0.33333300  0.18838960  1
  C  C6  1  0.66666700  0.33333300  0.97827640  1
  C  C7  1  0.66666700  0.33333300  0.47827640  1
  C  C8  1  0.33333300  0.66666700  0.02172360  1
  C  C9  1  0.33333300  0.66666700  0.52172360  1
  C  C10  1  0.33333300  0.66666700  0.31161040  1
  C  C11  1  0.33333300  0.66666700  0.81161040  1
  Ni  Ni12  1  0.29211807  -0.00000000  0.25000000  1
  Ni  Ni13  1  0.70788193  0.70788193  0.25000000  1
  Ni  Ni14  1  1.00000000  0.29211807  0.25000000  1
  Ni  Ni15  1  0.29211807  0.29211807  0.75000000  1
  Ni  Ni16  1  0.00000000  0.70788193  0.75000000  1
  Ni  Ni17  1  0.70788193  -0.00000000  0.75000000  1
  Ni  Ni18  1  0.95878507  0.33333300  0.58333300  1
  Ni  Ni19  1  0.37454893  0.04121493  0.58333300  1
  Ni  Ni20  1  0.66666700  0.62545107  0.58333300  1
  Ni  Ni21  1  0.95878507  0.62545107  0.08333300  1
  Ni  Ni22  1  0.66666700  0.04121493  0.08333300  1
  Ni  Ni23  1  0.37454893  0.33333300  0.08333300  1
  Ni  Ni24  1  0.62545107  0.66666700  0.91666700  1
  Ni  Ni25  1  0.04121493  0.37454893  0.91666700  1
  Ni  Ni26  1  0.33333300  0.95878507  0.91666700  1
  Ni  Ni27  1  0.62545107  0.95878507  0.41666700  1
  Ni  Ni28  1  0.33333300  0.37454893  0.41666700  1
  Ni  Ni29  1  0.04121493  0.66666700  0.41666700  1
  Cu  Cu30  1  0.21561788  0.02386541  0.29873816  1
  Cu  Cu31  1  0.80824752  0.78438212  0.29873816  1
  Cu  Cu32  1  0.97613459  0.19175248  0.29873816  1
  Cu  Cu33  1  0.21561788  0.19175248  0.79873816  1
  Cu  Cu34  1  0.97613459  0.78438212  0.79873816  1
  Cu  Cu35  1  0.80824752  0.02386541  0.79873816  1
  Cu  Cu36  1  0.78438212  0.97613459  0.70126184  1
  Cu  Cu37  1  0.19175248  0.21561788  0.70126184  1
  Cu  Cu38  1  0.02386541  0.80824752  0.70126184  1
  Cu  Cu39  1  0.78438212  0.80824752  0.20126184  1
  Cu  Cu40  1  0.02386541  0.21561788  0.20126184  1
  Cu  Cu41  1  0.19175248  0.97613459  0.20126184  1
  Cu  Cu42  1  0.88228488  0.35719841  0.63207116  1
  Cu  Cu43  1  0.47491452  0.11771512  0.63207116  1
  Cu  Cu44  1  0.64280159  0.52508548  0.63207116  1
  Cu  Cu45  1  0.88228488  0.52508548  0.13207116  1
  Cu  Cu46  1  0.64280159  0.11771512  0.13207116  1
  Cu  Cu47  1  0.47491452  0.35719841  0.13207116  1
  Cu  Cu48  1  0.45104912  0.30946759  0.03459484  1
  Cu  Cu49  1  0.85841948  0.54895088  0.03459484  1
  Cu  Cu50  1  0.69053241  0.14158052  0.03459484  1
  Cu  Cu51  1  0.45104912  0.14158052  0.53459484  1
  Cu  Cu52  1  0.69053241  0.54895088  0.53459484  1
  Cu  Cu53  1  0.85841948  0.30946759  0.53459484  1
  Cu  Cu54  1  0.54895088  0.69053241  0.96540516  1
  Cu  Cu55  1  0.14158052  0.45104912  0.96540516  1
  Cu  Cu56  1  0.30946759  0.85841948  0.96540516  1
  Cu  Cu57  1  0.54895088  0.85841948  0.46540516  1
  Cu  Cu58  1  0.30946759  0.45104912  0.46540516  1
  Cu  Cu59  1  0.14158052  0.69053241  0.46540516  1
  Cu  Cu60  1  0.11771512  0.64280159  0.36792884  1
  Cu  Cu61  1  0.52508548  0.88228488  0.36792884  1
  Cu  Cu62  1  0.35719841  0.47491452  0.36792884  1
  Cu  Cu63  1  0.11771512  0.47491452  0.86792884  1
  Cu  Cu64  1  0.35719841  0.88228488  0.86792884  1
  Cu  Cu65  1  0.52508548  0.64280159  0.86792884  1
  Cu  Cu66  1  0.02355588  0.80901636  0.40901112  1
  Cu  Cu67  1  0.78546048  0.97644412  0.40901112  1
  Cu  Cu68  1  0.19098364  0.21453952  0.40901112  1
  Cu  Cu69  1  0.02355588  0.21453952  0.90901112  1
  Cu  Cu70  1  0.19098364  0.97644412  0.90901112  1
  Cu  Cu71  1  0.78546048  0.80901636  0.90901112  1
  Cu  Cu72  1  0.97644412  0.19098364  0.59098888  1
  Cu  Cu73  1  0.21453952  0.02355588  0.59098888  1
  Cu  Cu74  1  0.80901636  0.78546048  0.59098888  1
  Cu  Cu75  1  0.97644412  0.78546048  0.09098888  1
  Cu  Cu76  1  0.80901636  0.02355588  0.09098888  1
  Cu  Cu77  1  0.21453952  0.19098364  0.09098888  1
  Cu  Cu78  1  0.69022288  0.14234936  0.74234412  1
  Cu  Cu79  1  0.45212748  0.30977712  0.74234412  1
  Cu  Cu80  1  0.85765064  0.54787252  0.74234412  1
  Cu  Cu81  1  0.69022288  0.54787252  0.24234412  1
  Cu  Cu82  1  0.85765064  0.30977712  0.24234412  1
  Cu  Cu83  1  0.45212748  0.14234936  0.24234412  1
  Cu  Cu84  1  0.64311112  0.52431664  0.92432188  1
  Cu  Cu85  1  0.88120652  0.35688888  0.92432188  1
  Cu  Cu86  1  0.47568336  0.11879348  0.92432188  1
  Cu  Cu87  1  0.64311112  0.11879348  0.42432188  1
  Cu  Cu88  1  0.47568336  0.35688888  0.42432188  1
  Cu  Cu89  1  0.88120652  0.52431664  0.42432188  1
  Cu  Cu90  1  0.35688888  0.47568336  0.07567812  1
  Cu  Cu91  1  0.11879348  0.64311112  0.07567812  1
  Cu  Cu92  1  0.52431664  0.88120652  0.07567812  1
  Cu  Cu93  1  0.35688888  0.88120652  0.57567812  1
  Cu  Cu94  1  0.52431664  0.64311112  0.57567812  1
  Cu  Cu95  1  0.11879348  0.47568336  0.57567812  1
  Cu  Cu96  1  0.30977712  0.85765064  0.25765588  1
  Cu  Cu97  1  0.54787252  0.69022288  0.25765588  1
  Cu  Cu98  1  0.14234936  0.45212748  0.25765588  1
  Cu  Cu99  1  0.30977712  0.45212748  0.75765588  1
  Cu  Cu100  1  0.14234936  0.69022288  0.75765588  1
  Cu  Cu101  1  0.54787252  0.85765064  0.75765588  1
