# generated using pymatgen
data_CuNiC15
_symmetry_space_group_name_H-M   'P 1'
_cell_length_a   10.69764400
_cell_length_b   7.90497100
_cell_length_c   10.20604387
_cell_angle_alpha   86.51026488
_cell_angle_beta   90.00000000
_cell_angle_gamma   90.00000000
_symmetry_Int_Tables_number   1
_chemical_formula_structural   CuNiC15
_chemical_formula_sum   'Cu4 Ni4 C60'
_cell_volume   861.46929283
_cell_formula_units_Z   4
loop_
 _symmetry_equiv_pos_site_id
 _symmetry_equiv_pos_as_xyz
  1  'x, y, z'
loop_
 _atom_site_type_symbol
 _atom_site_label
 _atom_site_symmetry_multiplicity
 _atom_site_fract_x
 _atom_site_fract_y
 _atom_site_fract_z
 _atom_site_occupancy
  Ni  Ni0  1  0.78128000  0.24650000  0.33273000  1
  Ni  Ni1  1  0.28128000  0.75350000  0.16727000  1
  Ni  Ni2  1  0.21872000  0.75350000  0.66727000  1
  Ni  Ni3  1  0.71872000  0.24650000  0.83273000  1
  Cu  Cu4  1  0.88660500  0.74816300  0.32620100  1
  Cu  Cu5  1  0.38660500  0.25183700  0.17379900  1
  Cu  Cu6  1  0.11339500  0.25183700  0.67379900  1
  Cu  Cu7  1  0.61339500  0.74816300  0.82620100  1
  C  C8  1  0.65220500  0.96598500  0.12198400  1
  C  C9  1  0.15220500  0.03401500  0.37801600  1
  C  C10  1  0.34779500  0.03401500  0.87801600  1
  C  C11  1  0.84779500  0.96598500  0.62198400  1
  C  C12  1  0.60827500  0.60858300  0.16838000  1
  C  C13  1  0.10827500  0.39141700  0.33162000  1
  C  C14  1  0.39172500  0.39141700  0.83162000  1
  C  C15  1  0.89172500  0.60858300  0.66838000  1
  C  C16  1  0.90709500  0.84782100  0.03571800  1
  C  C17  1  0.40709500  0.15217900  0.46428200  1
  C  C18  1  0.09290500  0.15217900  0.96428200  1
  C  C19  1  0.59290500  0.84782100  0.53571800  1
  C  C20  1  0.01749900  0.71013000  0.03670600  1
  C  C21  1  0.51749900  0.28987000  0.46329400  1
  C  C22  1  0.98250100  0.28987000  0.96329400  1
  C  C23  1  0.48250100  0.71013000  0.53670600  1
  C  C24  1  0.57524700  0.42980700  0.63139600  1
  C  C25  1  0.07524700  0.57019300  0.86860400  1
  C  C26  1  0.42475300  0.57019300  0.36860400  1
  C  C27  1  0.92475300  0.42980700  0.13139600  1
  C  C28  1  0.68927200  0.46531900  0.53753500  1
  C  C29  1  0.18927200  0.53468100  0.96246500  1
  C  C30  1  0.31072800  0.53468100  0.46246500  1
  C  C31  1  0.81072800  0.46531900  0.03753500  1
  C  C32  1  0.95915400  0.77367500  0.09259500  1
  C  C33  1  0.45915400  0.22632500  0.40740500  1
  C  C34  1  0.04084600  0.22632500  0.90740500  1
  C  C35  1  0.54084600  0.77367500  0.59259500  1
  C  C36  1  0.62442800  0.37984900  0.56087600  1
  C  C37  1  0.12442800  0.62015100  0.93912400  1
  C  C38  1  0.37557200  0.62015100  0.43912400  1
  C  C39  1  0.87557200  0.37984900  0.06087600  1
  C  C40  1  0.77051400  0.95087700  0.20590400  1
  C  C41  1  0.27051400  0.04912300  0.29409600  1
  C  C42  1  0.22948600  0.04912300  0.79409600  1
  C  C43  1  0.72948600  0.95087700  0.70590400  1
  C  C44  1  0.57880800  0.12627300  0.14716300  1
  C  C45  1  0.07880800  0.87372700  0.35283700  1
  C  C46  1  0.42119200  0.87372700  0.85283700  1
  C  C47  1  0.92119200  0.12627300  0.64716300  1
  C  C48  1  0.67885400  0.94521900  0.97643300  1
  C  C49  1  0.17885400  0.05478100  0.52356700  1
  C  C50  1  0.32114600  0.05478100  0.02356700  1
  C  C51  1  0.82114600  0.94521900  0.47643300  1
  C  C52  1  0.56080300  0.80654500  0.17164500  1
  C  C53  1  0.06080300  0.19345500  0.32835500  1
  C  C54  1  0.43919700  0.19345500  0.82835500  1
  C  C55  1  0.93919700  0.80654500  0.67164500  1
  C  C56  1  0.71732300  0.58547500  0.26493900  1
  C  C57  1  0.21732300  0.41452500  0.23506100  1
  C  C58  1  0.28267700  0.41452500  0.73506100  1
  C  C59  1  0.78267700  0.58547500  0.76493900  1
  C  C60  1  0.49252700  0.50844400  0.21580200  1
  C  C61  1  0.99252700  0.49155600  0.28419800  1
  C  C62  1  0.50747300  0.49155600  0.78419800  1
  C  C63  1  0.00747300  0.50844400  0.71580200  1
  C  C64  1  0.64673600  0.58044100  0.02661600  1
  C  C65  1  0.14673600  0.41955900  0.47338400  1
  C  C66  1  0.35326400  0.41955900  0.97338400  1
  C  C67  1  0.85326400  0.58044100  0.52661600  1
