# generated using pymatgen
data_CuNiC17
_symmetry_space_group_name_H-M   'P 1'
_cell_length_a   9.00088848
_cell_length_b   8.94472006
_cell_length_c   22.89200222
_cell_angle_alpha   90.37365828
_cell_angle_beta   89.11720865
_cell_angle_gamma   119.88639985
_symmetry_Int_Tables_number   1
_chemical_formula_structural   CuNiC17
_chemical_formula_sum   'Cu6 Ni6 C102'
_cell_volume   1597.75656910
_cell_formula_units_Z   6
loop_
 _symmetry_equiv_pos_site_id
 _symmetry_equiv_pos_as_xyz
  1  'x, y, z'
loop_
 _atom_site_type_symbol
 _atom_site_label
 _atom_site_symmetry_multiplicity
 _atom_site_fract_x
 _atom_site_fract_y
 _atom_site_fract_z
 _atom_site_occupancy
  C  C0  1  0.99421622  0.62732942  0.24011650  1
  C  C1  1  0.99083319  0.34987226  0.76032821  1
  C  C2  1  0.37488656  0.99505301  0.75038244  1
  C  C3  1  0.65577662  0.97215254  0.59082165  1
  C  C4  1  0.67775243  0.68710668  0.07789437  1
  C  C5  1  0.33657050  0.03728457  0.42174460  1
  C  C6  1  0.01522457  0.00236790  0.49941222  1
  C  C7  1  0.01430384  0.99606604  0.00352500  1
  C  C8  1  0.66711006  0.32995853  0.84372939  1
  C  C9  1  0.66683462  0.33364624  0.33030562  1
  C  C10  1  0.31726593  0.66299138  0.16355858  1
  C  C11  1  0.35296236  0.68186318  0.66848845  1
  Ni  Ni12  1  0.99354271  0.00101815  0.34590579  1
  Ni  Ni13  1  0.67504139  0.33482713  0.17219311  1
  Ni  Ni14  1  0.68531230  0.34799864  0.99012349  1
  Ni  Ni15  1  0.65220992  0.32619571  0.48677000  1
  Ni  Ni16  1  0.33927706  0.66373953  0.31809639  1
  Ni  Ni17  1  0.36872728  0.68937418  0.82025047  1
  Cu  Cu18  1  0.98599798  0.99531549  0.85180671  1
  Cu  Cu19  1  0.00027748  0.99528639  0.64824155  1
  Cu  Cu20  1  0.00678377  0.00207034  0.15182757  1
  Cu  Cu21  1  0.65902264  0.32240898  0.67949209  1
  Cu  Cu22  1  0.31735603  0.66932819  0.01762346  1
  Cu  Cu23  1  0.32980059  0.66846655  0.51291135  1
  C  C24  1  0.70122969  0.99869292  0.74702736  1
  C  C25  1  0.35946117  0.02913912  0.57938517  1
  C  C26  1  0.96333503  0.63177323  0.08763630  1
  C  C27  1  0.30238977  0.00141040  0.25449407  1
  C  C28  1  0.69799357  0.70238559  0.25248381  1
  C  C29  1  0.00115607  0.29716825  0.25250387  1
  C  C30  1  0.29737577  0.30060098  0.75190179  1
  C  C31  1  0.99837438  0.69648734  0.75112122  1
  C  C32  1  0.96507633  0.33793306  0.58128483  1
  C  C33  1  0.66555270  0.62579255  0.58079503  1
  C  C34  1  0.66589004  0.03758967  0.08261779  1
  C  C35  1  0.37525996  0.33243690  0.08243234  1
  C  C36  1  0.62624648  0.65931043  0.91931943  1
  C  C37  1  0.03801542  0.37151301  0.91337789  1
  C  C38  1  0.33393946  0.97380502  0.91351300  1
  C  C39  1  0.63644388  0.96478867  0.41464798  1
  C  C40  1  0.33210241  0.36966805  0.41468473  1
  C  C41  1  0.02965557  0.66450740  0.41304363  1
  C  C42  1  0.22360825  0.02552960  0.30888593  1
  C  C43  1  0.81489633  0.79355226  0.30155199  1
  C  C44  1  0.98725549  0.19509881  0.30460872  1
  C  C45  1  0.22135338  0.18144925  0.80254811  1
  C  C46  1  0.97593119  0.77758197  0.80451578  1
  C  C47  1  0.83689962  0.04535411  0.79990545  1
  C  C48  1  0.78027511  0.97510024  0.68450803  1
  C  C49  1  0.19459996  0.22233552  0.69838320  1
  C  C50  1  0.03700347  0.80976326  0.69910457  1
  C  C51  1  0.77233878  0.80114287  0.19640377  1
  C  C52  1  0.02421111  0.21755293  0.19784406  1
  C  C53  1  0.18709013  0.96919925  0.20343522  1
  C  C54  1  0.89930380  0.36625177  0.63866419  1
  C  C55  1  0.47167725  0.10522768  0.64030638  1
  C  C56  1  0.65452095  0.53531528  0.63649459  1
  C  C57  1  0.88601808  0.53461291  0.15014977  1
  C  C58  1  0.63390889  0.10948964  0.13663775  1
  C  C59  1  0.47311192  0.34974861  0.13589227  1
  C  C60  1  0.45027487  0.30286908  0.02922092  1
  C  C61  1  0.83743747  0.54611267  0.03278154  1
  C  C62  1  0.67811712  0.13374085  0.02926614  1
  C  C63  1  0.44753057  0.13434423  0.51977865  1
  C  C64  1  0.68824601  0.54184143  0.52922613  1
  C  C65  1  0.85641558  0.32556350  0.53238695  1
  C  C66  1  0.54310092  0.67984214  0.97373095  1
  C  C67  1  0.14178058  0.45902109  0.96536060  1
  C  C68  1  0.30827685  0.86441720  0.96533751  1
  C  C69  1  0.56641581  0.86870788  0.47165011  1
  C  C70  1  0.30964214  0.44692350  0.47011765  1
  C  C71  1  0.14282889  0.69790777  0.46509616  1
  C  C72  1  0.11118631  0.64103304  0.35962008  1
  C  C73  1  0.51624360  0.87103809  0.36693570  1
  C  C74  1  0.34681098  0.47463637  0.36366526  1
  C  C75  1  0.12276109  0.46749842  0.85872485  1
  C  C76  1  0.34873535  0.89218793  0.85837587  1
  C  C77  1  0.52887807  0.64907166  0.86670499  1
  C  C78  1  0.02026480  0.82771574  0.40909140  1
  C  C79  1  0.80756384  0.98243073  0.40705975  1
  C  C80  1  0.17945450  0.19163290  0.41158719  1
  C  C81  1  0.02444911  0.19677681  0.91365188  1
  C  C82  1  0.17447239  0.99019929  0.91123287  1
  C  C83  1  0.80157313  0.81778671  0.91707086  1
  C  C84  1  0.96533321  0.17078390  0.58339552  1
  C  C85  1  0.16987245  0.01100898  0.58520198  1
  C  C86  1  0.81360034  0.80576188  0.58238756  1
  C  C87  1  0.97583519  0.82560705  0.08873213  1
  C  C88  1  0.82613390  0.02602687  0.08732302  1
  C  C89  1  0.19445096  0.18929657  0.08778920  1
  C  C90  1  0.68432776  0.17734174  0.74683011  1
  C  C91  1  0.47367331  0.32672437  0.74542964  1
  C  C92  1  0.83968090  0.52686137  0.74427535  1
  C  C93  1  0.68399801  0.52972520  0.24888038  1
  C  C94  1  0.84500780  0.31333433  0.24936699  1
  C  C95  1  0.47307500  0.15346781  0.24530446  1
  C  C96  1  0.64024207  0.50223556  0.92182664  1
  C  C97  1  0.86451524  0.35178378  0.91813720  1
  C  C98  1  0.48757191  0.14434271  0.91962408  1
  C  C99  1  0.64822053  0.13758062  0.41834337  1
  C  C100  1  0.48914971  0.35315001  0.41715480  1
  C  C101  1  0.85895773  0.51161943  0.42197147  1
  C  C102  1  0.37475869  0.50144314  0.07806348  1
  C  C103  1  0.15513399  0.65148877  0.08289889  1
  C  C104  1  0.52097387  0.85347574  0.07841755  1
  C  C105  1  0.35616068  0.84040464  0.57774343  1
  C  C106  1  0.50653690  0.63952096  0.57831773  1
  C  C107  1  0.14333410  0.48243665  0.57606381  1
  C  C108  1  0.31006648  0.83715634  0.25815008  1
  C  C109  1  0.52741053  0.68753982  0.25937545  1
  C  C110  1  0.15487241  0.47535592  0.25518573  1
  C  C111  1  0.30181865  0.46640503  0.76065967  1
  C  C112  1  0.14646884  0.66769412  0.75659288  1
  C  C113  1  0.50773843  0.83473105  0.75455739  1
