# generated using pymatgen
data_Cu3NiC17
_symmetry_space_group_name_H-M   'P 1'
_cell_length_a   9.06108768
_cell_length_b   9.06108737
_cell_length_c   22.20135702
_cell_angle_alpha   90.00000000
_cell_angle_beta   90.00000000
_cell_angle_gamma   120.00000113
_symmetry_Int_Tables_number   1
_chemical_formula_structural   Cu3NiC17
_chemical_formula_sum   'Cu18 Ni6 C102'
_cell_volume   1578.59527483
_cell_formula_units_Z   6
loop_
 _symmetry_equiv_pos_site_id
 _symmetry_equiv_pos_as_xyz
  1  'x, y, z'
loop_
 _atom_site_type_symbol
 _atom_site_label
 _atom_site_symmetry_multiplicity
 _atom_site_fract_x
 _atom_site_fract_y
 _atom_site_fract_z
 _atom_site_occupancy
  C  C0  1  0.63678287  0.01002752  0.24797662  1
  C  C1  1  0.37324466  0.36321713  0.24797662  1
  C  C2  1  0.98997248  0.62675534  0.24797662  1
  C  C3  1  0.63678287  0.62675534  0.74797662  1
  C  C4  1  0.98997248  0.36321713  0.74797662  1
  C  C5  1  0.37324466  0.01002752  0.74797662  1
  C  C6  1  0.30344987  0.34336052  0.58130962  1
  C  C7  1  0.03991166  0.69655013  0.58130962  1
  C  C8  1  0.65663948  0.96008834  0.58130962  1
  C  C9  1  0.30344987  0.96008834  0.08130962  1
  C  C10  1  0.65663948  0.69655013  0.08130962  1
  C  C11  1  0.03991166  0.34336052  0.08130962  1
  C  C12  1  0.97011587  0.67669452  0.91464362  1
  C  C13  1  0.70657766  0.02988413  0.91464362  1
  C  C14  1  0.32330548  0.29342234  0.91464362  1
  C  C15  1  0.97011587  0.29342234  0.41464362  1
  C  C16  1  0.32330548  0.02988413  0.41464362  1
  C  C17  1  0.70657766  0.67669452  0.41464362  1
  C  C18  1  0.00000000  0.00000000  0.49526392  1
  C  C19  1  0.00000000  0.00000000  0.99526392  1
  C  C20  1  0.66666700  0.33333300  0.82859692  1
  C  C21  1  0.66666700  0.33333300  0.32859692  1
  C  C22  1  0.33333300  0.66666700  0.16193092  1
  C  C23  1  0.33333300  0.66666700  0.66193092  1
  C  C24  1  0.00000000  0.00000000  0.64669347  1
  C  C25  1  0.00000000  0.00000000  0.14669347  1
  C  C26  1  0.66666700  0.33333300  0.98002647  1
  C  C27  1  0.66666700  0.33333300  0.48002647  1
  C  C28  1  0.33333300  0.66666700  0.31336047  1
  C  C29  1  0.33333300  0.66666700  0.81336047  1
  Ni  Ni30  1  0.00000000  0.00000000  0.35097104  1
  Ni  Ni31  1  0.00000000  0.00000000  0.85097104  1
  Ni  Ni32  1  0.66666700  0.33333300  0.68430404  1
  Ni  Ni33  1  0.66666700  0.33333300  0.18430404  1
  Ni  Ni34  1  0.33333300  0.66666700  0.01763804  1
  Ni  Ni35  1  0.33333300  0.66666700  0.51763804  1
  Cu  Cu36  1  0.29327198  0.00448650  0.25192791  1
  Cu  Cu37  1  0.71121451  0.70672802  0.25192791  1
  Cu  Cu38  1  0.99551350  0.28878549  0.25192791  1
  Cu  Cu39  1  0.29327198  0.28878549  0.75192791  1
  Cu  Cu40  1  0.99551350  0.70672802  0.75192791  1
  Cu  Cu41  1  0.71121451  0.00448650  0.75192791  1
  Cu  Cu42  1  0.95993898  0.33781950  0.58526091  1
  Cu  Cu43  1  0.37788151  0.04006102  0.58526091  1
  Cu  Cu44  1  0.66218050  0.62211849  0.58526091  1
  Cu  Cu45  1  0.95993898  0.62211849  0.08526091  1
  Cu  Cu46  1  0.66218050  0.04006102  0.08526091  1
  Cu  Cu47  1  0.37788151  0.33781950  0.08526091  1
  Cu  Cu48  1  0.62660498  0.67115350  0.91859491  1
  Cu  Cu49  1  0.04454751  0.37339502  0.91859491  1
  Cu  Cu50  1  0.32884650  0.95545249  0.91859491  1
  Cu  Cu51  1  0.62660498  0.95545249  0.41859491  1
  Cu  Cu52  1  0.32884650  0.37339502  0.41859491  1
  Cu  Cu53  1  0.04454751  0.67115350  0.41859491  1
  C  C54  1  0.20618263  0.03662706  0.31026804  1
  C  C55  1  0.83044442  0.79381737  0.31026804  1
  C  C56  1  0.96337294  0.16955558  0.31026804  1
  C  C57  1  0.20618263  0.16955558  0.81026804  1
  C  C58  1  0.96337294  0.79381737  0.81026804  1
  C  C59  1  0.83044442  0.03662706  0.81026804  1
  C  C60  1  0.79979636  0.96558393  0.69218787  1
  C  C61  1  0.16578758  0.20020364  0.69218787  1
  C  C62  1  0.03441607  0.83421242  0.69218787  1
  C  C63  1  0.79979636  0.83421242  0.19218787  1
  C  C64  1  0.03441607  0.20020364  0.19218787  1
  C  C65  1  0.16578758  0.96558393  0.19218787  1
  C  C66  1  0.87284963  0.36996006  0.64360104  1
  C  C67  1  0.49711142  0.12715037  0.64360104  1
  C  C68  1  0.63003994  0.50288858  0.64360104  1
  C  C69  1  0.87284963  0.50288858  0.14360104  1
  C  C70  1  0.63003994  0.12715037  0.14360104  1
  C  C71  1  0.49711142  0.36996006  0.14360104  1
  C  C72  1  0.46646336  0.29891693  0.02552087  1
  C  C73  1  0.83245458  0.53353664  0.02552087  1
  C  C74  1  0.70108307  0.16754542  0.02552087  1
  C  C75  1  0.46646336  0.16754542  0.52552087  1
  C  C76  1  0.70108307  0.53353664  0.52552087  1
  C  C77  1  0.83245458  0.29891693  0.52552087  1
  C  C78  1  0.53951563  0.70329406  0.97693504  1
  C  C79  1  0.16377742  0.46048437  0.97693504  1
  C  C80  1  0.29670594  0.83622258  0.97693504  1
  C  C81  1  0.53951563  0.83622258  0.47693504  1
  C  C82  1  0.29670594  0.46048437  0.47693504  1
  C  C83  1  0.16377742  0.70329406  0.47693504  1
  C  C84  1  0.13312936  0.63225093  0.35885487  1
  C  C85  1  0.49912058  0.86687064  0.35885487  1
  C  C86  1  0.36774907  0.50087942  0.35885487  1
  C  C87  1  0.13312936  0.50087942  0.85885487  1
  C  C88  1  0.36774907  0.86687064  0.85885487  1
  C  C89  1  0.49912058  0.63225093  0.85885487  1
  C  C90  1  0.02111160  0.83661669  0.41134636  1
  C  C91  1  0.81550509  0.97888840  0.41134636  1
  C  C92  1  0.16338331  0.18449491  0.41134636  1
  C  C93  1  0.02111160  0.18449491  0.91134636  1
  C  C94  1  0.16338331  0.97888840  0.91134636  1
  C  C95  1  0.81550509  0.83661669  0.91134636  1
  C  C96  1  0.97257253  0.16110118  0.58865040  1
  C  C97  1  0.18852865  0.02742747  0.58865040  1
  C  C98  1  0.83889882  0.81147135  0.58865040  1
  C  C99  1  0.97257253  0.81147135  0.08865040  1
  C  C100  1  0.83889882  0.02742747  0.08865040  1
  C  C101  1  0.18852865  0.16110118  0.08865040  1
  C  C102  1  0.68777860  0.16994969  0.74467936  1
  C  C103  1  0.48217209  0.31222140  0.74467936  1
  C  C104  1  0.83005031  0.51782791  0.74467936  1
  C  C105  1  0.68777860  0.51782791  0.24467936  1
  C  C106  1  0.83005031  0.31222140  0.24467936  1
  C  C107  1  0.48217209  0.16994969  0.24467936  1
  C  C108  1  0.63923953  0.49443418  0.92198340  1
  C  C109  1  0.85519565  0.36076047  0.92198340  1
  C  C110  1  0.50556582  0.14480435  0.92198340  1
  C  C111  1  0.63923953  0.14480435  0.42198340  1
  C  C112  1  0.50556582  0.36076047  0.42198340  1
  C  C113  1  0.85519565  0.49443418  0.42198340  1
  C  C114  1  0.35444460  0.50328369  0.07801336  1
  C  C115  1  0.14883809  0.64555540  0.07801336  1
  C  C116  1  0.49671631  0.85116191  0.07801336  1
  C  C117  1  0.35444460  0.85116191  0.57801336  1
  C  C118  1  0.49671631  0.64555540  0.57801336  1
  C  C119  1  0.14883809  0.50328369  0.57801336  1
  C  C120  1  0.30590553  0.82776818  0.25531740  1
  C  C121  1  0.52186165  0.69409447  0.25531740  1
  C  C122  1  0.17223182  0.47813835  0.25531740  1
  C  C123  1  0.30590553  0.47813835  0.75531740  1
  C  C124  1  0.17223182  0.69409447  0.75531740  1
  C  C125  1  0.52186165  0.82776818  0.75531740  1
