# generated using pymatgen
data_CuNiC10
_symmetry_space_group_name_H-M   'P 1'
_cell_length_a   7.98017100
_cell_length_b   12.22726700
_cell_length_c   8.65042900
_cell_angle_alpha   90.00000000
_cell_angle_beta   90.00000000
_cell_angle_gamma   90.00000000
_symmetry_Int_Tables_number   1
_chemical_formula_structural   CuNiC10
_chemical_formula_sum   'Cu4 Ni4 C40'
_cell_volume   844.07150514
_cell_formula_units_Z   4
loop_
 _symmetry_equiv_pos_site_id
 _symmetry_equiv_pos_as_xyz
  1  'x, y, z'
loop_
 _atom_site_type_symbol
 _atom_site_label
 _atom_site_symmetry_multiplicity
 _atom_site_fract_x
 _atom_site_fract_y
 _atom_site_fract_z
 _atom_site_occupancy
  C  C0  1  0.50000000  0.00000000  0.50000000  1
  C  C1  1  0.00000000  0.00000000  0.00000000  1
  C  C2  1  0.50000000  0.50000000  0.50000000  1
  C  C3  1  0.00000000  0.50000000  0.00000000  1
  C  C4  1  0.50960200  0.31846300  0.14989800  1
  C  C5  1  0.49039800  0.68153700  0.85010200  1
  C  C6  1  0.99039800  0.68153700  0.64989800  1
  C  C7  1  0.00960200  0.31846300  0.35010200  1
  C  C8  1  0.49039800  0.81846300  0.85010200  1
  C  C9  1  0.50960200  0.18153700  0.14989800  1
  C  C10  1  0.00960200  0.18153700  0.35010200  1
  C  C11  1  0.99039800  0.81846300  0.64989800  1
  C  C12  1  0.33877100  0.25000000  0.08642900  1
  C  C13  1  0.66122900  0.75000000  0.91357100  1
  C  C14  1  0.16122900  0.75000000  0.58642900  1
  C  C15  1  0.83877100  0.25000000  0.41357100  1
  C  C16  1  0.49419100  0.32340100  0.86994200  1
  C  C17  1  0.50580900  0.67659900  0.13005800  1
  C  C18  1  0.00580900  0.67659900  0.36994200  1
  C  C19  1  0.99419100  0.32340100  0.63005900  1
  C  C20  1  0.50580900  0.82340100  0.13005800  1
  C  C21  1  0.49419100  0.17659900  0.86994200  1
  C  C22  1  0.99419100  0.17659900  0.63005900  1
  C  C23  1  0.00580900  0.82340100  0.36994200  1
  C  C24  1  0.67551100  0.25000000  0.93601200  1
  C  C25  1  0.32448900  0.75000000  0.06398800  1
  C  C26  1  0.82448900  0.75000000  0.43601200  1
  C  C27  1  0.17551100  0.25000000  0.56398800  1
  Ni  Ni28  1  0.53859500  0.25000000  0.92944700  1
  Ni  Ni29  1  0.46140400  0.75000000  0.07055300  1
  Ni  Ni30  1  0.96140500  0.75000000  0.42944800  1
  Ni  Ni31  1  0.03859500  0.25000000  0.57055300  1
  C  C32  1  0.55629400  0.25000000  0.50089400  1
  C  C33  1  0.44370600  0.75000000  0.49910600  1
  C  C34  1  0.94370600  0.75000000  0.00089400  1
  C  C35  1  0.05629400  0.25000000  0.99910600  1
  C  C36  1  0.79807000  0.97808800  0.70792300  1
  C  C37  1  0.20193000  0.02191200  0.29207700  1
  C  C38  1  0.70193000  0.02191200  0.20792300  1
  C  C39  1  0.29807000  0.97808800  0.79207700  1
  C  C40  1  0.20193000  0.47808800  0.29207700  1
  C  C41  1  0.79807000  0.52191200  0.70792300  1
  C  C42  1  0.29807000  0.52191200  0.79207700  1
  C  C43  1  0.70193000  0.47808800  0.20792300  1
  Cu  Cu44  1  0.46941100  0.25000000  0.08966900  1
  Cu  Cu45  1  0.53058900  0.75000000  0.91033100  1
  Cu  Cu46  1  0.03058900  0.75000000  0.58966900  1
  Cu  Cu47  1  0.96941100  0.25000000  0.41033100  1
