# generated using pymatgen
data_CuNiC6
_symmetry_space_group_name_H-M   'P 1'
_cell_length_a   3.48966192
_cell_length_b   3.48966196
_cell_length_c   10.04770058
_cell_angle_alpha   100.00039428
_cell_angle_beta   100.00040454
_cell_angle_gamma   89.99999139
_symmetry_Int_Tables_number   1
_chemical_formula_structural   CuNiC6
_chemical_formula_sum   'Cu1 Ni1 C6'
_cell_volume   118.61106529
_cell_formula_units_Z   1
loop_
 _symmetry_equiv_pos_site_id
 _symmetry_equiv_pos_as_xyz
  1  'x, y, z'
loop_
 _atom_site_type_symbol
 _atom_site_label
 _atom_site_symmetry_multiplicity
 _atom_site_fract_x
 _atom_site_fract_y
 _atom_site_fract_z
 _atom_site_occupancy
  C  C0  1  0.62784778  0.62784678  0.25569455  1
  C  C1  1  0.37215222  0.37215322  0.74430445  1
  Ni  Ni2  1  0.25000000  0.75000000  0.50000000  1
  Cu  Cu3  1  -0.00000000  -0.00000000  -0.00000000  1
  C  C4  1  0.80673059  0.80672959  0.61346118  1
  C  C5  1  0.19326941  0.19326741  0.38653682  1
  C  C6  1  0.04848010  0.54848010  0.09696021  1
  C  C7  1  0.45151990  0.95151990  0.90304079  1
