# generated using pymatgen
data_CuNi2C15
_symmetry_space_group_name_H-M   'P 1'
_cell_length_a   8.56599003
_cell_length_b   8.57561685
_cell_length_c   22.34066062
_cell_angle_alpha   90.45248865
_cell_angle_beta   90.00000000
_cell_angle_gamma   119.96287230
_symmetry_Int_Tables_number   1
_chemical_formula_structural   CuNi2C15
_chemical_formula_sum   'Cu6 Ni12 C90'
_cell_volume   1421.71940185
_cell_formula_units_Z   6
loop_
 _symmetry_equiv_pos_site_id
 _symmetry_equiv_pos_as_xyz
  1  'x, y, z'
loop_
 _atom_site_type_symbol
 _atom_site_label
 _atom_site_symmetry_multiplicity
 _atom_site_fract_x
 _atom_site_fract_y
 _atom_site_fract_z
 _atom_site_occupancy
  C  C0  1  0.98709242  0.99155324  0.50229454  1
  C  C1  1  0.00446083  0.99155324  0.00229454  1
  C  C2  1  0.65375942  0.32488624  0.83562754  1
  C  C3  1  0.67112783  0.32488624  0.33562754  1
  C  C4  1  0.32042542  0.65822024  0.16896154  1
  C  C5  1  0.33779383  0.65822024  0.66896154  1
  C  C6  1  0.98754691  0.00808362  0.64628611  1
  C  C7  1  0.02053670  0.00808362  0.14628611  1
  C  C8  1  0.65421391  0.34141662  0.97961911  1
  C  C9  1  0.68720370  0.34141662  0.47961911  1
  C  C10  1  0.32087991  0.67475062  0.31295311  1
  C  C11  1  0.35386970  0.67475062  0.81295311  1
  C  C12  1  0.99905600  0.00120033  0.35186465  1
  C  C13  1  0.00214432  0.00120033  0.85186465  1
  C  C14  1  0.66572300  0.33453333  0.68519765  1
  C  C15  1  0.66881132  0.33453333  0.18519765  1
  C  C16  1  0.33238900  0.66786733  0.01853165  1
  C  C17  1  0.33547732  0.66786733  0.51853165  1
  Ni  Ni18  1  0.28836023  0.99470834  0.24869939  1
  Ni  Ni19  1  0.00964450  0.29375514  0.24834066  1
  Ni  Ni20  1  0.28411064  0.29375514  0.74834066  1
  Ni  Ni21  1  0.70634811  0.99470834  0.74869939  1
  Ni  Ni22  1  0.95502723  0.32804134  0.58203239  1
  Ni  Ni23  1  0.67631150  0.62708814  0.58167366  1
  Ni  Ni24  1  0.95077764  0.62708814  0.08167366  1
  Ni  Ni25  1  0.37301511  0.32804134  0.08203239  1
  Ni  Ni26  1  0.62169323  0.66137534  0.91536639  1
  Ni  Ni27  1  0.34297750  0.96042214  0.91500766  1
  Ni  Ni28  1  0.61744364  0.96042214  0.41500766  1
  Ni  Ni29  1  0.03968111  0.66137534  0.41536639  1
  Cu  Cu30  1  0.70406730  0.71328416  0.24821738  1
  Cu  Cu31  1  0.00921686  0.71328416  0.74821738  1
  Cu  Cu32  1  0.37073430  0.04661716  0.58155038  1
  Cu  Cu33  1  0.67588386  0.04661716  0.08155038  1
  Cu  Cu34  1  0.03740030  0.37995116  0.91488438  1
  Cu  Cu35  1  0.34254986  0.37995116  0.41488438  1
  C  C36  1  0.21589208  0.03550786  0.30674708  1
  C  C37  1  0.81301805  0.78162814  0.30435590  1
  C  C38  1  0.96382076  0.18019995  0.30619828  1
  C  C39  1  0.21637920  0.18019995  0.80619828  1
  C  C40  1  0.96861009  0.78162814  0.80435590  1
  C  C41  1  0.81961578  0.03550786  0.80674708  1
  C  C42  1  0.79670921  0.96625303  0.69379849  1
  C  C43  1  0.16709197  0.19615718  0.69335564  1
  C  C44  1  0.03061527  0.82333792  0.69572301  1
  C  C45  1  0.79272264  0.82333792  0.19572301  1
  C  C46  1  0.02906521  0.19615718  0.19335564  1
  C  C47  1  0.16954382  0.96625303  0.19379849  1
  C  C48  1  0.88255908  0.36884086  0.64008008  1
  C  C49  1  0.47968505  0.11496114  0.63768890  1
  C  C50  1  0.63048776  0.51353295  0.63953128  1
  C  C51  1  0.88304620  0.51353295  0.13953128  1
  C  C52  1  0.63527709  0.11496114  0.13768890  1
  C  C53  1  0.48628278  0.36884086  0.14008008  1
  C  C54  1  0.46337621  0.29958603  0.02713149  1
  C  C55  1  0.83375897  0.52949018  0.02668864  1
  C  C56  1  0.69728227  0.15667092  0.02905601  1
  C  C57  1  0.45938964  0.15667092  0.52905601  1
  C  C58  1  0.69573221  0.52949018  0.52668864  1
  C  C59  1  0.83621082  0.29958603  0.52713149  1
  C  C60  1  0.54922508  0.70217486  0.97341408  1
  C  C61  1  0.14635105  0.44829514  0.97102290  1
  C  C62  1  0.29715376  0.84686695  0.97286528  1
  C  C63  1  0.54971220  0.84686695  0.47286528  1
  C  C64  1  0.30194309  0.44829514  0.47102290  1
  C  C65  1  0.15294878  0.70217486  0.47341408  1
  C  C66  1  0.13004221  0.63292003  0.36046549  1
  C  C67  1  0.50042497  0.86282418  0.36002264  1
  C  C68  1  0.36394827  0.49000492  0.36239001  1
  C  C69  1  0.12605564  0.49000492  0.86239001  1
  C  C70  1  0.36239821  0.86282418  0.86002264  1
  C  C71  1  0.50287682  0.63292003  0.86046549  1
  C  C72  1  0.01901797  0.83150782  0.41076608  1
  C  C73  1  0.81112878  0.98582926  0.41075043  1
  C  C74  1  0.17907801  0.19586697  0.41148944  1
  C  C75  1  0.01678897  0.19586697  0.91148944  1
  C  C76  1  0.17470048  0.98582926  0.91075043  1
  C  C77  1  0.81248985  0.83150782  0.91076608  1
  C  C78  1  0.97336043  0.15959690  0.58996625  1
  C  C79  1  0.19228464  0.02950845  0.58969230  1
  C  C80  1  0.84762232  0.81202169  0.59145437  1
  C  C81  1  0.96439937  0.81202169  0.09145437  1
  C  C82  1  0.83722381  0.02950845  0.08969230  1
  C  C83  1  0.18623647  0.15959690  0.08996625  1
  C  C84  1  0.68568497  0.16484082  0.74409908  1
  C  C85  1  0.47779578  0.31916226  0.74408343  1
  C  C86  1  0.84574501  0.52919997  0.74482244  1
  C  C87  1  0.68345597  0.52919997  0.24482244  1
  C  C88  1  0.84136748  0.31916226  0.24408343  1
  C  C89  1  0.47915685  0.16484082  0.24409908  1
  C  C90  1  0.64002743  0.49292990  0.92329925  1
  C  C91  1  0.85895164  0.36284145  0.92302530  1
  C  C92  1  0.51428932  0.14535469  0.92478737  1
  C  C93  1  0.63106637  0.14535469  0.42478737  1
  C  C94  1  0.50389081  0.36284145  0.42302530  1
  C  C95  1  0.85290347  0.49292990  0.42329925  1
  C  C96  1  0.35235097  0.49817482  0.07743308  1
  C  C97  1  0.14446178  0.65249626  0.07741743  1
  C  C98  1  0.51241101  0.86253397  0.07815644  1
  C  C99  1  0.35012197  0.86253397  0.57815644  1
  C  C100  1  0.50803348  0.65249626  0.57741743  1
  C  C101  1  0.14582285  0.49817482  0.57743308  1
  C  C102  1  0.30669343  0.82626390  0.25663325  1
  C  C103  1  0.52561764  0.69617545  0.25635930  1
  C  C104  1  0.18095532  0.47868869  0.25812137  1
  C  C105  1  0.29773237  0.47868869  0.75812137  1
  C  C106  1  0.17055681  0.69617545  0.75635930  1
  C  C107  1  0.51956947  0.82626390  0.75663325  1
