# generated using pymatgen
data_Cu2NiC14
_symmetry_space_group_name_H-M   'P 1'
_cell_length_a   9.04965078
_cell_length_b   9.06349632
_cell_length_c   23.31088350
_cell_angle_alpha   90.04241771
_cell_angle_beta   90.00993955
_cell_angle_gamma   119.98746269
_symmetry_Int_Tables_number   1
_chemical_formula_structural   Cu2NiC14
_chemical_formula_sum   'Cu12 Ni6 C84'
_cell_volume   1656.04295203
_cell_formula_units_Z   6
loop_
 _symmetry_equiv_pos_site_id
 _symmetry_equiv_pos_as_xyz
  1  'x, y, z'
loop_
 _atom_site_type_symbol
 _atom_site_label
 _atom_site_symmetry_multiplicity
 _atom_site_fract_x
 _atom_site_fract_y
 _atom_site_fract_z
 _atom_site_occupancy
  C  C0  1  0.99664015  0.00092939  0.35890623  1
  C  C1  1  0.67265484  0.33532915  0.68954623  1
  C  C2  1  0.66426292  0.33431533  0.18594884  1
  C  C3  1  0.00068005  0.00051591  0.86139142  1
  C  C4  1  0.99851990  0.00552984  0.64345294  1
  C  C5  1  0.00676073  0.00730425  0.14436438  1
  C  C6  1  0.65793381  0.33163539  0.97681043  1
  C  C7  1  0.67225950  0.32509062  0.47723391  1
  C  C8  1  0.33296215  0.66152420  0.01960935  1
  C  C9  1  0.33469905  0.66632989  0.52162883  1
  C  C10  1  0.34024323  0.67345728  0.30911430  1
  C  C11  1  0.33077301  0.66519534  0.81489521  1
  Ni  Ni12  1  0.95804229  0.33457946  0.58310636  1
  Ni  Ni13  1  0.37588256  0.33384455  0.08289457  1
  Ni  Ni14  1  0.61819775  0.66522652  0.91637153  1
  Ni  Ni15  1  0.04336657  0.38137494  0.91680502  1
  Ni  Ni16  1  0.33514516  0.95194466  0.91689750  1
  Ni  Ni17  1  0.61332919  0.95072768  0.41743157  1
  Cu  Cu18  1  0.28585117  0.99532506  0.25084823  1
  Cu  Cu19  1  0.71134697  0.71422645  0.25025935  1
  Cu  Cu20  1  0.00572766  0.29293713  0.25075599  1
  Cu  Cu21  1  0.27970358  0.28581029  0.75151702  1
  Cu  Cu22  1  0.00681802  0.72258096  0.75148670  1
  Cu  Cu23  1  0.71328740  0.99239123  0.75186084  1
  Cu  Cu24  1  0.37351220  0.04164519  0.58273921  1
  Cu  Cu25  1  0.66818896  0.62492429  0.58260941  1
  Cu  Cu26  1  0.95958210  0.62738268  0.08244620  1
  Cu  Cu27  1  0.66699112  0.04018441  0.08233628  1
  Cu  Cu28  1  0.34215182  0.38620217  0.41784154  1
  Cu  Cu29  1  0.04690729  0.66110101  0.41741365  1
  C  C30  1  0.20781946  0.01795992  0.30180161  1
  C  C31  1  0.81080309  0.79193862  0.30156017  1
  C  C32  1  0.98152074  0.19090949  0.30144531  1
  C  C33  1  0.19198827  0.17824509  0.80185212  1
  C  C34  1  0.98823600  0.81103255  0.80217412  1
  C  C35  1  0.82231169  0.01340478  0.80198286  1
  C  C36  1  0.79629110  0.96857966  0.69897550  1
  C  C37  1  0.17194033  0.20283662  0.69879895  1
  C  C38  1  0.03094348  0.82852550  0.69898854  1
  C  C39  1  0.79274934  0.82490060  0.19847055  1
  C  C40  1  0.03411848  0.20861906  0.19855134  1
  C  C41  1  0.17454824  0.96799924  0.19870468  1
  C  C42  1  0.88836662  0.37174580  0.63612141  1
  C  C43  1  0.47640738  0.11001425  0.63411767  1
  C  C44  1  0.63180852  0.52239798  0.63412847  1
  C  C45  1  0.89382634  0.52488826  0.13360841  1
  C  C46  1  0.63401695  0.10811969  0.13375229  1
  C  C47  1  0.48097455  0.37022779  0.13598494  1
  C  C48  1  0.46342630  0.30294153  0.02973923  1
  C  C49  1  0.84787988  0.54521447  0.03156533  1
  C  C50  1  0.69855651  0.15231097  0.03151959  1
  C  C51  1  0.45398734  0.15331424  0.53189831  1
  C  C52  1  0.69698019  0.54400270  0.53175955  1
  C  C53  1  0.83849043  0.30207681  0.52989882  1
  C  C54  1  0.53664626  0.69800213  0.96883470  1
  C  C55  1  0.16015654  0.46430012  0.96877546  1
  C  C56  1  0.30345290  0.83854010  0.96916647  1
  C  C57  1  0.51687773  0.83984354  0.47008861  1
  C  C58  1  0.31955931  0.47261788  0.46901009  1
  C  C59  1  0.15222218  0.67871584  0.46884500  1
  C  C60  1  0.12501615  0.63071993  0.36580451  1
  C  C61  1  0.49833510  0.86372389  0.36374310  1
  C  C62  1  0.36791985  0.49330105  0.36614995  1
  C  C63  1  0.12903981  0.49493705  0.86311536  1
  C  C64  1  0.36313695  0.86723424  0.86300736  1
  C  C65  1  0.50399517  0.63563980  0.86290686  1
  C  C66  1  0.02980951  0.80992629  0.41295184  1
  C  C67  1  0.78760169  0.97255119  0.41335245  1
  C  C68  1  0.19467740  0.21892895  0.41309461  1
  C  C69  1  0.02518752  0.20459578  0.90525581  1
  C  C70  1  0.17846232  0.97400374  0.90566299  1
  C  C71  1  0.79586218  0.82259057  0.90537263  1
  C  C72  1  0.97679483  0.17233021  0.59233342  1
  C  C73  1  0.20016289  0.02227290  0.59078562  1
  C  C74  1  0.82244094  0.79801930  0.59111932  1
  C  C75  1  0.97649078  0.79959278  0.09104080  1
  C  C76  1  0.82134898  0.02061184  0.09065149  1
  C  C77  1  0.19433542  0.17145436  0.09205612  1
  C  C78  1  0.69428779  0.14145822  0.74584738  1
  C  C79  1  0.44745267  0.30384655  0.74485964  1
  C  C80  1  0.85625871  0.55489329  0.74638344  1
  C  C81  1  0.68318296  0.54386641  0.24200498  1
  C  C82  1  0.86321823  0.31993129  0.24065162  1
  C  C83  1  0.45687013  0.13567217  0.24183122  1
  C  C84  1  0.63957914  0.50891307  0.92658625  1
  C  C85  1  0.86707376  0.36067749  0.92819650  1
  C  C86  1  0.49327289  0.12936034  0.92649380  1
  C  C87  1  0.62196291  0.12712200  0.42722692  1
  C  C88  1  0.50019857  0.37637043  0.42772875  1
  C  C89  1  0.87530007  0.50450939  0.42614986  1
  C  C90  1  0.34601053  0.48390693  0.06819914  1
  C  C91  1  0.13342346  0.65523533  0.07033106  1
  C  C92  1  0.51936047  0.86796191  0.07041759  1
  C  C93  1  0.34650142  0.86857610  0.57106744  1
  C  C94  1  0.52181561  0.65310349  0.57134811  1
  C  C95  1  0.13716325  0.48270357  0.56781304  1
  C  C96  1  0.29412201  0.83193496  0.25699913  1
  C  C97  1  0.53676374  0.70138547  0.25716952  1
  C  C98  1  0.16671256  0.46384358  0.25807610  1
  C  C99  1  0.29101598  0.45437457  0.75836592  1
  C  C100  1  0.16366074  0.70920584  0.75864819  1
  C  C101  1  0.54484759  0.83492324  0.75855699  1
