# generated using pymatgen
data_Cu5Ni2C5
_symmetry_space_group_name_H-M   'P 1'
_cell_length_a   3.80557392
_cell_length_b   3.80557412
_cell_length_c   14.17184606
_cell_angle_alpha   90.22897716
_cell_angle_beta   90.22897767
_cell_angle_gamma   90.03228350
_symmetry_Int_Tables_number   1
_chemical_formula_structural   Cu5Ni2C5
_chemical_formula_sum   'Cu5 Ni2 C5'
_cell_volume   205.23894052
_cell_formula_units_Z   1
loop_
 _symmetry_equiv_pos_site_id
 _symmetry_equiv_pos_as_xyz
  1  'x, y, z'
loop_
 _atom_site_type_symbol
 _atom_site_label
 _atom_site_symmetry_multiplicity
 _atom_site_fract_x
 _atom_site_fract_y
 _atom_site_fract_z
 _atom_site_occupancy
  C  C0  1  0.89712606  0.89712606  0.71771660  1
  C  C1  1  0.40122925  0.40122925  0.43873285  1
  C  C2  1  0.91027575  0.91027575  0.20969237  1
  C  C3  1  0.40033522  0.40033522  0.85696743  1
  C  C4  1  0.40894048  0.40894048  0.11367781  1
  Ni  Ni5  1  0.39673620  0.39673620  0.62275001  1
  Ni  Ni6  1  0.90097934  0.90097934  0.39133196  1
  Cu  Cu7  1  0.39849911  0.89963729  0.80813131  1
  Cu  Cu8  1  0.89963729  0.39849911  0.80813131  1
  Cu  Cu9  1  0.40949152  0.90957880  0.16265038  1
  Cu  Cu10  1  0.90957880  0.40949152  0.16265038  1
  Cu  Cu11  1  0.40645698  0.40645698  0.98534559  1
