# generated using pymatgen
data_Cu2NiC15
_symmetry_space_group_name_H-M   'P 1'
_cell_length_a   9.55846957
_cell_length_b   9.54858319
_cell_length_c   25.49468189
_cell_angle_alpha   89.91570068
_cell_angle_beta   90.01073407
_cell_angle_gamma   119.86929822
_symmetry_Int_Tables_number   1
_chemical_formula_structural   Cu2NiC15
_chemical_formula_sum   'Cu12 Ni6 C90'
_cell_volume   2017.79688933
_cell_formula_units_Z   6
loop_
 _symmetry_equiv_pos_site_id
 _symmetry_equiv_pos_as_xyz
  1  'x, y, z'
loop_
 _atom_site_type_symbol
 _atom_site_label
 _atom_site_symmetry_multiplicity
 _atom_site_fract_x
 _atom_site_fract_y
 _atom_site_fract_z
 _atom_site_occupancy
  Ni  Ni0  1  0.98593024  0.98290363  0.50851835  1
  Ni  Ni1  1  0.00009457  0.00006067  0.99772862  1
  Ni  Ni2  1  0.66890081  0.31667812  0.81943041  1
  Ni  Ni3  1  0.65287845  0.32109874  0.33580329  1
  Ni  Ni4  1  0.33060769  0.68070534  0.17482702  1
  Ni  Ni5  1  0.36072418  0.67562272  0.66400923  1
  Cu  Cu6  1  0.01354315  0.00172032  0.35009209  1
  Cu  Cu7  1  0.98839425  0.00282067  0.84414818  1
  Cu  Cu8  1  0.97439232  0.98493535  0.64896749  1
  Cu  Cu9  1  0.01091655  0.99752919  0.15364350  1
  Cu  Cu10  1  0.66489449  0.33264674  0.68195786  1
  Cu  Cu11  1  0.65411423  0.32136948  0.18829023  1
  Cu  Cu12  1  0.66754461  0.33263497  0.98158481  1
  Cu  Cu13  1  0.66732486  0.34493353  0.48723865  1
  Cu  Cu14  1  0.33245956  0.66730008  0.01636567  1
  Cu  Cu15  1  0.34754565  0.66702399  0.52119591  1
  Cu  Cu16  1  0.33302198  0.67904586  0.31583295  1
  Cu  Cu17  1  0.34692602  0.67862387  0.81023076  1
  C  C18  1  0.29889449  0.99729363  0.24991636  1
  C  C19  1  0.70010687  0.00816321  0.75030085  1
  C  C20  1  0.66765503  0.63155436  0.58415614  1
  C  C21  1  0.70222105  0.70277370  0.24998500  1
  C  C22  1  0.00144304  0.29829432  0.24979910  1
  C  C23  1  0.29719139  0.29630007  0.75011743  1
  C  C24  1  0.99938313  0.70085061  0.75099103  1
  C  C25  1  0.96634347  0.33456953  0.58249379  1
  C  C26  1  0.36603205  0.03451574  0.58297164  1
  C  C27  1  0.96178474  0.62863948  0.08299580  1
  C  C28  1  0.66799418  0.03531648  0.08266147  1
  C  C29  1  0.36930060  0.33384939  0.08247059  1
  C  C30  1  0.63127806  0.66693344  0.91796567  1
  C  C31  1  0.03820005  0.36993209  0.91748123  1
  C  C32  1  0.33126996  0.96413873  0.91760275  1
  C  C33  1  0.63395074  0.96792966  0.41603458  1
  C  C34  1  0.33360683  0.37091305  0.41549914  1
  C  C35  1  0.03495872  0.66404676  0.41708240  1
  C  C36  1  0.20771312  0.01699154  0.30131206  1
  C  C37  1  0.79853565  0.78286237  0.29690047  1
  C  C38  1  0.98021010  0.19940274  0.29682919  1
  C  C39  1  0.21785079  0.19998203  0.79878224  1
  C  C40  1  0.98489686  0.78285240  0.79911309  1
  C  C41  1  0.80454952  0.01988157  0.80420974  1
  C  C42  1  0.78902156  0.98447368  0.69936227  1
  C  C43  1  0.20286968  0.21703796  0.70338132  1
  C  C44  1  0.02092101  0.79881882  0.70395421  1
  C  C45  1  0.77944938  0.80032604  0.20176332  1
  C  C46  1  0.01688153  0.21793047  0.20165079  1
  C  C47  1  0.19304402  0.98065732  0.19648262  1
  C  C48  1  0.88769267  0.35055430  0.63007000  1
  C  C49  1  0.46441860  0.11049175  0.63010803  1
  C  C50  1  0.64899413  0.52284237  0.63606226  1
  C  C51  1  0.88511163  0.53406974  0.13033567  1
  C  C52  1  0.64797245  0.11297915  0.13004058  1
  C  C53  1  0.46510508  0.35288789  0.12989392  1
  C  C54  1  0.45150791  0.31714159  0.03501691  1
  C  C55  1  0.86484828  0.54656974  0.03523195  1
  C  C56  1  0.68326686  0.13403567  0.03511633  1
  C  C57  1  0.44890901  0.13086100  0.53497561  1
  C  C58  1  0.68180178  0.54055000  0.53074170  1
  C  C59  1  0.86704119  0.31489570  0.53499058  1
  C  C60  1  0.54813045  0.68307498  0.96572886  1
  C  C61  1  0.13551577  0.45368796  0.96559701  1
  C  C62  1  0.31674920  0.86539310  0.96564783  1
  C  C63  1  0.55348814  0.86961379  0.46326836  1
  C  C64  1  0.31791573  0.45045347  0.46304039  1
  C  C65  1  0.13212290  0.68122257  0.46385651  1
  C  C66  1  0.11640268  0.65002720  0.36864688  1
  C  C67  1  0.53479025  0.88522538  0.36829069  1
  C  C68  1  0.34871015  0.46759295  0.36784992  1
  C  C69  1  0.11436869  0.46550298  0.87044767  1
  C  C70  1  0.35175492  0.88749116  0.87078916  1
  C  C71  1  0.53542373  0.64714362  0.87090641  1
  C  C72  1  0.01705021  0.81038904  0.41232321  1
  C  C73  1  0.79499250  0.98185449  0.41078506  1
  C  C74  1  0.18616992  0.20847185  0.41182650  1
  C  C75  1  0.02179686  0.20740542  0.91579906  1
  C  C76  1  0.18641663  0.98149364  0.91505853  1
  C  C77  1  0.79411638  0.81199054  0.91534804  1
  C  C78  1  0.98705180  0.19075502  0.58575185  1
  C  C79  1  0.20624111  0.02205577  0.58677422  1
  C  C80  1  0.82979151  0.81191024  0.58477847  1
  C  C81  1  0.97825189  0.79231384  0.08531200  1
  C  C82  1  0.81284096  0.01834693  0.08618498  1
  C  C83  1  0.20648447  0.18885791  0.08570383  1
  C  C84  1  0.68114684  0.16862305  0.74842554  1
  C  C85  1  0.46148617  0.31586056  0.74827374  1
  C  C86  1  0.85213163  0.53989535  0.74794081  1
  C  C87  1  0.68900241  0.54137356  0.24481711  1
  C  C88  1  0.85716836  0.31820209  0.24471697  1
  C  C89  1  0.47949143  0.16114437  0.24537305  1
  C  C90  1  0.64702546  0.51962893  0.92434945  1
  C  C91  1  0.87392048  0.35292299  0.92387322  1
  C  C92  1  0.47928238  0.12705874  0.92395658  1
  C  C93  1  0.64847984  0.12910271  0.41936791  1
  C  C94  1  0.47898694  0.35186305  0.41860887  1
  C  C95  1  0.87312930  0.51737549  0.41938033  1
  C  C96  1  0.35340577  0.48141663  0.07695460  1
  C  C97  1  0.12640932  0.64668749  0.07744126  1
  C  C98  1  0.51994641  0.87239713  0.07730447  1
  C  C99  1  0.34776590  0.87059487  0.57791221  1
  C  C100  1  0.50363424  0.64973944  0.57967354  1
  C  C101  1  0.12664984  0.48276917  0.57730861  1
  C  C102  1  0.31784404  0.83501747  0.25285546  1
  C  C103  1  0.53785862  0.68251348  0.25388769  1
  C  C104  1  0.14890440  0.45944676  0.25384361  1
  C  C105  1  0.31136517  0.45872069  0.75561819  1
  C  C106  1  0.14358170  0.68140896  0.75639924  1
  C  C107  1  0.52036569  0.84119984  0.75528728  1
