# generated using pymatgen
data_Cu4NiC15
_symmetry_space_group_name_H-M   'P 1'
_cell_length_a   3.81722400
_cell_length_b   7.73553900
_cell_length_c   8.81852100
_cell_angle_alpha   90.00000000
_cell_angle_beta   90.00000000
_cell_angle_gamma   90.00000000
_symmetry_Int_Tables_number   1
_chemical_formula_structural   Cu4NiC15
_chemical_formula_sum   'Cu4 Ni1 C15'
_cell_volume   260.39580246
_cell_formula_units_Z   1
loop_
 _symmetry_equiv_pos_site_id
 _symmetry_equiv_pos_as_xyz
  1  'x, y, z'
loop_
 _atom_site_type_symbol
 _atom_site_label
 _atom_site_symmetry_multiplicity
 _atom_site_fract_x
 _atom_site_fract_y
 _atom_site_fract_z
 _atom_site_occupancy
  C  C0  1  0.50000100  0.00000000  0.80997200  1
  C  C1  1  0.50000100  0.00000000  0.19002800  1
  C  C2  1  0.50000100  0.50000000  0.25611800  1
  C  C3  1  0.50000100  0.50000000  0.74388300  1
  Ni  Ni4  1  0.50000000  0.00000000  0.50000000  1
  Cu  Cu5  1  0.00000000  0.28692300  0.00000000  1
  Cu  Cu6  1  0.00000000  0.71307700  0.00000000  1
  Cu  Cu7  1  0.00000000  0.73655200  0.49999900  1
  Cu  Cu8  1  0.00000000  0.26344800  0.49999900  1
  C  C9  1  0.00000000  0.30725400  0.77637600  1
  C  C10  1  0.00000000  0.69274600  0.22362400  1
  C  C11  1  0.00000000  0.30725400  0.22362400  1
  C  C12  1  0.00000000  0.69274600  0.77637600  1
  C  C13  1  0.50000100  0.25081000  0.49999900  1
  C  C14  1  0.50000100  0.74919100  0.49999900  1
  C  C15  1  0.50000100  0.32051100  0.00000000  1
  C  C16  1  0.50000100  0.67948900  0.00000000  1
  C  C17  1  0.00000000  0.00000000  0.00000000  1
  C  C18  1  0.00000000  0.50000000  0.49999900  1
  C  C19  1  0.00000000  0.00000000  0.49999900  1
