# generated using pymatgen
data_CuNi7C66
_symmetry_space_group_name_H-M   'P 1'
_cell_length_a   17.46983177
_cell_length_b   8.72327334
_cell_length_c   22.69458358
_cell_angle_alpha   89.97447328
_cell_angle_beta   90.03668529
_cell_angle_gamma   119.93577373
_symmetry_Int_Tables_number   1
_chemical_formula_structural   CuNi7C66
_chemical_formula_sum   'Cu3 Ni21 C198'
_cell_volume   2997.10298606
_cell_formula_units_Z   3
loop_
 _symmetry_equiv_pos_site_id
 _symmetry_equiv_pos_as_xyz
  1  'x, y, z'
loop_
 _atom_site_type_symbol
 _atom_site_label
 _atom_site_symmetry_multiplicity
 _atom_site_fract_x
 _atom_site_fract_y
 _atom_site_fract_z
 _atom_site_occupancy
  C  C0  1  0.32213693  0.64353424  0.74969684  1
  C  C1  1  0.64850274  0.32942615  0.58443962  1
  C  C2  1  0.98711503  0.66673199  0.91703841  1
  C  C3  1  0.66591302  0.30331236  0.91475773  1
  C  C4  1  0.16737192  0.02899432  0.41690547  1
  C  C5  1  0.66618105  0.02791978  0.41718022  1
  C  C6  1  0.99457459  0.00237324  0.49366627  1
  C  C7  1  0.48436167  0.98081505  0.50114485  1
  C  C8  1  0.00330783  0.01812110  0.99556326  1
  C  C9  1  0.49042017  0.98376443  0.99333689  1
  C  C10  1  0.33792563  0.32540378  0.83633758  1
  C  C11  1  0.83046491  0.31635187  0.82931461  1
  C  C12  1  0.34014196  0.34552828  0.33331301  1
  C  C13  1  0.84073712  0.34643376  0.33267762  1
  C  C14  1  0.16781505  0.66684248  0.16662040  1
  C  C15  1  0.66584201  0.66608856  0.16689501  1
  C  C16  1  0.16639841  0.67336048  0.66342702  1
  C  C17  1  0.66147893  0.67387758  0.66979470  1
  Ni  Ni18  1  0.99644334  0.99915304  0.35102983  1
  Ni  Ni19  1  0.49566093  0.99939346  0.35152611  1
  Ni  Ni20  1  0.00082056  0.00750655  0.85112741  1
  Ni  Ni21  1  0.49677634  0.99579500  0.84955540  1
  Ni  Ni22  1  0.49729000  0.99355665  0.64998754  1
  Ni  Ni23  1  0.33762277  0.33223887  0.68219323  1
  Ni  Ni24  1  0.83094246  0.32863936  0.68526548  1
  Ni  Ni25  1  0.33337841  0.33321325  0.18443006  1
  Ni  Ni26  1  0.83320311  0.33314215  0.18466917  1
  Ni  Ni27  1  0.33343749  0.33593467  0.98083523  1
  Ni  Ni28  1  0.83323546  0.32444132  0.98302133  1
  Ni  Ni29  1  0.33826277  0.34389615  0.48344766  1
  Ni  Ni30  1  0.83761154  0.33748417  0.48146503  1
  Ni  Ni31  1  0.16937131  0.66743323  0.01659120  1
  Ni  Ni32  1  0.66521218  0.66862656  0.01672591  1
  Ni  Ni33  1  0.16896705  0.66315149  0.51699253  1
  Ni  Ni34  1  0.66515400  0.67058622  0.51610235  1
  Ni  Ni35  1  0.16672542  0.66380422  0.31692452  1
  Ni  Ni36  1  0.66656819  0.66342153  0.31640437  1
  Ni  Ni37  1  0.16758182  0.67263650  0.81803954  1
  Ni  Ni38  1  0.66409567  0.66429047  0.81546698  1
  Cu  Cu39  1  0.00050090  0.00134711  0.64763303  1
  Cu  Cu40  1  0.00061969  0.00031044  0.14784402  1
  Cu  Cu41  1  0.49959181  -0.00010237  0.14731665  1
  C  C42  1  0.14979597  0.00061711  0.25324899  1
  C  C43  1  0.64954575  0.00111297  0.25311229  1
  C  C44  1  0.35100313  0.70104320  0.25216845  1
  C  C45  1  0.85118670  0.70159371  0.25213864  1
  C  C46  1  0.99957504  0.29822165  0.25222666  1
  C  C47  1  0.49971264  0.29791904  0.25215949  1
  C  C48  1  0.14950796  0.29817916  0.75224643  1
  C  C49  1  0.64783334  0.29568146  0.74997510  1
  C  C50  1  0.99950129  0.70078203  0.75317653  1
  C  C51  1  0.50076064  0.70632496  0.74956289  1
  C  C52  1  0.35233245  0.00160118  0.75020519  1
  C  C53  1  0.85159972  0.00005974  0.75250651  1
  C  C54  1  0.48127114  0.33348334  0.58282377  1
  C  C55  1  0.97968100  0.34152652  0.58342821  1
  C  C56  1  0.18976669  0.03898667  0.58194363  1
  C  C57  1  0.68699248  0.03842126  0.58254133  1
  C  C58  1  0.33269895  0.62766880  0.58498680  1
  C  C59  1  0.83110072  0.61998723  0.58237469  1
  C  C60  1  0.47975944  0.61846728  0.08304183  1
  C  C61  1  0.98043672  0.61970379  0.08181269  1
  C  C62  1  0.32933426  0.04120178  0.08267029  1
  C  C63  1  0.82948219  0.03833892  0.08353243  1
  C  C64  1  0.19080629  0.34081942  0.08291958  1
  C  C65  1  0.69007745  0.34093959  0.08203566  1
  C  C66  1  0.31424601  0.66578754  0.91548863  1
  C  C67  1  0.81366351  0.66935281  0.91716409  1
  C  C68  1  0.02046691  0.37323184  0.91709147  1
  C  C69  1  0.51946748  0.37341610  0.91671325  1
  C  C70  1  0.16702941  0.96225174  0.91697416  1
  C  C71  1  0.66658028  0.95976575  0.91638175  1
  C  C72  1  0.31357765  0.96042918  0.41707713  1
  C  C73  1  0.81336349  0.95846360  0.41702102  1
  C  C74  1  0.16666003  0.37204971  0.41661290  1
  C  C75  1  0.66684988  0.37202059  0.41778425  1
  C  C76  1  0.02014201  0.66523412  0.41658428  1
  C  C77  1  0.51921836  0.66594381  0.41542626  1
  C  C78  1  0.10750622  0.02327069  0.30595292  1
  C  C79  1  0.60746704  0.02364076  0.30605108  1
  C  C80  1  0.40627626  0.78742052  0.30359954  1
  C  C81  1  0.90651419  0.78813263  0.30354975  1
  C  C82  1  0.48826714  0.18767722  0.30358694  1
  C  C83  1  0.98777026  0.18762073  0.30362501  1
  C  C84  1  0.10601723  0.18758923  0.80341598  1
  C  C85  1  0.60632403  0.18985477  0.80373203  1
  C  C86  1  0.48517440  0.78733726  0.80207470  1
  C  C87  1  0.98821254  0.78491150  0.80616933  1
  C  C88  1  0.40509046  0.02578516  0.80346764  1
  C  C89  1  0.90682436  0.02337789  0.80383574  1
  C  C90  1  0.39278095  0.96995950  0.69771095  1
  C  C91  1  0.89607166  0.97755597  0.69786471  1
  C  C92  1  0.09411913  0.21173171  0.69768439  1
  C  C93  1  0.59540282  0.21217084  0.69605340  1
  C  C94  1  0.01089441  0.81660918  0.69973592  1
  C  C95  1  0.51242449  0.81214178  0.69631343  1
  C  C96  1  0.39523306  0.81344855  0.19750506  1
  C  C97  1  0.89534577  0.81379024  0.19757751  1
  C  C98  1  0.01103203  0.20929040  0.19752664  1
  C  C99  1  0.51115233  0.20904705  0.19752614  1
  C  C100  1  0.09217025  0.97819353  0.19962211  1
  C  C101  1  0.59210981  0.97893886  0.19957767  1
  C  C102  1  0.44192611  0.35847554  0.63625955  1
  C  C103  1  0.93803158  0.35950631  0.63682675  1
  C  C104  1  0.24142131  0.12628778  0.63458171  1
  C  C105  1  0.74203439  0.12577002  0.63445167  1
  C  C106  1  0.32116477  0.52482625  0.64002694  1
  C  C107  1  0.81990113  0.51615063  0.63564995  1
  C  C108  1  0.43865415  0.51842544  0.13680613  1
  C  C109  1  0.93668258  0.51553610  0.13430488  1
  C  C110  1  0.32050825  0.12300305  0.13663451  1
  C  C111  1  0.82052659  0.12189391  0.13683917  1
  C  C112  1  0.24062969  0.35835986  0.13674934  1
  C  C113  1  0.74225485  0.35766251  0.13449205  1
  C  C114  1  0.22860126  0.30955530  0.03012841  1
  C  C115  1  0.72677972  0.31163958  0.02758048  1
  C  C116  1  0.42648967  0.54292054  0.03011453  1
  C  C117  1  0.92876303  0.54670208  0.02738845  1
  C  C118  1  0.34441012  0.14854776  0.03001259  1
  C  C119  1  0.84564842  0.14487553  0.03036017  1
  C  C120  1  0.22595334  0.14138188  0.52755303  1
  C  C121  1  0.72626446  0.14725827  0.52814675  1
  C  C122  1  0.34389660  0.54027801  0.53290044  1
  C  C123  1  0.84613004  0.54345680  0.52963129  1
  C  C124  1  0.42838030  0.30897158  0.52987673  1
  C  C125  1  0.92654464  0.30922067  0.53029463  1
  C  C126  1  0.27079068  0.68979121  0.96732443  1
  C  C127  1  0.77338465  0.69294157  0.97040054  1
  C  C128  1  0.07291873  0.45519111  0.97037458  1
  C  C129  1  0.57593581  0.45430398  0.96933828  1
  C  C130  1  0.15050054  0.84779092  0.96913373  1
  C  C131  1  0.65558812  0.85749713  0.96998988  1
  C  C132  1  0.27229601  0.85376938  0.47014128  1
  C  C133  1  0.77241624  0.85246694  0.47026145  1
  C  C134  1  0.15381510  0.45184758  0.46961816  1
  C  C135  1  0.65579602  0.45042706  0.47239696  1
  C  C136  1  0.07601368  0.69552878  0.46915798  1
  C  C137  1  0.57501415  0.69784307  0.46824582  1
  C  C138  1  0.06109685  0.64191373  0.36308004  1
  C  C139  1  0.56086282  0.64200121  0.36244708  1
  C  C140  1  0.25766821  0.87946943  0.36417208  1
  C  C141  1  0.75750470  0.87746337  0.36429286  1
  C  C142  1  0.17844592  0.47633540  0.36327085  1
  C  C143  1  0.67848080  0.48099434  0.36571829  1
  C  C144  1  0.06085830  0.48462745  0.86429807  1
  C  C145  1  0.56097727  0.47988629  0.86358545  1
  C  C146  1  0.17817455  0.88015536  0.86338417  1
  C  C147  1  0.67948349  0.87913986  0.86347685  1
  C  C148  1  0.26300561  0.64217387  0.86031778  1
  C  C149  1  0.75881449  0.63990638  0.86458493  1
  C  C150  1  0.01277837  0.82990086  0.41095250  1
  C  C151  1  0.51194102  0.83011713  0.40968124  1
  C  C152  1  0.40228893  0.98094597  0.41079106  1
  C  C153  1  0.90235091  0.98032373  0.41077396  1
  C  C154  1  0.08739050  0.18856663  0.41115067  1
  C  C155  1  0.58779217  0.19027089  0.41183337  1
  C  C156  1  0.00905502  0.19454284  0.91077388  1
  C  C157  1  0.51254177  0.19483662  0.91090018  1
  C  C158  1  0.08451496  0.97640451  0.91124877  1
  C  C159  1  0.58783267  0.98469719  0.91086748  1
  C  C160  1  0.40333499  0.82606826  0.91077103  1
  C  C161  1  0.90481070  0.82344897  0.91103600  1
  C  C162  1  0.49313566  0.17459890  0.58839305  1
  C  C163  1  0.98946116  0.17590716  0.58951970  1
  C  C164  1  0.09770712  0.02050669  0.58882296  1
  C  C165  1  0.59836551  0.02485976  0.58881873  1
  C  C166  1  0.41266233  0.80606245  0.58935266  1
  C  C167  1  0.91153019  0.80386441  0.58859487  1
  C  C168  1  0.48971641  0.80361476  0.08896876  1
  C  C169  1  0.98961904  0.80322572  0.08826740  1
  C  C170  1  0.41183312  0.02090388  0.08854198  1
  C  C171  1  0.91191362  0.01895641  0.08930735  1
  C  C172  1  0.09827089  0.17532367  0.08891940  1
  C  C173  1  0.59875489  0.17616713  0.08852760  1
  C  C174  1  0.34094136  0.15746030  0.74331450  1
  C  C175  1  0.84448440  0.16008120  0.74479540  1
  C  C176  1  0.23798101  0.31822302  0.74468360  1
  C  C177  1  0.73730449  0.31343334  0.74510762  1
  C  C178  1  0.41873552  0.52753304  0.74401151  1
  C  C179  1  0.92010341  0.52735048  0.74455014  1
  C  C180  1  0.34329859  0.52643478  0.24427647  1
  C  C181  1  0.84360292  0.52720971  0.24411502  1
  C  C182  1  0.42032433  0.31365306  0.24442311  1
  C  C183  1  0.92029916  0.31431222  0.24440878  1
  C  C184  1  0.23643562  0.15962806  0.24475963  1
  C  C185  1  0.73635708  0.16018583  0.24480350  1
  C  C186  1  0.32326828  0.50579269  0.92147387  1
  C  C187  1  0.82344691  0.50629351  0.92249331  1
  C  C188  1  0.43079199  0.35199426  0.92327808  1
  C  C189  1  0.93095334  0.35870038  0.92229876  1
  C  C190  1  0.24497973  0.13926231  0.92342314  1
  C  C191  1  0.74589869  0.14402129  0.92148842  1
  C  C192  1  0.32103227  0.13924788  0.42278459  1
  C  C193  1  0.82067009  0.13724227  0.42259011  1
  C  C194  1  0.24564703  0.34744386  0.42216992  1
  C  C195  1  0.74608033  0.34742638  0.42196461  1
  C  C196  1  0.43053674  0.50957278  0.42195510  1
  C  C197  1  0.93100839  0.50943339  0.42256310  1
  C  C198  1  0.17757093  0.49413064  0.07763881  1
  C  C199  1  0.67758652  0.49524833  0.07756992  1
  C  C200  1  0.06981846  0.64462023  0.07722071  1
  C  C201  1  0.56937293  0.64416700  0.07793179  1
  C  C202  1  0.25257183  0.86178013  0.07741242  1
  C  C203  1  0.75227834  0.85980478  0.07801576  1
  C  C204  1  0.17621003  0.85902806  0.57771751  1
  C  C205  1  0.67695471  0.86102184  0.57688502  1
  C  C206  1  0.25257440  0.64558532  0.57915249  1
  C  C207  1  0.75189958  0.63977582  0.57686567  1
  C  C208  1  0.06911798  0.49497454  0.57796443  1
  C  C209  1  0.57253071  0.49184371  0.57719930  1
  C  C210  1  0.15622237  0.83907634  0.25540614  1
  C  C211  1  0.65637059  0.83982431  0.25532548  1
  C  C212  1  0.26383409  0.68780668  0.25539926  1
  C  C213  1  0.76396487  0.68808190  0.25540093  1
  C  C214  1  0.08013966  0.47259303  0.25529721  1
  C  C215  1  0.58038891  0.47221115  0.25510974  1
  C  C216  1  0.15812454  0.47544236  0.75579995  1
  C  C217  1  0.65760385  0.47476764  0.75500688  1
  C  C218  1  0.08007794  0.68752338  0.75555915  1
  C  C219  1  0.57916257  0.68533035  0.75587859  1
  C  C220  1  0.26314138  0.83643688  0.75589442  1
  C  C221  1  0.76434047  0.83980216  0.75556093  1
