# generated using pymatgen
data_CuNiC19
_symmetry_space_group_name_H-M   'P 1'
_cell_length_a   9.62729263
_cell_length_b   9.62411944
_cell_length_c   23.36233904
_cell_angle_alpha   90.02514484
_cell_angle_beta   90.01469341
_cell_angle_gamma   119.96867162
_symmetry_Int_Tables_number   1
_chemical_formula_structural   CuNiC19
_chemical_formula_sum   'Cu6 Ni6 C114'
_cell_volume   1875.20623151
_cell_formula_units_Z   6
loop_
 _symmetry_equiv_pos_site_id
 _symmetry_equiv_pos_as_xyz
  1  'x, y, z'
loop_
 _atom_site_type_symbol
 _atom_site_label
 _atom_site_symmetry_multiplicity
 _atom_site_fract_x
 _atom_site_fract_y
 _atom_site_fract_z
 _atom_site_occupancy
  C  C0  1  0.64080679  0.00323415  0.25494075  1
  C  C1  1  0.35671062  0.36654564  0.24901547  1
  C  C2  1  0.00525496  0.62688289  0.25207584  1
  C  C3  1  0.63651045  0.63799139  0.74263123  1
  C  C4  1  0.98731394  0.35731081  0.74848611  1
  C  C5  1  0.37972530  0.00786882  0.74512157  1
  C  C6  1  0.30138290  0.32398740  0.58123495  1
  C  C7  1  0.04103386  0.71098435  0.58002446  1
  C  C8  1  0.66132395  0.96870549  0.59086364  1
  C  C9  1  0.28864136  0.96300679  0.08175618  1
  C  C10  1  0.68168837  0.70430271  0.08252906  1
  C  C11  1  0.03295569  0.33522837  0.09280992  1
  C  C12  1  0.97177066  0.67588365  0.92348527  1
  C  C13  1  0.69550895  0.03552726  0.90871505  1
  C  C14  1  0.33278594  0.29317729  0.91628250  1
  C  C15  1  0.96672354  0.30753198  0.40773795  1
  C  C16  1  0.32443855  0.02539039  0.42164878  1
  C  C17  1  0.70752685  0.66638161  0.41507326  1
  C  C18  1  0.00966324  0.99004465  0.50014884  1
  C  C19  1  0.00792243  0.99178243  0.00053903  1
  C  C20  1  0.65952804  0.31630882  0.83402884  1
  C  C21  1  0.68289470  0.34030591  0.33643303  1
  C  C22  1  0.31700359  0.65750277  0.16729069  1
  C  C23  1  0.34111751  0.68244654  0.66628178  1
  Ni  Ni24  1  0.00027226  0.99948519  0.84294831  1
  Ni  Ni25  1  0.67233374  0.33540366  0.18326337  1
  Ni  Ni26  1  0.66848869  0.33344016  0.98921964  1
  Ni  Ni27  1  0.33023522  0.67044532  0.01343205  1
  Ni  Ni28  1  0.33008457  0.66987435  0.51291648  1
  Ni  Ni29  1  0.33617395  0.67447252  0.81734535  1
  Cu  Cu30  1  0.00043860  0.00090180  0.34893690  1
  Cu  Cu31  1  0.99958984  0.99932924  0.64937439  1
  Cu  Cu32  1  0.00109839  0.00068413  0.15490646  1
  Cu  Cu33  1  0.66363995  0.32682324  0.67969040  1
  Cu  Cu34  1  0.66543797  0.33088197  0.48434266  1
  Cu  Cu35  1  0.32673059  0.66378254  0.31905069  1
  C  C36  1  0.00608349  0.30742527  0.25173186  1
  C  C37  1  0.69331897  0.00356672  0.74804203  1
  C  C38  1  0.36030734  0.03056296  0.58238380  1
  C  C39  1  0.98023326  0.65139940  0.08460338  1
  C  C40  1  0.33387738  0.98356556  0.91658964  1
  C  C41  1  0.02122393  0.66542313  0.41679353  1
  C  C42  1  0.29902846  0.99429326  0.25201382  1
  C  C43  1  0.69400227  0.70266057  0.25177376  1
  C  C44  1  0.30912850  0.30734028  0.74650656  1
  C  C45  1  0.99471942  0.68955799  0.74661734  1
  C  C46  1  0.96470589  0.32761887  0.58326302  1
  C  C47  1  0.67089603  0.63480867  0.58357194  1
  C  C48  1  0.67305021  0.02074031  0.08543396  1
  C  C49  1  0.35029307  0.32824416  0.08577792  1
  C  C50  1  0.64477941  0.66523736  0.91671812  1
  C  C51  1  0.02155220  0.35464090  0.91538054  1
  C  C52  1  0.64025671  0.97477415  0.41509514  1
  C  C53  1  0.33641093  0.36065351  0.41599124  1
  C  C54  1  0.20910550  0.00718666  0.30513684  1
  C  C55  1  0.79958249  0.78801184  0.30504667  1
  C  C56  1  0.99099465  0.19941797  0.30818590  1
  C  C57  1  0.23833954  0.21500245  0.80317150  1
  C  C58  1  0.97919717  0.76363357  0.80337682  1
  C  C59  1  0.78751608  0.01963188  0.80851145  1
  C  C60  1  0.79522497  0.98850911  0.69412277  1
  C  C61  1  0.19985720  0.20831217  0.69571133  1
  C  C62  1  0.01302533  0.80251190  0.69603336  1
  C  C63  1  0.78058812  0.79992564  0.19732741  1
  C  C64  1  0.01948812  0.21822737  0.19366643  1
  C  C65  1  0.19996768  0.97805900  0.19746396  1
  C  C66  1  0.88263424  0.34737170  0.63742796  1
  C  C67  1  0.46744817  0.12218166  0.63921832  1
  C  C68  1  0.65734319  0.53651327  0.63795972  1
  C  C69  1  0.88586605  0.53709247  0.13982948  1
  C  C70  1  0.64761757  0.10419479  0.13796409  1
  C  C71  1  0.45428948  0.34559280  0.13886701  1
  C  C72  1  0.43174628  0.31127394  0.03091921  1
  C  C73  1  0.87717344  0.56771847  0.02584649  1
  C  C74  1  0.68908243  0.11859792  0.03068520  1
  C  C75  1  0.45072657  0.13584708  0.52485488  1
  C  C76  1  0.68441921  0.54719376  0.52986099  1
  C  C77  1  0.86358892  0.31535572  0.52984533  1
  C  C78  1  0.55943350  0.67504041  0.97153665  1
  C  C79  1  0.12019952  0.44061088  0.96948239  1
  C  C80  1  0.31888417  0.87986125  0.97447387  1
  C  C81  1  0.56687922  0.87417733  0.46996145  1
  C  C82  1  0.31046686  0.43273517  0.47155425  1
  C  C83  1  0.12704918  0.69468053  0.47545183  1
  C  C84  1  0.11837390  0.64304951  0.36271564  1
  C  C85  1  0.53258333  0.88592660  0.36293332  1
  C  C86  1  0.35595456  0.47085079  0.36444111  1
  C  C87  1  0.10905614  0.45204445  0.86111637  1
  C  C88  1  0.34874579  0.89087716  0.85970267  1
  C  C89  1  0.54354663  0.65239969  0.86314365  1
  C  C90  1  0.99862455  0.82490550  0.41282472  1
  C  C91  1  0.81286411  0.99907578  0.40998582  1
  C  C92  1  0.18719412  0.18829568  0.41040196  1
  C  C93  1  0.00182962  0.18415354  0.91498084  1
  C  C94  1  0.17207725  0.00120573  0.91604201  1
  C  C95  1  0.81369737  0.81871315  0.91558117  1
  C  C96  1  0.97614595  0.17122753  0.58557377  1
  C  C97  1  0.17965434  0.01265730  0.58349689  1
  C  C98  1  0.82454592  0.80478483  0.58511922  1
  C  C99  1  0.99610553  0.82979630  0.08790131  1
  C  C100  1  0.82944403  0.01156343  0.08984407  1
  C  C101  1  0.18222490  0.17436534  0.08887084  1
  C  C102  1  0.67567653  0.16603070  0.74564560  1
  C  C103  1  0.48191427  0.33276837  0.74198182  1
  C  C104  1  0.84066699  0.52212760  0.74175448  1
  C  C105  1  0.66712211  0.52899362  0.25064777  1
  C  C106  1  0.84479899  0.32806936  0.25309242  1
  C  C107  1  0.46797218  0.14746688  0.25117854  1
  C  C108  1  0.66394145  0.51411764  0.91672672  1
  C  C109  1  0.85278966  0.33973766  0.91609829  1
  C  C110  1  0.49617072  0.16260774  0.91654346  1
  C  C111  1  0.65328516  0.14304563  0.41840254  1
  C  C112  1  0.49094179  0.34707069  0.41874873  1
  C  C113  1  0.84311594  0.50080106  0.41841898  1
  C  C114  1  0.32996109  0.47870395  0.08433542  1
  C  C115  1  0.16042209  0.67018055  0.08561791  1
  C  C116  1  0.52797193  0.84679535  0.08334530  1
  C  C117  1  0.34324188  0.85022940  0.58348128  1
  C  C118  1  0.51895157  0.65310422  0.58194616  1
  C  C119  1  0.13770220  0.47473194  0.58108857  1
  C  C120  1  0.31859005  0.84319883  0.25487866  1
  C  C121  1  0.52848981  0.69420808  0.25505160  1
  C  C122  1  0.17027475  0.48699407  0.25279646  1
  C  C123  1  0.31935533  0.47377184  0.74597751  1
  C  C124  1  0.14422616  0.66740240  0.74595009  1
  C  C125  1  0.51339101  0.84111208  0.74525419  1
