# generated using pymatgen
data_CuNi3C35
_symmetry_space_group_name_H-M   'P 1'
_cell_length_a   9.13155018
_cell_length_b   9.12327966
_cell_length_c   22.94955196
_cell_angle_alpha   90.73365412
_cell_angle_beta   90.32500763
_cell_angle_gamma   120.11083367
_symmetry_Int_Tables_number   1
_chemical_formula_structural   CuNi3C35
_chemical_formula_sum   'Cu3 Ni9 C105'
_cell_volume   1653.62164745
_cell_formula_units_Z   3
loop_
 _symmetry_equiv_pos_site_id
 _symmetry_equiv_pos_as_xyz
  1  'x, y, z'
loop_
 _atom_site_type_symbol
 _atom_site_label
 _atom_site_symmetry_multiplicity
 _atom_site_fract_x
 _atom_site_fract_y
 _atom_site_fract_z
 _atom_site_occupancy
  C  C0  1  0.64654397  0.00787019  0.25686396  1
  C  C1  1  0.00144300  0.61962968  0.24786451  1
  C  C2  1  0.62659954  0.63409261  0.74579498  1
  C  C3  1  0.37176259  0.01542202  0.75733201  1
  C  C4  1  0.66717938  0.95119704  0.58576506  1
  C  C5  1  0.97216554  0.68401273  0.92293176  1
  C  C6  1  0.69223038  0.01495896  0.91099466  1
  C  C7  1  0.96147482  0.30226386  0.40913382  1
  C  C8  1  0.70981381  0.68529935  0.42459782  1
  C  C9  1  -0.00033549  0.97553588  0.50165379  1
  C  C10  1  0.00802291  0.98388092  0.99859624  1
  C  C11  1  0.64449198  0.32198820  0.83146860  1
  C  C12  1  0.66924936  0.32295935  0.33438746  1
  C  C13  1  0.30325862  0.63553168  0.16038487  1
  C  C14  1  0.33365972  0.63940634  0.66759314  1
  C  C15  1  0.99603709  0.99923369  0.35121151  1
  C  C16  1  0.00403211  0.00960530  0.84971042  1
  C  C17  1  0.99143446  0.99767362  0.65281529  1
  C  C18  1  0.00154031  0.00008691  0.14483086  1
  C  C19  1  0.65860456  0.33590021  0.68559073  1
  C  C20  1  0.68450452  0.34155218  0.17971374  1
  C  C21  1  0.33255535  0.67739020  0.01718794  1
  C  C22  1  0.33891927  0.67336616  0.51585024  1
  C  C23  1  0.32075725  0.66326318  0.32051413  1
  Ni  Ni24  1  0.00455864  0.29552057  0.24988238  1
  Ni  Ni25  1  0.28978399  0.29652723  0.75013865  1
  Ni  Ni26  1  0.69946077  0.00306008  0.75048075  1
  Ni  Ni27  1  0.66693661  0.63261137  0.58406096  1
  Ni  Ni28  1  0.97057331  0.63474593  0.08374061  1
  Ni  Ni29  1  0.62980271  0.66721924  0.91852449  1
  Ni  Ni30  1  0.33215468  0.96445567  0.91671323  1
  Ni  Ni31  1  0.62974108  0.96763097  0.41721882  1
  Ni  Ni32  1  0.03418424  0.66765946  0.41731891  1
  Cu  Cu33  1  0.65890434  0.34297182  0.98131108  1
  Cu  Cu34  1  0.67355424  0.34073009  0.48318073  1
  Cu  Cu35  1  0.35177878  0.67168372  0.81684348  1
  C  C36  1  0.29933224  0.00456042  0.24930750  1
  C  C37  1  0.69788456  0.69892280  0.24977426  1
  C  C38  1  0.00558465  0.70163271  0.75166038  1
  C  C39  1  0.96257325  0.33508087  0.58266628  1
  C  C40  1  0.37126319  0.04152382  0.58176185  1
  C  C41  1  0.66593308  0.03961139  0.08245496  1
  C  C42  1  0.37393731  0.33353536  0.08414133  1
  C  C43  1  0.03857815  0.37544526  0.91749967  1
  C  C44  1  0.33742647  0.36956783  0.41761755  1
  C  C45  1  0.22385558  0.02615640  0.30299160  1
  C  C46  1  0.80367492  0.76976434  0.30406985  1
  C  C47  1  0.97043051  0.18647431  0.30998468  1
  C  C48  1  0.21579658  0.16932257  0.80435817  1
  C  C49  1  0.97340875  0.77474986  0.80466600  1
  C  C50  1  0.80299377  0.02383654  0.81075209  1
  C  C51  1  0.76772554  0.95181035  0.69198995  1
  C  C52  1  0.18476280  0.21294485  0.68954044  1
  C  C53  1  0.03818970  0.80918039  0.69994050  1
  C  C54  1  0.78241546  0.80685989  0.19938432  1
  C  C55  1  0.02086684  0.19632052  0.19356062  1
  C  C56  1  0.18934059  0.97150140  0.19753271  1
  C  C57  1  0.87709552  0.35399825  0.63366701  1
  C  C58  1  0.47534109  0.11655950  0.63559465  1
  C  C59  1  0.65046417  0.52702978  0.64214249  1
  C  C60  1  0.89359888  0.53832329  0.14549698  1
  C  C61  1  0.64192578  0.11398372  0.13749570  1
  C  C62  1  0.47456162  0.35035628  0.13737316  1
  C  C63  1  0.45165709  0.30437685  0.03070311  1
  C  C64  1  0.84797255  0.53489945  0.02511832  1
  C  C65  1  0.67940959  0.14425645  0.03084110  1
  C  C66  1  0.46062177  0.14659633  0.52979140  1
  C  C67  1  0.68396426  0.54020846  0.52301055  1
  C  C68  1  0.85573101  0.30486244  0.52744632  1
  C  C69  1  0.53843955  0.69752689  0.97341269  1
  C  C70  1  0.13992098  0.45087903  0.97097340  1
  C  C71  1  0.28684484  0.83939014  0.97069082  1
  C  C72  1  0.55528328  0.84745825  0.47343327  1
  C  C73  1  0.30710637  0.44542718  0.46958796  1
  C  C74  1  0.14735952  0.68559820  0.47386430  1
  C  C75  1  0.09449397  0.61496816  0.35709056  1
  C  C76  1  0.52458072  0.88567310  0.35559986  1
  C  C77  1  0.37247908  0.47650201  0.36536702  1
  C  C78  1  0.11752803  0.48319436  0.86539788  1
  C  C79  1  0.37101767  0.88316235  0.85649159  1
  C  C80  1  0.52023436  0.62873742  0.85692750  1
  C  C81  1  0.00600105  0.83091502  0.41157844  1
  C  C82  1  0.82423393  0.99964531  0.41394359  1
  C  C83  1  0.18662816  0.20023661  0.41060479  1
  C  C84  1  0.01060607  0.20313179  0.91227521  1
  C  C85  1  0.16575315  0.98324014  0.91035436  1
  C  C86  1  0.81807605  0.83812418  0.91375688  1
  C  C87  1  0.97279156  0.17770967  0.58442591  1
  C  C88  1  0.20449069  0.02576829  0.58450637  1
  C  C89  1  0.83842335  0.82483452  0.58478054  1
  C  C90  1  0.98048934  0.82106067  0.08459351  1
  C  C91  1  0.82376522  0.03188488  0.08426878  1
  C  C92  1  0.20349850  0.18153259  0.08554825  1
  C  C93  1  0.67173932  0.16640412  0.74392372  1
  C  C94  1  0.48746366  0.33363819  0.74794342  1
  C  C95  1  0.85440090  0.53208029  0.74426335  1
  C  C96  1  0.67598758  0.52661308  0.24385831  1
  C  C97  1  0.82612130  0.30871163  0.24727137  1
  C  C98  1  0.47109705  0.15662837  0.24319477  1
  C  C99  1  0.66039600  0.50170934  0.92093030  1
  C  C100  1  0.86705995  0.36126600  0.92141859  1
  C  C101  1  0.52053098  0.14479643  0.92535666  1
  C  C102  1  0.64807165  0.15844865  0.42535389  1
  C  C103  1  0.49189337  0.35340617  0.42388101  1
  C  C104  1  0.83868374  0.49620811  0.42250773  1
  C  C105  1  0.36411503  0.48926809  0.07966553  1
  C  C106  1  0.15331259  0.64335338  0.07979580  1
  C  C107  1  0.51725236  0.86863470  0.07950144  1
  C  C108  1  0.35977474  0.87321625  0.57735368  1
  C  C109  1  0.49803592  0.65570114  0.58018002  1
  C  C110  1  0.13009767  0.48684684  0.57746728  1
  C  C111  1  0.32118945  0.85180558  0.25257091  1
  C  C112  1  0.53265534  0.69148482  0.25562292  1
  C  C113  1  0.16783712  0.49126429  0.25278773  1
  C  C114  1  0.30648655  0.48689277  0.75678345  1
  C  C115  1  0.16029939  0.68736915  0.75859981  1
  C  C116  1  0.50445615  0.83056374  0.75375867  1
