# generated using pymatgen
data_Cu4NiC15
_symmetry_space_group_name_H-M   'P 1'
_cell_length_a   5.51663326
_cell_length_b   5.51532676
_cell_length_c   7.93194977
_cell_angle_alpha   90.00186136
_cell_angle_beta   90.00063414
_cell_angle_gamma   90.17907127
_symmetry_Int_Tables_number   1
_chemical_formula_structural   Cu4NiC15
_chemical_formula_sum   'Cu4 Ni1 C15'
_cell_volume   241.33660264
_cell_formula_units_Z   1
loop_
 _symmetry_equiv_pos_site_id
 _symmetry_equiv_pos_as_xyz
  1  'x, y, z'
loop_
 _atom_site_type_symbol
 _atom_site_label
 _atom_site_symmetry_multiplicity
 _atom_site_fract_x
 _atom_site_fract_y
 _atom_site_fract_z
 _atom_site_occupancy
  C  C0  1  0.22955161  0.22943540  0.99998568  1
  C  C1  1  0.26183098  0.26198441  0.49998088  1
  C  C2  1  0.73727544  0.73716891  0.00013411  1
  Ni  Ni3  1  0.76880266  0.76877797  0.50009181  1
  Cu  Cu4  1  0.25137414  0.74957824  0.25671580  1
  Cu  Cu5  1  0.25126833  0.74954373  0.74329538  1
  Cu  Cu6  1  0.74958148  0.25135038  0.25668616  1
  Cu  Cu7  1  0.74951665  0.25123277  0.74334370  1
  C  C8  1  0.96473504  0.96470602  0.19978871  1
  C  C9  1  0.96451280  0.96452989  0.80020175  1
  C  C10  1  0.05366348  0.44863136  0.24813874  1
  C  C11  1  0.05355935  0.44849185  0.75180351  1
  C  C12  1  0.15905187  0.77916554  0.49996223  1
  C  C13  1  0.29812836  0.70688151  0.99999088  1
  C  C14  1  0.44849711  0.05367712  0.24837551  1
  C  C15  1  0.44840568  0.05360285  0.75155501  1
  C  C16  1  0.56473344  0.56476926  0.31246208  1
  C  C17  1  0.56453939  0.56456786  0.68750166  1
  C  C18  1  0.70664891  0.29783394  0.99998637  1
  C  C19  1  0.77952428  0.15927398  0.49999903  1
