# generated using pymatgen
data_Cu2NiC16
_symmetry_space_group_name_H-M   'P 1'
_cell_length_a   7.19106869
_cell_length_b   7.19106869
_cell_length_c   6.44700294
_cell_angle_alpha   90.00000000
_cell_angle_beta   90.00000000
_cell_angle_gamma   77.59936063
_symmetry_Int_Tables_number   1
_chemical_formula_structural   Cu2NiC16
_chemical_formula_sum   'Cu2 Ni1 C16'
_cell_volume   325.60610424
_cell_formula_units_Z   1
loop_
 _symmetry_equiv_pos_site_id
 _symmetry_equiv_pos_as_xyz
  1  'x, y, z'
loop_
 _atom_site_type_symbol
 _atom_site_label
 _atom_site_symmetry_multiplicity
 _atom_site_fract_x
 _atom_site_fract_y
 _atom_site_fract_z
 _atom_site_occupancy
  C  C0  1  0.12490826  0.77480598  0.50797981  1
  C  C1  1  0.12490826  0.77480598  0.99202019  1
  C  C2  1  0.53136510  0.83956559  0.25000000  1
  C  C3  1  0.05005756  0.34412307  0.75000000  1
  C  C4  1  0.34412307  0.05005756  0.75000000  1
  C  C5  1  0.83956559  0.53136510  0.25000000  1
  C  C6  1  0.77480598  0.12490826  0.99202019  1
  C  C7  1  0.77480598  0.12490826  0.50797981  1
  Ni  Ni8  1  0.43698964  0.43698964  0.75000000  1
  Cu  Cu9  1  0.68163836  0.68163836  0.75000000  1
  Cu  Cu10  1  0.39477632  0.39477632  0.25000000  1
  C  C11  1  0.32010710  0.65030474  0.25000000  1
  C  C12  1  0.41473284  0.72457333  0.75000000  1
  C  C13  1  0.77452438  0.77452438  0.98448275  1
  C  C14  1  0.31914455  0.31914455  0.51574390  1
  C  C15  1  0.31914455  0.31914455  0.98425610  1
  C  C16  1  0.77452438  0.77452438  0.51551725  1
  C  C17  1  0.72457333  0.41473284  0.75000000  1
  C  C18  1  0.65030474  0.32010710  0.25000000  1
