# generated using pymatgen
data_Cu4NiC12
_symmetry_space_group_name_H-M   'P 1'
_cell_length_a   10.33601953
_cell_length_b   3.06562918
_cell_length_c   5.64572284
_cell_angle_alpha   90.00000000
_cell_angle_beta   90.50303900
_cell_angle_gamma   90.00000000
_symmetry_Int_Tables_number   1
_chemical_formula_structural   Cu4NiC12
_chemical_formula_sum   'Cu4 Ni1 C12'
_cell_volume   178.88575465
_cell_formula_units_Z   1
loop_
 _symmetry_equiv_pos_site_id
 _symmetry_equiv_pos_as_xyz
  1  'x, y, z'
loop_
 _atom_site_type_symbol
 _atom_site_label
 _atom_site_symmetry_multiplicity
 _atom_site_fract_x
 _atom_site_fract_y
 _atom_site_fract_z
 _atom_site_occupancy
  Ni  Ni0  1  0.22432159  0.75000000  0.20290835  1
  Cu  Cu1  1  0.67513146  0.25000000  0.73481311  1
  Cu  Cu2  1  0.09019818  0.25000000  0.73794890  1
  Cu  Cu3  1  0.41854997  0.75000000  0.52687420  1
  Cu  Cu4  1  0.88883235  0.75000000  0.02271537  1
  C  C5  1  0.40483471  0.25000000  0.92188766  1
  C  C6  1  0.87135966  0.25000000  0.43195430  1
  C  C7  1  0.64740672  0.75000000  0.15631216  1
  C  C8  1  0.03113605  0.75000000  0.40385157  1
  C  C9  1  0.34751156  0.25000000  0.29821280  1
  C  C10  1  0.89569880  0.25000000  0.26346023  1
  C  C11  1  0.68649781  0.75000000  0.99837934  1
  C  C12  1  0.11455273  0.75000000  0.48892555  1
  C  C13  1  0.36989721  0.25000000  0.75908550  1
  C  C14  1  0.87706622  0.25000000  0.78346115  1
  C  C15  1  0.59575311  0.75000000  0.52821535  1
  C  C16  1  0.08625187  0.75000000  0.97710546  1
