# generated using pymatgen
data_Cu2NiC10
_symmetry_space_group_name_H-M   'P 1'
_cell_length_a   5.29653040
_cell_length_b   5.29653109
_cell_length_c   6.64104850
_cell_angle_alpha   94.66280399
_cell_angle_beta   85.33701552
_cell_angle_gamma   110.29424128
_symmetry_Int_Tables_number   1
_chemical_formula_structural   Cu2NiC10
_chemical_formula_sum   'Cu2 Ni1 C10'
_cell_volume   173.87843460
_cell_formula_units_Z   1
loop_
 _symmetry_equiv_pos_site_id
 _symmetry_equiv_pos_as_xyz
  1  'x, y, z'
loop_
 _atom_site_type_symbol
 _atom_site_label
 _atom_site_symmetry_multiplicity
 _atom_site_fract_x
 _atom_site_fract_y
 _atom_site_fract_z
 _atom_site_occupancy
  Ni  Ni0  1  0.50000000  0.50000000  0.00000000  1
  Cu  Cu1  1  0.00000000  0.00000000  0.00000000  1
  Cu  Cu2  1  0.00000000  0.00000000  0.50000000  1
  C  C3  1  0.66961400  0.33038500  0.29761300  1
  C  C4  1  0.33038600  0.66961500  0.70238700  1
  C  C5  1  0.77822200  0.22177800  0.49395900  1
  C  C6  1  0.22177800  0.77822200  0.50604100  1
  C  C7  1  0.23971600  0.32717900  0.75513800  1
  C  C8  1  0.76028400  0.67282100  0.24486200  1
  C  C9  1  0.78085000  0.21914900  0.06901900  1
  C  C10  1  0.21915000  0.78085100  0.93098100  1
  C  C11  1  0.67282200  0.76028500  0.75513700  1
  C  C12  1  0.32717800  0.23971500  0.24486300  1
