# generated using pymatgen
data_CuNiC5
_symmetry_space_group_name_H-M   'P 1'
_cell_length_a   3.12597300
_cell_length_b   5.17931572
_cell_length_c   5.58003136
_cell_angle_alpha   86.25574658
_cell_angle_beta   90.00000000
_cell_angle_gamma   90.00000000
_symmetry_Int_Tables_number   1
_chemical_formula_structural   CuNiC5
_chemical_formula_sum   'Cu1 Ni1 C5'
_cell_volume   90.15010692
_cell_formula_units_Z   1
loop_
 _symmetry_equiv_pos_site_id
 _symmetry_equiv_pos_as_xyz
  1  'x, y, z'
loop_
 _atom_site_type_symbol
 _atom_site_label
 _atom_site_symmetry_multiplicity
 _atom_site_fract_x
 _atom_site_fract_y
 _atom_site_fract_z
 _atom_site_occupancy
  Ni  Ni0  1  0.41518000  0.50000000  0.00000000  1
  Cu  Cu1  1  0.94630400  0.00000000  0.00000000  1
  C  C2  1  0.60508600  0.50000000  0.50000000  1
  C  C3  1  0.46038100  0.18118800  0.81217000  1
  C  C4  1  0.46038100  0.81881200  0.18783000  1
  C  C5  1  0.93133400  0.33064000  0.21688700  1
  C  C6  1  0.93133400  0.66936000  0.78311300  1
