# generated using pymatgen
data_Cu2NiC12
_symmetry_space_group_name_H-M   'P 1'
_cell_length_a   4.54795944
_cell_length_b   3.74745862
_cell_length_c   16.42730812
_cell_angle_alpha   90.00000000
_cell_angle_beta   90.00000000
_cell_angle_gamma   90.00000000
_symmetry_Int_Tables_number   1
_chemical_formula_structural   Cu2NiC12
_chemical_formula_sum   'Cu2 Ni1 C12'
_cell_volume   279.97537304
_cell_formula_units_Z   1
loop_
 _symmetry_equiv_pos_site_id
 _symmetry_equiv_pos_as_xyz
  1  'x, y, z'
loop_
 _atom_site_type_symbol
 _atom_site_label
 _atom_site_symmetry_multiplicity
 _atom_site_fract_x
 _atom_site_fract_y
 _atom_site_fract_z
 _atom_site_occupancy
  C  C0  1  0.25000000  0.25000000  0.90647217  1
  C  C1  1  0.75000000  0.75000000  0.06431103  1
  C  C2  1  0.25000000  0.25000000  0.70588747  1
  C  C3  1  0.75000000  0.75000000  0.27260466  1
  Ni  Ni4  1  0.25000000  0.75000000  0.42248743  1
  Cu  Cu5  1  0.75000000  0.75000000  0.80589972  1
  Cu  Cu6  1  0.25000000  0.25000000  0.18095336  1
  C  C7  1  0.75000000  0.75000000  0.44525064  1
  C  C8  1  0.25000000  0.25000000  0.52510348  1
  C  C9  1  0.25000000  0.75000000  0.79946348  1
  C  C10  1  0.75000000  0.25000000  0.76055115  1
  C  C11  1  0.75000000  0.25000000  0.18192002  1
  C  C12  1  0.25000000  0.75000000  0.30039662  1
  C  C13  1  0.75000000  0.75000000  0.92738362  1
  C  C14  1  0.25000000  0.25000000  0.06738618  1
