# generated using pymatgen
data_Cu5(NiC)7
_symmetry_space_group_name_H-M   'P 1'
_cell_length_a   8.36968782
_cell_length_b   5.90287569
_cell_length_c   5.73377245
_cell_angle_alpha   65.64395363
_cell_angle_beta   63.29490571
_cell_angle_gamma   61.43275632
_symmetry_Int_Tables_number   1
_chemical_formula_structural   Cu5(NiC)7
_chemical_formula_sum   'Cu5 Ni7 C7'
_cell_volume   215.09523264
_cell_formula_units_Z   1
loop_
 _symmetry_equiv_pos_site_id
 _symmetry_equiv_pos_as_xyz
  1  'x, y, z'
loop_
 _atom_site_type_symbol
 _atom_site_label
 _atom_site_symmetry_multiplicity
 _atom_site_fract_x
 _atom_site_fract_y
 _atom_site_fract_z
 _atom_site_occupancy
  C  C0  1  0.83504359  0.16999723  0.65748052  1
  C  C1  1  0.83774088  0.66459156  0.66585797  1
  C  C2  1  0.32808949  0.66155502  0.66500518  1
  C  C3  1  0.62846351  0.34692638  0.30406012  1
  C  C4  1  0.21165892  0.34804389  0.35602458  1
  C  C5  1  0.47760093  0.99493235  0.99297448  1
  C  C6  1  0.02738403  0.99428890  0.02248915  1
  Ni  Ni7  1  0.32572603  0.35640443  0.98715162  1
  Ni  Ni8  1  0.66730047  0.02720439  0.63346786  1
  Ni  Ni9  1  0.36632623  0.43734644  0.44186981  1
  Ni  Ni10  1  0.33562038  0.98317187  0.35850848  1
  Ni  Ni11  1  0.66182414  0.63826080  0.01675716  1
  Ni  Ni12  1  0.00281499  0.30269086  0.69332423  1
  Ni  Ni13  1  0.01321692  0.68435077  0.31926932  1
  Cu  Cu14  1  0.63127365  0.52641196  0.56646630  1
  Cu  Cu15  1  0.31172568  0.88100498  0.89258961  1
  Cu  Cu16  1  0.92959141  0.22944370  0.26230754  1
  Cu  Cu17  1  0.02801206  0.80640193  0.75998863  1
  Cu  Cu18  1  0.71669670  0.11760754  0.06313543  1
