# generated using pymatgen
data_Cu4Ni8C7
_symmetry_space_group_name_H-M   'P 1'
_cell_length_a   5.10929238
_cell_length_b   7.66074660
_cell_length_c   5.71950183
_cell_angle_alpha   94.68074109
_cell_angle_beta   97.30850978
_cell_angle_gamma   86.40800155
_symmetry_Int_Tables_number   1
_chemical_formula_structural   Cu4Ni8C7
_chemical_formula_sum   'Cu4 Ni8 C7'
_cell_volume   220.99806015
_cell_formula_units_Z   1
loop_
 _symmetry_equiv_pos_site_id
 _symmetry_equiv_pos_as_xyz
  1  'x, y, z'
loop_
 _atom_site_type_symbol
 _atom_site_label
 _atom_site_symmetry_multiplicity
 _atom_site_fract_x
 _atom_site_fract_y
 _atom_site_fract_z
 _atom_site_occupancy
  C  C0  1  0.97018238  0.84514270  0.33737799  1
  C  C1  1  0.45702139  0.98446612  0.50511115  1
  C  C2  1  0.48310258  0.64303371  0.17651962  1
  C  C3  1  0.52265317  0.34602862  0.81034927  1
  C  C4  1  0.96611483  0.64545595  0.71471683  1
  C  C5  1  0.98118743  0.32259250  0.34593607  1
  C  C6  1  0.05770022  0.01313500  0.95663329  1
  Ni  Ni7  1  0.79673787  0.42423487  0.64343568  1
  Ni  Ni8  1  0.88794622  0.09455727  0.23141832  1
  Ni  Ni9  1  0.67345760  0.75792962  0.47579061  1
  Ni  Ni10  1  0.70626302  0.43214039  0.12329639  1
  Ni  Ni11  1  0.29398849  0.56235722  0.88145610  1
  Ni  Ni12  1  0.31056178  0.22603067  0.52159247  1
  Ni  Ni13  1  0.30022139  0.87982477  0.19350840  1
  Ni  Ni14  1  0.15105250  0.87831771  0.67866346  1
  Cu  Cu15  1  0.80626038  0.77803336  0.00830126  1
  Cu  Cu16  1  0.71755293  0.08690111  0.76119606  1
  Cu  Cu17  1  0.14268302  0.56976445  0.37044589  1
  Cu  Cu18  1  0.27531482  0.22671795  0.99044012  1
