# generated using pymatgen
data_Cu(Ni2C)2
_symmetry_space_group_name_H-M   'P 1'
_cell_length_a   5.24595600
_cell_length_b   5.24689708
_cell_length_c   7.45094035
_cell_angle_alpha   107.03639547
_cell_angle_beta   109.39802072
_cell_angle_gamma   95.76528369
_symmetry_Int_Tables_number   1
_chemical_formula_structural   Cu(Ni2C)2
_chemical_formula_sum   'Cu2 Ni8 C4'
_cell_volume   180.45487120
_cell_formula_units_Z   2
loop_
 _symmetry_equiv_pos_site_id
 _symmetry_equiv_pos_as_xyz
  1  'x, y, z'
loop_
 _atom_site_type_symbol
 _atom_site_label
 _atom_site_symmetry_multiplicity
 _atom_site_fract_x
 _atom_site_fract_y
 _atom_site_fract_z
 _atom_site_occupancy
  C  C0  1  0.00000000  0.00000000  0.00000000  1
  C  C1  1  0.50000000  0.50000000  0.50000000  1
  C  C2  1  0.88249000  0.57033700  0.23786400  1
  C  C3  1  0.11751000  0.42966300  0.76213600  1
  Ni  Ni4  1  0.18969800  0.73848500  0.88751600  1
  Ni  Ni5  1  0.14147900  0.25853100  0.90118600  1
  Ni  Ni6  1  0.81552700  0.35326600  0.60505000  1
  Ni  Ni7  1  0.32126000  0.36797100  0.65465300  1
  Ni  Ni8  1  0.85852100  0.74146900  0.09881400  1
  Ni  Ni9  1  0.18447300  0.64673400  0.39495000  1
  Ni  Ni10  1  0.67874000  0.63202900  0.34534700  1
  Ni  Ni11  1  0.81030200  0.26151500  0.11248400  1
  Cu  Cu12  1  0.68106600  0.84104000  0.73656200  1
  Cu  Cu13  1  0.31893400  0.15896000  0.26343800  1
