# generated using pymatgen
data_Cu5(Ni3C)2
_symmetry_space_group_name_H-M   'P 1'
_cell_length_a   12.64465905
_cell_length_b   12.64465905
_cell_length_c   12.64465905
_cell_angle_alpha   161.76358859
_cell_angle_beta   161.76358859
_cell_angle_gamma   25.90144764
_symmetry_Int_Tables_number   1
_chemical_formula_structural   Cu5(Ni3C)2
_chemical_formula_sum   'Cu5 Ni6 C2'
_cell_volume   197.92260130
_cell_formula_units_Z   1
loop_
 _symmetry_equiv_pos_site_id
 _symmetry_equiv_pos_as_xyz
  1  'x, y, z'
loop_
 _atom_site_type_symbol
 _atom_site_label
 _atom_site_symmetry_multiplicity
 _atom_site_fract_x
 _atom_site_fract_y
 _atom_site_fract_z
 _atom_site_occupancy
  C  C0  1  0.64906000  0.64906000  0.00000000  1
  C  C1  1  0.35093900  0.35093900  0.00000000  1
  Ni  Ni2  1  0.75000000  0.25000000  0.50000000  1
  Ni  Ni3  1  0.94622800  0.44622800  0.50000000  1
  Ni  Ni4  1  0.44622800  0.94622800  0.50000000  1
  Ni  Ni5  1  0.05377200  0.55377200  0.50000000  1
  Ni  Ni6  1  0.55377200  0.05377200  0.50000000  1
  Ni  Ni7  1  0.25000000  0.75000000  0.50000000  1
  Cu  Cu8  1  0.80240100  0.80240100  0.00000000  1
  Cu  Cu9  1  0.50000000  0.50000000  0.00000000  1
  Cu  Cu10  1  0.19759900  0.19759900  0.00000000  1
  Cu  Cu11  1  0.89425300  0.89425300  0.00000000  1
  Cu  Cu12  1  0.10574700  0.10574700  0.00000000  1
