# generated using pymatgen
data_Cu(NiC3)2
_symmetry_space_group_name_H-M   'P 1'
_cell_length_a   4.62486800
_cell_length_b   5.07373500
_cell_length_c   16.96556300
_cell_angle_alpha   90.00000000
_cell_angle_beta   90.00000000
_cell_angle_gamma   90.00000000
_symmetry_Int_Tables_number   1
_chemical_formula_structural   Cu(NiC3)2
_chemical_formula_sum   'Cu4 Ni8 C24'
_cell_volume   398.10295250
_cell_formula_units_Z   4
loop_
 _symmetry_equiv_pos_site_id
 _symmetry_equiv_pos_as_xyz
  1  'x, y, z'
loop_
 _atom_site_type_symbol
 _atom_site_label
 _atom_site_symmetry_multiplicity
 _atom_site_fract_x
 _atom_site_fract_y
 _atom_site_fract_z
 _atom_site_occupancy
  Ni  Ni0  1  0.00000000  0.25000000  0.55280000  1
  Ni  Ni1  1  0.50000000  0.75000000  0.94720000  1
  Ni  Ni2  1  0.00000000  0.75000000  0.44720000  1
  Ni  Ni3  1  0.50000000  0.25000000  0.05280000  1
  Ni  Ni4  1  0.50000000  0.25000000  0.72231900  1
  Ni  Ni5  1  0.00000000  0.75000000  0.77768100  1
  Ni  Ni6  1  0.00000000  0.25000000  0.22231900  1
  Ni  Ni7  1  0.50000000  0.75000000  0.27768100  1
  Cu  Cu8  1  0.00000000  0.25000000  0.88434300  1
  Cu  Cu9  1  0.50000000  0.75000000  0.61565700  1
  Cu  Cu10  1  0.00000000  0.75000000  0.11565700  1
  Cu  Cu11  1  0.50000000  0.25000000  0.38434300  1
  C  C12  1  0.72489200  0.41604700  0.29725600  1
  C  C13  1  0.22489200  0.58395300  0.20274400  1
  C  C14  1  0.77510800  0.91604700  0.20274400  1
  C  C15  1  0.27510800  0.08395300  0.29725600  1
  C  C16  1  0.27510800  0.58395300  0.70274400  1
  C  C17  1  0.77510800  0.41604700  0.79725600  1
  C  C18  1  0.22489200  0.08395300  0.79725600  1
  C  C19  1  0.72489200  0.91604700  0.70274400  1
  C  C20  1  0.72654700  0.93002600  0.37410500  1
  C  C21  1  0.22654700  0.06997400  0.12589500  1
  C  C22  1  0.77345300  0.43002600  0.12589500  1
  C  C23  1  0.27345300  0.56997400  0.37410500  1
  C  C24  1  0.76375900  0.90660100  0.54090200  1
  C  C25  1  0.26375900  0.09339900  0.95909800  1
  C  C26  1  0.73624100  0.40660100  0.95909800  1
  C  C27  1  0.23624100  0.59339900  0.54090200  1
  C  C28  1  0.23624100  0.09339900  0.45909800  1
  C  C29  1  0.73624100  0.90660100  0.04090200  1
  C  C30  1  0.27345300  0.06997400  0.62589500  1
  C  C31  1  0.76375900  0.40660100  0.45909800  1
  C  C32  1  0.72654700  0.43002600  0.62589500  1
  C  C33  1  0.22654700  0.56997400  0.87410500  1
  C  C34  1  0.77345300  0.93002600  0.87410500  1
  C  C35  1  0.26375900  0.59339900  0.04090200  1
