# generated using pymatgen
data_Cu4NiC8
_symmetry_space_group_name_H-M   'P 1'
_cell_length_a   2.99610100
_cell_length_b   5.24251045
_cell_length_c   9.53604998
_cell_angle_alpha   87.02550075
_cell_angle_beta   90.00000000
_cell_angle_gamma   90.00000000
_symmetry_Int_Tables_number   1
_chemical_formula_structural   Cu4NiC8
_chemical_formula_sum   'Cu4 Ni1 C8'
_cell_volume   149.58180400
_cell_formula_units_Z   1
loop_
 _symmetry_equiv_pos_site_id
 _symmetry_equiv_pos_as_xyz
  1  'x, y, z'
loop_
 _atom_site_type_symbol
 _atom_site_label
 _atom_site_symmetry_multiplicity
 _atom_site_fract_x
 _atom_site_fract_y
 _atom_site_fract_z
 _atom_site_occupancy
  Ni  Ni0  1  0.25000000  0.52070700  0.04840900  1
  Cu  Cu1  1  0.25000000  0.55963300  0.64116500  1
  Cu  Cu2  1  0.75000000  0.44594400  0.37399500  1
  Cu  Cu3  1  0.75000000  0.03703500  0.85022100  1
  Cu  Cu4  1  0.25000000  0.97483500  0.15627900  1
  C  C5  1  0.25000000  0.30108400  0.47099800  1
  C  C6  1  0.75000000  0.69376500  0.53012400  1
  C  C7  1  0.75000000  0.77538000  0.03248200  1
  C  C8  1  0.25000000  0.18535700  0.97381200  1
  C  C9  1  0.25000000  0.64382400  0.26011200  1
  C  C10  1  0.75000000  0.35215500  0.73743200  1
  C  C11  1  0.75000000  0.19121300  0.22179100  1
  C  C12  1  0.25000000  0.83156900  0.77262600  1
