# generated using pymatgen
data_Cu2NiC9
_symmetry_space_group_name_H-M   'P 1'
_cell_length_a   4.07083508
_cell_length_b   4.07083539
_cell_length_c   10.80603190
_cell_angle_alpha   100.85705142
_cell_angle_beta   100.85705262
_cell_angle_gamma   90.00000041
_symmetry_Int_Tables_number   1
_chemical_formula_structural   Cu2NiC9
_chemical_formula_sum   'Cu2 Ni1 C9'
_cell_volume   172.60400048
_cell_formula_units_Z   1
loop_
 _symmetry_equiv_pos_site_id
 _symmetry_equiv_pos_as_xyz
  1  'x, y, z'
loop_
 _atom_site_type_symbol
 _atom_site_label
 _atom_site_symmetry_multiplicity
 _atom_site_fract_x
 _atom_site_fract_y
 _atom_site_fract_z
 _atom_site_occupancy
  C  C0  1  0.67930700  0.67930800  0.35861700  1
  C  C1  1  0.32069100  0.32069200  0.64138400  1
  C  C2  1  0.49999900  0.50000000  0.00000000  1
  Ni  Ni3  1  0.00000000  0.00000000  0.00000000  1
  Cu  Cu4  1  0.88364500  0.88364300  0.76728900  1
  Cu  Cu5  1  0.11635600  0.11635500  0.23271100  1
  C  C6  1  0.79413600  0.79413600  0.58827100  1
  C  C7  1  0.20586500  0.20586400  0.41172800  1
  C  C8  1  0.92729300  0.42729300  0.85458500  1
  C  C9  1  0.42729200  0.92729400  0.85458500  1
  C  C10  1  0.07270800  0.57270700  0.14541400  1
  C  C11  1  0.57270700  0.07270700  0.14541400  1
