# generated using pymatgen
data_Cu4(NiC9)7
_symmetry_space_group_name_H-M   'P 1'
_cell_length_a   17.98282924
_cell_length_b   8.97033673
_cell_length_c   23.26903676
_cell_angle_alpha   89.93933829
_cell_angle_beta   89.90040139
_cell_angle_gamma   119.95712167
_symmetry_Int_Tables_number   1
_chemical_formula_structural   Cu4(NiC9)7
_chemical_formula_sum   'Cu12 Ni21 C189'
_cell_volume   3252.08252344
_cell_formula_units_Z   3
loop_
 _symmetry_equiv_pos_site_id
 _symmetry_equiv_pos_as_xyz
  1  'x, y, z'
loop_
 _atom_site_type_symbol
 _atom_site_label
 _atom_site_symmetry_multiplicity
 _atom_site_fract_x
 _atom_site_fract_y
 _atom_site_fract_z
 _atom_site_occupancy
  C  C0  1  0.00043524  0.63150270  0.25221822  1
  C  C1  1  0.49716902  0.64646944  0.24607293  1
  C  C2  1  0.99851840  0.34817068  0.75296113  1
  C  C3  1  0.50007575  0.37092842  0.75426008  1
  C  C4  1  0.66387170  0.31476709  0.91826004  1
  C  C5  1  0.16502237  0.01607945  0.41467632  1
  C  C6  1  0.99862211  0.98262968  0.50365691  1
  C  C7  1  0.49430773  0.98798429  0.49445891  1
  C  C8  1  0.99515270  0.00153641  0.99644711  1
  C  C9  1  0.49723569  0.00232108  0.00817676  1
  C  C10  1  0.33510543  0.33699206  0.83340354  1
  C  C11  1  0.83340643  0.33012004  0.83579242  1
  C  C12  1  0.33267769  0.33670790  0.32892969  1
  C  C13  1  0.83473345  0.33173383  0.32910403  1
  C  C14  1  0.17590720  0.67496647  0.17037247  1
  C  C15  1  0.66984665  0.66520687  0.16019766  1
  C  C16  1  0.17694847  0.68441944  0.66556925  1
  C  C17  1  0.67358574  0.67534870  0.67250399  1
  C  C18  1  0.99857347  0.99355776  0.34817988  1
  C  C19  1  0.49774331  0.00095950  0.84966609  1
  C  C20  1  0.32346707  0.32256304  0.69125963  1
  C  C21  1  0.82534713  0.33374399  0.68726349  1
  C  C22  1  0.33218805  0.32739042  0.18308675  1
  C  C23  1  0.82373860  0.32305990  0.19086899  1
  C  C24  1  0.83425271  0.34142498  0.98043686  1
  C  C25  1  0.33463782  0.32735239  0.47933207  1
  C  C26  1  0.16825761  0.67569791  0.30915197  1
  C  C27  1  0.66617107  0.67477397  0.31082943  1
  C  C28  1  0.16884822  0.65944376  0.81360636  1
  C  C29  1  0.66824135  0.66274163  0.81115482  1
  Ni  Ni30  1  0.14799386  0.00806320  0.24865097  1
  Ni  Ni31  1  0.63882372  0.00385565  0.25142564  1
  Ni  Ni32  1  0.35557207  0.70989213  0.24755507  1
  Ni  Ni33  1  0.85253801  0.70819778  0.24792391  1
  Ni  Ni34  1  0.00008974  0.29146590  0.24919977  1
  Ni  Ni35  1  0.13832078  0.27640850  0.75104080  1
  Ni  Ni36  1  0.64421045  0.28784002  0.74958159  1
  Ni  Ni37  1  0.50064785  0.70886530  0.74891571  1
  Ni  Ni38  1  0.35177039  0.99548516  0.74842741  1
  Ni  Ni39  1  0.85609648  0.99952224  0.74700116  1
  Ni  Ni40  1  0.18448598  0.03698895  0.58319999  1
  Ni  Ni41  1  0.83142330  0.63249027  0.58260497  1
  Ni  Ni42  1  0.48337496  0.62724525  0.08223467  1
  Ni  Ni43  1  0.33029810  0.03035689  0.08282408  1
  Ni  Ni44  1  0.68541084  0.33115584  0.08362398  1
  Ni  Ni45  1  0.81421391  0.67642428  0.91738785  1
  Ni  Ni46  1  0.02326876  0.37969680  0.91869781  1
  Ni  Ni47  1  0.51657290  0.37136103  0.91494280  1
  Ni  Ni48  1  0.31744399  0.95732084  0.41512609  1
  Ni  Ni49  1  0.01728757  0.66139930  0.41620095  1
  Ni  Ni50  1  0.52384287  0.67023435  0.41860348  1
  Cu  Cu51  1  0.49560098  0.97489150  0.35328114  1
  Cu  Cu52  1  0.99557314  0.01693942  0.85566974  1
  Cu  Cu53  1  0.99909247  0.99777386  0.64576004  1
  Cu  Cu54  1  0.49685598  0.99330605  0.65563885  1
  Cu  Cu55  1  0.99851468  0.00334003  0.15446635  1
  Cu  Cu56  1  0.49726206  0.98502083  0.14159614  1
  Cu  Cu57  1  0.34608742  0.33390128  0.98499303  1
  Cu  Cu58  1  0.83859075  0.35241033  0.48222923  1
  Cu  Cu59  1  0.16699840  0.66955023  0.01878735  1
  Cu  Cu60  1  0.66411705  0.64471303  0.01982497  1
  Cu  Cu61  1  0.17202294  0.69383324  0.51578256  1
  Cu  Cu62  1  0.66627712  0.66251078  0.51801174  1
  C  C63  1  0.50019131  0.28542877  0.25071340  1
  C  C64  1  0.00097588  0.71122563  0.75088373  1
  C  C65  1  0.48144019  0.32928818  0.58426586  1
  C  C66  1  0.98147699  0.33677106  0.58211943  1
  C  C67  1  0.68548662  0.04077452  0.58129938  1
  C  C68  1  0.33401715  0.63134332  0.58279624  1
  C  C69  1  0.98148260  0.63339811  0.08423623  1
  C  C70  1  0.83622687  0.03988326  0.08311886  1
  C  C71  1  0.18440549  0.32851314  0.08078879  1
  C  C72  1  0.31196249  0.65983283  0.91918714  1
  C  C73  1  0.16722358  0.96281014  0.91704673  1
  C  C74  1  0.66598088  0.95507891  0.91841519  1
  C  C75  1  0.81199326  0.96272361  0.41954185  1
  C  C76  1  0.16571997  0.37958404  0.41931204  1
  C  C77  1  0.66665252  0.37169419  0.41713042  1
  C  C78  1  0.10473430  0.03137039  0.30827958  1
  C  C79  1  0.60286207  0.04309781  0.31045429  1
  C  C80  1  0.41503370  0.77988675  0.30606559  1
  C  C81  1  0.91376176  0.79338008  0.30448994  1
  C  C82  1  0.48780899  0.18552079  0.30434260  1
  C  C83  1  0.98367528  0.17065323  0.30588837  1
  C  C84  1  0.09981609  0.15902673  0.80846590  1
  C  C85  1  0.60402848  0.17618865  0.80796163  1
  C  C86  1  0.48362645  0.79644640  0.80474544  1
  C  C87  1  0.98565483  0.78542511  0.80261337  1
  C  C88  1  0.41397979  0.03333833  0.80376743  1
  C  C89  1  0.91738636  0.05141000  0.80420166  1
  C  C90  1  0.38904317  0.95936666  0.68919680  1
  C  C91  1  0.89816256  0.96470115  0.69029266  1
  C  C92  1  0.07908038  0.20442537  0.69350743  1
  C  C93  1  0.58508229  0.21007195  0.69149519  1
  C  C94  1  0.01542164  0.81308621  0.69768013  1
  C  C95  1  0.52098769  0.82318589  0.68935868  1
  C  C96  1  0.39810118  0.83483164  0.19270366  1
  C  C97  1  0.89108166  0.82163683  0.18967918  1
  C  C98  1  0.02024420  0.21755665  0.19047311  1
  C  C99  1  0.51453111  0.21353566  0.19913960  1
  C  C100  1  0.08410164  0.95934880  0.19256667  1
  C  C101  1  0.57908990  0.95668563  0.19523659  1
  C  C102  1  0.44348889  0.35655990  0.63629577  1
  C  C103  1  0.94168745  0.36175268  0.63417513  1
  C  C104  1  0.24683206  0.13423844  0.63744105  1
  C  C105  1  0.73899125  0.12158649  0.63317400  1
  C  C106  1  0.32392561  0.52933942  0.63505260  1
  C  C107  1  0.81697063  0.50669192  0.63743837  1
  C  C108  1  0.43926684  0.50980026  0.14011834  1
  C  C109  1  0.94354264  0.53071735  0.13654784  1
  C  C110  1  0.31187123  0.12052445  0.13759505  1
  C  C111  1  0.82687246  0.12341024  0.13533399  1
  C  C112  1  0.23686258  0.35470812  0.13319099  1
  C  C113  1  0.74870218  0.35682365  0.13740047  1
  C  C114  1  0.22481431  0.30532490  0.02853268  1
  C  C115  1  0.73082424  0.30569225  0.02525174  1
  C  C116  1  0.41946324  0.54606857  0.02598529  1
  C  C117  1  0.92823425  0.54723137  0.03255863  1
  C  C118  1  0.34269729  0.13841021  0.02340985  1
  C  C119  1  0.84898270  0.14776973  0.03152742  1
  C  C120  1  0.22925692  0.15061042  0.52481081  1
  C  C121  1  0.72825572  0.14696588  0.52877253  1
  C  C122  1  0.34653775  0.54950744  0.53118366  1
  C  C123  1  0.84714458  0.54554046  0.52536434  1
  C  C124  1  0.42833003  0.30917096  0.53253957  1
  C  C125  1  0.92556378  0.30610322  0.53028973  1
  C  C126  1  0.27330361  0.69189438  0.97058746  1
  C  C127  1  0.77209808  0.71153106  0.97433154  1
  C  C128  1  0.08470455  0.47356614  0.97447420  1
  C  C129  1  0.57941287  0.45433543  0.97062661  1
  C  C130  1  0.15410646  0.85661675  0.96968666  1
  C  C131  1  0.65499855  0.85356554  0.97061561  1
  C  C132  1  0.28029728  0.84267541  0.47440697  1
  C  C133  1  0.77355445  0.85494272  0.47190244  1
  C  C134  1  0.15393893  0.45796292  0.47266505  1
  C  C135  1  0.65526160  0.45125745  0.47079066  1
  C  C136  1  0.07765300  0.69753022  0.47389211  1
  C  C137  1  0.58421395  0.69890789  0.47563583  1
  C  C138  1  0.06063161  0.63630353  0.35882473  1
  C  C139  1  0.56658453  0.63774248  0.36159019  1
  C  C140  1  0.25124904  0.87127332  0.36263099  1
  C  C141  1  0.75986434  0.88126076  0.36792582  1
  C  C142  1  0.17842804  0.48112698  0.36791941  1
  C  C143  1  0.68257431  0.48303051  0.36681540  1
  C  C144  1  0.06548071  0.49314371  0.86006199  1
  C  C145  1  0.56048095  0.48402889  0.85682344  1
  C  C146  1  0.18161625  0.88039111  0.86597047  1
  C  C147  1  0.67886290  0.87799799  0.86584129  1
  C  C148  1  0.25958099  0.64169082  0.86679347  1
  C  C149  1  0.75240407  0.63407907  0.86176076  1
  C  C150  1  0.01262958  0.84115838  0.41426341  1
  C  C151  1  0.51767243  0.84546083  0.41633129  1
  C  C152  1  0.41573160  0.99528463  0.40931052  1
  C  C153  1  0.89868054  0.98457228  0.41397853  1
  C  C154  1  0.08991143  0.20231578  0.41530386  1
  C  C155  1  0.58852751  0.20318902  0.41214067  1
  C  C156  1  0.01829167  0.19253704  0.91662570  1
  C  C157  1  0.51190414  0.18252252  0.91156552  1
  C  C158  1  0.08773043  0.97219254  0.91090912  1
  C  C159  1  0.59077555  0.98011794  0.91310400  1
  C  C160  1  0.39804564  0.81244586  0.91252869  1
  C  C161  1  0.91339641  0.83578104  0.91027893  1
  C  C162  1  0.49023851  0.17243458  0.58730630  1
  C  C163  1  0.98839777  0.17887987  0.58576843  1
  C  C164  1  0.08976191  0.02056531  0.58943622  1
  C  C165  1  0.60008333  0.02639963  0.58618445  1
  C  C166  1  0.41211613  0.80766644  0.58682247  1
  C  C167  1  0.91692075  0.82093445  0.58809187  1
  C  C168  1  0.48992112  0.81353270  0.08395065  1
  C  C169  1  0.99006515  0.80758420  0.08707671  1
  C  C170  1  0.41677364  0.01968174  0.08851336  1
  C  C171  1  0.91543668  0.02246121  0.08702227  1
  C  C172  1  0.09755142  0.17195711  0.08646579  1
  C  C173  1  0.59078882  0.16445731  0.09009129  1
  C  C174  1  0.35065973  0.17578994  0.74324419  1
  C  C175  1  0.85415485  0.18134614  0.73752426  1
  C  C176  1  0.23570097  0.31172510  0.74547475  1
  C  C177  1  0.73967478  0.30781671  0.74470662  1
  C  C178  1  0.41750347  0.51706148  0.73982675  1
  C  C179  1  0.92557522  0.53309393  0.74328472  1
  C  C180  1  0.35134056  0.52269317  0.24111997  1
  C  C181  1  0.85117500  0.52564696  0.24341300  1
  C  C182  1  0.42458818  0.31275043  0.24618683  1
  C  C183  1  0.91769483  0.31879970  0.24131281  1
  C  C184  1  0.24248013  0.17580945  0.24462127  1
  C  C185  1  0.73701543  0.16153460  0.24682422  1
  C  C186  1  0.31479640  0.49852092  0.92368752  1
  C  C187  1  0.81827786  0.49574039  0.92476212  1
  C  C188  1  0.42030112  0.35280592  0.91796334  1
  C  C189  1  0.92764339  0.35504264  0.92601566  1
  C  C190  1  0.24335803  0.13712278  0.92333788  1
  C  C191  1  0.74396096  0.13255180  0.92276691  1
  C  C192  1  0.31920687  0.14316625  0.42448562  1
  C  C193  1  0.81675230  0.13328450  0.42657550  1
  C  C194  1  0.24326544  0.35712300  0.42494289  1
  C  C195  1  0.74403917  0.35013901  0.42371222  1
  C  C196  1  0.42827283  0.50256145  0.42784132  1
  C  C197  1  0.92156419  0.48362094  0.42047489  1
  C  C198  1  0.17601810  0.48621533  0.07670586  1
  C  C199  1  0.68367081  0.51183002  0.08122625  1
  C  C200  1  0.06788664  0.64974934  0.07698515  1
  C  C201  1  0.57999262  0.65160801  0.07547476  1
  C  C202  1  0.24186917  0.83683933  0.07593076  1
  C  C203  1  0.75794418  0.86994052  0.07782773  1
  C  C204  1  0.17643154  0.84371407  0.58112051  1
  C  C205  1  0.67813585  0.86800988  0.57681837  1
  C  C206  1  0.25366007  0.64181837  0.57741906  1
  C  C207  1  0.74311574  0.64669937  0.57505935  1
  C  C208  1  0.06801827  0.48993155  0.57508859  1
  C  C209  1  0.56837314  0.48611641  0.57705794  1
  C  C210  1  0.14996678  0.82868584  0.25354509  1
  C  C211  1  0.64689909  0.82688779  0.25887295  1
  C  C212  1  0.26066861  0.68444062  0.25638153  1
  C  C213  1  0.75782258  0.68343748  0.25844011  1
  C  C214  1  0.08287712  0.48237857  0.25606216  1
  C  C215  1  0.57712225  0.46448098  0.25745559  1
  C  C216  1  0.14633086  0.46881052  0.75810377  1
  C  C217  1  0.65053287  0.47407141  0.75324651  1
  C  C218  1  0.07720780  0.68847319  0.75672557  1
  C  C219  1  0.58335281  0.68315607  0.75508146  1
  C  C220  1  0.25640040  0.83108938  0.75719281  1
  C  C221  1  0.76096417  0.83808644  0.75520546  1
