# generated using pymatgen
data_CuNiC19
_symmetry_space_group_name_H-M   'P 1'
_cell_length_a   9.18827445
_cell_length_b   9.18053350
_cell_length_c   22.46315768
_cell_angle_alpha   89.98970283
_cell_angle_beta   89.71689873
_cell_angle_gamma   120.02318112
_symmetry_Int_Tables_number   1
_chemical_formula_structural   CuNiC19
_chemical_formula_sum   'Cu6 Ni6 C114'
_cell_volume   1640.56893552
_cell_formula_units_Z   6
loop_
 _symmetry_equiv_pos_site_id
 _symmetry_equiv_pos_as_xyz
  1  'x, y, z'
loop_
 _atom_site_type_symbol
 _atom_site_label
 _atom_site_symmetry_multiplicity
 _atom_site_fract_x
 _atom_site_fract_y
 _atom_site_fract_z
 _atom_site_occupancy
  C  C0  1  0.63318762  0.99807269  0.25443543  1
  C  C1  1  0.36422389  0.36897071  0.25136169  1
  C  C2  1  0.00466121  0.62736309  0.25133055  1
  C  C3  1  0.63742351  0.63532373  0.74441604  1
  C  C4  1  0.99066176  0.35917285  0.74827662  1
  C  C5  1  0.37826762  0.00785337  0.74692026  1
  C  C6  1  0.29668959  0.32750781  0.58328557  1
  C  C7  1  0.03899121  0.71043702  0.58271266  1
  C  C8  1  0.66744116  0.96629232  0.58776691  1
  C  C9  1  0.29447060  0.96718464  0.08376083  1
  C  C10  1  0.67798198  0.70037390  0.08486508  1
  C  C11  1  0.02905489  0.33324004  0.09005221  1
  C  C12  1  0.97649727  0.67460245  0.92114997  1
  C  C13  1  0.69068548  0.03136430  0.91223994  1
  C  C14  1  0.33331902  0.29609550  0.91679960  1
  C  C15  1  0.96447806  0.29972285  0.41272908  1
  C  C16  1  0.32976307  0.03076925  0.41854824  1
  C  C17  1  0.70223575  0.66728840  0.41572083  1
  C  C18  1  0.00372660  0.99676167  0.49918174  1
  C  C19  1  0.00478808  0.99458548  0.00276620  1
  C  C20  1  0.66220185  0.32227075  0.83099802  1
  C  C21  1  0.67338192  0.33383802  0.33820819  1
  C  C22  1  0.32461070  0.66250323  0.16999453  1
  C  C23  1  0.33920738  0.67618834  0.66527975  1
  C  C24  1  0.99877044  -0.00005600  0.84386837  1
  C  C25  1  0.67235281  0.33377432  0.18826811  1
  C  C26  1  0.67019938  0.33757189  0.98925730  1
  C  C27  1  0.32921579  0.66999129  0.01667630  1
  C  C28  1  0.32947243  0.67220508  0.51539376  1
  C  C29  1  0.33918137  0.67570221  0.81260524  1
  Ni  Ni30  1  0.99768578  0.99429203  0.34846617  1
  Ni  Ni31  1  0.00574451  0.00013472  0.64913964  1
  Ni  Ni32  1  0.00210473  0.00048672  0.15501312  1
  Ni  Ni33  1  0.66538899  0.32488981  0.68017931  1
  Ni  Ni34  1  0.66887226  0.33738610  0.48620942  1
  Ni  Ni35  1  0.31477309  0.65074489  0.31898736  1
  Cu  Cu36  1  0.00937481  0.28696188  0.25382227  1
  Cu  Cu37  1  0.70991446  0.01093964  0.74210259  1
  Cu  Cu38  1  0.37493427  0.05097245  0.58457767  1
  Cu  Cu39  1  0.97380905  0.65309899  0.08800300  1
  Cu  Cu40  1  0.33431093  0.97849140  0.91598224  1
  Cu  Cu41  1  0.02637146  0.66694814  0.41468053  1
  C  C42  1  0.28190599  0.99025133  0.25313588  1
  C  C43  1  0.70619924  0.71729461  0.25303823  1
  C  C44  1  0.30315655  0.29497954  0.74334985  1
  C  C45  1  0.98948701  0.69538385  0.74312510  1
  C  C46  1  0.95004371  0.32658036  0.58403950  1
  C  C47  1  0.67359043  0.62087231  0.58510510  1
  C  C48  1  0.67728973  0.02859628  0.08656651  1
  C  C49  1  0.35401143  0.32383850  0.08721372  1
  C  C50  1  0.63644122  0.66418690  0.91614059  1
  C  C51  1  0.02976504  0.36239577  0.91578640  1
  C  C52  1  0.63203307  0.96353696  0.41295592  1
  C  C53  1  0.33278015  0.36643411  0.41422327  1
  C  C54  1  0.19831967  0.01816322  0.30808767  1
  C  C55  1  0.81981479  0.79663407  0.30757160  1
  C  C56  1  0.97968393  0.16724774  0.31129707  1
  C  C57  1  0.23389583  0.19437471  0.80177638  1
  C  C58  1  0.96060279  0.76543398  0.80169233  1
  C  C59  1  0.81019227  0.04523357  0.80508078  1
  C  C60  1  0.81209864  0.97822213  0.68793322  1
  C  C61  1  0.18321542  0.20204147  0.69084701  1
  C  C62  1  0.02442194  0.81899959  0.69066665  1
  C  C63  1  0.78818283  0.82340153  0.19586362  1
  C  C64  1  0.03755572  0.20307215  0.19303573  1
  C  C65  1  0.17700224  0.96382638  0.19598151  1
  C  C66  1  0.87088696  0.36059736  0.63960737  1
  C  C67  1  0.49252707  0.13633508  0.64265542  1
  C  C68  1  0.64847220  0.51000876  0.64061513  1
  C  C69  1  0.88316666  0.52540992  0.14390028  1
  C  C70  1  0.63973581  0.11056764  0.14045345  1
  C  C71  1  0.46825178  0.35115701  0.14136609  1
  C  C72  1  0.43246389  0.29675613  0.03021430  1
  C  C73  1  0.86247216  0.57884253  0.02706998  1
  C  C74  1  0.70347076  0.13438629  0.02991858  1
  C  C75  1  0.46249711  0.16890236  0.52422576  1
  C  C76  1  0.70061955  0.54088718  0.52775989  1
  C  C77  1  0.84149367  0.30144400  0.52749702  1
  C  C78  1  0.55376700  0.68582061  0.97279362  1
  C  C79  1  0.13656225  0.44352468  0.97175722  1
  C  C80  1  0.30652203  0.86508808  0.97546146  1
  C  C81  1  0.56080281  0.85682126  0.47019634  1
  C  C82  1  0.29965535  0.44079790  0.47083289  1
  C  C83  1  0.14305479  0.71372359  0.47403996  1
  C  C84  1  0.11673474  0.62545324  0.35796827  1
  C  C85  1  0.51115788  0.87300743  0.35931294  1
  C  C86  1  0.36608802  0.48779309  0.35993574  1
  C  C87  1  0.11641757  0.46866346  0.85941774  1
  C  C88  1  0.36028513  0.88917834  0.85669829  1
  C  C89  1  0.52769896  0.64077696  0.86050835  1
  C  C90  1  0.00598581  0.83526520  0.40523593  1
  C  C91  1  0.81054473  0.98471542  0.40669757  1
  C  C92  1  0.17521257  0.18848121  0.40731020  1
  C  C93  1  0.00937339  0.18493419  0.91301507  1
  C  C94  1  0.16428650  0.99301692  0.91402421  1
  C  C95  1  0.81063287  0.82584679  0.91191842  1
  C  C96  1  0.96608949  0.16562610  0.58838596  1
  C  C97  1  0.18261617  0.03035694  0.59015708  1
  C  C98  1  0.83356559  0.79954420  0.58889206  1
  C  C99  1  0.98674774  0.83732730  0.09618599  1
  C  C100  1  0.84004214  0.02032358  0.09355867  1
  C  C101  1  0.17888359  0.16384915  0.09247285  1
  C  C102  1  0.69080483  0.18092793  0.73796405  1
  C  C103  1  0.48286140  0.31935916  0.73786527  1
  C  C104  1  0.82821173  0.52026176  0.73653014  1
  C  C105  1  0.68118547  0.53627609  0.24964537  1
  C  C106  1  0.84102274  0.30808920  0.25270464  1
  C  C107  1  0.45928284  0.15097981  0.24972065  1
  C  C108  1  0.65604158  0.50814005  0.91857492  1
  C  C109  1  0.85700955  0.35009205  0.91988014  1
  C  C110  1  0.50433323  0.16278521  0.91826285  1
  C  C111  1  0.64633590  0.14041034  0.41915472  1
  C  C112  1  0.49526461  0.35250739  0.41878194  1
  C  C113  1  0.83890217  0.49229536  0.42390748  1
  C  C114  1  0.33726687  0.48288818  0.08303675  1
  C  C115  1  0.15945018  0.66918982  0.08588176  1
  C  C116  1  0.52373112  0.84895549  0.08231572  1
  C  C117  1  0.35451060  0.86191581  0.58252247  1
  C  C118  1  0.51332533  0.63733627  0.58156642  1
  C  C119  1  0.12965104  0.48325807  0.58027218  1
  C  C120  1  0.30379272  0.83175473  0.25785484  1
  C  C121  1  0.52949854  0.70296560  0.25862159  1
  C  C122  1  0.18173071  0.47881648  0.25759772  1
  C  C123  1  0.31501462  0.46960227  0.74611399  1
  C  C124  1  0.14643746  0.67358283  0.74615557  1
  C  C125  1  0.52343365  0.83906114  0.74246274  1
