# generated using pymatgen
data_CuNiC17
_symmetry_space_group_name_H-M   'P 1'
_cell_length_a   9.44699494
_cell_length_b   9.44441035
_cell_length_c   24.28088599
_cell_angle_alpha   90.56043810
_cell_angle_beta   89.61736190
_cell_angle_gamma   119.83937581
_symmetry_Int_Tables_number   1
_chemical_formula_structural   CuNiC17
_chemical_formula_sum   'Cu6 Ni6 C102'
_cell_volume   1879.06855820
_cell_formula_units_Z   6
loop_
 _symmetry_equiv_pos_site_id
 _symmetry_equiv_pos_as_xyz
  1  'x, y, z'
loop_
 _atom_site_type_symbol
 _atom_site_label
 _atom_site_symmetry_multiplicity
 _atom_site_fract_x
 _atom_site_fract_y
 _atom_site_fract_z
 _atom_site_occupancy
  C  C0  1  0.00263139  0.62555226  0.25498714  1
  C  C1  1  0.37681084  0.00333667  0.74859150  1
  C  C2  1  0.65385377  0.97194279  0.59761418  1
  C  C3  1  0.02836427  0.34373463  0.09901545  1
  C  C4  1  0.98729876  0.67949856  0.92868606  1
  C  C5  1  0.31660342  0.00888044  0.42543782  1
  C  C6  1  0.02214774  0.97345918  0.50218989  1
  C  C7  1  0.02363247  0.97715007  0.00176931  1
  C  C8  1  0.65390492  0.28569686  0.83504636  1
  C  C9  1  0.71199042  0.34654641  0.33653655  1
  C  C10  1  0.31817212  0.64855537  0.16865234  1
  C  C11  1  0.34718492  0.68049352  0.66691979  1
  Ni  Ni12  1  0.99088352  0.00899420  0.84675664  1
  Ni  Ni13  1  0.00119937  0.99303799  0.15390808  1
  Ni  Ni14  1  0.65307849  0.32468428  0.98377150  1
  Ni  Ni15  1  0.33235453  0.68913657  0.01879932  1
  Ni  Ni16  1  0.31297922  0.66975137  0.51637293  1
  Ni  Ni17  1  0.35685048  0.68646242  0.81425519  1
  Cu  Cu18  1  0.99278976  0.00941882  0.34876820  1
  Cu  Cu19  1  0.00387395  0.99855884  0.64712208  1
  Cu  Cu20  1  0.66588001  0.32592239  0.68232257  1
  Cu  Cu21  1  0.67627310  0.33789828  0.18626205  1
  Cu  Cu22  1  0.67032473  0.34245849  0.48246846  1
  Cu  Cu23  1  0.31252444  0.64495108  0.31878117  1
  C  C24  1  0.00113575  0.30640365  0.24639326  1
  C  C25  1  0.69691125  0.00440970  0.74196550  1
  C  C26  1  0.36966884  0.04178526  0.58090737  1
  C  C27  1  0.96369912  0.63127241  0.08281459  1
  C  C28  1  0.32559673  0.97468976  0.91082722  1
  C  C29  1  0.02321038  0.67258458  0.41201136  1
  C  C30  1  0.30539519  0.99780032  0.25550574  1
  C  C31  1  0.69596526  0.69667593  0.25307551  1
  C  C32  1  0.30158813  0.29724881  0.74528079  1
  C  C33  1  0.99675287  0.69972008  0.74792265  1
  C  C34  1  0.95546223  0.32388833  0.58327346  1
  C  C35  1  0.67166907  0.63345170  0.58468262  1
  C  C36  1  0.67033471  0.03757738  0.08685589  1
  C  C37  1  0.36357299  0.33568097  0.08766136  1
  C  C38  1  0.64193065  0.66594589  0.91775469  1
  C  C39  1  0.03542384  0.37189284  0.91787295  1
  C  C40  1  0.62942242  0.96637384  0.41635179  1
  C  C41  1  0.33547290  0.36117375  0.41567990  1
  C  C42  1  0.22274402  0.01712252  0.30451839  1
  C  C43  1  0.80991378  0.78321400  0.29919826  1
  C  C44  1  0.98975702  0.18756895  0.29661668  1
  C  C45  1  0.23163062  0.20459546  0.79677370  1
  C  C46  1  0.98037849  0.76729547  0.80137532  1
  C  C47  1  0.79502823  0.00840020  0.79787763  1
  C  C48  1  0.79132825  0.99625696  0.68617117  1
  C  C49  1  0.19938714  0.20356258  0.69803967  1
  C  C50  1  0.01715092  0.81514445  0.70295731  1
  C  C51  1  0.76300189  0.78680010  0.20135322  1
  C  C52  1  0.01429480  0.22986225  0.18678902  1
  C  C53  1  0.19860560  0.96227285  0.20623777  1
  C  C54  1  0.87737830  0.34484320  0.63322947  1
  C  C55  1  0.48346255  0.13597733  0.63511206  1
  C  C56  1  0.66509586  0.54180854  0.63420821  1
  C  C57  1  0.85894881  0.51739797  0.13595962  1
  C  C58  1  0.65586691  0.12752854  0.13495209  1
  C  C59  1  0.45630659  0.33196943  0.13589805  1
  C  C60  1  0.44079126  0.32476694  0.03592851  1
  C  C61  1  0.87219541  0.54524965  0.02436554  1
  C  C62  1  0.67147189  0.11946527  0.03539543  1
  C  C63  1  0.46075298  0.14177311  0.52426921  1
  C  C64  1  0.68487729  0.55111638  0.53448581  1
  C  C65  1  0.86135176  0.31694504  0.53387248  1
  C  C66  1  0.55217104  0.66608108  0.96753920  1
  C  C67  1  0.12407935  0.44925189  0.96961364  1
  C  C68  1  0.30965390  0.85419351  0.96260681  1
  C  C69  1  0.56454780  0.87660274  0.46866464  1
  C  C70  1  0.31771538  0.43727067  0.46631024  1
  C  C71  1  0.15046795  0.70863267  0.46411390  1
  C  C72  1  0.11082005  0.64762232  0.35632071  1
  C  C73  1  0.52034953  0.87276154  0.37001289  1
  C  C74  1  0.35486141  0.46314954  0.36732166  1
  C  C75  1  0.13080918  0.46578111  0.86952411  1
  C  C76  1  0.33819039  0.88911000  0.85256157  1
  C  C77  1  0.54965697  0.65604569  0.86759881  1
  C  C78  1  0.02075868  0.84584017  0.40821251  1
  C  C79  1  0.79631502  0.99522614  0.40806086  1
  C  C80  1  0.18903338  0.19494846  0.40927856  1
  C  C81  1  0.00505133  0.20251687  0.91635575  1
  C  C82  1  0.14990922  0.97230854  0.91329207  1
  C  C83  1  0.80513163  0.81691389  0.91749718  1
  C  C84  1  0.95610314  0.16612565  0.58573031  1
  C  C85  1  0.18395198  0.01412551  0.58572676  1
  C  C86  1  0.81835946  0.80204866  0.58643575  1
  C  C87  1  0.99295763  0.81772352  0.08621304  1
  C  C88  1  0.82677878  0.03688906  0.08880430  1
  C  C89  1  0.19387875  0.19309519  0.08778804  1
  C  C90  1  0.66808025  0.16423306  0.74467812  1
  C  C91  1  0.46690884  0.31476782  0.74013578  1
  C  C92  1  0.85279693  0.53884330  0.73907080  1
  C  C93  1  0.68493950  0.53288764  0.24839587  1
  C  C94  1  0.84080234  0.33616675  0.24813833  1
  C  C95  1  0.46470772  0.14607918  0.24714171  1
  C  C96  1  0.67143085  0.52533016  0.91666964  1
  C  C97  1  0.87697232  0.37129429  0.91695939  1
  C  C98  1  0.48802936  0.15509762  0.91518572  1
  C  C99  1  0.63269076  0.12726018  0.41975852  1
  C  C100  1  0.47993347  0.33672073  0.41898423  1
  C  C101  1  0.84542294  0.50842861  0.42110571  1
  C  C102  1  0.35146106  0.48660326  0.08877044  1
  C  C103  1  0.13995942  0.63016951  0.08554202  1
  C  C104  1  0.53086474  0.86891142  0.08814882  1
  C  C105  1  0.36888671  0.86354295  0.58103232  1
  C  C106  1  0.52521931  0.65389084  0.58251364  1
  C  C107  1  0.12455222  0.46150709  0.58095650  1
  C  C108  1  0.32664705  0.85202507  0.26156369  1
  C  C109  1  0.53341612  0.67692730  0.26279786  1
  C  C110  1  0.16225469  0.49417150  0.25185498  1
  C  C111  1  0.31439036  0.45912263  0.74743135  1
  C  C112  1  0.14856758  0.68752333  0.74790133  1
  C  C113  1  0.50827418  0.84329742  0.74222409  1
