# generated using pymatgen
data_Cu3NiC2
_symmetry_space_group_name_H-M   'P 1'
_cell_length_a   4.16913702
_cell_length_b   5.05227896
_cell_length_c   4.52692589
_cell_angle_alpha   63.73081665
_cell_angle_beta   89.99644596
_cell_angle_gamma   114.35659660
_symmetry_Int_Tables_number   1
_chemical_formula_structural   Cu3NiC2
_chemical_formula_sum   'Cu3 Ni1 C2'
_cell_volume   75.92482515
_cell_formula_units_Z   1
loop_
 _symmetry_equiv_pos_site_id
 _symmetry_equiv_pos_as_xyz
  1  'x, y, z'
loop_
 _atom_site_type_symbol
 _atom_site_label
 _atom_site_symmetry_multiplicity
 _atom_site_fract_x
 _atom_site_fract_y
 _atom_site_fract_z
 _atom_site_occupancy
  C  C0  1  0.48878900  0.97693100  0.51033900  1
  C  C1  1  0.98879800  0.97698100  0.01068900  1
  Ni  Ni2  1  0.48875300  0.97692200  0.01077000  1
  Cu  Cu3  1  0.72696100  0.45320200  0.27445500  1
  Cu  Cu4  1  0.98927300  0.97774300  0.51046500  1
  Cu  Cu5  1  0.25075900  0.50072200  0.74578300  1
