# generated using pymatgen
data_Cu7Ni5C58
_symmetry_space_group_name_H-M   'P 1'
_cell_length_a   17.72956016
_cell_length_b   8.85701590
_cell_length_c   23.09433813
_cell_angle_alpha   89.83277805
_cell_angle_beta   90.49569051
_cell_angle_gamma   120.04507874
_symmetry_Int_Tables_number   1
_chemical_formula_structural   Cu7Ni5C58
_chemical_formula_sum   'Cu21 Ni15 C174'
_cell_volume   3139.11518308
_cell_formula_units_Z   3
loop_
 _symmetry_equiv_pos_site_id
 _symmetry_equiv_pos_as_xyz
  1  'x, y, z'
loop_
 _atom_site_type_symbol
 _atom_site_label
 _atom_site_symmetry_multiplicity
 _atom_site_fract_x
 _atom_site_fract_y
 _atom_site_fract_z
 _atom_site_occupancy
  C  C0  1  0.99482307  0.00142784  0.49881487  1
  C  C1  1  0.49386975  0.98961851  0.99393076  1
  C  C2  1  0.34015597  0.34241749  0.83187783  1
  C  C3  1  0.83179540  0.34157678  0.82942226  1
  C  C4  1  0.33474497  0.32685055  0.33165178  1
  C  C5  1  0.83591791  0.33604089  0.33570809  1
  C  C6  1  0.99804056  0.98443739  0.35722521  1
  C  C7  1  0.49611187  0.00039759  0.85317769  1
  C  C8  1  0.00268313  -0.00032089  0.64803990  1
  C  C9  1  0.50103938  0.00474715  0.14736077  1
  C  C10  1  0.84181812  0.35093376  0.68983332  1
  C  C11  1  0.34248763  0.33250108  0.18947735  1
  C  C12  1  0.33663164  0.34941688  0.97547231  1
  C  C13  1  0.84206820  0.33004413  0.97846350  1
  C  C14  1  0.34165538  0.35366305  0.48124325  1
  C  C15  1  0.83572168  0.32211041  0.47700944  1
  C  C16  1  0.15903588  0.67129184  0.30796544  1
  C  C17  1  0.65549679  0.64534853  0.80488817  1
  C  C18  1  0.49920468  0.01103881  0.36076979  1
  C  C19  1  0.99881993  0.98832299  0.85951236  1
  C  C20  1  0.50071620  0.99178507  0.64900029  1
  C  C21  1  0.00058122  0.99335463  0.14388893  1
  C  C22  1  0.33897075  0.35550740  0.68419459  1
  C  C23  1  0.83148381  0.31946989  0.18252853  1
  C  C24  1  0.16578405  0.64762561  0.01368845  1
  C  C25  1  0.65990509  0.66286659  0.02656851  1
  C  C26  1  0.16081996  0.65994393  0.52937529  1
  C  C27  1  0.66445743  0.68615588  0.51630010  1
  C  C28  1  0.66005160  0.66847004  0.31372275  1
  C  C29  1  0.16218968  0.65276671  0.81194136  1
  Ni  Ni30  1  0.14253333  0.00993694  0.24818921  1
  Ni  Ni31  1  0.50631719  0.29239397  0.25476129  1
  Ni  Ni32  1  0.64255765  0.27471824  0.74767470  1
  Ni  Ni33  1  0.00607818  0.71939283  0.75502018  1
  Ni  Ni34  1  0.49542281  0.71217629  0.74937210  1
  Ni  Ni35  1  0.97979090  0.32897350  0.58323133  1
  Ni  Ni36  1  0.33486939  0.63621446  0.58458387  1
  Ni  Ni37  1  0.48017944  0.63032960  0.08275688  1
  Ni  Ni38  1  0.83416332  0.03407436  0.08389433  1
  Ni  Ni39  1  0.30776472  0.66881729  0.91397828  1
  Ni  Ni40  1  0.02606320  0.37433614  0.91221557  1
  Ni  Ni41  1  0.52622405  0.37856567  0.91989504  1
  Ni  Ni42  1  0.80571734  0.94529062  0.41441163  1
  Ni  Ni43  1  0.02584242  0.66601045  0.42065546  1
  Ni  Ni44  1  0.52441302  0.67544686  0.41307189  1
  Cu  Cu45  1  0.64844606  0.00583480  0.25184558  1
  Cu  Cu46  1  0.35837903  0.71514868  0.25370656  1
  Cu  Cu47  1  0.85377355  0.70356493  0.24659985  1
  Cu  Cu48  1  0.99464317  0.28107881  0.24678826  1
  Cu  Cu49  1  0.14714750  0.28901374  0.75274656  1
  Cu  Cu50  1  0.35165067  0.00115421  0.74710400  1
  Cu  Cu51  1  0.85975200  0.00185659  0.75376831  1
  Cu  Cu52  1  0.48031390  0.33488607  0.58541520  1
  Cu  Cu53  1  0.19202431  0.04477815  0.58334611  1
  Cu  Cu54  1  0.68524328  0.03849518  0.58345518  1
  Cu  Cu55  1  0.82742804  0.62252385  0.58088450  1
  Cu  Cu56  1  0.97828302  0.62238223  0.08602194  1
  Cu  Cu57  1  0.32705617  0.03222264  0.08119291  1
  Cu  Cu58  1  0.18442314  0.33213835  0.08411457  1
  Cu  Cu59  1  0.69287716  0.33981598  0.08344873  1
  Cu  Cu60  1  0.81220118  0.67218256  0.91709399  1
  Cu  Cu61  1  0.16322386  0.94285646  0.91590063  1
  Cu  Cu62  1  0.66725137  0.95027652  0.91860237  1
  Cu  Cu63  1  0.31167265  0.95248925  0.41685755  1
  Cu  Cu64  1  0.16727378  0.38309592  0.41783299  1
  Cu  Cu65  1  0.66343232  0.38387529  0.41594998  1
  C  C66  1  0.09710833  0.03392626  0.30548819  1
  C  C67  1  0.60924750  0.03753223  0.30260661  1
  C  C68  1  0.41398683  0.79997671  0.30478444  1
  C  C69  1  0.90971656  0.78021169  0.29996716  1
  C  C70  1  0.49225121  0.15886235  0.30904996  1
  C  C71  1  0.97643727  0.17910890  0.30048686  1
  C  C72  1  0.10501582  0.17860276  0.80317760  1
  C  C73  1  0.59872548  0.16295062  0.80613522  1
  C  C74  1  0.47258850  0.78180100  0.80732374  1
  C  C75  1  0.99171280  0.82425706  0.80909504  1
  C  C76  1  0.40756968  0.04216974  0.80079514  1
  C  C77  1  0.91601327  0.02972953  0.80483528  1
  C  C78  1  0.39407719  0.97389022  0.69697012  1
  C  C79  1  0.89956461  0.98036257  0.70000763  1
  C  C80  1  0.09325886  0.21299710  0.69888099  1
  C  C81  1  0.58052287  0.18220622  0.69107536  1
  C  C82  1  0.01560825  0.82778228  0.69562573  1
  C  C83  1  0.50562109  0.83080805  0.69285353  1
  C  C84  1  0.39763159  0.81755679  0.20004327  1
  C  C85  1  0.89734593  0.81637097  0.19593877  1
  C  C86  1  0.00602192  0.19610054  0.19631283  1
  C  C87  1  0.51568215  0.20253000  0.19576665  1
  C  C88  1  0.07946802  0.98377653  0.19201407  1
  C  C89  1  0.59506322  0.97676188  0.19849783  1
  C  C90  1  0.43579147  0.36448464  0.63538491  1
  C  C91  1  0.93587897  0.36130473  0.63927314  1
  C  C92  1  0.24344071  0.12958126  0.63535329  1
  C  C93  1  0.74243003  0.11703941  0.63397621  1
  C  C94  1  0.31849734  0.49617821  0.63911622  1
  C  C95  1  0.81708904  0.51944983  0.63411230  1
  C  C96  1  0.43657001  0.51045794  0.13965450  1
  C  C97  1  0.93269587  0.50702320  0.13664178  1
  C  C98  1  0.31687516  0.11413845  0.13468303  1
  C  C99  1  0.81911704  0.14454351  0.13978907  1
  C  C100  1  0.24126294  0.36555788  0.13510415  1
  C  C101  1  0.74600184  0.35635738  0.13641754  1
  C  C102  1  0.22052907  0.29409589  0.03257174  1
  C  C103  1  0.73235214  0.31066934  0.03194430  1
  C  C104  1  0.41662816  0.53895505  0.02713725  1
  C  C105  1  0.92286501  0.54887920  0.03331895  1
  C  C106  1  0.34254632  0.14512534  0.03086573  1
  C  C107  1  0.85530431  0.17012059  0.03049974  1
  C  C108  1  0.23089805  0.15099417  0.53065187  1
  C  C109  1  0.72440961  0.14788894  0.53121388  1
  C  C110  1  0.35319905  0.54160178  0.52929727  1
  C  C111  1  0.84281293  0.54019843  0.53020467  1
  C  C112  1  0.42367077  0.30204842  0.53214635  1
  C  C113  1  0.91794188  0.29616067  0.52644176  1
  C  C114  1  0.25744888  0.68567639  0.97349004  1
  C  C115  1  0.77544204  0.70074894  0.96915969  1
  C  C116  1  0.08285382  0.47043518  0.97207389  1
  C  C117  1  0.58879534  0.48871649  0.97567153  1
  C  C118  1  0.14854550  0.83578821  0.96901519  1
  C  C119  1  0.66137551  0.85078059  0.97106837  1
  C  C120  1  0.27470462  0.84970254  0.46826423  1
  C  C121  1  0.75770018  0.82800897  0.47363265  1
  C  C122  1  0.15993379  0.46892889  0.46953364  1
  C  C123  1  0.64840006  0.45856386  0.46844735  1
  C  C124  1  0.08902852  0.68811941  0.47502662  1
  C  C125  1  0.58268663  0.69599409  0.47207461  1
  C  C126  1  0.06728109  0.63767059  0.36113514  1
  C  C127  1  0.57051150  0.64213364  0.35731035  1
  C  C128  1  0.25890154  0.87216570  0.36340832  1
  C  C129  1  0.74896902  0.84149921  0.35778403  1
  C  C130  1  0.18120053  0.48374529  0.36398954  1
  C  C131  1  0.67792094  0.48905925  0.36355472  1
  C  C132  1  0.07168345  0.50052955  0.85699591  1
  C  C133  1  0.56691361  0.49529434  0.86181594  1
  C  C134  1  0.17842796  0.86766158  0.86414961  1
  C  C135  1  0.68289592  0.88095798  0.86561961  1
  C  C136  1  0.24946199  0.65754001  0.85821492  1
  C  C137  1  0.76023036  0.64500418  0.86439113  1
  C  C138  1  0.01850938  0.84351940  0.41611930  1
  C  C139  1  0.51618994  0.84756089  0.40017288  1
  C  C140  1  0.40052099  0.97245385  0.40754663  1
  C  C141  1  0.90337084  0.97346996  0.41145032  1
  C  C142  1  0.08628895  0.20906317  0.41259809  1
  C  C143  1  0.58519293  0.20462304  0.40813957  1
  C  C144  1  0.01655346  0.18475733  0.90084658  1
  C  C145  1  0.51922697  0.18923275  0.91716197  1
  C  C146  1  0.08493825  0.96381122  0.90880820  1
  C  C147  1  0.58756790  0.96407662  0.91486893  1
  C  C148  1  0.40349242  0.83753226  0.91522522  1
  C  C149  1  0.90161619  0.82941120  0.90841358  1
  C  C150  1  0.48729808  0.18036547  0.59449289  1
  C  C151  1  0.99383209  0.16185702  0.58897022  1
  C  C152  1  0.10251448  0.02228819  0.58810493  1
  C  C153  1  0.59782911  0.01505368  0.59088966  1
  C  C154  1  0.41644076  0.82525210  0.59822494  1
  C  C155  1  0.90700921  0.79953233  0.58809482  1
  C  C156  1  0.49451408  0.82576887  0.09023006  1
  C  C157  1  0.98488771  0.79508587  0.09539240  1
  C  C158  1  0.40675296  0.01428083  0.08893865  1
  C  C159  1  0.91804336  0.01777868  0.10288036  1
  C  C160  1  0.09531739  0.17973483  0.09424602  1
  C  C161  1  0.60475798  0.18334576  0.09026521  1
  C  C162  1  0.34114269  0.15695706  0.73772687  1
  C  C163  1  0.85080256  0.15901543  0.74751560  1
  C  C164  1  0.23362447  0.30351078  0.74435407  1
  C  C165  1  0.73824377  0.29276664  0.73984031  1
  C  C166  1  0.41195224  0.51047426  0.73657865  1
  C  C167  1  0.91773040  0.52684620  0.75069093  1
  C  C168  1  0.34900955  0.53990943  0.24742272  1
  C  C169  1  0.84597804  0.52825611  0.23829082  1
  C  C170  1  0.41794623  0.30842526  0.25061374  1
  C  C171  1  0.91909791  0.31331473  0.23779351  1
  C  C172  1  0.23840027  0.17865218  0.24045871  1
  C  C173  1  0.73694181  0.16632990  0.24227370  1
  C  C174  1  0.30779324  0.48452950  0.91847928  1
  C  C175  1  0.82450964  0.51683040  0.92359127  1
  C  C176  1  0.42672540  0.34962007  0.92483297  1
  C  C177  1  0.93011560  0.35729138  0.92058914  1
  C  C178  1  0.23969300  0.11923538  0.92380886  1
  C  C179  1  0.74372386  0.13414630  0.92553415  1
  C  C180  1  0.32292997  0.13054909  0.42111345  1
  C  C181  1  0.80774986  0.13153439  0.41814538  1
  C  C182  1  0.24262872  0.35158559  0.42349337  1
  C  C183  1  0.74009457  0.36000827  0.42220138  1
  C  C184  1  0.42860936  0.50158577  0.42005133  1
  C  C185  1  0.92601060  0.50075765  0.42327741  1
  C  C186  1  0.17489421  0.48880606  0.07408841  1
  C  C187  1  0.68622856  0.49705984  0.07833979  1
  C  C188  1  0.06379807  0.64072587  0.07816353  1
  C  C189  1  0.57572618  0.64822303  0.07192246  1
  C  C190  1  0.25009096  0.85971705  0.07330027  1
  C  C191  1  0.75055259  0.84857044  0.06986306  1
  C  C192  1  0.18372813  0.87134157  0.57676303  1
  C  C193  1  0.67684000  0.86227387  0.57303000  1
  C  C194  1  0.24871805  0.64872617  0.56892409  1
  C  C195  1  0.75032849  0.64015110  0.57243411  1
  C  C196  1  0.07502268  0.50298277  0.57259967  1
  C  C197  1  0.56542837  0.49253025  0.57525862  1
  C  C198  1  0.15168100  0.83551129  0.25493272  1
  C  C199  1  0.65938609  0.85239516  0.25862180  1
  C  C200  1  0.27160694  0.69560037  0.26012412  1
  C  C201  1  0.76882085  0.68721552  0.25520346  1
  C  C202  1  0.07429634  0.45452623  0.25337149  1
  C  C203  1  0.59164604  0.48142351  0.26599570  1
  C  C204  1  0.15699331  0.46453316  0.75901365  1
  C  C205  1  0.65646178  0.47008430  0.75456447  1
  C  C206  1  0.09157895  0.70227192  0.76615715  1
  C  C207  1  0.58269824  0.69943033  0.75366330  1
  C  C208  1  0.26656328  0.84583480  0.75704944  1
  C  C209  1  0.77424926  0.84740111  0.76038947  1
