# generated using pymatgen
data_Cu10Ni2C7
_symmetry_space_group_name_H-M   'P 1'
_cell_length_a   7.03954339
_cell_length_b   7.31846903
_cell_length_c   7.03954464
_cell_angle_alpha   66.19195448
_cell_angle_beta   62.52019386
_cell_angle_gamma   66.19195172
_symmetry_Int_Tables_number   1
_chemical_formula_structural   Cu10Ni2C7
_chemical_formula_sum   'Cu10 Ni2 C7'
_cell_volume   283.61385985
_cell_formula_units_Z   1
loop_
 _symmetry_equiv_pos_site_id
 _symmetry_equiv_pos_as_xyz
  1  'x, y, z'
loop_
 _atom_site_type_symbol
 _atom_site_label
 _atom_site_symmetry_multiplicity
 _atom_site_fract_x
 _atom_site_fract_y
 _atom_site_fract_z
 _atom_site_occupancy
  C  C0  1  0.32201393  0.51146047  0.32201393  1
  C  C1  1  0.67798607  0.48853953  0.67798607  1
  C  C2  1  0.50000000  -0.00000000  0.50000000  1
  C  C3  1  0.00000000  -0.00000000  0.50000000  1
  C  C4  1  0.50000000  -0.00000000  -0.00000000  1
  C  C5  1  0.00000000  -0.00000000  -0.00000000  1
  C  C6  1  0.00000000  0.50000000  -0.00000000  1
  Ni  Ni7  1  0.21013549  0.95994033  0.21013549  1
  Ni  Ni8  1  0.78986451  0.04005967  0.78986451  1
  Cu  Cu9  1  0.19091015  0.11586496  0.55947376  1
  Cu  Cu10  1  0.07193680  0.69954998  0.07193679  1
  Cu  Cu11  1  0.10172556  0.68834651  0.66547849  1
  Cu  Cu12  1  0.55947376  0.11586496  0.19091015  1
  Cu  Cu13  1  0.33452151  0.31165349  0.89827444  1
  Cu  Cu14  1  0.66547849  0.68834651  0.10172556  1
  Cu  Cu15  1  0.44052624  0.88413504  0.80908985  1
  Cu  Cu16  1  0.89827444  0.31165349  0.33452151  1
  Cu  Cu17  1  0.80908985  0.88413504  0.44052624  1
  Cu  Cu18  1  0.92806320  0.30045002  0.92806321  1
