# generated using pymatgen
data_Cu3NiC10
_symmetry_space_group_name_H-M   'P 1'
_cell_length_a   7.44113840
_cell_length_b   7.44113840
_cell_length_c   3.87810100
_cell_angle_alpha   90.00000000
_cell_angle_beta   90.00000000
_cell_angle_gamma   120.00000353
_symmetry_Int_Tables_number   1
_chemical_formula_structural   Cu3NiC10
_chemical_formula_sum   'Cu3 Ni1 C10'
_cell_volume   185.96383589
_cell_formula_units_Z   1
loop_
 _symmetry_equiv_pos_site_id
 _symmetry_equiv_pos_as_xyz
  1  'x, y, z'
loop_
 _atom_site_type_symbol
 _atom_site_label
 _atom_site_symmetry_multiplicity
 _atom_site_fract_x
 _atom_site_fract_y
 _atom_site_fract_z
 _atom_site_occupancy
  C  C0  1  0.77833200  0.55666400  0.00000000  1
  C  C1  1  0.44333600  0.22166800  0.00000000  1
  C  C2  1  0.77833200  0.22166800  0.00000000  1
  C  C3  1  0.16717600  0.33435100  0.00000000  1
  C  C4  1  0.49164900  0.50835100  0.50000000  1
  C  C5  1  0.01670300  0.50835100  0.50000000  1
  C  C6  1  0.49164900  0.98329700  0.50000000  1
  C  C7  1  0.33333300  0.66666700  0.00000000  1
  C  C8  1  0.16717600  0.83282400  0.00000000  1
  C  C9  1  0.66564900  0.83282400  0.00000000  1
  Ni  Ni10  1  0.00000000  0.00000000  0.50000000  1
  Cu  Cu11  1  0.49137500  0.50862500  0.00000000  1
  Cu  Cu12  1  0.49137500  0.98274900  0.00000000  1
  Cu  Cu13  1  0.01725100  0.50862500  0.00000000  1
