# generated using pymatgen
data_CuNiC
_symmetry_space_group_name_H-M   'P 1'
_cell_length_a   4.66004400
_cell_length_b   7.54141000
_cell_length_c   8.15741200
_cell_angle_alpha   90.00000000
_cell_angle_beta   90.00000000
_cell_angle_gamma   90.00000000
_symmetry_Int_Tables_number   1
_chemical_formula_structural   CuNiC
_chemical_formula_sum   'Cu4 Ni4 C4'
_cell_volume   286.67839690
_cell_formula_units_Z   4
loop_
 _symmetry_equiv_pos_site_id
 _symmetry_equiv_pos_as_xyz
  1  'x, y, z'
loop_
 _atom_site_type_symbol
 _atom_site_label
 _atom_site_symmetry_multiplicity
 _atom_site_fract_x
 _atom_site_fract_y
 _atom_site_fract_z
 _atom_site_occupancy
  C  C0  1  0.75000000  0.48746400  0.80620000  1
  C  C1  1  0.25000000  0.01253600  0.30620000  1
  C  C2  1  0.75000000  0.98746400  0.69380000  1
  C  C3  1  0.25000000  0.51253600  0.19380000  1
  Ni  Ni4  1  0.25000000  0.67544200  0.58379100  1
  Ni  Ni5  1  0.25000000  0.17544200  0.91620900  1
  Ni  Ni6  1  0.75000000  0.32455800  0.41620900  1
  Ni  Ni7  1  0.75000000  0.82455800  0.08379100  1
  Cu  Cu8  1  0.25000000  0.79013200  0.90805500  1
  Cu  Cu9  1  0.25000000  0.29013200  0.59194500  1
  Cu  Cu10  1  0.75000000  0.70986800  0.40805500  1
  Cu  Cu11  1  0.75000000  0.20986800  0.09194500  1
