# generated using pymatgen
data_CuNi4C69
_symmetry_space_group_name_H-M   'P 1'
_cell_length_a   17.63353922
_cell_length_b   8.83389380
_cell_length_c   22.92346438
_cell_angle_alpha   89.85564976
_cell_angle_beta   89.92908105
_cell_angle_gamma   119.99015733
_symmetry_Int_Tables_number   1
_chemical_formula_structural   CuNi4C69
_chemical_formula_sum   'Cu3 Ni12 C207'
_cell_volume   3092.73299743
_cell_formula_units_Z   3
loop_
 _symmetry_equiv_pos_site_id
 _symmetry_equiv_pos_as_xyz
  1  'x, y, z'
loop_
 _atom_site_type_symbol
 _atom_site_label
 _atom_site_symmetry_multiplicity
 _atom_site_fract_x
 _atom_site_fract_y
 _atom_site_fract_z
 _atom_site_occupancy
  C  C0  1  0.81989265  0.99559258  0.24574146  1
  C  C1  1  0.99586805  0.64009891  0.25521645  1
  C  C2  1  0.31926542  0.65270317  0.74902725  1
  C  C3  1  0.81884563  0.65014033  0.74446325  1
  C  C4  1  0.99267158  0.35146285  0.75162022  1
  C  C5  1  0.68761981  0.00203658  0.74816216  1
  C  C6  1  0.99646562  0.99577472  0.49859924  1
  C  C7  1  0.50347025  0.00415052  0.49426765  1
  C  C8  1  0.00087929  0.00123739  0.00093388  1
  C  C9  1  0.49972870  0.00064232  0.00138034  1
  C  C10  1  0.33599744  0.30288707  0.83625463  1
  C  C11  1  0.83484723  0.31925999  0.83707848  1
  C  C12  1  0.33495675  0.33532461  0.32936503  1
  C  C13  1  0.82557281  0.35322928  0.33574594  1
  C  C14  1  0.17770721  0.67076329  0.16887832  1
  C  C15  1  0.66584170  0.65125987  0.16984726  1
  C  C16  1  0.17511809  0.69626035  0.66529636  1
  C  C17  1  0.67199826  0.67426972  0.66197937  1
  C  C18  1  0.49849991  0.00042192  0.35153891  1
  C  C19  1  0.83395151  0.32598982  0.67795221  1
  C  C20  1  0.33488473  0.33710007  0.18438808  1
  C  C21  1  0.82851925  0.33966301  0.18325775  1
  C  C22  1  0.33330371  0.33342083  0.98307498  1
  C  C23  1  0.83283382  0.33366840  0.98271310  1
  C  C24  1  0.83339611  0.33375177  0.48272049  1
  C  C25  1  0.16552105  0.66268009  0.51537570  1
  C  C26  1  0.66929489  0.66820337  0.51618192  1
  C  C27  1  0.17186305  0.67163035  0.31916113  1
  C  C28  1  0.17133164  0.68361432  0.81807245  1
  C  C29  1  0.66734137  0.66680922  0.81901050  1
  Ni  Ni30  1  0.99869188  0.99057845  0.35208296  1
  Ni  Ni31  1  0.99672418  0.00252923  0.85116263  1
  Ni  Ni32  1  0.49663660  0.00828504  0.85193086  1
  Ni  Ni33  1  0.99210180  0.99455367  0.64673496  1
  Ni  Ni34  1  0.49731504  0.00196196  0.64814776  1
  Ni  Ni35  1  0.99799539  0.99635397  0.14892721  1
  Ni  Ni36  1  0.49741917  0.99710988  0.15039969  1
  Ni  Ni37  1  0.33430370  0.31874816  0.68113517  1
  Ni  Ni38  1  0.33153893  0.32824123  0.47904390  1
  Ni  Ni39  1  0.16753667  0.66972797  0.01817333  1
  Ni  Ni40  1  0.66676178  0.67016306  0.01878746  1
  Ni  Ni41  1  0.66634504  0.65555215  0.31899150  1
  Cu  Cu42  1  0.84981662  0.69815810  0.24928023  1
  Cu  Cu43  1  0.34784835  0.99649421  0.75035197  1
  Cu  Cu44  1  0.84878429  0.00039734  0.75065333  1
  C  C45  1  0.15330083  0.00330320  0.25018371  1
  C  C46  1  0.64617172  0.00023084  0.25093442  1
  C  C47  1  0.35077436  0.70159896  0.25159632  1
  C  C48  1  0.00387800  0.30382150  0.24951134  1
  C  C49  1  0.49616750  0.29115530  0.25034246  1
  C  C50  1  0.14872337  0.29786381  0.75066527  1
  C  C51  1  0.65045621  0.30107164  0.75009158  1
  C  C52  1  0.00118340  0.70228215  0.74940200  1
  C  C53  1  0.50191217  0.70327840  0.75098071  1
  C  C54  1  0.48682771  0.34195983  0.58012027  1
  C  C55  1  0.98318749  0.34057699  0.58228033  1
  C  C56  1  0.18098861  0.02797602  0.58126361  1
  C  C57  1  0.68493314  0.03547859  0.58371371  1
  C  C58  1  0.33148799  0.62643464  0.58305386  1
  C  C59  1  0.83131903  0.62144783  0.58273871  1
  C  C60  1  0.47809804  0.62420307  0.08325973  1
  C  C61  1  0.97976585  0.62348141  0.08269972  1
  C  C62  1  0.33346422  0.04435967  0.08310139  1
  C  C63  1  0.83343859  0.04521611  0.08305410  1
  C  C64  1  0.18810195  0.33226506  0.08373188  1
  C  C65  1  0.68595361  0.33097053  0.08205472  1
  C  C66  1  0.31463016  0.66001297  0.91673379  1
  C  C67  1  0.81442192  0.66045694  0.91670956  1
  C  C68  1  0.01868756  0.37382059  0.91615284  1
  C  C69  1  0.51920179  0.37562743  0.91779724  1
  C  C70  1  0.16689446  0.96646487  0.91703299  1
  C  C71  1  0.66678347  0.96662980  0.91526174  1
  C  C72  1  0.31367274  0.95675308  0.41699721  1
  C  C73  1  0.81426408  0.96865606  0.41849148  1
  C  C74  1  0.16571202  0.37409043  0.41629264  1
  C  C75  1  0.66602672  0.36439764  0.41979794  1
  C  C76  1  0.02044435  0.66341717  0.41706840  1
  C  C77  1  0.51980918  0.66997447  0.41748086  1
  C  C78  1  0.11557053  0.03962141  0.30260890  1
  C  C79  1  0.60349773  0.02612195  0.30149440  1
  C  C80  1  0.40793635  0.79224128  0.30125401  1
  C  C81  1  0.91466782  0.78046514  0.30559547  1
  C  C82  1  0.48753345  0.18420393  0.30158001  1
  C  C83  1  0.98797392  0.19191991  0.30176588  1
  C  C84  1  0.11465183  0.18509311  0.80280512  1
  C  C85  1  0.61485105  0.18051740  0.80125492  1
  C  C86  1  0.48684867  0.78455635  0.80282029  1
  C  C87  1  0.98452256  0.78020626  0.80195329  1
  C  C88  1  0.40754489  0.03455161  0.80824385  1
  C  C89  1  0.91677438  0.05919170  0.80573670  1
  C  C90  1  0.38954481  0.94997687  0.69366223  1
  C  C91  1  0.88799154  0.94142419  0.69592303  1
  C  C92  1  0.09593611  0.21583044  0.69780338  1
  C  C93  1  0.59746633  0.22363459  0.69715877  1
  C  C94  1  0.02254511  0.81586215  0.69738927  1
  C  C95  1  0.52463392  0.81876916  0.69853765  1
  C  C96  1  0.38603950  0.80470327  0.19591831  1
  C  C97  1  0.88948273  0.83457692  0.19382036  1
  C  C98  1  0.02456728  0.23364168  0.19697608  1
  C  C99  1  0.51227073  0.21872380  0.19574253  1
  C  C100  1  0.09542573  0.96583998  0.19814201  1
  C  C101  1  0.59619541  0.97525843  0.19597422  1
  C  C102  1  0.44897279  0.36781692  0.63473980  1
  C  C103  1  0.94469502  0.35433313  0.63848515  1
  C  C104  1  0.23184989  0.10622628  0.63549211  1
  C  C105  1  0.73132498  0.11308233  0.63953494  1
  C  C106  1  0.32175119  0.52825545  0.63902971  1
  C  C107  1  0.82463887  0.52996480  0.63880878  1
  C  C108  1  0.43654882  0.52377778  0.13614366  1
  C  C109  1  0.93952697  0.52837626  0.13703959  1
  C  C110  1  0.32518048  0.12743828  0.13576962  1
  C  C111  1  0.82616039  0.12420056  0.13788490  1
  C  C112  1  0.23797580  0.34864856  0.13662461  1
  C  C113  1  0.73554389  0.34689154  0.13483358  1
  C  C114  1  0.22899256  0.31484391  0.03043482  1
  C  C115  1  0.72796175  0.31587853  0.02902005  1
  C  C116  1  0.42874248  0.54148005  0.03022492  1
  C  C117  1  0.92840098  0.53567665  0.03087365  1
  C  C118  1  0.34120039  0.14245293  0.02973953  1
  C  C119  1  0.83778323  0.14617554  0.03125884  1
  C  C120  1  0.22255000  0.14218026  0.52988267  1
  C  C121  1  0.72939952  0.14669316  0.53342674  1
  C  C122  1  0.34194121  0.53442546  0.53266775  1
  C  C123  1  0.83871636  0.52790838  0.53283135  1
  C  C124  1  0.42900795  0.31177057  0.52968405  1
  C  C125  1  0.92647450  0.31881055  0.53287440  1
  C  C126  1  0.27374372  0.68911783  0.96921529  1
  C  C127  1  0.77302848  0.68824308  0.96889007  1
  C  C128  1  0.07165594  0.45860510  0.96878590  1
  C  C129  1  0.57041939  0.45603806  0.97152394  1
  C  C130  1  0.15163666  0.86121249  0.97125612  1
  C  C131  1  0.65248302  0.85857241  0.96842665  1
  C  C132  1  0.27226369  0.85807082  0.47054671  1
  C  C133  1  0.76725026  0.85147490  0.46724733  1
  C  C134  1  0.15821364  0.45547506  0.46989179  1
  C  C135  1  0.65372623  0.45526732  0.46926385  1
  C  C136  1  0.07500230  0.67860616  0.46724915  1
  C  C137  1  0.57189274  0.68565193  0.46904819  1
  C  C138  1  0.05975890  0.65005828  0.36141198  1
  C  C139  1  0.55791538  0.64221922  0.36326742  1
  C  C140  1  0.26097174  0.87526791  0.36498690  1
  C  C141  1  0.76805706  0.89706499  0.36160542  1
  C  C142  1  0.17381152  0.47459507  0.36357482  1
  C  C143  1  0.68230265  0.46694253  0.36443716  1
  C  C144  1  0.06093070  0.47319871  0.86243622  1
  C  C145  1  0.56345601  0.47847105  0.86555607  1
  C  C146  1  0.17551241  0.87860288  0.86537466  1
  C  C147  1  0.67521681  0.88185238  0.86213247  1
  C  C148  1  0.26471015  0.64460564  0.86331407  1
  C  C149  1  0.76534243  0.64530304  0.86295509  1
  C  C150  1  0.01453310  0.82842347  0.41720194  1
  C  C151  1  0.51099566  0.82668807  0.41138018  1
  C  C152  1  0.40218411  0.97828473  0.41172476  1
  C  C153  1  0.90332750  0.98529326  0.41641497  1
  C  C154  1  0.08633033  0.19487436  0.41343681  1
  C  C155  1  0.58598614  0.19118398  0.41301867  1
  C  C156  1  0.01134310  0.19742027  0.91537636  1
  C  C157  1  0.51235109  0.19961658  0.91621104  1
  C  C158  1  0.08708555  0.98546918  0.91231922  1
  C  C159  1  0.58703305  0.98570881  0.91151050  1
  C  C160  1  0.40466525  0.81667127  0.91463378  1
  C  C161  1  0.90429250  0.81782012  0.91436084  1
  C  C162  1  0.49487621  0.18235440  0.58415678  1
  C  C163  1  0.99337330  0.18017925  0.58371012  1
  C  C164  1  0.09338977  0.01348418  0.58660811  1
  C  C165  1  0.59475460  0.01767343  0.58662628  1
  C  C166  1  0.41321017  0.79991329  0.58469212  1
  C  C167  1  0.91366753  0.79840229  0.58262374  1
  C  C168  1  0.48837645  0.80396170  0.08602438  1
  C  C169  1  0.99133284  0.80383688  0.08355462  1
  C  C170  1  0.41296615  0.02270038  0.08551729  1
  C  C171  1  0.91425379  0.02956551  0.08262710  1
  C  C172  1  0.09776984  0.17276342  0.08670885  1
  C  C173  1  0.59610539  0.17220588  0.08522873  1
  C  C174  1  0.33906464  0.17200545  0.74652968  1
  C  C175  1  0.83920673  0.17371682  0.74141145  1
  C  C176  1  0.24120335  0.34016612  0.74347247  1
  C  C177  1  0.74011759  0.32842233  0.74175184  1
  C  C178  1  0.41800671  0.53688509  0.74281218  1
  C  C179  1  0.91878237  0.53223279  0.74104814  1
  C  C180  1  0.34346486  0.52787327  0.24515121  1
  C  C181  1  0.84490166  0.51199168  0.24220635  1
  C  C182  1  0.41646600  0.30453159  0.24441191  1
  C  C183  1  0.92147940  0.30914452  0.24117800  1
  C  C184  1  0.24039009  0.15557158  0.24114868  1
  C  C185  1  0.73631038  0.15156854  0.24481156  1
  C  C186  1  0.32099772  0.50112646  0.92294630  1
  C  C187  1  0.82143114  0.50197645  0.92267000  1
  C  C188  1  0.43139576  0.35605426  0.92213554  1
  C  C189  1  0.93087350  0.35516492  0.92124687  1
  C  C190  1  0.24562775  0.14038001  0.92249665  1
  C  C191  1  0.74600043  0.14034958  0.92092676  1
  C  C192  1  0.32295013  0.13683463  0.41955353  1
  C  C193  1  0.82375552  0.14262435  0.42537306  1
  C  C194  1  0.24577755  0.35348666  0.41827369  1
  C  C195  1  0.74389387  0.34458611  0.42678720  1
  C  C196  1  0.42986220  0.50990844  0.42062611  1
  C  C197  1  0.93161028  0.50944859  0.42215828  1
  C  C198  1  0.17739158  0.49155020  0.08071610  1
  C  C199  1  0.67615131  0.49085337  0.07977351  1
  C  C200  1  0.06927951  0.64144431  0.08025121  1
  C  C201  1  0.56844498  0.64568677  0.08085422  1
  C  C202  1  0.25364782  0.86361908  0.08093175  1
  C  C203  1  0.75398258  0.86458327  0.08062702  1
  C  C204  1  0.17282741  0.85536167  0.57487552  1
  C  C205  1  0.67455983  0.85891215  0.57813449  1
  C  C206  1  0.25356092  0.64506444  0.57793576  1
  C  C207  1  0.75401577  0.64498522  0.57840381  1
  C  C208  1  0.07078321  0.49708493  0.57666940  1
  C  C209  1  0.57315294  0.49779655  0.57369871  1
  C  C210  1  0.15718469  0.84009583  0.25836627  1
  C  C211  1  0.65474196  0.84080563  0.25663093  1
  C  C212  1  0.26256098  0.68128395  0.25872487  1
  C  C213  1  0.75535377  0.69163958  0.25535912  1
  C  C214  1  0.07710817  0.48465384  0.25781841  1
  C  C215  1  0.57385331  0.47025821  0.25500999  1
  C  C216  1  0.14899796  0.46453498  0.75860034  1
  C  C217  1  0.65697098  0.47157748  0.75972474  1
  C  C218  1  0.07330694  0.66619299  0.75844029  1
  C  C219  1  0.57627224  0.67472936  0.75920693  1
  C  C220  1  0.25329649  0.81786121  0.75559849  1
  C  C221  1  0.75237815  0.82734568  0.75928635  1
