# generated using pymatgen
data_Cu3Ni6C31
_symmetry_space_group_name_H-M   'P 1'
_cell_length_a   9.36298360
_cell_length_b   9.38404795
_cell_length_c   23.39764627
_cell_angle_alpha   90.16210649
_cell_angle_beta   89.84945395
_cell_angle_gamma   119.89433131
_symmetry_Int_Tables_number   1
_chemical_formula_structural   Cu3Ni6C31
_chemical_formula_sum   'Cu9 Ni18 C93'
_cell_volume   1782.24155092
_cell_formula_units_Z   3
loop_
 _symmetry_equiv_pos_site_id
 _symmetry_equiv_pos_as_xyz
  1  'x, y, z'
loop_
 _atom_site_type_symbol
 _atom_site_label
 _atom_site_symmetry_multiplicity
 _atom_site_fract_x
 _atom_site_fract_y
 _atom_site_fract_z
 _atom_site_occupancy
  Ni  Ni0  1  0.63255188  0.99626794  0.26126421  1
  Ni  Ni1  1  0.36769638  0.36371989  0.24015033  1
  Ni  Ni2  1  0.64112404  0.65260788  0.73879759  1
  Ni  Ni3  1  0.32383644  0.35322073  0.58953613  1
  Ni  Ni4  1  0.01736771  0.69954049  0.58286152  1
  Ni  Ni5  1  0.66525187  0.93877956  0.58430024  1
  Ni  Ni6  1  0.29760148  0.97508382  0.07256827  1
  Ni  Ni7  1  0.05638934  0.33745011  0.07277432  1
  Ni  Ni8  1  0.99453798  0.67753194  0.91597786  1
  Ni  Ni9  1  0.71025032  0.03881163  0.90172219  1
  Ni  Ni10  1  0.30041635  0.28406709  0.91891954  1
  Ni  Ni11  1  0.69360296  0.69344615  0.42273459  1
  Ni  Ni12  1  0.97362413  0.99192208  0.49619419  1
  Ni  Ni13  1  0.02300184  0.02127330  0.99461589  1
  Ni  Ni14  1  0.67283573  0.29884758  0.82503986  1
  Ni  Ni15  1  0.67479964  0.31479420  0.33751832  1
  Ni  Ni16  1  0.33725225  0.64768976  0.16026734  1
  Ni  Ni17  1  0.36243441  0.67961746  0.67136026  1
  Cu  Cu18  1  0.00183387  0.00438964  0.35148396  1
  Cu  Cu19  1  -0.00007071  0.00970779  0.84627160  1
  Cu  Cu20  1  0.98079302  0.99257518  0.65560529  1
  Cu  Cu21  1  0.00234791  0.99756467  0.14630074  1
  Cu  Cu22  1  0.66395860  0.32303520  0.68685353  1
  Cu  Cu23  1  0.66728665  0.34389979  0.18189287  1
  Cu  Cu24  1  0.33728779  0.66215482  0.01609803  1
  Cu  Cu25  1  0.34332926  0.67259339  0.51216933  1
  Cu  Cu26  1  0.33557350  0.68243553  0.32419344  1
  C  C27  1  0.65657597  0.32711624  0.98053052  1
  C  C28  1  0.66575346  0.32951011  0.48183563  1
  C  C29  1  0.32429801  0.67644551  0.81970763  1
  C  C30  1  0.68004593  0.98820894  0.75335848  1
  C  C31  1  0.66612275  0.62682295  0.58364956  1
  C  C32  1  0.36750183  0.33403638  0.08540614  1
  C  C33  1  0.03203094  0.37176883  0.92051016  1
  C  C34  1  0.33427318  0.96610334  0.92194255  1
  C  C35  1  0.64442080  0.97989485  0.41717752  1
  C  C36  1  0.30221901  0.99862687  0.24845931  1
  C  C37  1  0.69707394  0.69895071  0.25214980  1
  C  C38  1  0.00127688  0.29889831  0.24860232  1
  C  C39  1  0.30581953  0.31490839  0.75158901  1
  C  C40  1  0.00637724  0.69905141  0.75169965  1
  C  C41  1  0.95825060  0.33546618  0.58067958  1
  C  C42  1  0.37332511  0.04315867  0.58080114  1
  C  C43  1  0.95984399  0.62589113  0.08031165  1
  C  C44  1  0.66800091  0.04609797  0.08264099  1
  C  C45  1  0.62704672  0.65780120  0.91574317  1
  C  C46  1  0.34267865  0.36398191  0.41809997  1
  C  C47  1  0.02031450  0.65789249  0.42036531  1
  C  C48  1  0.21641309  0.01631299  0.29842271  1
  C  C49  1  0.78885720  0.77793948  0.30504151  1
  C  C50  1  0.98180131  0.19367165  0.29846535  1
  C  C51  1  0.22570282  0.21279300  0.80207257  1
  C  C52  1  0.98895830  0.78263367  0.80238315  1
  C  C53  1  0.78285228  0.99867801  0.81041940  1
  C  C54  1  0.75315845  0.94875259  0.69430497  1
  C  C55  1  0.21310238  0.23897803  0.69801864  1
  C  C56  1  0.03424110  0.79697073  0.69877585  1
  C  C57  1  0.78152538  0.80045127  0.20152016  1
  C  C58  1  0.01928458  0.22120680  0.19532866  1
  C  C59  1  0.21150582  0.98602856  0.19510558  1
  C  C60  1  0.88348260  0.35470213  0.63289194  1
  C  C61  1  0.47298148  0.11260064  0.63226061  1
  C  C62  1  0.64770523  0.52301889  0.64093493  1
  C  C63  1  0.88145255  0.52680168  0.13155095  1
  C  C64  1  0.65262304  0.12302508  0.13542618  1
  C  C65  1  0.45729037  0.33922858  0.14503142  1
  C  C66  1  0.48357315  0.32621803  0.02959849  1
  C  C67  1  0.86112292  0.53747018  0.02796551  1
  C  C68  1  0.68434277  0.15496427  0.03157845  1
  C  C69  1  0.46779213  0.14685493  0.52988535  1
  C  C70  1  0.67476189  0.51597692  0.52756820  1
  C  C71  1  0.84851627  0.31432426  0.53022573  1
  C  C72  1  0.55760310  0.69143465  0.96657023  1
  C  C73  1  0.13794518  0.44142262  0.97808791  1
  C  C74  1  0.31142398  0.86833585  0.98033562  1
  C  C75  1  0.55426621  0.86489489  0.47272328  1
  C  C76  1  0.31797463  0.44027993  0.46958425  1
  C  C77  1  0.11304636  0.67530328  0.47310681  1
  C  C78  1  0.09660143  0.63080251  0.36971207  1
  C  C79  1  0.54241855  0.91018838  0.35708665  1
  C  C80  1  0.37077637  0.46710541  0.36670564  1
  C  C81  1  0.13574745  0.50065922  0.86665565  1
  C  C82  1  0.36263829  0.86486142  0.86743999  1
  C  C83  1  0.51979439  0.62910411  0.86466096  1
  C  C84  1  0.99539907  0.80108548  0.41443595  1
  C  C85  1  0.82328268  0.98693299  0.41504392  1
  C  C86  1  0.20568100  0.19542437  0.41237239  1
  C  C87  1  -0.00058186  0.18509294  0.91211562  1
  C  C88  1  0.17563857  0.98989124  0.91198067  1
  C  C89  1  0.79791451  0.79418750  0.90801582  1
  C  C90  1  0.97743184  0.18689482  0.58204087  1
  C  C91  1  0.21478156  0.04418672  0.58309265  1
  C  C92  1  0.83788942  0.80828610  0.57953623  1
  C  C93  1  0.97299210  0.79032261  0.08228617  1
  C  C94  1  0.82129784  0.03640336  0.08218303  1
  C  C95  1  0.18843976  0.15890063  0.07814411  1
  C  C96  1  0.65578519  0.14655634  0.74936983  1
  C  C97  1  0.47764659  0.34677991  0.74875330  1
  C  C98  1  0.85559879  0.53625475  0.74729258  1
  C  C99  1  0.67394649  0.53000333  0.24918563  1
  C  C100  1  0.84855326  0.31155635  0.24646071  1
  C  C101  1  0.47227332  0.14999901  0.24767777  1
  C  C102  1  0.63549990  0.50101479  0.92300117  1
  C  C103  1  0.84959926  0.36726895  0.92507798  1
  C  C104  1  0.50907197  0.15216469  0.92453353  1
  C  C105  1  0.66352605  0.16674544  0.42724620  1
  C  C106  1  0.50324472  0.35883126  0.42470589  1
  C  C107  1  0.84760071  0.50673137  0.42512942  1
  C  C108  1  0.33712688  0.49053034  0.08399503  1
  C  C109  1  0.12829494  0.64779078  0.07755114  1
  C  C110  1  0.51851827  0.88418284  0.07734286  1
  C  C111  1  0.34043539  0.87176256  0.57416806  1
  C  C112  1  0.49944120  0.64554549  0.58027355  1
  C  C113  1  0.12146133  0.48579991  0.57309230  1
  C  C114  1  0.32433608  0.85187782  0.25187506  1
  C  C115  1  0.52683813  0.68142918  0.25405054  1
  C  C116  1  0.15423995  0.46275645  0.25392831  1
  C  C117  1  0.31715791  0.48157570  0.75792653  1
  C  C118  1  0.15584340  0.67783366  0.75841977  1
  C  C119  1  0.49701313  0.80777864  0.76085148  1
