# generated using pymatgen
data_Cu4(NiC11)3
_symmetry_space_group_name_H-M   'P 1'
_cell_length_a   8.90295652
_cell_length_b   8.94528039
_cell_length_c   22.18035284
_cell_angle_alpha   89.67470915
_cell_angle_beta   89.89295233
_cell_angle_gamma   120.07348885
_symmetry_Int_Tables_number   1
_chemical_formula_structural   Cu4(NiC11)3
_chemical_formula_sum   'Cu12 Ni9 C99'
_cell_volume   1528.59266192
_cell_formula_units_Z   3
loop_
 _symmetry_equiv_pos_site_id
 _symmetry_equiv_pos_as_xyz
  1  'x, y, z'
loop_
 _atom_site_type_symbol
 _atom_site_label
 _atom_site_symmetry_multiplicity
 _atom_site_fract_x
 _atom_site_fract_y
 _atom_site_fract_z
 _atom_site_occupancy
  C  C0  1  0.62448456  0.99873018  0.25169280  1
  C  C1  1  0.63702540  0.62608220  0.75053067  1
  C  C2  1  0.00022336  0.36530508  0.74557564  1
  C  C3  1  0.29775700  0.33958719  0.58456686  1
  C  C4  1  0.02795071  0.69607067  0.58660304  1
  C  C5  1  0.67244884  0.96412240  0.57924834  1
  C  C6  1  0.29772130  0.95562077  0.08647614  1
  C  C7  1  0.66800084  0.70579207  0.07979922  1
  C  C8  1  0.03072815  0.33620616  0.08352685  1
  C  C9  1  0.97125294  0.67926921  0.91446316  1
  C  C10  1  0.32872601  0.29670739  0.91266258  1
  C  C11  1  0.69074936  0.67043192  0.41442071  1
  C  C12  1  0.00098646  0.01515332  0.49596741  1
  C  C13  1  0.98765479  0.99483480  0.99612854  1
  C  C14  1  0.65633881  0.32492395  0.82938002  1
  C  C15  1  0.64954888  0.32180985  0.32885037  1
  C  C16  1  0.32241738  0.67061708  0.16950082  1
  C  C17  1  0.32798541  0.66215698  0.66445685  1
  C  C18  1  0.68133364  0.33459666  0.97768755  1
  C  C19  1  0.67054381  0.33129344  0.47639926  1
  C  C20  1  0.32542420  0.66319189  0.81425649  1
  Ni  Ni21  1  0.02297943  0.02973035  0.35351710  1
  Ni  Ni22  1  0.01050787  0.99684564  0.85457211  1
  Ni  Ni23  1  0.00145897  0.00339758  0.64972054  1
  Ni  Ni24  1  0.99646310  0.97899605  0.15003129  1
  Ni  Ni25  1  0.67699341  0.36133368  0.68614020  1
  Ni  Ni26  1  0.66153234  0.31774568  0.18448474  1
  Ni  Ni27  1  0.33331572  0.67831279  0.01533294  1
  Ni  Ni28  1  0.34574792  0.64915792  0.51543282  1
  Ni  Ni29  1  0.34088790  0.68203296  0.31722069  1
  Cu  Cu30  1  0.28919394  0.99891854  0.25011971  1
  Cu  Cu31  1  0.29272097  0.28020103  0.74868911  1
  Cu  Cu32  1  0.00210649  0.71788366  0.74892742  1
  Cu  Cu33  1  0.96120674  0.33545361  0.58637624  1
  Cu  Cu34  1  0.66942896  0.63206372  0.58417386  1
  Cu  Cu35  1  0.95848630  0.62278731  0.08754340  1
  Cu  Cu36  1  0.66816394  0.03435727  0.08717475  1
  Cu  Cu37  1  0.62684761  0.67689964  0.91888034  1
  Cu  Cu38  1  0.04697159  0.36816381  0.91959974  1
  Cu  Cu39  1  0.33409334  0.95818161  0.91811350  1
  Cu  Cu40  1  0.62758770  0.95304834  0.41496918  1
  Cu  Cu41  1  0.32495026  0.37690859  0.41419831  1
  C  C42  1  0.70709476  0.70299916  0.25039858  1
  C  C43  1  0.00385479  0.29406260  0.24917110  1
  C  C44  1  0.70947846  0.00201635  0.74952835  1
  C  C45  1  0.37861108  0.04413054  0.58425894  1
  C  C46  1  0.37577703  0.33340779  0.08457803  1
  C  C47  1  0.04956047  0.67016563  0.41674052  1
  C  C48  1  0.19305551  0.02630939  0.30757173  1
  C  C49  1  0.81249088  0.78516815  0.30459110  1
  C  C50  1  0.96422019  0.17685524  0.30254718  1
  C  C51  1  0.20309746  0.17636687  0.81028591  1
  C  C52  1  0.95875878  0.79383283  0.80859016  1
  C  C53  1  0.81840107  0.03133928  0.80284395  1
  C  C54  1  0.78118832  0.96659474  0.69374081  1
  C  C55  1  0.16708732  0.20974261  0.68920267  1
  C  C56  1  0.03186572  0.82840257  0.68720997  1
  C  C57  1  0.78416174  0.81715768  0.19487873  1
  C  C58  1  0.02734932  0.21460059  0.19345662  1
  C  C59  1  0.17948139  0.97192680  0.18706192  1
  C  C60  1  0.86805889  0.36383718  0.64522340  1
  C  C61  1  0.48869304  0.12133253  0.63731566  1
  C  C62  1  0.62091987  0.50432685  0.64223941  1
  C  C63  1  0.85615510  0.49084323  0.14242979  1
  C  C64  1  0.62320772  0.11801484  0.14378452  1
  C  C65  1  0.48800313  0.36428488  0.13733162  1
  C  C66  1  0.45362510  0.30298222  0.02916561  1
  C  C67  1  0.83362776  0.53493550  0.02584273  1
  C  C68  1  0.70129711  0.16883700  0.02828827  1
  C  C69  1  0.45986468  0.15549503  0.52928480  1
  C  C70  1  0.70042975  0.53492475  0.52556868  1
  C  C71  1  0.82827569  0.30032675  0.52838456  1
  C  C72  1  0.53583004  0.69376528  0.97927659  1
  C  C73  1  0.16506956  0.45705393  0.97817394  1
  C  C74  1  0.29009721  0.83920784  0.97773531  1
  C  C75  1  0.54120245  0.84023180  0.47714680  1
  C  C76  1  0.29696006  0.44856057  0.47838941  1
  C  C77  1  0.14872092  0.69382128  0.47308234  1
  C  C78  1  0.12242954  0.63629539  0.36362212  1
  C  C79  1  0.51080381  0.88121251  0.35530528  1
  C  C80  1  0.37246094  0.51065067  0.35810662  1
  C  C81  1  0.12851649  0.49815150  0.85913570  1
  C  C82  1  0.36808151  0.86509883  0.85949300  1
  C  C83  1  0.50090016  0.63322070  0.85829585  1
  C  C84  1  0.01571608  0.81599091  0.41165718  1
  C  C85  1  0.81741579  0.96478448  0.40684263  1
  C  C86  1  0.16188858  0.18197597  0.41243581  1
  C  C87  1  0.02471922  0.18174591  0.90941987  1
  C  C88  1  0.16453985  0.97904514  0.91194244  1
  C  C89  1  0.82058355  0.83727304  0.91049903  1
  C  C90  1  0.97859867  0.16117656  0.58901106  1
  C  C91  1  0.20523025  0.03062953  0.58686375  1
  C  C92  1  0.84598892  0.82166609  0.58887350  1
  C  C93  1  0.97422751  0.81418507  0.08824119  1
  C  C94  1  0.84991395  0.02891777  0.09300969  1
  C  C95  1  0.20054698  0.17733006  0.08891039  1
  C  C96  1  0.68832583  0.15475718  0.74294044  1
  C  C97  1  0.48958162  0.30991821  0.74319457  1
  C  C98  1  0.83518637  0.51684289  0.74677245  1
  C  C99  1  0.69175961  0.53222903  0.24312726  1
  C  C100  1  0.84224587  0.30746094  0.24539459  1
  C  C101  1  0.49004503  0.17272828  0.24444696  1
  C  C102  1  0.63764580  0.49465060  0.92416736  1
  C  C103  1  0.85976356  0.36680934  0.92120174  1
  C  C104  1  0.50278466  0.15388321  0.92386808  1
  C  C105  1  0.64841265  0.14863886  0.42495013  1
  C  C106  1  0.50919495  0.36485998  0.42389982  1
  C  C107  1  0.86759642  0.50891900  0.42159599  1
  C  C108  1  0.35770396  0.48889301  0.07945265  1
  C  C109  1  0.14761934  0.63627542  0.07944581  1
  C  C110  1  0.49759458  0.84349086  0.07855908  1
  C  C111  1  0.35560742  0.86916837  0.57680581  1
  C  C112  1  0.49689061  0.65383950  0.57964198  1
  C  C113  1  0.14817323  0.51515753  0.57704822  1
  C  C114  1  0.31580407  0.82590983  0.25574593  1
  C  C115  1  0.53305992  0.69000257  0.25329300  1
  C  C116  1  0.15887099  0.46539463  0.25616740  1
  C  C117  1  0.31667939  0.48253238  0.75529570  1
  C  C118  1  0.17417870  0.68979586  0.75402295  1
  C  C119  1  0.53559592  0.84040816  0.75456497  1
