# generated using pymatgen
data_CuNiC
_symmetry_space_group_name_H-M   'P 1'
_cell_length_a   3.60489500
_cell_length_b   6.14123200
_cell_length_c   6.96272000
_cell_angle_alpha   90.00000000
_cell_angle_beta   90.00000000
_cell_angle_gamma   90.00000000
_symmetry_Int_Tables_number   1
_chemical_formula_structural   CuNiC
_chemical_formula_sum   'Cu4 Ni4 C4'
_cell_volume   154.14415256
_cell_formula_units_Z   4
loop_
 _symmetry_equiv_pos_site_id
 _symmetry_equiv_pos_as_xyz
  1  'x, y, z'
loop_
 _atom_site_type_symbol
 _atom_site_label
 _atom_site_symmetry_multiplicity
 _atom_site_fract_x
 _atom_site_fract_y
 _atom_site_fract_z
 _atom_site_occupancy
  Ni  Ni0  1  0.25000000  0.02582400  0.82685500  1
  Ni  Ni1  1  0.25000000  0.52582400  0.67314500  1
  Ni  Ni2  1  0.75000000  0.97417600  0.17314500  1
  Ni  Ni3  1  0.75000000  0.47417600  0.32685500  1
  Cu  Cu4  1  0.25000000  0.14665000  0.43835200  1
  Cu  Cu5  1  0.25000000  0.64665000  0.06164800  1
  Cu  Cu6  1  0.75000000  0.85335000  0.56164800  1
  Cu  Cu7  1  0.75000000  0.35335000  0.93835200  1
  C  C8  1  0.25000000  0.77893500  0.38018800  1
  C  C9  1  0.25000000  0.27893500  0.11981200  1
  C  C10  1  0.75000000  0.22106500  0.61981200  1
  C  C11  1  0.75000000  0.72106500  0.88018800  1
