# generated using pymatgen
data_CuNi2C15
_symmetry_space_group_name_H-M   'P 1'
_cell_length_a   8.93740640
_cell_length_b   8.97666444
_cell_length_c   23.29353161
_cell_angle_alpha   90.67252375
_cell_angle_beta   90.15562005
_cell_angle_gamma   120.03850860
_symmetry_Int_Tables_number   1
_chemical_formula_structural   CuNi2C15
_chemical_formula_sum   'Cu6 Ni12 C90'
_cell_volume   1617.60508331
_cell_formula_units_Z   6
loop_
 _symmetry_equiv_pos_site_id
 _symmetry_equiv_pos_as_xyz
  1  'x, y, z'
loop_
 _atom_site_type_symbol
 _atom_site_label
 _atom_site_symmetry_multiplicity
 _atom_site_fract_x
 _atom_site_fract_y
 _atom_site_fract_z
 _atom_site_occupancy
  C  C0  1  0.98812640  0.98381113  0.49935780  1
  C  C1  1  0.00063862  0.99494748  0.99893329  1
  C  C2  1  0.65637383  0.31955816  0.83268916  1
  C  C3  1  0.66889155  0.32022671  0.32671893  1
  C  C4  1  0.32218835  0.65451170  0.16212099  1
  C  C5  1  0.35062570  0.66368198  0.66845313  1
  C  C6  1  0.65370067  0.33113028  0.69259955  1
  C  C7  1  0.67252384  0.33666164  0.18614056  1
  C  C8  1  0.34563995  0.67773005  0.51575187  1
  C  C9  1  0.99796310  0.00249327  0.35198844  1
  C  C10  1  0.00549992  0.01453410  0.85931216  1
  C  C11  1  0.98589471  0.99370613  0.65034077  1
  C  C12  1  0.02439621  0.01331243  0.14258844  1
  C  C13  1  0.66232028  0.34600310  0.97593801  1
  C  C14  1  0.67996484  0.34547551  0.47725060  1
  C  C15  1  0.32474621  0.66124179  0.01653623  1
  C  C16  1  0.31943044  0.67789175  0.31056274  1
  C  C17  1  0.34194304  0.66382184  0.81526627  1
  Ni  Ni18  1  0.28796474  0.00498028  0.25132954  1
  Ni  Ni19  1  0.00520494  0.28913152  0.25101359  1
  Ni  Ni20  1  0.27854895  0.28888667  0.75281968  1
  Ni  Ni21  1  0.70791506  0.99377705  0.75497878  1
  Ni  Ni22  1  0.67005035  0.62913162  0.58522786  1
  Ni  Ni23  1  0.95969799  0.62647389  0.08282565  1
  Ni  Ni24  1  0.38259918  0.34467854  0.08213832  1
  Ni  Ni25  1  0.62421658  0.67287338  0.91771023  1
  Ni  Ni26  1  0.04169551  0.38436744  0.91499829  1
  Ni  Ni27  1  0.33557678  0.95263488  0.91610332  1
  Ni  Ni28  1  0.62690697  0.96148455  0.41505919  1
  Ni  Ni29  1  0.04093753  0.67338936  0.41627807  1
  Cu  Cu30  1  0.71018621  0.71949955  0.25117230  1
  Cu  Cu31  1  0.00936452  0.72330000  0.75203615  1
  Cu  Cu32  1  0.95448524  0.32614568  0.58329128  1
  Cu  Cu33  1  0.37059040  0.04644815  0.58238126  1
  Cu  Cu34  1  0.66696393  0.03699758  0.08099496  1
  Cu  Cu35  1  0.33476532  0.37051097  0.41479644  1
  C  C36  1  0.17660639  0.00513791  0.30620980  1
  C  C37  1  0.81699165  0.80790498  0.30378890  1
  C  C38  1  0.99120317  0.17027025  0.30609494  1
  C  C39  1  0.17703713  0.16550879  0.80696313  1
  C  C40  1  0.98769823  0.80720456  0.80299790  1
  C  C41  1  0.83063532  0.00324193  0.80789758  1
  C  C42  1  0.80215108  0.96471931  0.69471679  1
  C  C43  1  0.16129751  0.18617447  0.69349045  1
  C  C44  1  0.02649282  0.82708526  0.69798093  1
  C  C45  1  0.78877950  0.82153914  0.19946634  1
  C  C46  1  0.02360644  0.18604854  0.19399996  1
  C  C47  1  0.16589258  0.97052925  0.19293430  1
  C  C48  1  0.87507596  0.34717106  0.63448834  1
  C  C49  1  0.47408154  0.12141979  0.63417935  1
  C  C50  1  0.65709637  0.52045210  0.63969380  1
  C  C51  1  0.89620743  0.51915717  0.14017739  1
  C  C52  1  0.63417124  0.10425426  0.13420198  1
  C  C53  1  0.48153980  0.37279771  0.14122793  1
  C  C54  1  0.47193140  0.30630910  0.02602237  1
  C  C55  1  0.83315239  0.52438591  0.02643997  1
  C  C56  1  0.69577395  0.14708329  0.03096375  1
  C  C57  1  0.45934645  0.15234381  0.53063538  1
  C  C58  1  0.69070084  0.52146991  0.52653267  1
  C  C59  1  0.84289454  0.30142294  0.52978443  1
  C  C60  1  0.53124531  0.69924920  0.97300290  1
  C  C61  1  0.16476106  0.47099442  0.97152331  1
  C  C62  1  0.30673718  0.83297256  0.97150129  1
  C  C63  1  0.56603646  0.85271804  0.47187186  1
  C  C64  1  0.29958718  0.43541527  0.46755482  1
  C  C65  1  0.14327274  0.70316745  0.47426707  1
  C  C66  1  0.13422548  0.63668466  0.35982717  1
  C  C67  1  0.49835247  0.85656669  0.35938277  1
  C  C68  1  0.36433066  0.47914115  0.36487551  1
  C  C69  1  0.13639396  0.50189649  0.85925296  1
  C  C70  1  0.36120727  0.85756255  0.85926487  1
  C  C71  1  0.50086341  0.63550167  0.86017161  1
  C  C72  1  0.00704776  0.83117328  0.40287400  1
  C  C73  1  0.82205622  0.99636855  0.40235896  1
  C  C74  1  0.18358479  0.19274709  0.40612009  1
  C  C75  1  0.02570453  0.19349592  0.90928532  1
  C  C76  1  0.16499580  0.97330519  0.90642067  1
  C  C77  1  0.81587783  0.83561024  0.90751646  1
  C  C78  1  0.96512621  0.16308691  0.58711936  1
  C  C79  1  0.19831726  0.03637340  0.58768243  1
  C  C80  1  0.85524398  0.82176719  0.58986115  1
  C  C81  1  0.97076110  0.81776784  0.09101241  1
  C  C82  1  0.82405323  0.01807031  0.08872082  1
  C  C83  1  0.18367968  0.16614151  0.08876281  1
  C  C84  1  0.70157790  0.16667510  0.75042795  1
  C  C85  1  0.46705198  0.31057091  0.75325790  1
  C  C86  1  0.85816266  0.55238797  0.74661181  1
  C  C87  1  0.69578810  0.55046454  0.25017311  1
  C  C88  1  0.84218299  0.31527263  0.25229779  1
  C  C89  1  0.47521391  0.16800090  0.25194872  1
  C  C90  1  0.63871488  0.49756774  0.92458166  1
  C  C91  1  0.85011408  0.35580734  0.92634911  1
  C  C92  1  0.50569515  0.14294895  0.92706897  1
  C  C93  1  0.64089904  0.15172281  0.42662174  1
  C  C94  1  0.49106635  0.34925621  0.42308443  1
  C  C95  1  0.84613023  0.49366763  0.42407630  1
  C  C96  1  0.35058152  0.50559471  0.06990355  1
  C  C97  1  0.15710850  0.66446849  0.06966432  1
  C  C98  1  0.51470709  0.86173231  0.07231447  1
  C  C99  1  0.34263262  0.87121928  0.57724348  1
  C  C100  1  0.50651993  0.65607542  0.58059931  1
  C  C101  1  0.12645416  0.47328383  0.57549103  1
  C  C102  1  0.29661387  0.82220687  0.25768469  1
  C  C103  1  0.53687702  0.70297758  0.25941193  1
  C  C104  1  0.19014418  0.47457109  0.26158680  1
  C  C105  1  0.28593439  0.47520928  0.75792570  1
  C  C106  1  0.16944303  0.71329422  0.75424744  1
  C  C107  1  0.51802328  0.81816502  0.75860495  1
