# generated using pymatgen
data_Cu2NiC12
_symmetry_space_group_name_H-M   'P 1'
_cell_length_a   3.74337435
_cell_length_b   3.77443311
_cell_length_c   15.97606087
_cell_angle_alpha   90.00000000
_cell_angle_beta   90.00000000
_cell_angle_gamma   90.00000000
_symmetry_Int_Tables_number   1
_chemical_formula_structural   Cu2NiC12
_chemical_formula_sum   'Cu2 Ni1 C12'
_cell_volume   225.72761869
_cell_formula_units_Z   1
loop_
 _symmetry_equiv_pos_site_id
 _symmetry_equiv_pos_as_xyz
  1  'x, y, z'
loop_
 _atom_site_type_symbol
 _atom_site_label
 _atom_site_symmetry_multiplicity
 _atom_site_fract_x
 _atom_site_fract_y
 _atom_site_fract_z
 _atom_site_occupancy
  C  C0  1  0.75000000  0.75000000  0.08240666  1
  C  C1  1  0.25000000  0.25000000  0.89983791  1
  Ni  Ni2  1  0.75000000  0.25000000  0.37984821  1
  Cu  Cu3  1  0.75000000  0.75000000  0.76094750  1
  Cu  Cu4  1  0.25000000  0.25000000  0.21728054  1
  C  C5  1  0.75000000  0.75000000  0.51041816  1
  C  C6  1  0.25000000  0.25000000  0.56352216  1
  C  C7  1  0.75000000  0.75000000  0.65084146  1
  C  C8  1  0.25000000  0.25000000  0.33289057  1
  C  C9  1  0.75000000  0.75000000  0.93880950  1
  C  C10  1  0.25000000  0.25000000  0.05727032  1
  C  C11  1  0.25000000  0.75000000  0.79772283  1
  C  C12  1  0.75000000  0.25000000  0.79744789  1
  C  C13  1  0.25000000  0.75000000  0.18921891  1
  C  C14  1  0.75000000  0.25000000  0.19653738  1
