# generated using pymatgen
data_Cu3NiC33
_symmetry_space_group_name_H-M   'P 1'
_cell_length_a   8.63601998
_cell_length_b   8.72169001
_cell_length_c   22.22921910
_cell_angle_alpha   89.23331706
_cell_angle_beta   90.66788695
_cell_angle_gamma   120.12708769
_symmetry_Int_Tables_number   1
_chemical_formula_structural   Cu3NiC33
_chemical_formula_sum   'Cu9 Ni3 C99'
_cell_volume   1447.98999979
_cell_formula_units_Z   3
loop_
 _symmetry_equiv_pos_site_id
 _symmetry_equiv_pos_as_xyz
  1  'x, y, z'
loop_
 _atom_site_type_symbol
 _atom_site_label
 _atom_site_symmetry_multiplicity
 _atom_site_fract_x
 _atom_site_fract_y
 _atom_site_fract_z
 _atom_site_occupancy
  C  C0  1  0.35945795  0.35903379  0.24571690  1
  C  C1  1  0.63316371  0.62486222  0.75384034  1
  C  C2  1  0.96649842  0.28809979  0.41644870  1
  C  C3  1  0.99650072  0.00032201  0.50037704  1
  C  C4  1  0.00001100  0.99601638  0.00063129  1
  C  C5  1  0.66619482  0.33452177  0.83388933  1
  C  C6  1  0.67076063  0.32553679  0.33220211  1
  C  C7  1  0.31810839  0.66282669  0.16296480  1
  C  C8  1  0.30754878  0.65260673  0.66603278  1
  Ni  Ni9  1  0.99473190  0.00337322  0.35634910  1
  Ni  Ni10  1  0.67645695  0.33911446  0.68684980  1
  Ni  Ni11  1  0.68664687  0.34671930  0.17780490  1
  C  C12  1  0.99905256  0.29623035  0.25061581  1
  C  C13  1  0.27863491  0.28150164  0.75460714  1
  C  C14  1  0.01402661  0.72564719  0.75048332  1
  C  C15  1  0.96385886  0.33304597  0.58142927  1
  C  C16  1  0.97542126  0.64187003  0.08121699  1
  C  C17  1  0.37389505  0.33705827  0.08308477  1
  C  C18  1  0.62049745  0.67681361  0.91506058  1
  C  C19  1  0.60215580  0.93890083  0.41879503  1
  C  C20  1  0.34955184  0.37979638  0.41946485  1
  Cu  Cu21  1  0.00026191  0.98193492  0.85265147  1
  Cu  Cu22  1  0.01955295  0.02301056  0.64934228  1
  Cu  Cu23  1  0.01900592  0.01790560  0.14181746  1
  Cu  Cu24  1  0.66105518  0.37483489  0.98410370  1
  Cu  Cu25  1  0.65376675  0.30149683  0.47872183  1
  Cu  Cu26  1  0.34108875  0.66314741  0.02056492  1
  Cu  Cu27  1  0.33149227  0.64574584  0.51710373  1
  Cu  Cu28  1  0.33987937  0.65509420  0.31665312  1
  Cu  Cu29  1  0.31593505  0.64384274  0.81266632  1
  C  C30  1  0.28884994  0.98864534  0.24978458  1
  C  C31  1  0.70817706  0.71400411  0.24961354  1
  C  C32  1  0.71423091  0.99586316  0.75211887  1
  C  C33  1  0.36870123  0.03303109  0.58211018  1
  C  C34  1  0.66872821  0.63125663  0.58150032  1
  C  C35  1  0.66637060  0.04024134  0.07950104  1
  C  C36  1  0.03879908  0.37372448  0.91755189  1
  C  C37  1  0.33892365  0.95712481  0.91619058  1
  C  C38  1  0.04717750  0.66162501  0.41808263  1
  C  C39  1  0.21067970  0.01686043  0.30399356  1
  C  C40  1  0.81204148  0.78324366  0.30504490  1
  C  C41  1  0.97640640  0.19794943  0.31393042  1
  C  C42  1  0.18220894  0.16210015  0.81425205  1
  C  C43  1  0.95966438  0.79984105  0.80903362  1
  C  C44  1  0.82329583  0.02470143  0.80693038  1
  C  C45  1  0.79055023  0.96377734  0.69683670  1
  C  C46  1  0.16415441  0.21089007  0.69204988  1
  C  C47  1  0.03736592  0.84652775  0.68914001  1
  C  C48  1  0.79302249  0.82027564  0.19527494  1
  C  C49  1  0.04342578  0.19733126  0.19334282  1
  C  C50  1  0.17688832  0.96108614  0.19432321  1
  C  C51  1  0.89122770  0.37473255  0.64054931  1
  C  C52  1  0.47469845  0.10952586  0.63712107  1
  C  C53  1  0.62907999  0.52954078  0.63887885  1
  C  C54  1  0.92120897  0.52353315  0.14070675  1
  C  C55  1  0.62771996  0.10109046  0.13571327  1
  C  C56  1  0.47548904  0.36894716  0.14657159  1
  C  C57  1  0.46190300  0.29034216  0.02529520  1
  C  C58  1  0.83998991  0.54920264  0.02256586  1
  C  C59  1  0.69936659  0.15636039  0.02682041  1
  C  C60  1  0.45037493  0.15202600  0.52799193  1
  C  C61  1  0.69288736  0.54169829  0.53040607  1
  C  C62  1  0.83501039  0.30006239  0.52013572  1
  C  C63  1  0.52673399  0.70504162  0.97318377  1
  C  C64  1  0.15470430  0.45845573  0.97039053  1
  C  C65  1  0.30444116  0.84599364  0.97062386  1
  C  C66  1  0.50759562  0.82767014  0.47934823  1
  C  C67  1  0.29176744  0.46372968  0.47336343  1
  C  C68  1  0.15481051  0.69142299  0.47297215  1
  C  C69  1  0.12286815  0.62679082  0.36292172  1
  C  C70  1  0.48240253  0.85615682  0.35683692  1
  C  C71  1  0.38117888  0.49440033  0.35607880  1
  C  C72  1  0.11363187  0.48695114  0.86143591  1
  C  C73  1  0.36173425  0.87504026  0.86180180  1
  C  C74  1  0.49685823  0.64044051  0.85422627  1
  C  C75  1  0.02732228  0.81773248  0.41261041  1
  C  C76  1  0.80101345  0.96621280  0.41947462  1
  C  C77  1  0.17638402  0.18447574  0.41761389  1
  C  C78  1  0.02647743  0.19983818  0.91122862  1
  C  C79  1  0.17353031  0.97625009  0.91210322  1
  C  C80  1  0.82328632  0.85443660  0.90852780  1
  C  C81  1  0.97826998  0.14885581  0.58924088  1
  C  C82  1  0.18960740  0.01912472  0.58566319  1
  C  C83  1  0.83044318  0.80904256  0.58705739  1
  C  C84  1  0.97601532  0.82945747  0.09272228  1
  C  C85  1  0.82753709  0.01943554  0.08681707  1
  C  C86  1  0.17481934  0.16038293  0.08602269  1
  C  C87  1  0.69106594  0.15072788  0.74826267  1
  C  C88  1  0.47779867  0.30931538  0.74935707  1
  C  C89  1  0.83829280  0.53144014  0.74849835  1
  C  C90  1  0.67137490  0.52989105  0.24680949  1
  C  C91  1  0.82580333  0.31673946  0.24680908  1
  C  C92  1  0.46515403  0.15172801  0.24417787  1
  C  C93  1  0.63837182  0.49484569  0.92104585  1
  C  C94  1  0.85811970  0.35291913  0.92326235  1
  C  C95  1  0.50127329  0.13536966  0.92171640  1
  C  C96  1  0.63264542  0.14375253  0.42225074  1
  C  C97  1  0.53566371  0.37654568  0.43067016  1
  C  C98  1  0.86851282  0.49794170  0.42294212  1
  C  C99  1  0.35762233  0.51334390  0.07233284  1
  C  C100  1  0.17201566  0.66853783  0.06515421  1
  C  C101  1  0.50669391  0.85987251  0.07215210  1
  C  C102  1  0.34958473  0.85790113  0.57463304  1
  C  C103  1  0.50597250  0.65237516  0.57536505  1
  C  C104  1  0.16227828  0.51476966  0.57197496  1
  C  C105  1  0.30508760  0.82829450  0.25441300  1
  C  C106  1  0.52853449  0.70525439  0.25341325  1
  C  C107  1  0.19172783  0.49659300  0.25750019  1
  C  C108  1  0.30481590  0.48399534  0.75894470  1
  C  C109  1  0.19644716  0.71259003  0.76135844  1
  C  C110  1  0.53591215  0.83121208  0.75650577  1
