# generated using pymatgen
data_Cu2Ni2C9
_symmetry_space_group_name_H-M   'P 1'
_cell_length_a   3.18791700
_cell_length_b   3.18790034
_cell_length_c   36.14206009
_cell_angle_alpha   90.00691806
_cell_angle_beta   90.00009672
_cell_angle_gamma   120.00023992
_symmetry_Int_Tables_number   1
_chemical_formula_structural   Cu2Ni2C9
_chemical_formula_sum   'Cu2 Ni2 C9'
_cell_volume   318.09308134
_cell_formula_units_Z   1
loop_
 _symmetry_equiv_pos_site_id
 _symmetry_equiv_pos_as_xyz
  1  'x, y, z'
loop_
 _atom_site_type_symbol
 _atom_site_label
 _atom_site_symmetry_multiplicity
 _atom_site_fract_x
 _atom_site_fract_y
 _atom_site_fract_z
 _atom_site_occupancy
  C  C0  1  0.38005000  0.69559900  0.87648800  1
  Ni  Ni1  1  0.33323700  0.66645000  0.09378400  1
  Ni  Ni2  1  0.33322000  0.66647500  0.46967800  1
  Cu  Cu3  1  0.66661300  0.33323000  0.28193300  1
  Cu  Cu4  1  0.66660100  0.33323100  0.65770700  1
  C  C5  1  0.33332200  0.66664200  0.32542500  1
  C  C6  1  0.33330600  0.66663600  0.70122200  1
  C  C7  1  0.66653400  0.33304100  0.05050600  1
  C  C8  1  0.66651200  0.33306400  0.42641700  1
  C  C9  1  0.66661000  0.33319500  0.13708200  1
  C  C10  1  0.66658400  0.33320500  0.51292500  1
  C  C11  1  0.33324100  0.66648800  0.23841200  1
  C  C12  1  0.33323400  0.66649800  0.61420700  1
