# generated using pymatgen
data_Cu6NiC3
_symmetry_space_group_name_H-M   'P 1'
_cell_length_a   12.89166300
_cell_length_b   12.89166300
_cell_length_c   12.89166300
_cell_angle_alpha   90.00000000
_cell_angle_beta   90.00000000
_cell_angle_gamma   90.00000000
_symmetry_Int_Tables_number   1
_chemical_formula_structural   Cu6NiC3
_chemical_formula_sum   'Cu48 Ni8 C24'
_cell_volume   2142.52960878
_cell_formula_units_Z   8
loop_
 _symmetry_equiv_pos_site_id
 _symmetry_equiv_pos_as_xyz
  1  'x, y, z'
loop_
 _atom_site_type_symbol
 _atom_site_label
 _atom_site_symmetry_multiplicity
 _atom_site_fract_x
 _atom_site_fract_y
 _atom_site_fract_z
 _atom_site_occupancy
  C  C0  1  0.55910100  0.04263900  0.14291200  1
  C  C1  1  0.14291200  0.55910100  0.04263900  1
  C  C2  1  0.04263900  0.14291200  0.55910100  1
  C  C3  1  0.45736100  0.85708800  0.05910100  1
  C  C4  1  0.64291200  0.94089900  0.95736100  1
  C  C5  1  0.95736100  0.64291200  0.94089900  1
  C  C6  1  0.35708800  0.44089900  0.54263900  1
  C  C7  1  0.85708800  0.05910100  0.45736100  1
  C  C8  1  0.54263900  0.35708800  0.44089900  1
  C  C9  1  0.05910100  0.45736100  0.85708800  1
  C  C10  1  0.44089900  0.54263900  0.35708800  1
  C  C11  1  0.94089900  0.95736100  0.64291200  1
  C  C12  1  0.44089900  0.95736100  0.85708800  1
  C  C13  1  0.85708800  0.44089900  0.95736100  1
  C  C14  1  0.95736100  0.85708800  0.44089900  1
  C  C15  1  0.54263900  0.14291200  0.94089900  1
  C  C16  1  0.35708800  0.05910100  0.04263900  1
  C  C17  1  0.04263900  0.35708800  0.05910100  1
  C  C18  1  0.64291200  0.55910100  0.45736100  1
  C  C19  1  0.14291200  0.94089900  0.54263900  1
  C  C20  1  0.45736100  0.64291200  0.55910100  1
  C  C21  1  0.94089900  0.54263900  0.14291200  1
  C  C22  1  0.55910100  0.45736100  0.64291200  1
  C  C23  1  0.05910100  0.04263900  0.35708800  1
  Ni  Ni24  1  0.12988500  0.12988500  0.12988500  1
  Ni  Ni25  1  0.37011500  0.87011500  0.62988500  1
  Ni  Ni26  1  0.62988500  0.37011500  0.87011500  1
  Ni  Ni27  1  0.87011500  0.62988500  0.37011500  1
  Ni  Ni28  1  0.87011500  0.87011500  0.87011500  1
  Ni  Ni29  1  0.62988500  0.12988500  0.37011500  1
  Ni  Ni30  1  0.37011500  0.62988500  0.12988500  1
  Ni  Ni31  1  0.12988500  0.37011500  0.62988500  1
  Cu  Cu32  1  0.62100300  0.21727700  0.09881100  1
  Cu  Cu33  1  0.09881100  0.62100300  0.21727700  1
  Cu  Cu34  1  0.21727700  0.09881100  0.62100300  1
  Cu  Cu35  1  0.28272300  0.90118900  0.12100300  1
  Cu  Cu36  1  0.59881100  0.87899700  0.78272300  1
  Cu  Cu37  1  0.78272300  0.59881100  0.87899700  1
  Cu  Cu38  1  0.40118900  0.37899700  0.71727700  1
  Cu  Cu39  1  0.90118900  0.12100300  0.28272300  1
  Cu  Cu40  1  0.71727700  0.40118900  0.37899700  1
  Cu  Cu41  1  0.12100300  0.28272300  0.90118900  1
  Cu  Cu42  1  0.37899700  0.71727700  0.40118900  1
  Cu  Cu43  1  0.87899700  0.78272300  0.59881100  1
  Cu  Cu44  1  0.37899700  0.78272300  0.90118900  1
  Cu  Cu45  1  0.90118900  0.37899700  0.78272300  1
  Cu  Cu46  1  0.78272300  0.90118900  0.37899700  1
  Cu  Cu47  1  0.71727700  0.09881100  0.87899700  1
  Cu  Cu48  1  0.40118900  0.12100300  0.21727700  1
  Cu  Cu49  1  0.21727700  0.40118900  0.12100300  1
  Cu  Cu50  1  0.59881100  0.62100300  0.28272300  1
  Cu  Cu51  1  0.09881100  0.87899700  0.71727700  1
  Cu  Cu52  1  0.28272300  0.59881100  0.62100300  1
  Cu  Cu53  1  0.87899700  0.71727700  0.09881100  1
  Cu  Cu54  1  0.62100300  0.28272300  0.59881100  1
  Cu  Cu55  1  0.12100300  0.21727700  0.40118900  1
  Cu  Cu56  1  0.73902000  0.97946800  0.11810900  1
  Cu  Cu57  1  0.11810900  0.73902000  0.97946800  1
  Cu  Cu58  1  0.97946800  0.11810900  0.73902000  1
  Cu  Cu59  1  0.52053200  0.88189100  0.23902000  1
  Cu  Cu60  1  0.61810900  0.76098000  0.02053200  1
  Cu  Cu61  1  0.02053200  0.61810900  0.76098000  1
  Cu  Cu62  1  0.38189100  0.26098000  0.47946800  1
  Cu  Cu63  1  0.88189100  0.23902000  0.52053200  1
  Cu  Cu64  1  0.47946800  0.38189100  0.26098000  1
  Cu  Cu65  1  0.23902000  0.52053200  0.88189100  1
  Cu  Cu66  1  0.26098000  0.47946800  0.38189100  1
  Cu  Cu67  1  0.76098000  0.02053200  0.61810900  1
  Cu  Cu68  1  0.26098000  0.02053200  0.88189100  1
  Cu  Cu69  1  0.88189100  0.26098000  0.02053200  1
  Cu  Cu70  1  0.02053200  0.88189100  0.26098000  1
  Cu  Cu71  1  0.47946800  0.11810900  0.76098000  1
  Cu  Cu72  1  0.38189100  0.23902000  0.97946800  1
  Cu  Cu73  1  0.97946800  0.38189100  0.23902000  1
  Cu  Cu74  1  0.61810900  0.73902000  0.52053200  1
  Cu  Cu75  1  0.11810900  0.76098000  0.47946800  1
  Cu  Cu76  1  0.52053200  0.61810900  0.73902000  1
  Cu  Cu77  1  0.76098000  0.47946800  0.11810900  1
  Cu  Cu78  1  0.73902000  0.52053200  0.61810900  1
  Cu  Cu79  1  0.23902000  0.97946800  0.38189100  1
