# generated using pymatgen
data_Cu9Ni3C58
_symmetry_space_group_name_H-M   'P 1'
_cell_length_a   17.33886176
_cell_length_b   8.64882899
_cell_length_c   22.44385323
_cell_angle_alpha   90.01958618
_cell_angle_beta   89.84235553
_cell_angle_gamma   119.95555693
_symmetry_Int_Tables_number   1
_chemical_formula_structural   Cu9Ni3C58
_chemical_formula_sum   'Cu27 Ni9 C174'
_cell_volume   2916.07247364
_cell_formula_units_Z   3
loop_
 _symmetry_equiv_pos_site_id
 _symmetry_equiv_pos_as_xyz
  1  'x, y, z'
loop_
 _atom_site_type_symbol
 _atom_site_label
 _atom_site_symmetry_multiplicity
 _atom_site_fract_x
 _atom_site_fract_y
 _atom_site_fract_z
 _atom_site_occupancy
  C  C0  1  0.00125258  0.99654023  0.49675493  1
  C  C1  1  0.50023338  0.00428357  0.99864052  1
  C  C2  1  0.33324871  0.33101388  0.83588938  1
  C  C3  1  0.83426742  0.33397762  0.83501149  1
  C  C4  1  0.33054114  0.33046894  0.33353094  1
  C  C5  1  0.83412946  0.33635697  0.33429489  1
  C  C6  1  0.00359866  0.99811059  0.35378486  1
  C  C7  1  0.49978703  0.00321250  0.85453784  1
  C  C8  1  0.00105031  0.00329740  0.64885954  1
  C  C9  1  0.50027108  0.99703568  0.14904870  1
  C  C10  1  0.83431050  0.33370530  0.98178864  1
  C  C11  1  0.33313090  0.33288086  0.47997518  1
  C  C12  1  0.51106662  0.01138448  0.35485490  1
  C  C13  1  0.01223776  0.01205980  0.85611943  1
  C  C14  1  0.50269277  0.00105860  0.64096017  1
  C  C15  1  0.01006848  0.00284257  0.14447862  1
  C  C16  1  0.32453888  0.32600688  0.68742779  1
  C  C17  1  0.83193953  0.32100652  0.68315939  1
  C  C18  1  0.32524267  0.33483026  0.18768310  1
  C  C19  1  0.82767027  0.31994146  0.18811652  1
  C  C20  1  0.32706655  0.32089993  0.97687187  1
  C  C21  1  0.82740105  0.33369679  0.47488979  1
  C  C22  1  0.16422860  0.67044698  0.02477905  1
  C  C23  1  0.66066181  0.65180194  0.02300981  1
  C  C24  1  0.16277707  0.66826676  0.51720807  1
  C  C25  1  0.66463040  0.66160615  0.52155356  1
  C  C26  1  0.15905594  0.66956106  0.30977900  1
  C  C27  1  0.66830540  0.66195753  0.30836498  1
  C  C28  1  0.16722189  0.67100421  0.81059814  1
  C  C29  1  0.66141952  0.65980945  0.81532536  1
  Ni  Ni30  1  0.14419887  0.00177283  0.25194308  1
  Ni  Ni31  1  0.64232982  0.99321004  0.24765935  1
  Ni  Ni32  1  0.14204392  0.29180042  0.74778808  1
  Ni  Ni33  1  0.68987081  0.04105066  0.58111295  1
  Ni  Ni34  1  0.18902035  0.33696317  0.08170074  1
  Ni  Ni35  1  0.51929494  0.37041457  0.91809788  1
  Ni  Ni36  1  0.16627373  0.94887443  0.91705754  1
  Ni  Ni37  1  0.66496003  0.38178066  0.41639878  1
  Ni  Ni38  1  0.01966284  0.67005248  0.41625197  1
  Cu  Cu39  1  0.35557495  0.71364129  0.25084211  1
  Cu  Cu40  1  0.85668293  0.71187055  0.24915833  1
  Cu  Cu41  1  0.99948579  0.28598872  0.24999565  1
  Cu  Cu42  1  0.49933924  0.28817926  0.24990842  1
  Cu  Cu43  1  0.64502512  0.28907883  0.74987667  1
  Cu  Cu44  1  0.99883145  0.70963461  0.75010827  1
  Cu  Cu45  1  0.50008992  0.71209919  0.74996402  1
  Cu  Cu46  1  0.35687086  0.00097997  0.74932495  1
  Cu  Cu47  1  0.85473027  0.99730882  0.75063389  1
  Cu  Cu48  1  0.47637075  0.33318138  0.58385250  1
  Cu  Cu49  1  0.97793558  0.33185425  0.58164422  1
  Cu  Cu50  1  0.18759299  0.04237200  0.58172985  1
  Cu  Cu51  1  0.33255011  0.62161122  0.58312336  1
  Cu  Cu52  1  0.83438080  0.62323667  0.58292427  1
  Cu  Cu53  1  0.47652689  0.62238707  0.08236465  1
  Cu  Cu54  1  0.97539663  0.61977060  0.08334878  1
  Cu  Cu55  1  0.33487431  0.04634931  0.08316378  1
  Cu  Cu56  1  0.83366031  0.04257990  0.08252406  1
  Cu  Cu57  1  0.68829339  0.33065358  0.08230903  1
  Cu  Cu58  1  0.31022680  0.66823717  0.91721880  1
  Cu  Cu59  1  0.81064166  0.66761168  0.91644319  1
  Cu  Cu60  1  0.02201446  0.37980961  0.91647401  1
  Cu  Cu61  1  0.66726214  0.95454118  0.91721788  1
  Cu  Cu62  1  0.31092801  0.95432621  0.41569547  1
  Cu  Cu63  1  0.81050705  0.95220710  0.41677667  1
  Cu  Cu64  1  0.16752329  0.38007174  0.41640226  1
  Cu  Cu65  1  0.52207006  0.66431238  0.41600055  1
  C  C66  1  0.10650409  0.04690032  0.30820561  1
  C  C67  1  0.59996087  0.03445831  0.30843596  1
  C  C68  1  0.41183613  0.79311103  0.30405481  1
  C  C69  1  0.90831457  0.78377749  0.30316558  1
  C  C70  1  0.48319423  0.17577095  0.30404891  1
  C  C71  1  0.98027309  0.17912643  0.30362353  1
  C  C72  1  0.10001324  0.16564864  0.80840869  1
  C  C73  1  0.60744429  0.17888199  0.80261658  1
  C  C74  1  0.48370558  0.78781332  0.80309468  1
  C  C75  1  0.98212718  0.78902373  0.80396415  1
  C  C76  1  0.41024751  0.03425511  0.80260446  1
  C  C77  1  0.91032861  0.03150864  0.80382450  1
  C  C78  1  0.39801978  0.97317575  0.69573936  1
  C  C79  1  0.89115170  0.96775789  0.69637846  1
  C  C80  1  0.08631908  0.20823583  0.69087467  1
  C  C81  1  0.58922158  0.20757739  0.69632552  1
  C  C82  1  0.01431590  0.81494675  0.69660743  1
  C  C83  1  0.51404758  0.82337236  0.69610514  1
  C  C84  1  0.39178676  0.81678896  0.19665028  1
  C  C85  1  0.89496884  0.82079276  0.19550269  1
  C  C86  1  0.01268852  0.20495412  0.19593921  1
  C  C87  1  0.51558704  0.21418343  0.19666418  1
  C  C88  1  0.08252680  0.96802485  0.19175140  1
  C  C89  1  0.58622444  0.96418224  0.19076290  1
  C  C90  1  0.43570396  0.36197146  0.63745996  1
  C  C91  1  0.93678919  0.36426102  0.63696632  1
  C  C92  1  0.24513588  0.12950756  0.63655826  1
  C  C93  1  0.75209559  0.14036963  0.64086850  1
  C  C94  1  0.31929097  0.50874698  0.63747844  1
  C  C95  1  0.81954964  0.50931392  0.63684805  1
  C  C96  1  0.43999092  0.51181509  0.13638051  1
  C  C97  1  0.93559073  0.50870060  0.13692679  1
  C  C98  1  0.31926506  0.12695433  0.13642511  1
  C  C99  1  0.81772352  0.12966093  0.13688528  1
  C  C100  1  0.25217435  0.36719327  0.14018490  1
  C  C101  1  0.74492790  0.36276782  0.13633055  1
  C  C102  1  0.23795214  0.30257832  0.02594391  1
  C  C103  1  0.72921139  0.30480226  0.02936146  1
  C  C104  1  0.42253377  0.53630322  0.02917179  1
  C  C105  1  0.92324726  0.54426844  0.02984084  1
  C  C106  1  0.34952470  0.15675846  0.02887220  1
  C  C107  1  0.84949386  0.15497460  0.03058084  1
  C  C108  1  0.22995137  0.15548047  0.53012179  1
  C  C109  1  0.73736211  0.17433925  0.52643866  1
  C  C110  1  0.35164301  0.54691781  0.53105021  1
  C  C111  1  0.84961210  0.54155959  0.52947402  1
  C  C112  1  0.42298187  0.29846736  0.53059641  1
  C  C113  1  0.92168037  0.30744538  0.53001621  1
  C  C114  1  0.26842433  0.69449968  0.97065432  1
  C  C115  1  0.76960240  0.69671649  0.97017333  1
  C  C116  1  0.07711372  0.45650782  0.97011171  1
  C  C117  1  0.58704847  0.48226821  0.97450628  1
  C  C118  1  0.15199773  0.82641447  0.97499089  1
  C  C119  1  0.65504673  0.84375740  0.97064353  1
  C  C120  1  0.26948063  0.84286333  0.47078479  1
  C  C121  1  0.76794641  0.84234071  0.47095331  1
  C  C122  1  0.15666574  0.47090857  0.47171411  1
  C  C123  1  0.65213455  0.47706644  0.47521975  1
  C  C124  1  0.08586658  0.69208769  0.47454640  1
  C  C125  1  0.57749025  0.69719717  0.47047538  1
  C  C126  1  0.06955573  0.63238342  0.35996168  1
  C  C127  1  0.56435700  0.63680178  0.36325049  1
  C  C128  1  0.25386960  0.86992869  0.36302078  1
  C  C129  1  0.75516820  0.87501127  0.36330881  1
  C  C130  1  0.18270070  0.49133813  0.36326119  1
  C  C131  1  0.68190283  0.50626542  0.35881545  1
  C  C132  1  0.06424496  0.49128559  0.86293996  1
  C  C133  1  0.57139328  0.50639868  0.85955345  1
  C  C134  1  0.18169275  0.85815371  0.85842718  1
  C  C135  1  0.68208402  0.87108502  0.86222242  1
  C  C136  1  0.25543122  0.63647072  0.86292351  1
  C  C137  1  0.75273347  0.63808571  0.86246055  1
  C  C138  1  0.01036419  0.84156344  0.41512102  1
  C  C139  1  0.51223986  0.82419003  0.40851649  1
  C  C140  1  0.39817707  0.96827437  0.40806822  1
  C  C141  1  0.89906599  0.97428138  0.41085743  1
  C  C142  1  0.08566507  0.20783319  0.41368352  1
  C  C143  1  0.57718577  0.18573531  0.40704250  1
  C  C144  1  0.01176967  0.19975194  0.90779047  1
  C  C145  1  0.51404432  0.18421431  0.91242092  1
  C  C146  1  0.07789511  0.96822069  0.90686857  1
  C  C147  1  0.58678769  0.96666245  0.90993662  1
  C  C148  1  0.39909824  0.82387559  0.91029411  1
  C  C149  1  0.89761392  0.82721320  0.90670295  1
  C  C150  1  0.48763948  0.17362636  0.59461716  1
  C  C151  1  0.98558041  0.17260334  0.58888537  1
  C  C152  1  0.09889658  0.01857657  0.58990314  1
  C  C153  1  0.59261015  0.02344027  0.59725198  1
  C  C154  1  0.41235735  0.80116999  0.59523826  1
  C  C155  1  0.91274001  0.80003422  0.59046379  1
  C  C156  1  0.48720325  0.80052301  0.08749054  1
  C  C157  1  0.98550252  0.79911322  0.09196807  1
  C  C158  1  0.41298826  0.02483588  0.08945377  1
  C  C159  1  0.91076305  0.02195170  0.09471519  1
  C  C160  1  0.09127353  0.16368752  0.09404486  1
  C  C161  1  0.59841990  0.17956970  0.08951598  1
  C  C162  1  0.34606241  0.16199742  0.74026096  1
  C  C163  1  0.84611304  0.16493364  0.74337383  1
  C  C164  1  0.24482312  0.31363573  0.74036417  1
  C  C165  1  0.73666250  0.31383583  0.74093101  1
  C  C166  1  0.42183809  0.52992781  0.74056758  1
  C  C167  1  0.91871883  0.52719746  0.74377324  1
  C  C168  1  0.34853683  0.53164133  0.24434862  1
  C  C169  1  0.84484948  0.52843354  0.24012847  1
  C  C170  1  0.42089548  0.31246545  0.24408801  1
  C  C171  1  0.92113495  0.31457542  0.24029057  1
  C  C172  1  0.24604216  0.17104260  0.23816871  1
  C  C173  1  0.74478436  0.17628606  0.24057288  1
  C  C174  1  0.31878837  0.50577113  0.92333732  1
  C  C175  1  0.81870773  0.50665842  0.92198846  1
  C  C176  1  0.42622625  0.36859358  0.92595351  1
  C  C177  1  0.93314895  0.36046847  0.92256293  1
  C  C178  1  0.25267447  0.14824597  0.92368005  1
  C  C179  1  0.74743530  0.13175168  0.92220286  1
  C  C180  1  0.31964104  0.13141765  0.42337766  1
  C  C181  1  0.81855620  0.13139170  0.42404575  1
  C  C182  1  0.24714691  0.36242923  0.42431820  1
  C  C183  1  0.75200081  0.35727022  0.42394151  1
  C  C184  1  0.43358615  0.50588740  0.42348547  1
  C  C185  1  0.92617433  0.48440579  0.42742665  1
  C  C186  1  0.17810068  0.50926743  0.06998726  1
  C  C187  1  0.68331323  0.49941792  0.07588136  1
  C  C188  1  0.06568402  0.63980044  0.07647225  1
  C  C189  1  0.56834009  0.64329249  0.07381312  1
  C  C190  1  0.25376331  0.86825199  0.07491354  1
  C  C191  1  0.75267397  0.86640774  0.07496100  1
  C  C192  1  0.18354924  0.86690620  0.57641096  1
  C  C193  1  0.67684932  0.84571053  0.57148423  1
  C  C194  1  0.25455825  0.64274135  0.57644372  1
  C  C195  1  0.75333663  0.63800480  0.57573846  1
  C  C196  1  0.06731893  0.49399586  0.57571670  1
  C  C197  1  0.56626905  0.49085333  0.57676503  1
  C  C198  1  0.15805019  0.82735284  0.25905693  1
  C  C199  1  0.65930576  0.83071127  0.26602153  1
  C  C200  1  0.26532341  0.68414425  0.26108548  1
  C  C201  1  0.76611008  0.68990933  0.25655654  1
  C  C202  1  0.08022858  0.46452116  0.25639041  1
  C  C203  1  0.57905130  0.46802601  0.25980913  1
  C  C204  1  0.15971417  0.48896039  0.76570229  1
  C  C205  1  0.65566803  0.46976328  0.75734083  1
  C  C206  1  0.07777216  0.68750441  0.75962713  1
  C  C207  1  0.58124844  0.69577769  0.75699733  1
  C  C208  1  0.26719599  0.84283589  0.75601571  1
  C  C209  1  0.76420022  0.84382355  0.76072026  1
