# generated using pymatgen
data_Cu2NiC4
_symmetry_space_group_name_H-M   'P 1'
_cell_length_a   5.51225900
_cell_length_b   7.56041400
_cell_length_c   15.36043000
_cell_angle_alpha   90.00000000
_cell_angle_beta   90.00000000
_cell_angle_gamma   90.00000000
_symmetry_Int_Tables_number   1
_chemical_formula_structural   Cu2NiC4
_chemical_formula_sum   'Cu8 Ni4 C16'
_cell_volume   640.14530760
_cell_formula_units_Z   4
loop_
 _symmetry_equiv_pos_site_id
 _symmetry_equiv_pos_as_xyz
  1  'x, y, z'
loop_
 _atom_site_type_symbol
 _atom_site_label
 _atom_site_symmetry_multiplicity
 _atom_site_fract_x
 _atom_site_fract_y
 _atom_site_fract_z
 _atom_site_occupancy
  Ni  Ni0  1  0.42294400  0.91971800  0.90469000  1
  Ni  Ni1  1  0.92294400  0.08028200  0.09531000  1
  Ni  Ni2  1  0.42294400  0.08028200  0.40469000  1
  Ni  Ni3  1  0.92294400  0.91971800  0.59531000  1
  Cu  Cu4  1  0.66013700  0.83543700  0.64640600  1
  Cu  Cu5  1  0.16013700  0.16456300  0.35359400  1
  Cu  Cu6  1  0.66013700  0.16456300  0.14640600  1
  Cu  Cu7  1  0.16013700  0.83543700  0.85359400  1
  Cu  Cu8  1  0.95025700  0.49709100  0.88395200  1
  Cu  Cu9  1  0.45025700  0.50290900  0.11604800  1
  Cu  Cu10  1  0.95025700  0.50290900  0.38395200  1
  Cu  Cu11  1  0.45025700  0.49709100  0.61604800  1
  C  C12  1  0.14328300  0.64055800  0.90218300  1
  C  C13  1  0.64328300  0.35944200  0.09781700  1
  C  C14  1  0.14328300  0.35944200  0.40218300  1
  C  C15  1  0.64328300  0.64055800  0.59781700  1
  C  C16  1  0.97478400  0.13206100  0.64191600  1
  C  C17  1  0.47478400  0.86793900  0.35808400  1
  C  C18  1  0.97478400  0.86793900  0.14191600  1
  C  C19  1  0.47478400  0.13206100  0.85808400  1
  C  C20  1  0.76072900  0.53284200  0.81884700  1
  C  C21  1  0.26072900  0.46715800  0.18115300  1
  C  C22  1  0.76072900  0.46715800  0.31884700  1
  C  C23  1  0.26072900  0.53284200  0.68115300  1
  C  C24  1  0.05046600  0.85415700  0.54090500  1
  C  C25  1  0.55046600  0.14584300  0.45909500  1
  C  C26  1  0.05046600  0.14584300  0.04090500  1
  C  C27  1  0.55046600  0.85415700  0.95909500  1
