# generated using pymatgen
data_Cu(NiC8)2
_symmetry_space_group_name_H-M   'P 1'
_cell_length_a   8.93900906
_cell_length_b   8.93900875
_cell_length_c   22.69348604
_cell_angle_alpha   89.90419713
_cell_angle_beta   90.09580286
_cell_angle_gamma   120.09483638
_symmetry_Int_Tables_number   1
_chemical_formula_structural   Cu(NiC8)2
_chemical_formula_sum   'Cu6 Ni12 C96'
_cell_volume   1568.89528179
_cell_formula_units_Z   6
loop_
 _symmetry_equiv_pos_site_id
 _symmetry_equiv_pos_as_xyz
  1  'x, y, z'
loop_
 _atom_site_type_symbol
 _atom_site_label
 _atom_site_symmetry_multiplicity
 _atom_site_fract_x
 _atom_site_fract_y
 _atom_site_fract_z
 _atom_site_occupancy
  C  C0  1  0.37517928  0.36667392  0.24302953  1
  C  C1  1  0.98541539  0.61872959  0.24404425  1
  C  C2  1  0.63332608  0.62482072  0.74302953  1
  C  C3  1  0.38127041  0.01458461  0.74404425  1
  C  C4  1  0.66072323  0.97366011  0.58528566  1
  C  C5  1  0.02633989  0.33927677  0.08528566  1
  C  C6  1  0.00879502  0.99839926  0.49886552  1
  C  C7  1  0.00160074  0.99120498  0.99886552  1
  C  C8  1  0.67651397  0.32928210  0.83140469  1
  C  C9  1  0.67071790  0.32348603  0.33140469  1
  C  C10  1  0.34586315  0.67932569  0.16381722  1
  C  C11  1  0.32067431  0.65413685  0.66381722  1
  C  C12  1  0.67131639  0.33107079  0.68394645  1
  C  C13  1  0.66892921  0.32868361  0.18394645  1
  C  C14  1  0.99744418  0.00373624  0.35732125  1
  C  C15  1  0.99626376  0.00255582  0.85732125  1
  C  C16  1  0.99963190  0.99778213  0.64380327  1
  C  C17  1  0.00221787  0.00036810  0.14380327  1
  C  C18  1  0.66391616  0.33712191  0.97848522  1
  C  C19  1  0.66287809  0.33608384  0.47848522  1
  C  C20  1  0.33377779  0.66772630  0.01987077  1
  C  C21  1  0.33227370  0.66622221  0.51987077  1
  C  C22  1  0.33277417  0.66650607  0.31466252  1
  C  C23  1  0.33349393  0.66722583  0.81466252  1
  Ni  Ni24  1  0.99247102  0.28808731  0.24990068  1
  Ni  Ni25  1  0.71191269  0.00752898  0.74990068  1
  Ni  Ni26  1  0.37833989  0.04585154  0.58559191  1
  Ni  Ni27  1  0.66266369  0.61566252  0.58675680  1
  Ni  Ni28  1  0.95414846  0.62166011  0.08559191  1
  Ni  Ni29  1  0.38433748  0.33733631  0.08675680  1
  Ni  Ni30  1  0.62111058  0.66501751  0.91683080  1
  Ni  Ni31  1  0.04216185  0.37877683  0.91739444  1
  Ni  Ni32  1  0.33490755  0.95706704  0.91653248  1
  Ni  Ni33  1  0.62122317  0.95783815  0.41739444  1
  Ni  Ni34  1  0.33498249  0.37888942  0.41683080  1
  Ni  Ni35  1  0.04293296  0.66509245  0.41653248  1
  Cu  Cu36  1  0.28741748  0.00008633  0.25087737  1
  Cu  Cu37  1  0.71250116  0.71619982  0.25064508  1
  Cu  Cu38  1  0.28380018  0.28749884  0.75064508  1
  Cu  Cu39  1  -0.00008633  0.71258252  0.75087737  1
  Cu  Cu40  1  0.95565367  0.33755724  0.58432790  1
  Cu  Cu41  1  0.66244276  0.04434633  0.08432790  1
  C  C42  1  0.19213997  0.01887847  0.30462700  1
  C  C43  1  0.82855939  0.80678981  0.30469862  1
  C  C44  1  0.98280876  0.16670782  0.30602204  1
  C  C45  1  0.19321019  0.17144061  0.80469862  1
  C  C46  1  0.98112153  0.80786003  0.80462700  1
  C  C47  1  0.83329218  0.01719124  0.80602204  1
  C  C48  1  0.80249659  0.96875716  0.69221672  1
  C  C49  1  0.16999439  0.19779425  0.69558145  1
  C  C50  1  0.03400491  0.83345274  0.69569928  1
  C  C51  1  0.80220575  0.83000561  0.19558145  1
  C  C52  1  0.03124284  0.19750341  0.19221672  1
  C  C53  1  0.16654726  0.96599509  0.19569928  1
  C  C54  1  0.88108063  0.36684628  0.63956419  1
  C  C55  1  0.49188336  0.11106650  0.64408150  1
  C  C56  1  0.63370871  0.51505339  0.64689072  1
  C  C57  1  0.88893350  0.50811664  0.14408150  1
  C  C58  1  0.63315372  0.11891937  0.13956419  1
  C  C59  1  0.48494661  0.36629129  0.14689072  1
  C  C60  1  0.47204321  0.30330103  0.02793664  1
  C  C61  1  0.83309125  0.52568361  0.02726295  1
  C  C62  1  0.70156655  0.16101235  0.02904703  1
  C  C63  1  0.47431639  0.16690875  0.52726295  1
  C  C64  1  0.69669897  0.52795679  0.52793664  1
  C  C65  1  0.83898765  0.29843345  0.52904703  1
  C  C66  1  0.52902642  0.69605189  0.97287229  1
  C  C67  1  0.16276691  0.46669869  0.97516437  1
  C  C68  1  0.30413830  0.83200097  0.97248725  1
  C  C69  1  0.53330131  0.83723309  0.47516437  1
  C  C70  1  0.30394811  0.47097358  0.47287229  1
  C  C71  1  0.16799903  0.69586170  0.47248725  1
  C  C72  1  0.13586206  0.63818354  0.35727215  1
  C  C73  1  0.49901672  0.86064656  0.35957344  1
  C  C74  1  0.36232529  0.49716593  0.35735467  1
  C  C75  1  0.13935344  0.50098328  0.85957344  1
  C  C76  1  0.36181646  0.86413794  0.85727215  1
  C  C77  1  0.50283407  0.63767471  0.85735467  1
  C  C78  1  0.02465555  0.83569148  0.40656674  1
  C  C79  1  0.80980469  0.97206408  0.40825561  1
  C  C80  1  0.16546690  0.18717017  0.40819129  1
  C  C81  1  0.02793592  0.19019531  0.90825561  1
  C  C82  1  0.16430852  0.97534445  0.90656674  1
  C  C83  1  0.81282983  0.83453310  0.90819129  1
  C  C84  1  0.97215537  0.16853515  0.59101917  1
  C  C85  1  0.18431421  0.02563409  0.59121411  1
  C  C86  1  0.83476644  0.81916154  0.59087670  1
  C  C87  1  0.97436591  0.81568579  0.09121411  1
  C  C88  1  0.83146485  0.02784463  0.09101917  1
  C  C89  1  0.18083846  0.16523356  0.09087670  1
  C  C90  1  0.68105813  0.16740925  0.74868781  1
  C  C91  1  0.46423097  0.30993727  0.74733990  1
  C  C92  1  0.83830541  0.53742752  0.74580728  1
  C  C93  1  0.69006273  0.53576903  0.24733990  1
  C  C94  1  0.83259075  0.31894187  0.24868781  1
  C  C95  1  0.46257248  0.16169459  0.24580728  1
  C  C96  1  0.63989766  0.49426424  0.92356340  1
  C  C97  1  0.85210017  0.35552214  0.92496128  1
  C  C98  1  0.50648544  0.14456422  0.92466473  1
  C  C99  1  0.64447786  0.14789983  0.42496128  1
  C  C100  1  0.50573576  0.36010234  0.42356340  1
  C  C101  1  0.85543578  0.49351456  0.42466473  1
  C  C102  1  0.34639537  0.49891459  0.07470945  1
  C  C103  1  0.14895085  0.64761041  0.07330983  1
  C  C104  1  0.50828269  0.85926961  0.07417616  1
  C  C105  1  0.35238959  0.85104915  0.57330983  1
  C  C106  1  0.50108541  0.65360463  0.57470945  1
  C  C107  1  0.14073039  0.49171731  0.57417616  1
  C  C108  1  0.29626584  0.82961162  0.25594368  1
  C  C109  1  0.52952795  0.69900478  0.25620094  1
  C  C110  1  0.17837890  0.47999609  0.25609886  1
  C  C111  1  0.30099522  0.47047205  0.75620094  1
  C  C112  1  0.17038838  0.70373416  0.75594368  1
  C  C113  1  0.52000391  0.82162110  0.75609886  1
