# generated using pymatgen
data_CuNiC10
_symmetry_space_group_name_H-M   'P 1'
_cell_length_a   5.92014451
_cell_length_b   5.66162000
_cell_length_c   5.98037109
_cell_angle_alpha   89.99688204
_cell_angle_beta   89.88978840
_cell_angle_gamma   90.00255228
_symmetry_Int_Tables_number   1
_chemical_formula_structural   CuNiC10
_chemical_formula_sum   'Cu1 Ni1 C10'
_cell_volume   200.44736592
_cell_formula_units_Z   1
loop_
 _symmetry_equiv_pos_site_id
 _symmetry_equiv_pos_as_xyz
  1  'x, y, z'
loop_
 _atom_site_type_symbol
 _atom_site_label
 _atom_site_symmetry_multiplicity
 _atom_site_fract_x
 _atom_site_fract_y
 _atom_site_fract_z
 _atom_site_occupancy
  C  C0  1  0.44212300  0.49996000  0.49959600  1
  C  C1  1  0.88858000  0.99983700  0.79501200  1
  C  C2  1  0.81978800  0.15864700  0.04549800  1
  C  C3  1  0.81961600  0.84144700  0.04571600  1
  C  C4  1  0.22602700  0.14846800  0.98166500  1
  C  C5  1  0.22590100  0.85114800  0.98179500  1
  C  C6  1  0.16642900  0.99993500  0.21461500  1
  Ni  Ni7  1  0.89987600  0.99995400  0.97764100  1
  Cu  Cu8  1  0.14301100  0.99986600  0.04242600  1
  C  C9  1  0.41476300  0.49991900  0.94031100  1
  C  C10  1  0.41707500  0.00007700  0.51678300  1
  C  C11  1  0.01479100  0.50004300  0.45473400  1
