# generated using pymatgen
data_Cu6NiC12
_symmetry_space_group_name_H-M   'P 1'
_cell_length_a   5.31048487
_cell_length_b   7.66470875
_cell_length_c   5.73503424
_cell_angle_alpha   97.60098110
_cell_angle_beta   99.78442374
_cell_angle_gamma   83.15242285
_symmetry_Int_Tables_number   1
_chemical_formula_structural   Cu6NiC12
_chemical_formula_sum   'Cu6 Ni1 C12'
_cell_volume   226.89688112
_cell_formula_units_Z   1
loop_
 _symmetry_equiv_pos_site_id
 _symmetry_equiv_pos_as_xyz
  1  'x, y, z'
loop_
 _atom_site_type_symbol
 _atom_site_label
 _atom_site_symmetry_multiplicity
 _atom_site_fract_x
 _atom_site_fract_y
 _atom_site_fract_z
 _atom_site_occupancy
  Ni  Ni0  1  0.99646694  0.16357935  0.66090256  1
  Cu  Cu1  1  0.49230131  0.98162694  0.51401750  1
  Cu  Cu2  1  0.49998624  0.66340785  0.16190516  1
  Cu  Cu3  1  0.50050791  0.34177595  0.81622111  1
  Cu  Cu4  1  0.99971840  0.66342896  0.66199556  1
  Cu  Cu5  1  0.01620045  0.35664449  0.29612671  1
  Cu  Cu6  1  0.98386595  0.97009612  0.02796694  1
  C  C7  1  0.87599955  0.42523817  0.57882138  1
  C  C8  1  0.69748260  0.10616896  0.79821847  1
  C  C9  1  0.70058794  0.76392229  0.45704676  1
  C  C10  1  0.70503233  0.43778316  0.09982049  1
  C  C11  1  0.29839350  0.56294126  0.86754734  1
  C  C12  1  0.30013334  0.21873280  0.52843564  1
  C  C13  1  0.29437844  0.88871240  0.22407968  1
  C  C14  1  0.12461317  0.90221730  0.74389502  1
  C  C15  1  0.77754367  0.75791668  0.95942695  1
  C  C16  1  0.83874375  0.09331978  0.31238038  1
  C  C17  1  0.22316815  0.56807386  0.36446810  1
  C  C18  1  0.16098635  0.23441566  0.01005526  1
