# generated using pymatgen
data_CuNi6
_symmetry_space_group_name_H-M   'P 1'
_cell_length_a   5.25313530
_cell_length_b   5.25313530
_cell_length_c   5.25313502
_cell_angle_alpha   69.55993847
_cell_angle_beta   69.55993847
_cell_angle_gamma   69.55992904
_symmetry_Int_Tables_number   1
_chemical_formula_structural   CuNi6
_chemical_formula_sum   'Cu2 Ni12'
_cell_volume   122.94532136
_cell_formula_units_Z   2
loop_
 _symmetry_equiv_pos_site_id
 _symmetry_equiv_pos_as_xyz
  1  'x, y, z'
loop_
 _atom_site_type_symbol
 _atom_site_label
 _atom_site_symmetry_multiplicity
 _atom_site_fract_x
 _atom_site_fract_y
 _atom_site_fract_z
 _atom_site_occupancy
  Ni  Ni0  1  0.71758200  0.18386500  0.18386500  1
  Ni  Ni1  1  0.18386500  0.18386500  0.71758200  1
  Ni  Ni2  1  0.18386500  0.71758200  0.18386500  1
  Ni  Ni3  1  0.81613500  0.28241800  0.81613500  1
  Ni  Ni4  1  0.28241800  0.81613500  0.81613500  1
  Ni  Ni5  1  0.81613500  0.81613500  0.28241800  1
  Ni  Ni6  1  0.32643800  0.01280900  0.01280900  1
  Ni  Ni7  1  0.01280900  0.01280900  0.32643800  1
  Ni  Ni8  1  0.01280900  0.32643800  0.01280900  1
  Ni  Ni9  1  0.98719100  0.67356200  0.98719100  1
  Ni  Ni10  1  0.67356200  0.98719100  0.98719100  1
  Ni  Ni11  1  0.98719100  0.98719100  0.67356200  1
  Cu  Cu12  1  0.40513900  0.40513900  0.40513900  1
  Cu  Cu13  1  0.59486100  0.59486100  0.59486100  1
