# generated using pymatgen
data_Cu3Ni5C74
_symmetry_space_group_name_H-M   'P 1'
_cell_length_a   17.85706196
_cell_length_b   8.93053063
_cell_length_c   22.02105773
_cell_angle_alpha   90.05988145
_cell_angle_beta   89.91895575
_cell_angle_gamma   120.00714017
_symmetry_Int_Tables_number   1
_chemical_formula_structural   Cu3Ni5C74
_chemical_formula_sum   'Cu9 Ni15 C222'
_cell_volume   3041.05558330
_cell_formula_units_Z   3
loop_
 _symmetry_equiv_pos_site_id
 _symmetry_equiv_pos_as_xyz
  1  'x, y, z'
loop_
 _atom_site_type_symbol
 _atom_site_label
 _atom_site_symmetry_multiplicity
 _atom_site_fract_x
 _atom_site_fract_y
 _atom_site_fract_z
 _atom_site_occupancy
  C  C0  1  0.18405786  0.36223303  0.24760887  1
  C  C1  1  0.68441384  0.36282773  0.24783331  1
  C  C2  1  0.99584529  0.63019202  0.24819697  1
  C  C3  1  0.49599146  0.62976607  0.24739593  1
  C  C4  1  0.31851697  0.63097130  0.74771773  1
  C  C5  1  0.81916953  0.63213153  0.74818732  1
  C  C6  1  0.18450158  0.00872233  0.74763302  1
  C  C7  1  0.68490233  0.00801957  0.74761934  1
  C  C8  1  0.15460944  0.34003241  0.58073906  1
  C  C9  1  0.65490982  0.34064343  0.58067426  1
  C  C10  1  0.01498909  0.68981576  0.58128304  1
  C  C11  1  0.51493926  0.68930785  0.58115416  1
  C  C12  1  0.32957483  0.96948413  0.58082721  1
  C  C13  1  0.82978702  0.96927892  0.58099500  1
  C  C14  1  0.15426889  0.96982420  0.08058604  1
  C  C15  1  0.65312366  0.96601337  0.08220083  1
  C  C16  1  0.32946266  0.68900370  0.08045472  1
  C  C17  1  0.01797796  0.34245673  0.08231293  1
  C  C18  1  0.51591178  0.34105687  0.08012515  1
  C  C19  1  0.48262596  0.66890242  0.91772967  1
  C  C20  1  0.98516422  0.67444666  0.91479826  1
  C  C21  1  0.35168300  0.03553955  0.91733568  1
  C  C22  1  0.16606431  0.29444969  0.91766222  1
  C  C23  1  0.66453647  0.30018485  0.91517965  1
  C  C24  1  0.48236550  0.29684611  0.41763085  1
  C  C25  1  0.98239064  0.29678695  0.41757675  1
  C  C26  1  0.16587444  0.03618534  0.41798646  1
  C  C27  1  0.66593193  0.03620442  0.41801635  1
  C  C28  1  0.35181269  0.66690207  0.41795055  1
  C  C29  1  0.85188720  0.66700756  0.41793576  1
  C  C30  1  0.00013208  0.00020631  0.49744534  1
  C  C31  1  0.50004069  0.00025278  0.49725704  1
  C  C32  1  0.98985802  0.99164754  0.99640822  1
  C  C33  1  0.49941308  0.99941356  0.99714185  1
  C  C34  1  0.33866960  0.33401319  0.83105297  1
  C  C35  1  0.83988325  0.32572659  0.82976844  1
  C  C36  1  0.33283823  0.32221274  0.33114103  1
  C  C37  1  0.83311139  0.32239163  0.33135614  1
  C  C38  1  0.17137620  0.67659362  0.16525352  1
  C  C39  1  0.67612575  0.67685475  0.16304111  1
  C  C40  1  0.16152096  0.65774411  0.66494438  1
  C  C41  1  0.66177893  0.65806195  0.66514316  1
  Ni  Ni42  1  0.99954879  0.00083540  0.35000808  1
  Ni  Ni43  1  0.49967259  0.00088135  0.35007821  1
  Ni  Ni44  1  0.99695322  0.00109300  0.85150503  1
  Ni  Ni45  1  0.49989287  0.00091460  0.85007032  1
  Ni  Ni46  1  0.33627720  0.33397334  0.68406069  1
  Ni  Ni47  1  0.83638869  0.33424504  0.68389439  1
  Ni  Ni48  1  0.33277030  0.32717335  0.18391827  1
  Ni  Ni49  1  0.83292548  0.32873447  0.18499480  1
  Ni  Ni50  1  0.33321573  0.33269964  0.98344309  1
  Ni  Ni51  1  0.33370250  0.33343157  0.48354040  1
  Ni  Ni52  1  0.83374577  0.33355108  0.48353956  1
  Ni  Ni53  1  0.16670803  0.66695098  0.01745738  1
  Ni  Ni54  1  0.67015627  0.66786467  0.01818479  1
  Ni  Ni55  1  0.16652629  0.66653327  0.51764239  1
  Ni  Ni56  1  0.66661847  0.66651588  0.51765801  1
  Cu  Cu57  1  0.99952804  0.00247222  0.65043958  1
  Cu  Cu58  1  0.50011963  0.00245073  0.65040243  1
  Cu  Cu59  1  0.99622693  0.99528530  0.14906337  1
  Cu  Cu60  1  0.49895623  0.99910318  0.14999807  1
  Cu  Cu61  1  0.83365638  0.32896786  0.98226614  1
  Cu  Cu62  1  0.16889501  0.67187152  0.31504959  1
  Cu  Cu63  1  0.66901500  0.67227266  0.31502890  1
  Cu  Cu64  1  0.16291856  0.66113772  0.81532317  1
  Cu  Cu65  1  0.66641593  0.66437538  0.81574744  1
  C  C66  1  0.14647967  0.99969985  0.25110709  1
  C  C67  1  0.64724601  0.00018092  0.25182596  1
  C  C68  1  0.35300733  0.70839178  0.25177800  1
  C  C69  1  0.85307583  0.70907594  0.25205600  1
  C  C70  1  0.99888333  0.29193616  0.25180693  1
  C  C71  1  0.49927008  0.29307466  0.25196019  1
  C  C72  1  0.14536324  0.29332173  0.75230606  1
  C  C73  1  0.64602895  0.29502080  0.75191087  1
  C  C74  1  -0.00002239  0.70621076  0.75201986  1
  C  C75  1  0.50024364  0.70566765  0.75207335  1
  C  C76  1  0.35320203  0.00149215  0.75247087  1
  C  C77  1  0.85377902  0.00219814  0.75166717  1
  C  C78  1  0.48028778  0.33170447  0.58340656  1
  C  C79  1  0.98038160  0.33182087  0.58327411  1
  C  C80  1  0.18490360  0.03877108  0.58454551  1
  C  C81  1  0.68494577  0.03879344  0.58446987  1
  C  C82  1  0.33419021  0.62971739  0.58469571  1
  C  C83  1  0.83421133  0.62974554  0.58461935  1
  C  C84  1  0.48076843  0.62953317  0.08456632  1
  C  C85  1  0.97795421  0.62703439  0.08464857  1
  C  C86  1  0.33420015  0.03939557  0.08344783  1
  C  C87  1  0.83308695  0.04061389  0.08498156  1
  C  C88  1  0.18457843  0.33054245  0.08479263  1
  C  C89  1  0.68788063  0.33561318  0.08549514  1
  C  C90  1  0.31282101  0.66710410  0.91698538  1
  C  C91  1  0.81327760  0.66782953  0.91785582  1
  C  C92  1  0.01982534  0.37233533  0.91903833  1
  C  C93  1  0.52087893  0.37450632  0.91819808  1
  C  C94  1  0.16631870  0.95908076  0.91706171  1
  C  C95  1  0.66821779  0.95909284  0.91825952  1
  C  C96  1  0.31336357  0.95865242  0.41804955  1
  C  C97  1  0.81339583  0.95874240  0.41808910  1
  C  C98  1  0.16636621  0.37419614  0.41697315  1
  C  C99  1  0.66637254  0.37421606  0.41694214  1
  C  C100  1  0.02076133  0.66770995  0.41698564  1
  C  C101  1  0.52077026  0.66764063  0.41695790  1
  C  C102  1  0.10491585  0.02555168  0.30761317  1
  C  C103  1  0.60518968  0.02577752  0.30802309  1
  C  C104  1  0.40842759  0.78936063  0.30772548  1
  C  C105  1  0.90783446  0.78760417  0.30850706  1
  C  C106  1  0.48934341  0.18894482  0.30862507  1
  C  C107  1  0.98916078  0.18911465  0.30878875  1
  C  C108  1  0.10507802  0.18207861  0.80804792  1
  C  C109  1  0.60559041  0.18406060  0.80788999  1
  C  C110  1  0.48724960  0.78930647  0.80842649  1
  C  C111  1  0.98787491  0.79026301  0.80831342  1
  C  C112  1  0.40525935  0.02120827  0.80907099  1
  C  C113  1  0.90872955  0.02268979  0.80638792  1
  C  C114  1  0.39911780  0.97158922  0.69532733  1
  C  C115  1  0.89760390  0.97058893  0.69329613  1
  C  C116  1  0.08748736  0.20219688  0.69445773  1
  C  C117  1  0.58790165  0.20263238  0.69436018  1
  C  C118  1  0.01557929  0.82818016  0.69490983  1
  C  C119  1  0.51558477  0.82839223  0.69507784  1
  C  C120  1  0.39940071  0.82517288  0.19416636  1
  C  C121  1  0.90126163  0.82993825  0.19575868  1
  C  C122  1  0.01343677  0.20006913  0.19464563  1
  C  C123  1  0.51452727  0.20103277  0.19471551  1
  C  C124  1  0.08501324  0.96741729  0.19397426  1
  C  C125  1  0.58618311  0.96994173  0.19469752  1
  C  C126  1  0.43713874  0.36296138  0.63729290  1
  C  C127  1  0.93724894  0.36309113  0.63723080  1
  C  C128  1  0.24030590  0.12150896  0.64099740  1
  C  C129  1  0.74024559  0.12179393  0.64092608  1
  C  C130  1  0.31952419  0.51837762  0.64102656  1
  C  C131  1  0.81945681  0.51831678  0.64099997  1
  C  C132  1  0.43895300  0.51934798  0.14104085  1
  C  C133  1  0.93796666  0.51633287  0.14081819  1
  C  C134  1  0.31869381  0.12543656  0.13743502  1
  C  C135  1  0.81894461  0.12643276  0.13926336  1
  C  C136  1  0.24064483  0.36130521  0.14104494  1
  C  C137  1  0.73954262  0.35512868  0.14226045  1
  C  C138  1  0.22197438  0.29307844  0.02715749  1
  C  C139  1  0.73256905  0.30296575  0.02791753  1
  C  C140  1  0.42458974  0.55609459  0.02695549  1
  C  C141  1  0.92043156  0.53487749  0.02658516  1
  C  C142  1  0.35489508  0.14806774  0.02474040  1
  C  C143  1  0.84944507  0.16619322  0.02778737  1
  C  C144  1  0.22218903  0.15095119  0.52693922  1
  C  C145  1  0.72197746  0.15081129  0.52686886  1
  C  C146  1  0.35382035  0.55639535  0.52705171  1
  C  C147  1  0.85349416  0.55586629  0.52700159  1
  C  C148  1  0.42594357  0.29031817  0.52468398  1
  C  C149  1  0.92593629  0.29045940  0.52460084  1
  C  C150  1  0.27168674  0.69476452  0.97358695  1
  C  C151  1  0.76854384  0.68796909  0.97239436  1
  C  C152  1  0.07358196  0.45476900  0.97583478  1
  C  C153  1  0.57484012  0.45485400  0.97503276  1
  C  C154  1  0.15215134  0.84804340  0.97339244  1
  C  C155  1  0.65251286  0.84855821  0.97438890  1
  C  C156  1  0.27282449  0.84966578  0.47479053  1
  C  C157  1  0.77275099  0.84969164  0.47479505  1
  C  C158  1  0.15275697  0.45693434  0.47349006  1
  C  C159  1  0.65270597  0.45684108  0.47348306  1
  C  C160  1  0.07599161  0.69577448  0.47336738  1
  C  C161  1  0.57599264  0.69582893  0.47339056  1
  C  C162  1  0.06901710  0.64456682  0.35942474  1
  C  C163  1  0.56907117  0.64455037  0.35943508  1
  C  C164  1  0.25132486  0.85712393  0.36207505  1
  C  C165  1  0.75136708  0.85719662  0.36209478  1
  C  C166  1  0.17775367  0.49372768  0.35956235  1
  C  C167  1  0.67778203  0.49370028  0.35953564  1
  C  C168  1  0.06716648  0.49847858  0.86294522  1
  C  C169  1  0.57254195  0.49990177  0.86251832  1
  C  C170  1  0.17748244  0.86121856  0.85967741  1
  C  C171  1  0.68097268  0.86933623  0.86009047  1
  C  C172  1  0.25230236  0.64368251  0.85995852  1
  C  C173  1  0.75449419  0.63686422  0.85886378  1
  C  C174  1  0.01089538  0.82894039  0.41019787  1
  C  C175  1  0.51082253  0.82878947  0.41018265  1
  C  C176  1  0.40343670  0.97774839  0.41023341  1
  C  C177  1  0.90344283  0.97784359  0.41029250  1
  C  C178  1  0.08576904  0.19300236  0.41040190  1
  C  C179  1  0.58571883  0.19300099  0.41042145  1
  C  C180  1  0.01180792  0.19619404  0.91007960  1
  C  C181  1  0.51129568  0.19408848  0.91009134  1
  C  C182  1  0.08619349  0.97990556  0.91018557  1
  C  C183  1  0.58886511  0.98368362  0.91069046  1
  C  C184  1  0.40367193  0.82830139  0.91045781  1
  C  C185  1  0.90529589  0.81800056  0.91068595  1
  C  C186  1  0.49011448  0.16423065  0.59248061  1
  C  C187  1  0.99040631  0.16460172  0.59216650  1
  C  C188  1  0.09149730  0.01942868  0.59177888  1
  C  C189  1  0.59140208  0.01936042  0.59185148  1
  C  C190  1  0.41794035  0.81680445  0.59241105  1
  C  C191  1  0.91813784  0.81642347  0.59209599  1
  C  C192  1  0.49026736  0.81669986  0.09195249  1
  C  C193  1  0.98780502  0.81204496  0.08863363  1
  C  C194  1  0.41826343  0.02000773  0.09234481  1
  C  C195  1  0.91930939  0.03391679  0.08877924  1
  C  C196  1  0.09137117  0.16272240  0.09265828  1
  C  C197  1  0.59576255  0.16211695  0.08826670  1
  C  C198  1  0.33719503  0.15284227  0.74445186  1
  C  C199  1  0.83692649  0.15206346  0.74394313  1
  C  C200  1  0.23668210  0.31825433  0.74392212  1
  C  C201  1  0.73704851  0.31832478  0.74394767  1
  C  C202  1  0.41982214  0.52867791  0.74343824  1
  C  C203  1  0.91973383  0.52849708  0.74362373  1
  C  C204  1  0.34118401  0.52648340  0.24367598  1
  C  C205  1  0.84154100  0.52761104  0.24334050  1
  C  C206  1  0.42343192  0.32459798  0.24412561  1
  C  C207  1  0.92346529  0.32539158  0.24441348  1
  C  C208  1  0.23525835  0.16023031  0.24294131  1
  C  C209  1  0.73595556  0.16068454  0.24373717  1
  C  C210  1  0.31891688  0.50036240  0.91772376  1
  C  C211  1  0.81830371  0.49411762  0.92126159  1
  C  C212  1  0.43179951  0.36357342  0.91781950  1
  C  C213  1  0.93033038  0.36661319  0.92204715  1
  C  C214  1  0.25022088  0.13716744  0.91786635  1
  C  C215  1  0.75076521  0.14484745  0.92273099  1
  C  C216  1  0.31831278  0.13623781  0.41793663  1
  C  C217  1  0.81827654  0.13626141  0.41794663  1
  C  C218  1  0.24982926  0.36214023  0.41777461  1
  C  C219  1  0.74978259  0.36201731  0.41776026  1
  C  C220  1  0.43141228  0.50061026  0.41787861  1
  C  C221  1  0.93141325  0.50062036  0.41785943  1
  C  C222  1  0.17153975  0.48895612  0.07915324  1
  C  C223  1  0.67083388  0.48564480  0.07781824  1
  C  C224  1  0.06969284  0.65233234  0.07713563  1
  C  C225  1  0.57286572  0.65596029  0.07918433  1
  C  C226  1  0.25553827  0.85396250  0.07843366  1
  C  C227  1  0.75386518  0.86327233  0.07568656  1
  C  C228  1  0.17166057  0.85432625  0.57905778  1
  C  C229  1  0.67156412  0.85433412  0.57904860  1
  C  C230  1  0.25522232  0.65592262  0.57904394  1
  C  C231  1  0.75521203  0.65592789  0.57903319  1
  C  C232  1  0.07300409  0.48867033  0.57815909  1
  C  C233  1  0.57295609  0.48852499  0.57822555  1
  C  C234  1  0.15050251  0.82759472  0.25479190  1
  C  C235  1  0.65071584  0.82775894  0.25499231  1
  C  C236  1  0.26092286  0.68989743  0.25505112  1
  C  C237  1  0.76109384  0.69047206  0.25504824  1
  C  C238  1  0.08564480  0.47534481  0.25372922  1
  C  C239  1  0.58583263  0.47569308  0.25384785  1
  C  C240  1  0.15456850  0.47782818  0.75601132  1
  C  C241  1  0.65532369  0.47925720  0.75543734  1
  C  C242  1  0.08605058  0.69776539  0.75531097  1
  C  C243  1  0.58651373  0.69897833  0.75570280  1
  C  C244  1  0.26172841  0.82810545  0.75442029  1
  C  C245  1  0.76221283  0.82856646  0.75467345  1
