# generated using pymatgen
data_Cu2Ni14C9
_symmetry_space_group_name_H-M   'P 1'
_cell_length_a   4.85076654
_cell_length_b   4.79334437
_cell_length_c   11.86614447
_cell_angle_alpha   90.19992689
_cell_angle_beta   91.20697876
_cell_angle_gamma   90.14026737
_symmetry_Int_Tables_number   1
_chemical_formula_structural   Cu2Ni14C9
_chemical_formula_sum   'Cu2 Ni14 C9'
_cell_volume   275.84063292
_cell_formula_units_Z   1
loop_
 _symmetry_equiv_pos_site_id
 _symmetry_equiv_pos_as_xyz
  1  'x, y, z'
loop_
 _atom_site_type_symbol
 _atom_site_label
 _atom_site_symmetry_multiplicity
 _atom_site_fract_x
 _atom_site_fract_y
 _atom_site_fract_z
 _atom_site_occupancy
  C  C0  1  0.95162300  0.46590000  0.01081900  1
  C  C1  1  0.34947200  0.94568900  0.00801500  1
  C  C2  1  0.95592500  0.98926700  0.25031900  1
  C  C3  1  0.99564700  0.01449500  0.49929900  1
  C  C4  1  0.98386300  0.98481900  0.74513100  1
  C  C5  1  0.47598000  0.47425700  0.14335600  1
  C  C6  1  0.47710900  0.48713700  0.62410100  1
  C  C7  1  0.46976000  0.51456300  0.85598900  1
  C  C8  1  0.45294300  0.48300600  0.37607100  1
  Ni  Ni9  1  0.15868300  0.75501300  0.12394800  1
  Ni  Ni10  1  0.16705200  0.80513400  0.61961300  1
  Ni  Ni11  1  0.16502100  0.79154800  0.87557400  1
  Ni  Ni12  1  0.15368000  0.80062600  0.38000800  1
  Ni  Ni13  1  0.31458700  0.32316600  0.99225400  1
  Ni  Ni14  1  0.26839200  0.27560500  0.25164000  1
  Ni  Ni15  1  0.29249200  0.30472200  0.50325000  1
  Ni  Ni16  1  0.29626900  0.29512800  0.74513900  1
  Ni  Ni17  1  0.64424500  0.70564600  0.98952600  1
  Ni  Ni18  1  0.65470700  0.68666600  0.25589700  1
  Ni  Ni19  1  0.66670700  0.69611700  0.74460100  1
  Ni  Ni20  1  0.76359200  0.20561300  0.12586400  1
  Ni  Ni21  1  0.78259000  0.18205900  0.38110600  1
  Ni  Ni22  1  0.79938100  0.18465700  0.62178100  1
  Cu  Cu23  1  0.66384600  0.68610400  0.50258100  1
  Cu  Cu24  1  0.80476600  0.23473400  0.87412100  1
