# generated using pymatgen
data_Cu5Ni2C3
_symmetry_space_group_name_H-M   'P 1'
_cell_length_a   9.38048500
_cell_length_b   9.38048500
_cell_length_c   3.07685600
_cell_angle_alpha   90.00000000
_cell_angle_beta   90.00000000
_cell_angle_gamma   90.00000000
_symmetry_Int_Tables_number   1
_chemical_formula_structural   Cu5Ni2C3
_chemical_formula_sum   'Cu10 Ni4 C6'
_cell_volume   270.74332485
_cell_formula_units_Z   2
loop_
 _symmetry_equiv_pos_site_id
 _symmetry_equiv_pos_as_xyz
  1  'x, y, z'
loop_
 _atom_site_type_symbol
 _atom_site_label
 _atom_site_symmetry_multiplicity
 _atom_site_fract_x
 _atom_site_fract_y
 _atom_site_fract_z
 _atom_site_occupancy
  C  C0  1  0.17643600  0.67643600  0.00000000  1
  C  C1  1  0.82356400  0.32356400  0.00000000  1
  C  C2  1  0.32356400  0.17643600  0.00000000  1
  C  C3  1  0.67643600  0.82356400  0.00000000  1
  C  C4  1  0.00000000  0.00000000  0.00000000  1
  C  C5  1  0.50000000  0.50000000  0.00000000  1
  Ni  Ni6  1  0.37544700  0.87544700  0.00000000  1
  Ni  Ni7  1  0.87544700  0.62455300  0.00000000  1
  Ni  Ni8  1  0.12455300  0.37544700  0.00000000  1
  Ni  Ni9  1  0.62455300  0.12455300  0.00000000  1
  Cu  Cu10  1  0.50000000  0.00000000  0.50000000  1
  Cu  Cu11  1  0.71568700  0.56950900  0.50000000  1
  Cu  Cu12  1  0.56950900  0.28431300  0.50000000  1
  Cu  Cu13  1  0.43049100  0.71568700  0.50000000  1
  Cu  Cu14  1  0.28431300  0.43049100  0.50000000  1
  Cu  Cu15  1  0.00000000  0.50000000  0.50000000  1
  Cu  Cu16  1  0.93049100  0.78431300  0.50000000  1
  Cu  Cu17  1  0.78431300  0.06950900  0.50000000  1
  Cu  Cu18  1  0.21568700  0.93049100  0.50000000  1
  Cu  Cu19  1  0.06950900  0.21568700  0.50000000  1
