# generated using pymatgen
data_Cu3NiC
_symmetry_space_group_name_H-M   'P 1'
_cell_length_a   4.62820983
_cell_length_b   4.62820971
_cell_length_c   4.62820983
_cell_angle_alpha   88.78303001
_cell_angle_beta   88.78302952
_cell_angle_gamma   88.78303001
_symmetry_Int_Tables_number   1
_chemical_formula_structural   Cu3NiC
_chemical_formula_sum   'Cu3 Ni1 C1'
_cell_volume   99.07161132
_cell_formula_units_Z   1
loop_
 _symmetry_equiv_pos_site_id
 _symmetry_equiv_pos_as_xyz
  1  'x, y, z'
loop_
 _atom_site_type_symbol
 _atom_site_label
 _atom_site_symmetry_multiplicity
 _atom_site_fract_x
 _atom_site_fract_y
 _atom_site_fract_z
 _atom_site_occupancy
  C  C0  1  0.49152900  0.49152900  0.49152900  1
  Ni  Ni1  1  0.00135600  0.00135600  0.00135600  1
  Cu  Cu2  1  0.39568100  0.95986700  0.95986700  1
  Cu  Cu3  1  0.95986700  0.39568100  0.95986700  1
  Cu  Cu4  1  0.95986700  0.95986700  0.39568100  1
