# generated using pymatgen
data_CuNi3C37
_symmetry_space_group_name_H-M   'P 1'
_cell_length_a   18.06943360
_cell_length_b   9.08650689
_cell_length_c   22.01668059
_cell_angle_alpha   90.03418468
_cell_angle_beta   90.06878751
_cell_angle_gamma   120.53511653
_symmetry_Int_Tables_number   1
_chemical_formula_structural   CuNi3C37
_chemical_formula_sum   'Cu6 Ni18 C222'
_cell_volume   3113.55175951
_cell_formula_units_Z   6
loop_
 _symmetry_equiv_pos_site_id
 _symmetry_equiv_pos_as_xyz
  1  'x, y, z'
loop_
 _atom_site_type_symbol
 _atom_site_label
 _atom_site_symmetry_multiplicity
 _atom_site_fract_x
 _atom_site_fract_y
 _atom_site_fract_z
 _atom_site_occupancy
  C  C0  1  0.81241115  0.00706264  0.24792951  1
  C  C1  1  0.68841767  0.36289450  0.24668635  1
  C  C2  1  0.49915827  0.63773686  0.24503346  1
  C  C3  1  0.31010985  0.61476423  0.74880759  1
  C  C4  1  -0.00065737  0.36524377  0.74376968  1
  C  C5  1  0.18083073  -0.00313199  0.74461786  1
  C  C6  1  0.15241577  0.33051234  0.57498007  1
  C  C7  1  0.66809721  0.36280532  0.58364470  1
  C  C8  1  0.01427581  0.68951131  0.57311615  1
  C  C9  1  0.51974715  0.68549849  0.59188669  1
  C  C10  1  0.32586063  0.97882111  0.58375449  1
  C  C11  1  0.82737980  0.96910945  0.59296416  1
  C  C12  1  0.16413408  0.96846618  0.07804484  1
  C  C13  1  0.65727872  0.98249035  0.06963201  1
  C  C14  1  0.32282575  0.68463142  0.08708286  1
  C  C15  1  0.82689078  0.67353452  0.07996163  1
  C  C16  1  0.01860632  0.35467432  0.08732723  1
  C  C17  1  0.51427723  0.33473164  0.06828627  1
  C  C18  1  0.48528117  0.66607236  0.91962089  1
  C  C19  1  0.97799265  0.66091525  0.91434552  1
  C  C20  1  0.35538109  0.04465905  0.92254232  1
  C  C21  1  0.84782785  0.04215832  0.91183950  1
  C  C22  1  0.16626352  0.29055088  0.91500286  1
  C  C23  1  0.66296495  0.28907814  0.92541165  1
  C  C24  1  0.47951416  0.30190710  0.42634016  1
  C  C25  1  0.98503164  0.30556010  0.42393442  1
  C  C26  1  0.16125146  0.03387399  0.42801998  1
  C  C27  1  0.66981638  0.04743889  0.42054031  1
  C  C28  1  0.34571322  0.65423746  0.41689293  1
  C  C29  1  0.85473858  0.66424353  0.42486435  1
  C  C30  1  0.00356787  0.99086025  0.49883741  1
  C  C31  1  0.50493400  0.01092961  0.50355153  1
  C  C32  1  0.00371224  0.99811059  0.99741274  1
  C  C33  1  0.50428913  0.01857049  0.99452099  1
  C  C34  1  0.33988651  0.33481535  0.82965879  1
  C  C35  1  0.82594087  0.33049651  0.82634719  1
  C  C36  1  0.31813440  0.32315874  0.33086989  1
  C  C37  1  0.84195849  0.34606754  0.33102536  1
  C  C38  1  0.16835461  0.67112333  0.16293755  1
  C  C39  1  0.66728289  0.66259784  0.16311228  1
  C  C40  1  0.16092418  0.67105573  0.66652674  1
  C  C41  1  0.66965103  0.66592330  0.66457779  1
  Ni  Ni42  1  0.00887247  0.00661092  0.35510830  1
  Ni  Ni43  1  0.50395084  0.00451673  0.33922364  1
  Ni  Ni44  1  0.00349035  0.98581977  0.82892214  1
  Ni  Ni45  1  0.50932979  0.01095722  0.85482744  1
  Ni  Ni46  1  0.32819061  0.31629165  0.67780145  1
  Ni  Ni47  1  0.82992716  0.34896115  0.68115811  1
  Ni  Ni48  1  0.31751717  0.30900958  0.17206148  1
  Ni  Ni49  1  0.82808408  0.33869501  0.17653387  1
  Ni  Ni50  1  0.33277699  0.30584893  0.99042377  1
  Ni  Ni51  1  0.82464311  0.33623765  0.98910430  1
  Ni  Ni52  1  0.32609133  0.31862872  0.49279647  1
  Ni  Ni53  1  0.83346750  0.35800894  0.49676735  1
  Ni  Ni54  1  0.16596919  0.66595905  0.02425299  1
  Ni  Ni55  1  0.65987268  0.65135156  0.00988140  1
  Ni  Ni56  1  0.15838415  0.66650462  0.51197274  1
  Ni  Ni57  1  0.66713507  0.67318083  0.52761873  1
  Ni  Ni58  1  0.66364996  0.68086343  0.31452750  1
  Ni  Ni59  1  0.15664525  0.64415078  0.80890367  1
  C  C60  1  0.64841964  0.00323133  0.24947846  1
  C  C61  1  0.14820494  0.28869966  0.74814496  1
  C  C62  1  0.99493995  0.68526370  0.75332095  1
  C  C63  1  0.47756367  0.33042640  0.58391819  1
  C  C64  1  0.18241954  0.02330442  0.58434264  1
  C  C65  1  0.68816889  0.04987266  0.58544379  1
  C  C66  1  0.83904898  0.64806044  0.58589230  1
  C  C67  1  0.97683302  0.62280613  0.08363266  1
  C  C68  1  0.33932083  0.03360670  0.08730661  1
  C  C69  1  0.18556291  0.33078068  0.08301095  1
  C  C70  1  0.68134093  0.33953935  0.08646427  1
  C  C71  1  0.51712181  0.37313119  0.91407717  1
  C  C72  1  0.67060539  0.96698131  0.92113219  1
  C  C73  1  0.16992437  0.37411655  0.42092220  1
  C  C74  1  0.01457505  0.66116026  0.41583725  1
  Cu  Cu75  1  0.01197584  0.97838478  0.65035956  1
  Cu  Cu76  1  0.51149032  0.03427414  0.64810942  1
  Cu  Cu77  1  0.01094627  0.98959891  0.14643335  1
  Cu  Cu78  1  0.50610550  0.01173751  0.14692896  1
  Cu  Cu79  1  0.15840195  0.63649430  0.32427016  1
  Cu  Cu80  1  0.66518359  0.68741059  0.82213988  1
  C  C81  1  0.14918733  0.99010088  0.25151202  1
  C  C82  1  0.34833072  0.70351986  0.25142808  1
  C  C83  1  0.85702714  0.71798622  0.25126570  1
  C  C84  1  0.00673303  0.29748340  0.25195338  1
  C  C85  1  0.49881901  0.29586720  0.25077826  1
  C  C86  1  0.64749411  0.30902876  0.75227657  1
  C  C87  1  0.50658421  0.71849731  0.75132254  1
  C  C88  1  0.36109968  -0.00068824  0.75022807  1
  C  C89  1  0.84254386  0.98175335  0.75462944  1
  C  C90  1  0.98204548  0.32546211  0.58500267  1
  C  C91  1  0.33865874  0.64330415  0.58606116  1
  C  C92  1  0.48144510  0.63855907  0.08841041  1
  C  C93  1  0.83840783  0.03323410  0.08697011  1
  C  C94  1  0.31109414  0.66451284  0.91468643  1
  C  C95  1  0.81169453  0.67142553  0.91405009  1
  C  C96  1  0.01713001  0.36571052  0.91764142  1
  C  C97  1  0.16670207  0.95782472  0.91572088  1
  C  C98  1  0.31366241  0.95407287  0.41117781  1
  C  C99  1  0.81227069  0.96127994  0.41508121  1
  C  C100  1  0.66335483  0.37537372  0.41285463  1
  C  C101  1  0.51760883  0.66843819  0.41580100  1
  C  C102  1  0.10421985  0.00182174  0.30445188  1
  C  C103  1  0.61074395  0.03635991  0.31146531  1
  C  C104  1  0.39796428  0.79002354  0.30769073  1
  C  C105  1  0.90245724  0.81079141  0.30591857  1
  C  C106  1  0.48721854  0.19822502  0.30734202  1
  C  C107  1  0.99874063  0.19495864  0.30584355  1
  C  C108  1  0.10905126  0.18687509  0.81151739  1
  C  C109  1  0.60165794  0.20759518  0.80547984  1
  C  C110  1  0.49846889  0.80276013  0.80613993  1
  C  C111  1  0.97960872  0.76144413  0.81552029  1
  C  C112  1  0.40694289  0.00191931  0.80531224  1
  C  C113  1  0.89431382  -0.00128004  0.80986990  1
  C  C114  1  0.40587497  0.97659725  0.69349973  1
  C  C115  1  0.88256845  0.96121143  0.69924662  1
  C  C116  1  0.07636143  0.17909172  0.69042631  1
  C  C117  1  0.59282338  0.22477669  0.69373339  1
  C  C118  1  0.01424526  0.82109375  0.69544556  1
  C  C119  1  0.51565079  0.82102955  0.69466970  1
  C  C120  1  0.39286864  0.80724728  0.19634780  1
  C  C121  1  0.90039773  0.82582832  0.19447894  1
  C  C122  1  0.01566533  0.21589292  0.19460553  1
  C  C123  1  0.50804896  0.20370145  0.19699537  1
  C  C124  1  0.09688095  0.97064323  0.19277973  1
  C  C125  1  0.57623140  0.96839568  0.19262619  1
  C  C126  1  0.43491434  0.37966667  0.63825742  1
  C  C127  1  0.94107777  0.34123338  0.63982540  1
  C  C128  1  0.23925989  0.09985057  0.64500081  1
  C  C129  1  0.75345712  0.13437245  0.64053706  1
  C  C130  1  0.32606194  0.53993935  0.64057882  1
  C  C131  1  0.81271434  0.51157480  0.63845236  1
  C  C132  1  0.44032987  0.54036986  0.14379555  1
  C  C133  1  0.93531674  0.49199543  0.13943704  1
  C  C134  1  0.32379130  0.12297257  0.14420285  1
  C  C135  1  0.82639531  0.11034154  0.14217490  1
  C  C136  1  0.24843505  0.38870234  0.14096377  1
  C  C137  1  0.73739748  0.37558933  0.14743144  1
  C  C138  1  0.22118431  0.27625352  0.02359626  1
  C  C139  1  0.71589695  0.28656139  0.02697593  1
  C  C140  1  0.43162966  0.55468842  0.03280115  1
  C  C141  1  0.91809893  0.56017977  0.02148443  1
  C  C142  1  0.36941364  0.15203766  0.02584940  1
  C  C143  1  0.85071616  0.13642329  0.03211591  1
  C  C144  1  0.21728085  0.14353383  0.52425803  1
  C  C145  1  0.71853168  0.16428202  0.52213168  1
  C  C146  1  0.35200723  0.56642655  0.53041520  1
  C  C147  1  0.86946092  0.59122108  0.52388677  1
  C  C148  1  0.41955674  0.27803021  0.52104015  1
  C  C149  1  0.93241230  0.31263827  0.52893438  1
  C  C150  1  0.27063984  0.68532592  0.96966791  1
  C  C151  1  0.77378290  0.68535083  0.97181884  1
  C  C152  1  0.07074890  0.45278550  0.97127243  1
  C  C153  1  0.57303337  0.44142149  0.97554325  1
  C  C154  1  0.16319130  0.86313192  0.97125146  1
  C  C155  1  0.65709991  0.85072770  0.98065807  1
  C  C156  1  0.27896367  0.86252034  0.46883210  1
  C  C157  1  0.76824462  0.85298517  0.46769227  1
  C  C158  1  0.15860708  0.46706004  0.47983392  1
  C  C159  1  0.65886064  0.46229798  0.46771526  1
  C  C160  1  0.07447340  0.70823539  0.47502574  1
  C  C161  1  0.57195784  0.68982599  0.46848853  1
  C  C162  1  0.06641111  0.62306501  0.35713792  1
  C  C163  1  0.55642066  0.65183689  0.35810555  1
  C  C164  1  0.25430029  0.85976730  0.35813467  1
  C  C165  1  0.76387302  0.88181866  0.35731355  1
  C  C166  1  0.19149041  0.50636961  0.35967424  1
  C  C167  1  0.66787209  0.47176845  0.35660188  1
  C  C168  1  0.05782479  0.46100882  0.86085253  1
  C  C169  1  0.57226063  0.51655567  0.85703770  1
  C  C170  1  0.17176087  0.87115283  0.86023849  1
  C  C171  1  0.69229883  0.87732017  0.86082059  1
  C  C172  1  0.26095986  0.64988002  0.85878721  1
  C  C173  1  0.75359365  0.64697020  0.86069726  1
  C  C174  1  0.00378957  0.82690770  0.40730077  1
  C  C175  1  0.50666274  0.82206386  0.41392974  1
  C  C176  1  0.40019751  0.97119097  0.40492346  1
  C  C177  1  0.89950817  0.98242224  0.41280240  1
  C  C178  1  0.08143108  0.19086376  0.41377052  1
  C  C179  1  0.58276960  0.20055651  0.41318527  1
  C  C180  1  0.00516123  0.19049093  0.91589308  1
  C  C181  1  0.50424778  0.18268140  0.90720702  1
  C  C182  1  0.08860158  0.97472955  0.91680169  1
  C  C183  1  0.58232433  0.97358265  0.91414715  1
  C  C184  1  0.39943773  0.81840343  0.91235994  1
  C  C185  1  0.89646863  0.83022147  0.91005490  1
  C  C186  1  0.48257658  0.14851183  0.59392757  1
  C  C187  1  0.98784126  0.16754905  0.58519383  1
  C  C188  1  0.08675178  0.01275227  0.58967282  1
  C  C189  1  0.58790853  0.03009739  0.59560677  1
  C  C190  1  0.42055192  0.81692181  0.59059101  1
  C  C191  1  0.92478801  0.84610898  0.59853679  1
  C  C192  1  0.48637997  0.81036182  0.08891018  1
  C  C193  1  0.98224273  0.81639836  0.09426999  1
  C  C194  1  0.42365747  0.00246041  0.09839045  1
  C  C195  1  0.91967976  0.02299356  0.09116250  1
  C  C196  1  0.08719463  0.14759222  0.09429788  1
  C  C197  1  0.58456105  0.15744278  0.09302851  1
  C  C198  1  0.35387027  0.15243669  0.74733486  1
  C  C199  1  0.83281678  0.13069858  0.75242366  1
  C  C200  1  0.24430904  0.31161734  0.74202472  1
  C  C201  1  0.72914804  0.31716254  0.74760831  1
  C  C202  1  0.42887455  0.54876030  0.74767436  1
  C  C203  1  0.91651582  0.49080933  0.74448603  1
  C  C204  1  0.34450141  0.53740594  0.24962152  1
  C  C205  1  0.84888784  0.54898958  0.25021347  1
  C  C206  1  0.42819578  0.32954746  0.24561964  1
  C  C207  1  0.92996312  0.31314147  0.24896770  1
  C  C208  1  0.23333156  0.14703968  0.24746804  1
  C  C209  1  0.74483024  0.16926501  0.24178309  1
  C  C210  1  0.31868893  0.50927559  0.91744118  1
  C  C211  1  0.81982503  0.51765240  0.91226443  1
  C  C212  1  0.42450572  0.36595881  0.91607596  1
  C  C213  1  0.93178026  0.35283774  0.92080416  1
  C  C214  1  0.24563922  0.13239330  0.91543330  1
  C  C215  1  0.75623766  0.15797490  0.92124787  1
  C  C216  1  0.32236348  0.12433544  0.40971434  1
  C  C217  1  0.82031297  0.13158793  0.41870963  1
  C  C218  1  0.25587420  0.35633216  0.42004859  1
  C  C219  1  0.74027107  0.35640944  0.41218255  1
  C  C220  1  0.43167537  0.51130810  0.41925081  1
  C  C221  1  0.92225690  0.48289476  0.41705558  1
  C  C222  1  0.16447290  0.48247914  0.07536879  1
  C  C223  1  0.66863989  0.50469294  0.08010997  1
  C  C224  1  0.07556322  0.66865970  0.07786293  1
  C  C225  1  0.56956568  0.66709549  0.08646669  1
  C  C226  1  0.25617645  0.84501955  0.07961905  1
  C  C227  1  0.76336086  0.85838672  0.08224949  1
  C  C228  1  0.17046607  0.83283773  0.57851440  1
  C  C229  1  0.66602029  0.85377064  0.57848856  1
  C  C230  1  0.26448227  0.66852020  0.58078255  1
  C  C231  1  0.75859643  0.67744223  0.57725860  1
  C  C232  1  0.07004745  0.47785134  0.58313413  1
  C  C233  1  0.57655694  0.48410079  0.57776042  1
  C  C234  1  0.15629843  0.83419300  0.25174193  1
  C  C235  1  0.65203554  0.82525304  0.24814902  1
  C  C236  1  0.26127632  0.68722850  0.25243104  1
  C  C237  1  0.76881879  0.69606550  0.24858246  1
  C  C238  1  0.08861380  0.47356887  0.25426103  1
  C  C239  1  0.58239485  0.46309287  0.25131624  1
  C  C240  1  0.15597324  0.47593294  0.74589869  1
  C  C241  1  0.65473214  0.47946920  0.75234389  1
  C  C242  1  0.08759704  0.69132406  0.75144844  1
  C  C243  1  0.58728619  0.70657214  0.75328113  1
  C  C244  1  0.27443829  0.84270668  0.74689949  1
  C  C245  1  0.75364521  0.81254293  0.75769657  1
