# generated using pymatgen
data_Cu5NiC3
_symmetry_space_group_name_H-M   'P 1'
_cell_length_a   9.54638400
_cell_length_b   5.44812800
_cell_length_c   9.08895642
_cell_angle_alpha   60.70822428
_cell_angle_beta   90.00000000
_cell_angle_gamma   90.00000000
_symmetry_Int_Tables_number   1
_chemical_formula_structural   Cu5NiC3
_chemical_formula_sum   'Cu20 Ni4 C12'
_cell_volume   412.27422584
_cell_formula_units_Z   4
loop_
 _symmetry_equiv_pos_site_id
 _symmetry_equiv_pos_as_xyz
  1  'x, y, z'
loop_
 _atom_site_type_symbol
 _atom_site_label
 _atom_site_symmetry_multiplicity
 _atom_site_fract_x
 _atom_site_fract_y
 _atom_site_fract_z
 _atom_site_occupancy
  C  C0  1  0.27173800  0.39098600  0.23736000  1
  C  C1  1  0.77173800  0.60901400  0.26264000  1
  C  C2  1  0.72826200  0.60901400  0.76264000  1
  C  C3  1  0.22826200  0.39098600  0.73736000  1
  C  C4  1  0.89644400  0.58962300  0.81749600  1
  C  C5  1  0.39644400  0.41037700  0.68250400  1
  C  C6  1  0.16619700  0.64578900  0.23148400  1
  C  C7  1  0.66619700  0.35421100  0.26851600  1
  C  C8  1  0.83380300  0.35421100  0.76851600  1
  C  C9  1  0.33380300  0.64578900  0.73148400  1
  C  C10  1  0.10355600  0.41037700  0.18250400  1
  C  C11  1  0.60355600  0.58962300  0.31749600  1
  Ni  Ni12  1  0.96833400  0.93221000  0.28069900  1
  Ni  Ni13  1  0.46833400  0.06779000  0.21930100  1
  Ni  Ni14  1  0.03166600  0.06779000  0.71930100  1
  Ni  Ni15  1  0.53166600  0.93221000  0.78069900  1
  Cu  Cu16  1  0.11685300  0.84735900  0.30392100  1
  Cu  Cu17  1  0.03707000  0.75807300  0.81467900  1
  Cu  Cu18  1  0.46293000  0.75807300  0.31467900  1
  Cu  Cu19  1  0.53707000  0.24192700  0.68532100  1
  Cu  Cu20  1  0.59958000  0.82205500  0.67894400  1
  Cu  Cu21  1  0.09958000  0.17794500  0.82105600  1
  Cu  Cu22  1  0.40042000  0.17794500  0.32105600  1
  Cu  Cu23  1  0.90042000  0.82205500  0.17894400  1
  Cu  Cu24  1  0.31033400  0.52269800  0.67923600  1
  Cu  Cu25  1  0.81033400  0.47730200  0.82076400  1
  Cu  Cu26  1  0.68966600  0.47730200  0.32076400  1
  Cu  Cu27  1  0.18966600  0.52269800  0.17923600  1
  Cu  Cu28  1  0.88314700  0.15264100  0.69607900  1
  Cu  Cu29  1  0.38314700  0.84735900  0.80392100  1
  Cu  Cu30  1  0.89869200  0.82798800  0.44033800  1
  Cu  Cu31  1  0.39869200  0.17201200  0.05966200  1
  Cu  Cu32  1  0.10130800  0.17201200  0.55966200  1
  Cu  Cu33  1  0.60130800  0.82798800  0.94033800  1
  Cu  Cu34  1  0.96293000  0.24192700  0.18532100  1
  Cu  Cu35  1  0.61685300  0.15264100  0.19607900  1
