# generated using pymatgen
data_Cu2NiC15
_symmetry_space_group_name_H-M   'P 1'
_cell_length_a   8.48130625
_cell_length_b   8.51295320
_cell_length_c   22.12522486
_cell_angle_alpha   89.35499682
_cell_angle_beta   90.00000000
_cell_angle_gamma   119.87710194
_symmetry_Int_Tables_number   1
_chemical_formula_structural   Cu2NiC15
_chemical_formula_sum   'Cu12 Ni6 C90'
_cell_volume   1385.03648381
_cell_formula_units_Z   6
loop_
 _symmetry_equiv_pos_site_id
 _symmetry_equiv_pos_as_xyz
  1  'x, y, z'
loop_
 _atom_site_type_symbol
 _atom_site_label
 _atom_site_symmetry_multiplicity
 _atom_site_fract_x
 _atom_site_fract_y
 _atom_site_fract_z
 _atom_site_occupancy
  C  C0  1  0.98876244  0.99086037  0.50236564  1
  C  C1  1  0.00209793  0.99086037  0.00236564  1
  C  C2  1  0.66037323  0.32201688  0.83580456  1
  C  C3  1  0.66164465  0.32201688  0.33580456  1
  C  C4  1  0.32854920  0.67358758  0.16928365  1
  C  C5  1  0.34503738  0.67358758  0.66928365  1
  C  C6  1  0.99281038  0.99457155  0.64571466  1
  C  C7  1  0.00176117  0.99457155  0.14571466  1
  C  C8  1  0.66475113  0.33237607  0.97945760  1
  C  C9  1  0.66762594  0.33237607  0.47945760  1
  C  C10  1  0.33699872  0.67588984  0.31294961  1
  C  C11  1  0.33889012  0.67588984  0.81294961  1
  C  C12  1  0.00215474  0.00003230  0.35033778  1
  C  C13  1  0.99787756  0.00003230  0.85033778  1
  C  C14  1  0.66637217  0.33161757  0.68401869  1
  C  C15  1  0.66524640  0.33161757  0.18401869  1
  C  C16  1  0.31702583  0.67163209  0.01725875  1
  C  C17  1  0.35460526  0.67163209  0.51725875  1
  Ni  Ni18  1  0.29268798  0.00516066  0.24789454  1
  Ni  Ni19  1  0.71247267  0.00516066  0.74789454  1
  Ni  Ni20  1  0.66609448  0.61914855  0.58151197  1
  Ni  Ni21  1  0.95305508  0.61914855  0.08151197  1
  Ni  Ni22  1  0.32886980  0.95968065  0.91348401  1
  Ni  Ni23  1  0.63080984  0.95968065  0.41348401  1
  Cu  Cu24  1  0.71086768  0.70631863  0.24891326  1
  Cu  Cu25  1  0.99720366  0.28890751  0.24835022  1
  Cu  Cu26  1  0.29170386  0.28890751  0.74835022  1
  Cu  Cu27  1  0.99545095  0.70631863  0.74891326  1
  Cu  Cu28  1  0.96340090  0.34041584  0.58155496  1
  Cu  Cu29  1  0.37705684  0.03955553  0.58222529  1
  Cu  Cu30  1  0.66249970  0.03955553  0.08222529  1
  Cu  Cu31  1  0.37701594  0.34041584  0.08155496  1
  Cu  Cu32  1  0.62234493  0.67022032  0.91628229  1
  Cu  Cu33  1  0.04508537  0.37415753  0.91516795  1
  Cu  Cu34  1  0.32907115  0.37415753  0.41516795  1
  Cu  Cu35  1  0.04787439  0.67022032  0.41628229  1
  C  C36  1  0.21162950  0.04601313  0.30819150  1
  C  C37  1  0.82506618  0.78311300  0.30564079  1
  C  C38  1  0.95713811  0.17323149  0.30575502  1
  C  C39  1  0.21609338  0.17323149  0.80575502  1
  C  C40  1  0.95804682  0.78311300  0.80564079  1
  C  C41  1  0.83438363  0.04601313  0.80819150  1
  C  C42  1  0.80273009  0.98396676  0.69373571  1
  C  C43  1  0.18543801  0.20501286  0.69524709  1
  C  C44  1  0.02678538  0.81811365  0.69586982  1
  C  C45  1  0.79132826  0.81811365  0.19586982  1
  C  C46  1  0.01957484  0.20501286  0.19524709  1
  C  C47  1  0.18123667  0.98396676  0.19373571  1
  C  C48  1  0.88529731  0.37567107  0.63876611  1
  C  C49  1  0.49234907  0.11360053  0.63899411  1
  C  C50  1  0.62383990  0.49613186  0.64180936  1
  C  C51  1  0.87229296  0.49613186  0.14180936  1
  C  C52  1  0.62125246  0.11360053  0.13899411  1
  C  C53  1  0.49037476  0.37567107  0.13876611  1
  C  C54  1  0.45928175  0.31073011  0.02921658  1
  C  C55  1  0.84366809  0.53012986  0.02674025  1
  C  C56  1  0.68730004  0.14727553  0.02874478  1
  C  C57  1  0.45997648  0.14727553  0.52874478  1
  C  C58  1  0.68646277  0.53012986  0.52674025  1
  C  C59  1  0.85144936  0.31073011  0.52921658  1
  C  C60  1  0.54285590  0.70545620  0.97291963  1
  C  C61  1  0.16009239  0.44960551  0.97221761  1
  C  C62  1  0.28420115  0.83791493  0.97427354  1
  C  C63  1  0.55371278  0.83791493  0.47427354  1
  C  C64  1  0.28951211  0.44960551  0.47221761  1
  C  C65  1  0.16259930  0.70545620  0.47291963  1
  C  C66  1  0.12827878  0.64319745  0.36277309  1
  C  C67  1  0.51584232  0.87077405  0.36021857  1
  C  C68  1  0.35110915  0.48216784  0.36182494  1
  C  C69  1  0.13105769  0.48216784  0.86182494  1
  C  C70  1  0.35493073  0.87077405  0.86021857  1
  C  C71  1  0.51491767  0.64319745  0.86277309  1
  C  C72  1  0.03403650  0.84145832  0.41130544  1
  C  C73  1  0.82545192  0.97296062  0.40769289  1
  C  C74  1  0.16011318  0.18932000  0.41183023  1
  C  C75  1  0.02920682  0.18932000  0.91183023  1
  C  C76  1  0.14750871  0.97296062  0.90769289  1
  C  C77  1  0.80742181  0.84145832  0.91130544  1
  C  C78  1  0.99110870  0.18576732  0.58979940  1
  C  C79  1  0.19815434  0.02087544  0.59103774  1
  C  C80  1  0.82655369  0.80640959  0.58943324  1
  C  C81  1  0.97985590  0.80640959  0.08943324  1
  C  C82  1  0.82272110  0.02087544  0.09103774  1
  C  C83  1  0.19465861  0.18576732  0.08979940  1
  C  C84  1  0.69587626  0.18506075  0.74227479  1
  C  C85  1  0.47770681  0.30473688  0.74463537  1
  C  C86  1  0.82383515  0.52386083  0.74436988  1
  C  C87  1  0.70002668  0.52386083  0.24436988  1
  C  C88  1  0.82703107  0.30473688  0.24463537  1
  C  C89  1  0.48918549  0.18506075  0.24227479  1
  C  C90  1  0.64879451  0.51507705  0.92399596  1
  C  C91  1  0.86527532  0.35363796  0.92271937  1
  C  C92  1  0.48988485  0.14628439  0.92358616  1
  C  C93  1  0.65640054  0.14628439  0.42358616  1
  C  C94  1  0.48836364  0.35363796  0.42271937  1
  C  C95  1  0.86628354  0.51507705  0.42399596  1
  C  C96  1  0.36680451  0.51250291  0.07610374  1
  C  C97  1  0.14885444  0.63234805  0.07789221  1
  C  C98  1  0.49518753  0.85312229  0.07764744  1
  C  C99  1  0.35793376  0.85312229  0.57764744  1
  C  C100  1  0.48349262  0.63234805  0.57789221  1
  C  C101  1  0.14569739  0.51250291  0.57610374  1
  C  C102  1  0.31766707  0.84283321  0.25635011  1
  C  C103  1  0.52802472  0.67806827  0.25697113  1
  C  C104  1  0.15584673  0.46742087  0.25684097  1
  C  C105  1  0.31157314  0.46742087  0.75684097  1
  C  C106  1  0.15004255  0.67806827  0.75697113  1
  C  C107  1  0.52516514  0.84283321  0.75635011  1
