# generated using pymatgen
data_Cu(NiC4)2
_symmetry_space_group_name_H-M   'P 1'
_cell_length_a   6.03963551
_cell_length_b   6.69190928
_cell_length_c   6.03963523
_cell_angle_alpha   63.17516848
_cell_angle_beta   60.00000161
_cell_angle_gamma   63.17518829
_symmetry_Int_Tables_number   1
_chemical_formula_structural   Cu(NiC4)2
_chemical_formula_sum   'Cu1 Ni2 C8'
_cell_volume   180.43101470
_cell_formula_units_Z   1
loop_
 _symmetry_equiv_pos_site_id
 _symmetry_equiv_pos_as_xyz
  1  'x, y, z'
loop_
 _atom_site_type_symbol
 _atom_site_label
 _atom_site_symmetry_multiplicity
 _atom_site_fract_x
 _atom_site_fract_y
 _atom_site_fract_z
 _atom_site_occupancy
  Ni  Ni0  1  0.68765677  0.93703069  0.68765677  1
  Ni  Ni1  1  0.23265803  0.30202890  0.23265603  1
  Cu  Cu2  1  0.03091159  0.90726524  0.03091159  1
  C  C3  1  0.86396823  0.40809530  0.86396823  1
  C  C4  1  0.50497602  0.48507193  0.50497602  1
  C  C5  1  0.75031718  0.25521391  0.75031818  1
  C  C6  1  0.24415072  0.25521391  0.75031818  1
  C  C7  1  0.27916642  0.68995574  0.75171143  1
  C  C8  1  0.75031718  0.25521491  0.24414972  1
  C  C9  1  0.75171043  0.68995473  0.27916742  1
  C  C10  1  0.27916742  0.68995473  0.27916742  1
