# generated using pymatgen
data_Cu9(NiC2)2
_symmetry_space_group_name_H-M   'P 1'
_cell_length_a   5.32422000
_cell_length_b   7.80046600
_cell_length_c   9.29958856
_cell_angle_alpha   78.83153098
_cell_angle_beta   90.00000000
_cell_angle_gamma   90.00000000
_symmetry_Int_Tables_number   1
_chemical_formula_structural   Cu9(NiC2)2
_chemical_formula_sum   'Cu18 Ni4 C8'
_cell_volume   378.91053844
_cell_formula_units_Z   2
loop_
 _symmetry_equiv_pos_site_id
 _symmetry_equiv_pos_as_xyz
  1  'x, y, z'
loop_
 _atom_site_type_symbol
 _atom_site_label
 _atom_site_symmetry_multiplicity
 _atom_site_fract_x
 _atom_site_fract_y
 _atom_site_fract_z
 _atom_site_occupancy
  C  C0  1  0.25000000  0.43097300  0.71546100  1
  C  C1  1  0.75000000  0.56902700  0.28453900  1
  C  C2  1  0.75000000  0.08422200  0.26737900  1
  C  C3  1  0.25000000  0.91577800  0.73262100  1
  C  C4  1  0.75000000  0.18186100  0.96979100  1
  C  C5  1  0.25000000  0.81813900  0.03020900  1
  C  C6  1  0.75000000  0.96857800  0.00440600  1
  C  C7  1  0.25000000  0.03142200  0.99559400  1
  Ni  Ni8  1  0.75000000  0.66977200  0.85680100  1
  Ni  Ni9  1  0.25000000  0.33022800  0.14319900  1
  Ni  Ni10  1  0.25000000  0.83489900  0.38823900  1
  Ni  Ni11  1  0.75000000  0.16510100  0.61176100  1
  Cu  Cu12  1  0.52205800  0.73153300  0.76104400  1
  Cu  Cu13  1  0.02205800  0.26846700  0.23895600  1
  Cu  Cu14  1  0.47794200  0.26846700  0.23895600  1
  Cu  Cu15  1  0.97794200  0.73153300  0.76104400  1
  Cu  Cu16  1  0.75000000  0.47974600  0.88884300  1
  Cu  Cu17  1  0.25000000  0.52025400  0.11115700  1
  Cu  Cu18  1  0.75000000  0.75099300  0.98695100  1
  Cu  Cu19  1  0.25000000  0.24900700  0.01304900  1
  Cu  Cu20  1  0.52225400  0.11061000  0.70655000  1
  Cu  Cu21  1  0.02225400  0.88939000  0.29345000  1
  Cu  Cu22  1  0.47774600  0.88939000  0.29345000  1
  Cu  Cu23  1  0.97774600  0.11061000  0.70655000  1
  Cu  Cu24  1  0.75000000  0.06708400  0.48962800  1
  Cu  Cu25  1  0.25000000  0.93291600  0.51037200  1
  Cu  Cu26  1  0.75000000  0.35418600  0.56347700  1
  Cu  Cu27  1  0.25000000  0.64581400  0.43652300  1
  Cu  Cu28  1  0.75000000  0.07697400  0.04666200  1
  Cu  Cu29  1  0.25000000  0.92302600  0.95333800  1
