# generated using pymatgen
data_Cu4NiC9
_symmetry_space_group_name_H-M   'P 1'
_cell_length_a   3.16285058
_cell_length_b   7.49121639
_cell_length_c   7.57164232
_cell_angle_alpha   85.83059529
_cell_angle_beta   73.87922572
_cell_angle_gamma   82.33612940
_symmetry_Int_Tables_number   1
_chemical_formula_structural   Cu4NiC9
_chemical_formula_sum   'Cu4 Ni1 C9'
_cell_volume   170.68577209
_cell_formula_units_Z   1
loop_
 _symmetry_equiv_pos_site_id
 _symmetry_equiv_pos_as_xyz
  1  'x, y, z'
loop_
 _atom_site_type_symbol
 _atom_site_label
 _atom_site_symmetry_multiplicity
 _atom_site_fract_x
 _atom_site_fract_y
 _atom_site_fract_z
 _atom_site_occupancy
  C  C0  1  0.55032300  0.94324200  0.92279400  1
  Ni  Ni1  1  0.90064500  0.24469000  0.20016800  1
  Cu  Cu2  1  0.55533100  0.56723100  0.15980900  1
  Cu  Cu3  1  0.17982800  0.16678100  0.52304600  1
  Cu  Cu4  1  0.83551800  0.80553900  0.50122600  1
  Cu  Cu5  1  0.29488300  0.48222700  0.80268800  1
  C  C6  1  0.80079900  0.60729700  0.67873300  1
  C  C7  1  0.44719400  0.72460600  0.35514700  1
  C  C8  1  0.52110200  0.26090900  0.66018600  1
  C  C9  1  0.28256300  0.35516800  0.31070700  1
  C  C10  1  0.09680200  0.66109300  0.01757100  1
  C  C11  1  0.88204100  0.04314900  0.36805100  1
  C  C12  1  0.80612900  0.36323300  0.97368000  1
  C  C13  1  0.22183400  0.92298900  0.63730500  1
