# generated using pymatgen
data_Cu5(Ni3C2)2
_symmetry_space_group_name_H-M   'P 1'
_cell_length_a   9.83708344
_cell_length_b   9.83708344
_cell_length_c   10.13607100
_cell_angle_alpha   90.00000000
_cell_angle_beta   90.00000000
_cell_angle_gamma   119.99999625
_symmetry_Int_Tables_number   1
_chemical_formula_structural   Cu5(Ni3C2)2
_chemical_formula_sum   'Cu10 Ni12 C8'
_cell_volume   849.44057638
_cell_formula_units_Z   2
loop_
 _symmetry_equiv_pos_site_id
 _symmetry_equiv_pos_as_xyz
  1  'x, y, z'
loop_
 _atom_site_type_symbol
 _atom_site_label
 _atom_site_symmetry_multiplicity
 _atom_site_fract_x
 _atom_site_fract_y
 _atom_site_fract_z
 _atom_site_occupancy
  C  C0  1  0.58264000  0.92783000  0.75000000  1
  C  C1  1  0.07217000  0.65481000  0.75000000  1
  C  C2  1  0.34519000  0.41736000  0.75000000  1
  C  C3  1  0.41736000  0.34519000  0.25000000  1
  C  C4  1  0.65481000  0.07217000  0.25000000  1
  C  C5  1  0.00000000  0.00000000  0.00000000  1
  C  C6  1  0.00000000  0.00000000  0.50000000  1
  C  C7  1  0.92783000  0.58264000  0.25000000  1
  Ni  Ni8  1  0.16734400  0.45008600  0.41153200  1
  Ni  Ni9  1  0.28274200  0.83265600  0.41153200  1
  Ni  Ni10  1  0.54991400  0.71725800  0.41153200  1
  Ni  Ni11  1  0.71725800  0.54991400  0.58846800  1
  Ni  Ni12  1  0.28274200  0.83265600  0.08846800  1
  Ni  Ni13  1  0.16734400  0.45008600  0.08846800  1
  Ni  Ni14  1  0.83265600  0.28274200  0.91153200  1
  Ni  Ni15  1  0.45008600  0.16734400  0.91153200  1
  Ni  Ni16  1  0.45008600  0.16734400  0.58846800  1
  Ni  Ni17  1  0.83265600  0.28274200  0.58846800  1
  Ni  Ni18  1  0.71725800  0.54991400  0.91153200  1
  Ni  Ni19  1  0.54991400  0.71725800  0.08846800  1
  Cu  Cu20  1  0.25986400  0.03441500  0.75000000  1
  Cu  Cu21  1  0.33333300  0.66666700  0.54557000  1
  Cu  Cu22  1  0.33333300  0.66666700  0.95443000  1
  Cu  Cu23  1  0.66666700  0.33333300  0.04557000  1
  Cu  Cu24  1  0.66666700  0.33333300  0.45443000  1
  Cu  Cu25  1  0.03441500  0.25986400  0.25000000  1
  Cu  Cu26  1  0.22544900  0.96558500  0.25000000  1
  Cu  Cu27  1  0.74013600  0.77455100  0.25000000  1
  Cu  Cu28  1  0.96558500  0.22544900  0.75000000  1
  Cu  Cu29  1  0.77455100  0.74013600  0.75000000  1
