# generated using pymatgen
data_Cu3Ni3C28
_symmetry_space_group_name_H-M   'P 1'
_cell_length_a   8.94755006
_cell_length_b   8.93384456
_cell_length_c   23.04367469
_cell_angle_alpha   89.61594453
_cell_angle_beta   89.63911219
_cell_angle_gamma   119.90735694
_symmetry_Int_Tables_number   1
_chemical_formula_structural   Cu3Ni3C28
_chemical_formula_sum   'Cu9 Ni9 C84'
_cell_volume   1596.58832159
_cell_formula_units_Z   3
loop_
 _symmetry_equiv_pos_site_id
 _symmetry_equiv_pos_as_xyz
  1  'x, y, z'
loop_
 _atom_site_type_symbol
 _atom_site_label
 _atom_site_symmetry_multiplicity
 _atom_site_fract_x
 _atom_site_fract_y
 _atom_site_fract_z
 _atom_site_occupancy
  C  C0  1  0.00846438  0.98679465  0.85801187  1
  C  C1  1  0.01422860  0.01591870  0.64694162  1
  C  C2  1  0.99777810  0.99524519  0.13846510  1
  C  C3  1  0.68033469  0.33997234  0.97388447  1
  C  C4  1  0.66851293  0.32170046  0.47481115  1
  C  C5  1  0.34403979  0.68802666  0.02194983  1
  C  C6  1  0.33623933  0.65457480  0.52299367  1
  C  C7  1  0.34468231  0.66906371  0.31172850  1
  C  C8  1  0.34162231  0.67242266  0.80733736  1
  C  C9  1  0.00219690  0.00694364  0.35926573  1
  C  C10  1  0.67667676  0.34573730  0.69380242  1
  C  C11  1  0.67027426  0.32813308  0.18382526  1
  Ni  Ni12  1  0.28724189  0.28708211  0.75245888  1
  Ni  Ni13  1  0.00365416  0.71439543  0.74974426  1
  Ni  Ni14  1  0.94743329  0.33037530  0.58446095  1
  Ni  Ni15  1  0.95286392  0.61164200  0.08315626  1
  Ni  Ni16  1  0.66556043  0.05204241  0.08426070  1
  Ni  Ni17  1  0.61472152  0.66615149  0.91514651  1
  Ni  Ni18  1  0.34316407  0.95769612  0.91511949  1
  Ni  Ni19  1  0.61524885  0.94689042  0.41649514  1
  Ni  Ni20  1  0.34063690  0.38042187  0.41724867  1
  Cu  Cu21  1  0.28580279  0.99848973  0.25036953  1
  Cu  Cu22  1  0.71360421  0.71202660  0.24983540  1
  Cu  Cu23  1  0.00373320  0.29204858  0.25024874  1
  Cu  Cu24  1  0.71831500  0.99651782  0.75091723  1
  Cu  Cu25  1  0.37796316  0.04285138  0.58221618  1
  Cu  Cu26  1  0.67120360  0.62485985  0.58227113  1
  Cu  Cu27  1  0.37776494  0.33568690  0.08299100  1
  Cu  Cu28  1  0.05209881  0.38210127  0.91575613  1
  Cu  Cu29  1  0.04964498  0.66224423  0.41697894  1
  C  C30  1  0.20550938  0.01904751  0.30303495  1
  C  C31  1  0.81597078  0.78692022  0.30148261  1
  C  C32  1  0.97669432  0.18609473  0.30228150  1
  C  C33  1  0.17699603  0.16742844  0.80778329  1
  C  C34  1  0.98450194  0.81653415  0.80711502  1
  C  C35  1  0.81975433  0.01706112  0.80267637  1
  C  C36  1  0.79946068  0.97090107  0.69722670  1
  C  C37  1  0.16077763  0.19743374  0.69341056  1
  C  C38  1  0.02863232  0.84126128  0.69270764  1
  C  C39  1  0.79771866  0.82511612  0.19752513  1
  C  C40  1  0.03362988  0.21134037  0.19807024  1
  C  C41  1  0.17615950  0.97393507  0.19842072  1
  C  C42  1  0.86884426  0.36810167  0.64006435  1
  C  C43  1  0.48117307  0.11115387  0.63372237  1
  C  C44  1  0.62387103  0.51730294  0.63438117  1
  C  C45  1  0.88268974  0.51888095  0.14407320  1
  C  C46  1  0.61624901  0.10664973  0.14343594  1
  C  C47  1  0.47626885  0.37047343  0.13654969  1
  C  C48  1  0.45387370  0.29763961  0.03280234  1
  C  C49  1  0.82737102  0.52647321  0.02734921  1
  C  C50  1  0.69999784  0.17590875  0.02801762  1
  C  C51  1  0.46132766  0.15807347  0.52971602  1
  C  C52  1  0.69442510  0.54111605  0.53068401  1
  C  C53  1  0.82781496  0.30749899  0.52607651  1
  C  C54  1  0.51544458  0.68369561  0.97219794  1
  C  C55  1  0.15301394  0.45689121  0.96832045  1
  C  C56  1  0.30690645  0.83551121  0.97328921  1
  C  C57  1  0.50814432  0.83292578  0.47262469  1
  C  C58  1  0.31452377  0.48160451  0.47263612  1
  C  C59  1  0.15383093  0.68532854  0.46869617  1
  C  C60  1  0.12804335  0.63064892  0.36371186  1
  C  C61  1  0.48840488  0.85751780  0.35842559  1
  C  C62  1  0.36528884  0.50969237  0.35951350  1
  C  C63  1  0.12788220  0.49133167  0.86379608  1
  C  C64  1  0.36783417  0.86041859  0.86015276  1
  C  C65  1  0.49388362  0.63529068  0.85898183  1
  C  C66  1  0.03043026  0.81275802  0.40937941  1
  C  C67  1  0.79478903  0.95909073  0.40857149  1
  C  C68  1  0.18032148  0.19627609  0.40964526  1
  C  C69  1  0.02222776  0.20638955  0.90823314  1
  C  C70  1  0.17105817  0.97713951  0.90816350  1
  C  C71  1  0.80192332  0.83885099  0.90486986  1
  C  C72  1  0.97083672  0.15928910  0.59296399  1
  C  C73  1  0.20473665  0.02918106  0.58826937  1
  C  C74  1  0.82147119  0.79752989  0.58929835  1
  C  C75  1  0.98254324  0.81425837  0.09568466  1
  C  C76  1  0.84095786  0.03044596  0.09680298  1
  C  C77  1  0.20121677  0.17371870  0.09388163  1
  C  C78  1  0.69097125  0.14260387  0.74452248  1
  C  C79  1  0.46151381  0.28997477  0.74059218  1
  C  C80  1  0.83708819  0.53252380  0.74841624  1
  C  C81  1  0.67657547  0.53570165  0.24143089  1
  C  C82  1  0.85585106  0.31790684  0.24475538  1
  C  C83  1  0.45799035  0.14914178  0.24339314  1
  C  C84  1  0.64067221  0.49966141  0.92964190  1
  C  C85  1  0.87616798  0.36760309  0.92290973  1
  C  C86  1  0.50810843  0.14602172  0.92979388  1
  C  C87  1  0.62854194  0.13769851  0.42681099  1
  C  C88  1  0.51975233  0.38100661  0.43112255  1
  C  C89  1  0.87606911  0.50432957  0.42453687  1
  C  C90  1  0.34200909  0.47646067  0.07197324  1
  C  C91  1  0.14155477  0.63743709  0.06803395  1
  C  C92  1  0.51088427  0.85459318  0.07065226  1
  C  C93  1  0.34853778  0.86745282  0.57002131  1
  C  C94  1  0.51536410  0.65003966  0.57182715  1
  C  C95  1  0.14046136  0.49585887  0.56803564  1
  C  C96  1  0.29846543  0.83670473  0.25747798  1
  C  C97  1  0.53954776  0.70551391  0.25677495  1
  C  C98  1  0.16441649  0.46682811  0.25853686  1
  C  C99  1  0.29855010  0.47403346  0.76252710  1
  C  C100  1  0.18284931  0.71122840  0.76149705  1
  C  C101  1  0.54692618  0.83348743  0.75530716  1
