# generated using pymatgen
data_Cu(NiC4)2
_symmetry_space_group_name_H-M   'P 1'
_cell_length_a   6.23925002
_cell_length_b   7.13472815
_cell_length_c   6.23828124
_cell_angle_alpha   64.07608508
_cell_angle_beta   60.00513618
_cell_angle_gamma   64.32282113
_symmetry_Int_Tables_number   1
_chemical_formula_structural   Cu(NiC4)2
_chemical_formula_sum   'Cu1 Ni2 C8'
_cell_volume   207.92320210
_cell_formula_units_Z   1
loop_
 _symmetry_equiv_pos_site_id
 _symmetry_equiv_pos_as_xyz
  1  'x, y, z'
loop_
 _atom_site_type_symbol
 _atom_site_label
 _atom_site_symmetry_multiplicity
 _atom_site_fract_x
 _atom_site_fract_y
 _atom_site_fract_z
 _atom_site_occupancy
  Ni  Ni0  1  0.22206088  0.32610870  0.22591521  1
  Ni  Ni1  1  0.81150746  0.55880953  0.81484151  1
  Cu  Cu2  1  0.47400590  0.57701814  0.47448798  1
  C  C3  1  0.61276488  0.14738037  0.61992738  1
  C  C4  1  0.02991505  0.91211637  0.02898429  1
  C  C5  1  0.71153639  0.30888553  0.26236010  1
  C  C6  1  0.71153639  0.30888553  0.71721797  1
  C  C7  1  0.78840223  0.72282959  0.24438409  1
  C  C8  1  0.24762259  0.73095141  0.77991514  1
  C  C9  1  0.24762259  0.73095141  0.24151086  1
  C  C10  1  0.25760864  0.31148042  0.71545547  1
