# generated using pymatgen
data_Cu2NiC10
_symmetry_space_group_name_H-M   'P 1'
_cell_length_a   6.80611385
_cell_length_b   8.07651104
_cell_length_c   8.06718814
_cell_angle_alpha   105.25967604
_cell_angle_beta   95.00920736
_cell_angle_gamma   94.88091118
_symmetry_Int_Tables_number   1
_chemical_formula_structural   Cu2NiC10
_chemical_formula_sum   'Cu2 Ni1 C10'
_cell_volume   423.47893199
_cell_formula_units_Z   1
loop_
 _symmetry_equiv_pos_site_id
 _symmetry_equiv_pos_as_xyz
  1  'x, y, z'
loop_
 _atom_site_type_symbol
 _atom_site_label
 _atom_site_symmetry_multiplicity
 _atom_site_fract_x
 _atom_site_fract_y
 _atom_site_fract_z
 _atom_site_occupancy
  C  C0  1  0.18773861  0.03092107  0.39843861  1
  C  C1  1  0.73718795  0.98942302  0.66126109  1
  C  C2  1  0.82304635  0.59940042  0.96876900  1
  C  C3  1  0.27542150  0.33829776  0.01053794  1
  Ni  Ni4  1  0.50824149  0.92322518  0.07834171  1
  Cu  Cu5  1  0.75635599  0.42951278  0.42623558  1
  Cu  Cu6  1  0.25664692  0.57373660  0.57101966  1
  C  C7  1  0.50624789  0.37943069  0.61874775  1
  C  C8  1  0.00599933  0.62900255  0.37264084  1
  C  C9  1  0.72473660  0.19441317  0.17039149  1
  C  C10  1  0.28973562  0.82837149  0.80781605  1
  C  C11  1  0.00665754  0.37016348  0.62973792  1
  C  C12  1  0.50598421  0.62243480  0.37772936  1
