# generated using pymatgen
data_Cu2Ni5C32
_symmetry_space_group_name_H-M   'P 1'
_cell_length_a   9.00961494
_cell_length_b   9.02539104
_cell_length_c   22.52226853
_cell_angle_alpha   90.07342987
_cell_angle_beta   90.00864030
_cell_angle_gamma   119.70603638
_symmetry_Int_Tables_number   1
_chemical_formula_structural   Cu2Ni5C32
_chemical_formula_sum   'Cu6 Ni15 C96'
_cell_volume   1590.71851422
_cell_formula_units_Z   3
loop_
 _symmetry_equiv_pos_site_id
 _symmetry_equiv_pos_as_xyz
  1  'x, y, z'
loop_
 _atom_site_type_symbol
 _atom_site_label
 _atom_site_symmetry_multiplicity
 _atom_site_fract_x
 _atom_site_fract_y
 _atom_site_fract_z
 _atom_site_occupancy
  Ni  Ni0  1  0.98998469  0.62778613  0.24516487  1
  Ni  Ni1  1  0.36932272  0.01046780  0.74569392  1
  Ni  Ni2  1  0.03789796  0.69510332  0.57851577  1
  Ni  Ni3  1  0.64772600  0.96144297  0.58150978  1
  Ni  Ni4  1  0.30252211  0.96073462  0.07827067  1
  Ni  Ni5  1  0.03625295  0.35244021  0.08319278  1
  Ni  Ni6  1  0.97946935  0.67895908  0.91593841  1
  Ni  Ni7  1  0.97284473  0.29840317  0.41038659  1
  Ni  Ni8  1  0.32518576  0.02200484  0.41548977  1
  Ni  Ni9  1  0.99126403  0.98814427  0.49344191  1
  Ni  Ni10  1  0.99583633  0.00242619  0.99195630  1
  Ni  Ni11  1  0.67220906  0.32708079  0.82752009  1
  Ni  Ni12  1  0.66193472  0.32872676  0.32583908  1
  Ni  Ni13  1  0.35312678  0.65885147  0.16181843  1
  Ni  Ni14  1  0.33819240  0.64383435  0.66137169  1
  Cu  Cu15  1  0.98995254  0.99581632  0.35240810  1
  Cu  Cu16  1  0.99898966  0.00787180  0.85321002  1
  Cu  Cu17  1  0.66708794  0.33512244  0.68697671  1
  Cu  Cu18  1  0.66552476  0.33225631  0.18625427  1
  Cu  Cu19  1  0.33556646  0.66635594  0.01891075  1
  Cu  Cu20  1  0.33977220  0.66983898  0.51943013  1
  C  C21  1  0.99745693  0.00066695  0.64695584  1
  C  C22  1  0.99877532  0.00176350  0.14672452  1
  C  C23  1  0.65842036  0.33083627  0.97903459  1
  C  C24  1  0.66501828  0.33839929  0.47959429  1
  C  C25  1  0.33472464  0.66667305  0.31295563  1
  C  C26  1  0.34002341  0.66965612  0.81291385  1
  C  C27  1  0.00234239  0.29676446  0.25275678  1
  C  C28  1  0.70631086  0.99978920  0.75170829  1
  C  C29  1  0.37193995  0.04424024  0.58529693  1
  C  C30  1  0.66529630  0.62439607  0.58635905  1
  C  C31  1  0.95492427  0.62661415  0.08416689  1
  C  C32  1  0.37497627  0.33455058  0.08585887  1
  C  C33  1  0.33631581  0.96255537  0.91826824  1
  C  C34  1  0.62758042  0.96116021  0.41933729  1
  C  C35  1  0.03901428  0.66543658  0.41847975  1
  C  C36  1  0.29129197  0.99827471  0.25205172  1
  C  C37  1  0.70631357  0.71190254  0.24996591  1
  C  C38  1  0.28570705  0.29169196  0.75124283  1
  C  C39  1  0.00228670  0.70911113  0.75274050  1
  C  C40  1  0.95458893  0.32915633  0.58323376  1
  C  C41  1  0.67056521  0.04637631  0.08321003  1
  C  C42  1  0.62240342  0.66201869  0.91719779  1
  C  C43  1  0.04043501  0.37673972  0.91804098  1
  C  C44  1  0.33961994  0.38178000  0.41647037  1
  C  C45  1  0.20546891  0.01249530  0.30822741  1
  C  C46  1  0.81869663  0.79385274  0.30432844  1
  C  C47  1  0.98776877  0.19146281  0.31177123  1
  C  C48  1  0.20529378  0.17855678  0.80482917  1
  C  C49  1  0.98862252  0.79501445  0.80856730  1
  C  C50  1  0.82109011  0.01575492  0.80723758  1
  C  C51  1  0.80157180  0.97757743  0.69051829  1
  C  C52  1  0.16973987  0.19831901  0.69510887  1
  C  C53  1  0.03179397  0.83097243  0.69676085  1
  C  C54  1  0.80071928  0.82719835  0.19435470  1
  C  C55  1  0.01947842  0.19243555  0.19307345  1
  C  C56  1  0.16954636  0.97005599  0.19634218  1
  C  C57  1  0.86958411  0.35620594  0.63683888  1
  C  C58  1  0.49044528  0.12449452  0.64281457  1
  C  C59  1  0.65247220  0.51417286  0.64270837  1
  C  C60  1  0.87630261  0.50839073  0.14198598  1
  C  C61  1  0.64091072  0.12581750  0.13801147  1
  C  C62  1  0.48643795  0.35103361  0.14244046  1
  C  C63  1  0.46974915  0.29890939  0.02675251  1
  C  C64  1  0.83477670  0.52724304  0.02445519  1
  C  C65  1  0.70230191  0.16653490  0.02795440  1
  C  C66  1  0.47249080  0.16557434  0.52556749  1
  C  C67  1  0.70025021  0.53086929  0.52694731  1
  C  C68  1  0.83847257  0.29844319  0.52605501  1
  C  C69  1  0.53701322  0.68179470  0.97224093  1
  C  C70  1  0.13773866  0.45730852  0.97570982  1
  C  C71  1  0.30970137  0.85002384  0.97694296  1
  C  C72  1  0.54424949  0.85815801  0.47937612  1
  C  C73  1  0.30583701  0.46035914  0.47032027  1
  C  C74  1  0.14882870  0.68811511  0.47731903  1
  C  C75  1  0.13829369  0.63423630  0.35942705  1
  C  C76  1  0.49699436  0.85633458  0.36208607  1
  C  C77  1  0.36297617  0.49448442  0.36013501  1
  C  C78  1  0.13987184  0.49834069  0.86430391  1
  C  C79  1  0.35786477  0.85650963  0.85942235  1
  C  C80  1  0.50733865  0.63860486  0.86104125  1
  C  C81  1  0.02735720  0.83668640  0.41077441  1
  C  C82  1  0.82326280  0.00260282  0.41377267  1
  C  C83  1  0.19040073  0.19905811  0.40902945  1
  C  C84  1  0.01355847  0.19783607  0.91195050  1
  C  C85  1  0.16582020  0.97713667  0.91124238  1
  C  C86  1  0.80446199  0.80934995  0.91081480  1
  C  C87  1  0.96104539  0.15858888  0.58877416  1
  C  C88  1  0.18117631  0.02943647  0.59086449  1
  C  C89  1  0.84773499  0.81494609  0.59060461  1
  C  C90  1  0.97135021  0.81784819  0.09103140  1
  C  C91  1  0.84124433  0.03947350  0.08872315  1
  C  C92  1  0.18461742  0.15211786  0.09079939  1
  C  C93  1  0.66475309  0.15405511  0.74823094  1
  C  C94  1  0.46396970  0.31339050  0.74363656  1
  C  C95  1  0.85202244  0.53028327  0.74546461  1
  C  C96  1  0.68656275  0.53490627  0.24323653  1
  C  C97  1  0.84382573  0.33278246  0.24832449  1
  C  C98  1  0.46965682  0.14765996  0.24500888  1
  C  C99  1  0.63587604  0.49388645  0.92122768  1
  C  C100  1  0.86437654  0.37548189  0.92009154  1
  C  C101  1  0.51555272  0.14945714  0.92247225  1
  C  C102  1  0.63052288  0.14873620  0.42134136  1
  C  C103  1  0.50634332  0.36855115  0.42186783  1
  C  C104  1  0.85342784  0.48435641  0.42241050  1
  C  C105  1  0.33350725  0.48729971  0.07855959  1
  C  C106  1  0.14947649  0.65937695  0.07813110  1
  C  C107  1  0.51678938  0.86878770  0.07507991  1
  C  C108  1  0.33813842  0.85003613  0.57952322  1
  C  C109  1  0.50989920  0.66228619  0.58063528  1
  C  C110  1  0.13195325  0.48279549  0.57596895  1
  C  C111  1  0.29522502  0.82439618  0.25477201  1
  C  C112  1  0.52952357  0.70270820  0.25512891  1
  C  C113  1  0.18211616  0.48832672  0.25496154  1
  C  C114  1  0.29433772  0.46845185  0.75694822  1
  C  C115  1  0.17512577  0.70202488  0.75554357  1
  C  C116  1  0.51396790  0.81773913  0.75654557  1
