# generated using pymatgen
data_Cu2Ni2C7
_symmetry_space_group_name_H-M   'P 1'
_cell_length_a   4.76372237
_cell_length_b   5.51872150
_cell_length_c   5.51872150
_cell_angle_alpha   75.01385162
_cell_angle_beta   82.19679722
_cell_angle_gamma   97.80320278
_symmetry_Int_Tables_number   1
_chemical_formula_structural   Cu2Ni2C7
_chemical_formula_sum   'Cu2 Ni2 C7'
_cell_volume   136.62171779
_cell_formula_units_Z   1
loop_
 _symmetry_equiv_pos_site_id
 _symmetry_equiv_pos_as_xyz
  1  'x, y, z'
loop_
 _atom_site_type_symbol
 _atom_site_label
 _atom_site_symmetry_multiplicity
 _atom_site_fract_x
 _atom_site_fract_y
 _atom_site_fract_z
 _atom_site_occupancy
  Ni  Ni0  1  0.00000000  0.30830200  0.30830200  1
  Ni  Ni1  1  0.00000000  0.69169800  0.69169800  1
  Cu  Cu2  1  0.59081100  0.78080700  0.21919300  1
  Cu  Cu3  1  0.40918900  0.21919300  0.78080700  1
  C  C4  1  0.21820400  0.38928900  0.92144600  1
  C  C5  1  0.78179600  0.92144600  0.38928900  1
  C  C6  1  0.78179600  0.61071100  0.07855400  1
  C  C7  1  0.21820400  0.07855400  0.61071100  1
  C  C8  1  0.50000000  0.00000000  0.00000000  1
  C  C9  1  0.71586900  0.38965600  0.61034400  1
  C  C10  1  0.28413100  0.61034400  0.38965600  1
