# generated using pymatgen
data_Cu3Ni3C35
_symmetry_space_group_name_H-M   'P 1'
_cell_length_a   8.95779408
_cell_length_b   8.95238255
_cell_length_c   22.10878537
_cell_angle_alpha   89.82190308
_cell_angle_beta   90.12174072
_cell_angle_gamma   120.05390277
_symmetry_Int_Tables_number   1
_chemical_formula_structural   Cu3Ni3C35
_chemical_formula_sum   'Cu9 Ni9 C105'
_cell_volume   1534.60596814
_cell_formula_units_Z   3
loop_
 _symmetry_equiv_pos_site_id
 _symmetry_equiv_pos_as_xyz
  1  'x, y, z'
loop_
 _atom_site_type_symbol
 _atom_site_label
 _atom_site_symmetry_multiplicity
 _atom_site_fract_x
 _atom_site_fract_y
 _atom_site_fract_z
 _atom_site_occupancy
  C  C0  1  0.63437786  0.00529652  0.25335568  1
  C  C1  1  0.35689031  0.35616726  0.24638903  1
  C  C2  1  0.00791802  0.63512368  0.25135300  1
  C  C3  1  0.63634176  0.64123219  0.74533981  1
  C  C4  1  0.99587058  0.35754859  0.75365065  1
  C  C5  1  0.02428478  0.69721236  0.57988107  1
  C  C6  1  0.66553526  0.95899525  0.58378207  1
  C  C7  1  0.30185971  0.97578483  0.08209937  1
  C  C8  1  0.04107091  0.33378196  0.08324211  1
  C  C9  1  0.97866116  0.66682474  0.91708349  1
  C  C10  1  0.69762625  0.03709884  0.91265156  1
  C  C11  1  0.32744065  0.29425099  0.92039783  1
  C  C12  1  0.96204849  0.30083267  0.41308604  1
  C  C13  1  0.33229399  0.02256717  0.41444413  1
  C  C14  1  0.70534219  0.67322674  0.42080443  1
  C  C15  1  0.99664590  0.99526347  0.50002463  1
  C  C16  1  0.00543873  0.00378854  0.00031976  1
  C  C17  1  0.65823580  0.31188208  0.83271252  1
  C  C18  1  0.67084280  0.32675964  0.33326735  1
  C  C19  1  0.33688630  0.66053651  0.16606616  1
  C  C20  1  0.34616936  0.67144132  0.66663580  1
  C  C21  1  0.00015088  0.00105318  0.34904945  1
  C  C22  1  0.00273780  0.00767981  0.84978449  1
  C  C23  1  0.99411944  0.99760408  0.65041985  1
  C  C24  1  0.00892441  0.00717239  0.15095646  1
  C  C25  1  0.65753151  0.32659597  0.68315986  1
  C  C26  1  0.66015638  0.33029020  0.18292192  1
  C  C27  1  0.66043425  0.32789000  0.98363148  1
  C  C28  1  0.67040439  0.33835887  0.48385325  1
  C  C29  1  0.33313453  0.66124800  0.01562260  1
  C  C30  1  0.34018358  0.66730763  0.51595286  1
  C  C31  1  0.32705178  0.67177292  0.31745455  1
  C  C32  1  0.33472758  0.67985439  0.81717032  1
  Ni  Ni33  1  0.29526072  0.99952030  0.25001406  1
  Ni  Ni34  1  0.99992932  0.29607840  0.24970682  1
  Ni  Ni35  1  0.70273781  0.99979559  0.74974532  1
  Ni  Ni36  1  0.66443640  0.62654918  0.58413578  1
  Ni  Ni37  1  0.37307005  0.33738499  0.08345041  1
  Ni  Ni38  1  0.03823747  0.37256507  0.91628005  1
  Ni  Ni39  1  0.33290370  0.96039366  0.91793662  1
  Ni  Ni40  1  0.62953867  0.96257643  0.41680966  1
  Ni  Ni41  1  0.03746179  0.66597609  0.41756404  1
  Cu  Cu42  1  0.70793785  0.70748157  0.24993090  1
  Cu  Cu43  1  0.29420221  0.29237053  0.75019875  1
  Cu  Cu44  1  0.00210977  0.70694100  0.74976731  1
  Cu  Cu45  1  0.96278756  0.33414306  0.58370851  1
  Cu  Cu46  1  0.37206264  0.04150259  0.58288284  1
  Cu  Cu47  1  0.95740251  0.62742863  0.08333972  1
  Cu  Cu48  1  0.66693489  0.03651566  0.08350221  1
  Cu  Cu49  1  0.62628444  0.66656893  0.91609873  1
  Cu  Cu50  1  0.33323749  0.37437903  0.41638538  1
  C  C51  1  0.21312154  0.03001512  0.30654154  1
  C  C52  1  0.81189705  0.78283054  0.30533816  1
  C  C53  1  0.96657245  0.18237204  0.30643992  1
  C  C54  1  0.21808826  0.19105206  0.80582666  1
  C  C55  1  0.97480447  0.78706286  0.80408868  1
  C  C56  1  0.81701433  0.02966998  0.80657520  1
  C  C57  1  0.78804381  0.97164944  0.69313887  1
  C  C58  1  0.18378379  0.20857500  0.69715714  1
  C  C59  1  0.02654869  0.81209531  0.69508970  1
  C  C60  1  0.78919943  0.81854380  0.19691443  1
  C  C61  1  0.02674660  0.21220397  0.19304843  1
  C  C62  1  0.18031022  0.96542012  0.19370610  1
  C  C63  1  0.88215644  0.36176638  0.63798560  1
  C  C64  1  0.48364454  0.12222229  0.63530179  1
  C  C65  1  0.64472767  0.52016349  0.64155367  1
  C  C66  1  0.87757021  0.51891689  0.13754152  1
  C  C67  1  0.64002500  0.11755417  0.13775456  1
  C  C68  1  0.47899822  0.35824160  0.14089999  1
  C  C69  1  0.45611063  0.30685058  0.02705670  1
  C  C70  1  0.85613408  0.54600773  0.02828131  1
  C  C71  1  0.69792079  0.14679070  0.02916086  1
  C  C72  1  0.44873662  0.14143057  0.52698048  1
  C  C73  1  0.69445705  0.54421786  0.52746659  1
  C  C74  1  0.85302255  0.30296182  0.52946614  1
  C  C75  1  0.54753559  0.69786649  0.96879138  1
  C  C76  1  0.15128509  0.45392587  0.97270954  1
  C  C77  1  0.30233324  0.85134161  0.97610044  1
  C  C78  1  0.54793514  0.84932895  0.47328247  1
  C  C79  1  0.30394453  0.45502709  0.46908311  1
  C  C80  1  0.15005441  0.69471202  0.47427398  1
  C  C81  1  0.11730439  0.63295249  0.36105093  1
  C  C82  1  0.51861600  0.87976796  0.35982845  1
  C  C83  1  0.36365167  0.47992084  0.36101382  1
  C  C84  1  0.12054910  0.48341399  0.85916750  1
  C  C85  1  0.36742805  0.87728776  0.86396352  1
  C  C86  1  0.52058188  0.63491312  0.86101339  1
  C  C87  1  0.01997524  0.83077572  0.41137517  1
  C  C88  1  0.81370213  0.98478718  0.41146290  1
  C  C89  1  0.17715345  0.19851852  0.41101215  1
  C  C90  1  0.01579628  0.18785488  0.91145392  1
  C  C91  1  0.16738397  0.97741382  0.91055480  1
  C  C92  1  0.80333643  0.82181491  0.90983158  1
  C  C93  1  0.98032892  0.17787630  0.58997872  1
  C  C94  1  0.19564553  0.01885216  0.58989735  1
  C  C95  1  0.83288105  0.81152710  0.58808263  1
  C  C96  1  0.97848526  0.80299687  0.08879334  1
  C  C97  1  0.82294099  0.01916567  0.08983984  1
  C  C98  1  0.18823967  0.16928488  0.08720813  1
  C  C99  1  0.69122429  0.16732524  0.74321693  1
  C  C100  1  0.47154060  0.31845903  0.74450811  1
  C  C101  1  0.84226149  0.53143518  0.74467837  1
  C  C102  1  0.69043263  0.53290737  0.24384395  1
  C  C103  1  0.83909260  0.32026778  0.24337792  1
  C  C104  1  0.47794168  0.16398798  0.24435168  1
  C  C105  1  0.64770553  0.51154813  0.92311927  1
  C  C106  1  0.85571652  0.35495651  0.92281040  1
  C  C107  1  0.49448959  0.14596706  0.92281352  1
  C  C108  1  0.64579249  0.14448686  0.42304961  1
  C  C109  1  0.48804615  0.35322532  0.42297032  1
  C  C110  1  0.85325603  0.50365038  0.42267596  1
  C  C111  1  0.34629157  0.49566282  0.07837624  1
  C  C112  1  0.13454778  0.64736266  0.07921011  1
  C  C113  1  0.50769542  0.86569987  0.07699759  1
  C  C114  1  0.35095617  0.86351483  0.57857339  1
  C  C115  1  0.50625325  0.65353606  0.57906495  1
  C  C116  1  0.13431359  0.49303921  0.57701397  1
  C  C117  1  0.31840473  0.83821559  0.25491052  1
  C  C118  1  0.53144322  0.68515425  0.25584819  1
  C  C119  1  0.16678637  0.47680745  0.25554688  1
  C  C120  1  0.31058246  0.46803379  0.75498899  1
  C  C121  1  0.15244584  0.68046315  0.75478167  1
  C  C122  1  0.52485093  0.83177343  0.75550170  1
