# generated using pymatgen
data_Cu2NiC17
_symmetry_space_group_name_H-M   'P 1'
_cell_length_a   9.23859761
_cell_length_b   9.25722965
_cell_length_c   22.77070771
_cell_angle_alpha   89.94889773
_cell_angle_beta   90.08949607
_cell_angle_gamma   120.05615643
_symmetry_Int_Tables_number   1
_chemical_formula_structural   Cu2NiC17
_chemical_formula_sum   'Cu12 Ni6 C102'
_cell_volume   1685.57345840
_cell_formula_units_Z   6
loop_
 _symmetry_equiv_pos_site_id
 _symmetry_equiv_pos_as_xyz
  1  'x, y, z'
loop_
 _atom_site_type_symbol
 _atom_site_label
 _atom_site_symmetry_multiplicity
 _atom_site_fract_x
 _atom_site_fract_y
 _atom_site_fract_z
 _atom_site_occupancy
  C  C0  1  0.99956071  0.99551829  0.50110365  1
  C  C1  1  0.99886795  0.99785913  0.99966523  1
  C  C2  1  0.64489119  0.29594046  0.83186627  1
  C  C3  1  0.64834082  0.32918627  0.32174319  1
  C  C4  1  0.32311083  0.66599841  0.16113391  1
  C  C5  1  0.32343788  0.66217392  0.66602072  1
  C  C6  1  0.65440848  0.01412172  0.24125512  1
  C  C7  1  0.98507245  0.62278242  0.23709002  1
  C  C8  1  0.63209954  0.62026617  0.74112282  1
  C  C9  1  0.99026222  0.37147383  0.74512276  1
  C  C10  1  0.66649729  0.97729847  0.58698251  1
  C  C11  1  0.66342881  0.67894201  0.07766038  1
  C  C12  1  0.02308555  0.34525936  0.08519273  1
  C  C13  1  0.97093151  0.66702508  0.91860943  1
  C  C14  1  0.33534031  0.30588511  0.91824190  1
  C  C15  1  0.96019046  0.28375803  0.40998811  1
  C  C16  1  0.33001424  0.03040113  0.41064970  1
  C  C17  1  0.71374955  0.68848059  0.41522433  1
  C  C18  1  0.00375909  0.00256933  0.34997200  1
  C  C19  1  0.65576270  0.32961567  0.68365335  1
  C  C20  1  0.65772168  0.32818341  0.17852184  1
  C  C21  1  0.99620789  0.99992906  0.85584168  1
  C  C22  1  0.00656075  0.99521580  0.64591974  1
  C  C23  1  0.01068472  0.00288664  0.14999685  1
  C  C24  1  0.66855129  0.33184946  0.98128398  1
  C  C25  1  0.66778618  0.33804841  0.48576625  1
  C  C26  1  0.33393138  0.67554671  0.01397683  1
  C  C27  1  0.33601941  0.66457390  0.52113563  1
  C  C28  1  0.33741611  0.66643176  0.31299076  1
  C  C29  1  0.33674154  0.67570063  0.81566588  1
  Ni  Ni30  1  0.66972323  0.64021589  0.58732775  1
  Ni  Ni31  1  0.97259464  0.63804137  0.08577103  1
  Ni  Ni32  1  0.62821941  0.66333547  0.91686660  1
  Ni  Ni33  1  0.03781339  0.37375262  0.91562686  1
  Ni  Ni34  1  0.33784907  0.96783221  0.91454071  1
  Ni  Ni35  1  0.62487666  0.96856985  0.41771221  1
  Cu  Cu36  1  0.30047412  0.99182191  0.25538865  1
  Cu  Cu37  1  0.69822744  0.70344577  0.25222202  1
  Cu  Cu38  1  0.00348064  0.30467533  0.25230476  1
  Cu  Cu39  1  0.28714843  0.29665292  0.75290797  1
  Cu  Cu40  1  0.00861523  0.71097148  0.75250215  1
  Cu  Cu41  1  0.70773295  0.99115200  0.74806652  1
  Cu  Cu42  1  0.96656527  0.33036693  0.58659843  1
  Cu  Cu43  1  0.36636168  0.03296089  0.58045182  1
  Cu  Cu44  1  0.66997900  0.02883463  0.08682085  1
  Cu  Cu45  1  0.36189066  0.33648188  0.08000448  1
  Cu  Cu46  1  0.34499854  0.38072945  0.41794638  1
  Cu  Cu47  1  0.03750513  0.65446184  0.41674854  1
  C  C48  1  0.23097227  0.00308013  0.31489741  1
  C  C49  1  0.78569005  0.77990066  0.31070975  1
  C  C50  1  0.99308280  0.21458798  0.30983735  1
  C  C51  1  0.19383185  0.20186295  0.80934132  1
  C  C52  1  0.00830946  0.80671533  0.80816787  1
  C  C53  1  0.81513031  0.99087612  0.80065515  1
  C  C54  1  0.79664921  0.98233153  0.69074442  1
  C  C55  1  0.18032677  0.19401159  0.69914438  1
  C  C56  1  0.01246401  0.81622384  0.69805416  1
  C  C57  1  0.80230163  0.82354521  0.19969715  1
  C  C58  1  0.01207158  0.20354995  0.19816799  1
  C  C59  1  0.18061941  0.98637143  0.20482423  1
  C  C60  1  0.89848111  0.35326122  0.64421984  1
  C  C61  1  0.48420487  0.10181837  0.63235738  1
  C  C62  1  0.64408117  0.54496399  0.64803501  1
  C  C63  1  0.90376331  0.53032793  0.14485824  1
  C  C64  1  0.64240430  0.08580543  0.14623190  1
  C  C65  1  0.47382311  0.37075251  0.13297314  1
  C  C66  1  0.44099736  0.31104315  0.02351962  1
  C  C67  1  0.84038006  0.53668734  0.03072724  1
  C  C68  1  0.68615311  0.15342608  0.03752778  1
  C  C69  1  0.45230455  0.14091643  0.52402950  1
  C  C70  1  0.68238177  0.53365266  0.52976143  1
  C  C71  1  0.84259555  0.30662042  0.53404900  1
  C  C72  1  0.54220598  0.68691309  0.97554034  1
  C  C73  1  0.15862245  0.46472875  0.97215419  1
  C  C74  1  0.30214503  0.84269283  0.96962174  1
  C  C75  1  0.51729047  0.85182045  0.47311762  1
  C  C76  1  0.33014546  0.47281181  0.47151267  1
  C  C77  1  0.14559182  0.66092331  0.46862793  1
  C  C78  1  0.12095187  0.63629419  0.35934089  1
  C  C79  1  0.51000173  0.86899364  0.35829977  1
  C  C80  1  0.35613176  0.48609337  0.36241886  1
  C  C81  1  0.12715269  0.49427690  0.85787214  1
  C  C82  1  0.36305524  0.87707842  0.85677321  1
  C  C83  1  0.50838286  0.63732905  0.85927118  1
  C  C84  1  0.01861758  0.81002711  0.41698805  1
  C  C85  1  0.80939908  0.98777389  0.41970379  1
  C  C86  1  0.19475260  0.20336962  0.41683533  1
  C  C87  1  0.02118464  0.18965442  0.91128261  1
  C  C88  1  0.17005150  0.98659852  0.91110118  1
  C  C89  1  0.82044071  0.82002309  0.91178087  1
  C  C90  1  0.97439716  0.16556119  0.58598243  1
  C  C91  1  0.19686849  0.02817776  0.58678944  1
  C  C92  1  0.83907933  0.82938802  0.58491863  1
  C  C93  1  0.97938510  0.82093039  0.09018217  1
  C  C94  1  0.84003608  0.02674357  0.08689934  1
  C  C95  1  0.18264824  0.18024111  0.08792325  1
  C  C96  1  0.69841795  0.15074497  0.75126754  1
  C  C97  1  0.46509063  0.32542349  0.75403155  1
  C  C98  1  0.85030421  0.53736849  0.75305675  1
  C  C99  1  0.67823869  0.53098616  0.24572707  1
  C  C100  1  0.84718254  0.32343365  0.24855592  1
  C  C101  1  0.47990195  0.13207123  0.24793525  1
  C  C102  1  0.64236847  0.49338521  0.92226358  1
  C  C103  1  0.85608916  0.36121645  0.92416203  1
  C  C104  1  0.49840129  0.15365729  0.92236906  1
  C  C105  1  0.63641662  0.15281355  0.42025113  1
  C  C106  1  0.51204013  0.37720311  0.42000035  1
  C  C107  1  0.86114477  0.49364573  0.42107065  1
  C  C108  1  0.33495263  0.48956330  0.07483027  1
  C  C109  1  0.15806233  0.65975298  0.07534102  1
  C  C110  1  0.52788390  0.84744770  0.07571884  1
  C  C111  1  0.32838963  0.85103649  0.57170808  1
  C  C112  1  0.51249661  0.67852586  0.57898439  1
  C  C113  1  0.14186716  0.48032999  0.57481333  1
  C  C114  1  0.29278725  0.81745307  0.25022620  1
  C  C115  1  0.52618341  0.70152104  0.25003598  1
  C  C116  1  0.16458440  0.48158154  0.25049976  1
  C  C117  1  0.29175673  0.46896577  0.75046731  1
  C  C118  1  0.16613619  0.69067213  0.74971273  1
  C  C119  1  0.53532392  0.82593444  0.74963097  1
