# generated using pymatgen
data_CuNi3C37
_symmetry_space_group_name_H-M   'P 1'
_cell_length_a   9.12017480
_cell_length_b   9.11446416
_cell_length_c   22.51455523
_cell_angle_alpha   90.09644328
_cell_angle_beta   90.13093218
_cell_angle_gamma   120.06135881
_symmetry_Int_Tables_number   1
_chemical_formula_structural   CuNi3C37
_chemical_formula_sum   'Cu3 Ni9 C111'
_cell_volume   1619.77988760
_cell_formula_units_Z   3
loop_
 _symmetry_equiv_pos_site_id
 _symmetry_equiv_pos_as_xyz
  1  'x, y, z'
loop_
 _atom_site_type_symbol
 _atom_site_label
 _atom_site_symmetry_multiplicity
 _atom_site_fract_x
 _atom_site_fract_y
 _atom_site_fract_z
 _atom_site_occupancy
  C  C0  1  0.63814987  0.01459950  0.24572174  1
  C  C1  1  0.37696416  0.36282244  0.24617312  1
  C  C2  1  0.98762560  0.62773708  0.24955189  1
  C  C3  1  0.64040264  0.62230309  0.74781353  1
  C  C4  1  0.98249506  0.36917958  0.74344851  1
  C  C5  1  0.37123704  0.00814122  0.74434823  1
  C  C6  1  0.02640295  0.68718767  0.58526205  1
  C  C7  1  0.66777479  0.97615642  0.57974846  1
  C  C8  1  0.31737300  0.98090679  0.08464776  1
  C  C9  1  0.65966804  0.68901229  0.08462684  1
  C  C10  1  0.02608859  0.33231227  0.08027170  1
  C  C11  1  0.33411514  0.30570970  0.91901414  1
  C  C12  1  0.96984840  0.28641539  0.41509665  1
  C  C13  1  0.31707275  0.03038812  0.41362594  1
  C  C14  1  0.71327420  0.68253211  0.41348212  1
  C  C15  1  0.00852005  0.01394864  0.49024268  1
  C  C16  1  0.98524206  0.99619975  0.99589142  1
  C  C17  1  0.68857810  0.34748215  0.83321033  1
  C  C18  1  0.66522233  0.33302709  0.33239842  1
  C  C19  1  0.34001741  0.66874695  0.16482113  1
  C  C20  1  0.32286032  0.65100630  0.66294520  1
  Ni  Ni21  1  0.99054577  0.99117231  0.85453633  1
  Ni  Ni22  1  0.00649677  0.00461758  0.64632816  1
  Ni  Ni23  1  0.00025277  0.00295224  0.14832864  1
  Ni  Ni24  1  0.67146801  0.33110140  0.98005079  1
  Ni  Ni25  1  0.66841389  0.33178281  0.48130289  1
  Ni  Ni26  1  0.33707525  0.66524727  0.01667164  1
  Ni  Ni27  1  0.32959539  0.65845339  0.51759502  1
  Ni  Ni28  1  0.33334738  0.66607107  0.31704687  1
  Ni  Ni29  1  0.32799322  0.66319164  0.81573652  1
  Cu  Cu30  1  0.99854369  0.99925496  0.35318617  1
  Cu  Cu31  1  0.67327929  0.34074236  0.68268608  1
  Cu  Cu32  1  0.66214120  0.33125828  0.18099950  1
  C  C33  1  0.99953074  0.70352140  0.74864729  1
  C  C34  1  0.96359508  0.33466794  0.58650728  1
  C  C35  1  0.66456431  0.03859870  0.08718637  1
  C  C36  1  0.37335196  0.33428914  0.08491521  1
  C  C37  1  0.62955875  0.66474310  0.91625370  1
  C  C38  1  0.03483776  0.36911345  0.91599586  1
  C  C39  1  0.62746747  0.96178691  0.41781158  1
  C  C40  1  0.33400708  0.36990077  0.41483435  1
  C  C41  1  0.03789472  0.66709018  0.41702267  1
  C  C42  1  0.29389700  0.99970720  0.25176882  1
  C  C43  1  0.70659418  0.70518899  0.25141241  1
  C  C44  1  0.99965264  0.29600152  0.25152698  1
  C  C45  1  0.29253432  0.29245317  0.75176868  1
  C  C46  1  0.70697440  0.99859478  0.74914688  1
  C  C47  1  0.37512778  0.04127579  0.58568815  1
  C  C48  1  0.66531705  0.62765149  0.58643796  1
  C  C49  1  0.95885526  0.62565570  0.08580259  1
  C  C50  1  0.33384897  0.96139714  0.91661718  1
  C  C51  1  0.20627426  0.01974165  0.30607915  1
  C  C52  1  0.81369246  0.79185865  0.30625129  1
  C  C53  1  0.97639547  0.18745560  0.30584394  1
  C  C54  1  0.20829074  0.18640973  0.80773246  1
  C  C55  1  0.97928034  0.80980509  0.80354996  1
  C  C56  1  0.82525001  0.02660645  0.80261725  1
  C  C57  1  0.79129667  0.97157190  0.69325895  1
  C  C58  1  0.17254517  0.20432919  0.69792238  1
  C  C59  1  0.03147709  0.82312671  0.68968407  1
  C  C60  1  0.79394563  0.81579306  0.19488250  1
  C  C61  1  0.02328285  0.20690931  0.19496862  1
  C  C62  1  0.18317249  0.97512840  0.19478264  1
  C  C63  1  0.88323740  0.36737720  0.64518714  1
  C  C64  1  0.48041509  0.12373814  0.64133128  1
  C  C65  1  0.64033652  0.52482643  0.64241146  1
  C  C66  1  0.88807289  0.51998336  0.14247442  1
  C  C67  1  0.63062093  0.11320166  0.14705971  1
  C  C68  1  0.48884684  0.37634179  0.14363525  1
  C  C69  1  0.45878289  0.29928567  0.02639995  1
  C  C70  1  0.83979961  0.53987752  0.03229518  1
  C  C71  1  0.70520241  0.16815579  0.03119723  1
  C  C72  1  0.45899342  0.14835355  0.52932883  1
  C  C73  1  0.69110603  0.54179747  0.53067613  1
  C  C74  1  0.84310123  0.30375498  0.52708653  1
  C  C75  1  0.53779425  0.68848208  0.97549683  1
  C  C76  1  0.15247520  0.46116561  0.97489804  1
  C  C77  1  0.31044039  0.85465214  0.97249551  1
  C  C78  1  0.53678622  0.84437028  0.47608183  1
  C  C79  1  0.30379698  0.46818336  0.47008685  1
  C  C80  1  0.15907750  0.69535714  0.47477417  1
  C  C81  1  0.12452342  0.62923088  0.35817791  1
  C  C82  1  0.50430284  0.87264936  0.35872422  1
  C  C83  1  0.37119629  0.49164152  0.35541137  1
  C  C84  1  0.12905447  0.48610432  0.85714959  1
  C  C85  1  0.35424884  0.87285330  0.86092790  1
  C  C86  1  0.51093125  0.64012296  0.85760536  1
  C  C87  1  0.01874101  0.83256706  0.41225132  1
  C  C88  1  0.81290704  0.98267049  0.41262272  1
  C  C89  1  0.16822380  0.18508907  0.41098849  1
  C  C90  1  0.03694369  0.19069827  0.91110320  1
  C  C91  1  0.17854475  0.98640355  0.91043137  1
  C  C92  1  0.81686302  0.83360321  0.91292855  1
  C  C93  1  0.97127641  0.15695762  0.58887877  1
  C  C94  1  0.19181721  0.01417273  0.58862733  1
  C  C95  1  0.83238440  0.80623107  0.59007055  1
  C  C96  1  0.97693269  0.80508625  0.09126999  1
  C  C97  1  0.83162295  0.01103846  0.09044523  1
  C  C98  1  0.18322392  0.16040825  0.09038433  1
  C  C99  1  0.68203529  0.15268286  0.74536058  1
  C  C100  1  0.46699632  0.30804694  0.74481073  1
  C  C101  1  0.83075763  0.51757186  0.74861106  1
  C  C102  1  0.68624093  0.52681093  0.24583905  1
  C  C103  1  0.84555858  0.32174044  0.24496559  1
  C  C104  1  0.47275298  0.15689172  0.24689528  1
  C  C105  1  0.63125704  0.48674137  0.92166178  1
  C  C106  1  0.84847911  0.34959463  0.92037040  1
  C  C107  1  0.49194399  0.13985622  0.92158260  1
  C  C108  1  0.63632821  0.14640612  0.42215120  1
  C  C109  1  0.50677839  0.35897426  0.42268732  1
  C  C110  1  0.85145877  0.49467599  0.42313484  1
  C  C111  1  0.34097419  0.49722507  0.07759056  1
  C  C112  1  0.13921377  0.65256483  0.07597913  1
  C  C113  1  0.49445047  0.84968116  0.07783004  1
  C  C114  1  0.35750231  0.86195547  0.57981131  1
  C  C115  1  0.51675955  0.66320798  0.57948209  1
  C  C116  1  0.15008398  0.50776159  0.57956132  1
  C  C117  1  0.30666836  0.83309560  0.25278396  1
  C  C118  1  0.52755695  0.69229861  0.25234296  1
  C  C119  1  0.16708970  0.47406439  0.25238194  1
  C  C120  1  0.31034690  0.47236317  0.75463842  1
  C  C121  1  0.17563201  0.69214627  0.75303632  1
  C  C122  1  0.53188001  0.83320996  0.75518229  1
