# generated using pymatgen
data_Cu3NiC31
_symmetry_space_group_name_H-M   'P 1'
_cell_length_a   9.09700881
_cell_length_b   9.08941430
_cell_length_c   23.83281332
_cell_angle_alpha   90.15825051
_cell_angle_beta   90.08050438
_cell_angle_gamma   120.11272758
_symmetry_Int_Tables_number   1
_chemical_formula_structural   Cu3NiC31
_chemical_formula_sum   'Cu9 Ni3 C93'
_cell_volume   1704.67697974
_cell_formula_units_Z   3
loop_
 _symmetry_equiv_pos_site_id
 _symmetry_equiv_pos_as_xyz
  1  'x, y, z'
loop_
 _atom_site_type_symbol
 _atom_site_label
 _atom_site_symmetry_multiplicity
 _atom_site_fract_x
 _atom_site_fract_y
 _atom_site_fract_z
 _atom_site_occupancy
  Ni  Ni0  1  0.00248763  0.02563778  0.99905920  1
  Ni  Ni1  1  0.69049469  0.34604578  0.83446272  1
  Ni  Ni2  1  0.66334749  0.34457742  0.33533230  1
  Cu  Cu3  1  0.99800827  0.99666382  0.35806695  1
  Cu  Cu4  1  0.99915677  0.00269146  0.85405101  1
  Cu  Cu5  1  0.99478362  0.00184211  0.14853760  1
  Cu  Cu6  1  0.67016049  0.33610422  0.67865542  1
  Cu  Cu7  1  0.66900822  0.32932991  0.97833069  1
  Cu  Cu8  1  0.66328065  0.33339922  0.48798177  1
  Cu  Cu9  1  0.33391845  0.66090658  0.02605829  1
  Cu  Cu10  1  0.34160171  0.66278420  0.30959189  1
  Cu  Cu11  1  0.31885048  0.66114849  0.80717541  1
  C  C12  1  0.00125422  0.99185871  0.64413658  1
  C  C13  1  0.65873767  0.33195821  0.18236421  1
  C  C14  1  0.33084977  0.65546995  0.52255595  1
  C  C15  1  0.71460603  0.69658737  0.24965942  1
  C  C16  1  0.99328417  0.71209133  0.74808172  1
  C  C17  1  0.96799689  0.32713913  0.58352370  1
  C  C18  1  0.36393856  0.02559444  0.58285814  1
  C  C19  1  0.66609470  0.63664622  0.58330974  1
  C  C20  1  0.66722826  0.04700295  0.08387541  1
  C  C21  1  0.37581082  0.32818063  0.08251700  1
  C  C22  1  0.04176242  0.37611410  0.91674697  1
  C  C23  1  0.33732902  0.38174365  0.41779417  1
  C  C24  1  0.30444620  0.01378804  0.24931653  1
  C  C25  1  0.98257492  0.29135443  0.25016723  1
  C  C26  1  0.28786274  0.28105564  0.74642946  1
  C  C27  1  0.71655505  0.00344363  0.74678313  1
  C  C28  1  0.95079621  0.61984696  0.08546296  1
  C  C29  1  0.62357804  0.66730260  0.91582577  1
  C  C30  1  0.33217776  0.95699609  0.91656008  1
  C  C31  1  0.61378767  0.95244146  0.41890565  1
  C  C32  1  0.04956938  0.66168739  0.41855213  1
  C  C33  1  0.23249721  0.05010540  0.29960064  1
  C  C34  1  0.82617493  0.77118568  0.30253385  1
  C  C35  1  0.95277470  0.18372195  0.30023838  1
  C  C36  1  0.21027330  0.18383907  0.79792121  1
  C  C37  1  0.97232799  0.79629407  0.80041781  1
  C  C38  1  0.81767364  0.03085717  0.79835770  1
  C  C39  1  0.81097514  0.99260180  0.69674926  1
  C  C40  1  0.18029365  0.18762045  0.69620447  1
  C  C41  1  0.00249430  0.82669972  0.69502865  1
  C  C42  1  0.79757302  0.80469520  0.19829417  1
  C  C43  1  0.01282741  0.21675232  0.20004467  1
  C  C44  1  0.20329092  0.99080696  0.19915785  1
  C  C45  1  0.90025441  0.37821268  0.63368093  1
  C  C46  1  0.47952900  0.09590104  0.63377013  1
  C  C47  1  0.61768431  0.51981825  0.63368861  1
  C  C48  1  0.85500056  0.51303861  0.13670353  1
  C  C49  1  0.65996956  0.15443060  0.13775747  1
  C  C50  1  0.49275666  0.34130913  0.13754501  1
  C  C51  1  0.46208320  0.30807883  0.03135615  1
  C  C52  1  0.84993312  0.54461110  0.03481468  1
  C  C53  1  0.69647175  0.15532989  0.03202484  1
  C  C54  1  0.43333207  0.14442556  0.53266705  1
  C  C55  1  0.71402578  0.56872099  0.53251274  1
  C  C56  1  0.85301660  0.28296689  0.53235877  1
  C  C57  1  0.54195911  0.68218572  0.96729397  1
  C  C58  1  0.14173350  0.46772142  0.97018816  1
  C  C59  1  0.32263503  0.86300095  0.96777976  1
  C  C60  1  0.52268372  0.84833954  0.46911272  1
  C  C61  1  0.32601101  0.48503604  0.47116209  1
  C  C62  1  0.15343723  0.67486899  0.46949569  1
  C  C63  1  0.12889200  0.64321283  0.36742784  1
  C  C64  1  0.51342148  0.87737627  0.36744179  1
  C  C65  1  0.35962575  0.48930414  0.36610027  1
  C  C66  1  0.13338815  0.47505767  0.86299263  1
  C  C67  1  0.34643842  0.87325264  0.86523881  1
  C  C68  1  0.52779898  0.65770693  0.86457739  1
  C  C69  1  0.03939482  0.81894898  0.41580300  1
  C  C70  1  0.77945197  0.95934026  0.41460763  1
  C  C71  1  0.17171687  0.21068846  0.41363007  1
  C  C72  1  0.02177986  0.19554001  0.91595467  1
  C  C73  1  0.17675606  0.97302068  0.91436307  1
  C  C74  1  0.79798654  0.82018311  0.91453298  1
  C  C75  1  0.99957833  0.17890517  0.60001944  1
  C  C76  1  0.18157676  0.99777952  0.59860490  1
  C  C77  1  0.81702293  0.81901505  0.59846686  1
  C  C78  1  0.97305442  0.79049097  0.09210816  1
  C  C79  1  0.82307956  0.02613738  0.09137341  1
  C  C80  1  0.20295053  0.16928206  0.09109060  1
  C  C81  1  0.69350113  0.15313795  0.74079936  1
  C  C82  1  0.45715256  0.29751677  0.74044551  1
  C  C83  1  0.83637539  0.53466049  0.74047901  1
  C  C84  1  0.69272822  0.51215741  0.23765276  1
  C  C85  1  0.82607999  0.30665964  0.24192955  1
  C  C86  1  0.48139351  0.17088545  0.24131973  1
  C  C87  1  0.64018140  0.51249173  0.91757642  1
  C  C88  1  0.86246874  0.35813006  0.91626474  1
  C  C89  1  0.48387400  0.13150582  0.91727114  1
  C  C90  1  0.63855561  0.12594202  0.42472484  1
  C  C91  1  0.49482445  0.36275017  0.42542550  1
  C  C92  1  0.87786732  0.50967540  0.42414678  1
  C  C93  1  0.37104011  0.49225658  0.08344301  1
  C  C94  1  0.11347675  0.62416442  0.08476842  1
  C  C95  1  0.50051557  0.88046605  0.08275540  1
  C  C96  1  0.33280420  0.84495272  0.56580744  1
  C  C97  1  0.51448345  0.66729464  0.56784824  1
  C  C98  1  0.15107953  0.48285987  0.56761694  1
  C  C99  1  0.32952272  0.86859851  0.25725320  1
  C  C100  1  0.53513910  0.66583324  0.25752332  1
  C  C101  1  0.12712244  0.46435798  0.25789676  1
  C  C102  1  0.30026779  0.44851665  0.74870114  1
  C  C103  1  0.15941325  0.70905432  0.74901700  1
  C  C104  1  0.55252152  0.84494601  0.75047614  1
