# generated using pymatgen
data_CuNiC4
_symmetry_space_group_name_H-M   'P 1'
_cell_length_a   4.36308022
_cell_length_b   4.36294583
_cell_length_c   4.36445091
_cell_angle_alpha   81.04817370
_cell_angle_beta   81.04787333
_cell_angle_gamma   81.05107344
_symmetry_Int_Tables_number   1
_chemical_formula_structural   CuNiC4
_chemical_formula_sum   'Cu1 Ni1 C4'
_cell_volume   80.33176957
_cell_formula_units_Z   1
loop_
 _symmetry_equiv_pos_site_id
 _symmetry_equiv_pos_as_xyz
  1  'x, y, z'
loop_
 _atom_site_type_symbol
 _atom_site_label
 _atom_site_symmetry_multiplicity
 _atom_site_fract_x
 _atom_site_fract_y
 _atom_site_fract_z
 _atom_site_occupancy
  C  C0  1  0.39231879  0.39231984  0.39233062  1
  Ni  Ni1  1  0.73512211  0.73511536  0.73520112  1
  Cu  Cu2  1  0.04284231  0.04283804  0.04287558  1
  C  C3  1  0.02679441  0.02679552  0.52593719  1
  C  C4  1  0.02686084  0.52607275  0.02683074  1
  C  C5  1  0.52606154  0.02685848  0.02682474  1
