# generated using pymatgen
data_Cu5NiC12
_symmetry_space_group_name_H-M   'P 1'
_cell_length_a   6.73380967
_cell_length_b   4.93663593
_cell_length_c   6.20629507
_cell_angle_alpha   76.93558772
_cell_angle_beta   107.32742691
_cell_angle_gamma   84.06821983
_symmetry_Int_Tables_number   1
_chemical_formula_structural   Cu5NiC12
_chemical_formula_sum   'Cu5 Ni1 C12'
_cell_volume   188.59260182
_cell_formula_units_Z   1
loop_
 _symmetry_equiv_pos_site_id
 _symmetry_equiv_pos_as_xyz
  1  'x, y, z'
loop_
 _atom_site_type_symbol
 _atom_site_label
 _atom_site_symmetry_multiplicity
 _atom_site_fract_x
 _atom_site_fract_y
 _atom_site_fract_z
 _atom_site_occupancy
  C  C0  1  0.00751144  0.99325004  0.50746100  1
  C  C1  1  0.38415409  0.80420138  0.88113857  1
  Ni  Ni2  1  0.60630535  0.20854383  0.10693930  1
  Cu  Cu3  1  0.99748553  0.00242147  0.00148901  1
  Cu  Cu4  1  0.19652982  0.40209682  0.19644128  1
  Cu  Cu5  1  0.40376995  0.80266727  0.38596514  1
  Cu  Cu6  1  0.59998255  0.19906009  0.60148138  1
  Cu  Cu7  1  0.79935280  0.59661369  0.81065047  1
  C  C8  1  0.27432379  0.11339290  0.06656927  1
  C  C9  1  0.12512977  0.71955937  0.29862545  1
  C  C10  1  0.33156510  0.09375413  0.51717627  1
  C  C11  1  0.47585939  0.49418355  0.25883855  1
  C  C12  1  0.06193418  0.71024661  0.87399536  1
  C  C13  1  0.91730262  0.28547563  0.13245917  1
  C  C14  1  0.53591962  0.47762686  0.75139567  1
  C  C15  1  0.66859669  0.92060002  0.45351458  1
  C  C16  1  0.88051765  0.27757883  0.70591790  1
  C  C17  1  0.72635267  0.90706051  0.93994163  1
