# generated using pymatgen
data_CuNi5C36
_symmetry_space_group_name_H-M   'P 1'
_cell_length_a   9.06277307
_cell_length_b   9.06034269
_cell_length_c   22.05081465
_cell_angle_alpha   90.39080145
_cell_angle_beta   90.23412290
_cell_angle_gamma   119.96758375
_symmetry_Int_Tables_number   1
_chemical_formula_structural   CuNi5C36
_chemical_formula_sum   'Cu3 Ni15 C108'
_cell_volume   1568.47073230
_cell_formula_units_Z   3
loop_
 _symmetry_equiv_pos_site_id
 _symmetry_equiv_pos_as_xyz
  1  'x, y, z'
loop_
 _atom_site_type_symbol
 _atom_site_label
 _atom_site_symmetry_multiplicity
 _atom_site_fract_x
 _atom_site_fract_y
 _atom_site_fract_z
 _atom_site_occupancy
  C  C0  1  0.64279565  0.01768632  0.24666274  1
  C  C1  1  0.36892705  0.36427029  0.24126174  1
  C  C2  1  0.98942781  0.61935304  0.24294151  1
  C  C3  1  0.62717048  0.61553812  0.74722976  1
  C  C4  1  0.98939303  0.37109928  0.75123850  1
  C  C5  1  0.38579029  0.00902754  0.74732391  1
  C  C6  1  0.31146442  0.33692600  0.58861958  1
  C  C7  1  0.03392040  0.70475142  0.58172532  1
  C  C8  1  0.66174720  0.96817474  0.59137744  1
  C  C9  1  0.30845247  0.96735140  0.08067854  1
  C  C10  1  0.66278591  0.69330916  0.08001917  1
  C  C11  1  0.03186575  0.34851497  0.07995690  1
  C  C12  1  0.96264977  0.66736692  0.91483963  1
  C  C13  1  0.70420000  0.03752833  0.91455261  1
  C  C14  1  0.33315342  0.29559423  0.91502330  1
  C  C15  1  0.95920629  0.28400873  0.41316328  1
  C  C16  1  0.32054034  0.03058925  0.41708678  1
  C  C17  1  0.71536372  0.67860146  0.41711544  1
  C  C18  1  0.00087476  0.99659203  0.49718520  1
  C  C19  1  0.00047895  0.99847177  0.99479718  1
  C  C20  1  0.66735983  0.33306412  0.82902430  1
  C  C21  1  0.67868083  0.33133262  0.33194351  1
  C  C22  1  0.33027948  0.66423784  0.16114837  1
  C  C23  1  0.34113315  0.67252235  0.66994198  1
  C  C24  1  0.99896024  0.99957068  0.85247344  1
  C  C25  1  0.00155578  0.98901668  0.65104647  1
  C  C26  1  0.00690863  0.02124134  0.13938578  1
  C  C27  1  0.66835784  0.33545925  0.98108300  1
  C  C28  1  0.65289305  0.33761258  0.47846741  1
  C  C29  1  0.33403269  0.66773198  0.01656077  1
  C  C30  1  0.34434910  0.67964395  0.51725222  1
  C  C31  1  0.32163171  0.65264597  0.31934735  1
  C  C32  1  0.33438833  0.66634436  0.81325026  1
  C  C33  1  0.99670863  0.00864660  0.35733884  1
  C  C34  1  0.64833743  0.32862809  0.68857643  1
  C  C35  1  0.68112895  0.33393596  0.17157878  1
  Ni  Ni36  1  0.00004148  0.29605877  0.25257974  1
  Ni  Ni37  1  0.28358483  0.28899991  0.75147188  1
  Ni  Ni38  1  0.00331037  0.70856042  0.75205985  1
  Ni  Ni39  1  0.71014026  0.99594266  0.75051840  1
  Ni  Ni40  1  0.37409282  0.04050618  0.58429504  1
  Ni  Ni41  1  0.66489683  0.62817294  0.58500295  1
  Ni  Ni42  1  0.96442798  0.63156641  0.08451770  1
  Ni  Ni43  1  0.66187952  0.03928615  0.08408995  1
  Ni  Ni44  1  0.38211547  0.33984758  0.08500182  1
  Ni  Ni45  1  0.62276713  0.66430412  0.91644816  1
  Ni  Ni46  1  0.04225345  0.37746639  0.91587634  1
  Ni  Ni47  1  0.33585029  0.95816298  0.91645148  1
  Ni  Ni48  1  0.62031395  0.96001910  0.41497892  1
  Ni  Ni49  1  0.33371922  0.37780992  0.41914934  1
  Ni  Ni50  1  0.03775028  0.66030328  0.41836035  1
  Cu  Cu51  1  0.28913479  0.99555710  0.25095139  1
  Cu  Cu52  1  0.70599652  0.71012659  0.25075805  1
  Cu  Cu53  1  0.95966523  0.33464974  0.58230479  1
  C  C54  1  0.20460649  0.00587499  0.30671944  1
  C  C55  1  0.80561965  0.78920302  0.30673313  1
  C  C56  1  0.97384198  0.18303545  0.31191729  1
  C  C57  1  0.18356061  0.16981103  0.81039876  1
  C  C58  1  0.98001307  0.80746037  0.81079066  1
  C  C59  1  0.82786237  0.01494772  0.81067410  1
  C  C60  1  0.80674475  0.97030709  0.68999822  1
  C  C61  1  0.16534685  0.19278300  0.68996384  1
  C  C62  1  0.03036811  0.83021182  0.69108679  1
  C  C63  1  0.79340527  0.81202161  0.19601750  1
  C  C64  1  0.02609848  0.19376519  0.19220267  1
  C  C65  1  0.18580853  0.97851988  0.19570764  1
  C  C66  1  0.88589230  0.36022675  0.63762557  1
  C  C67  1  0.49499865  0.11143491  0.64317793  1
  C  C68  1  0.62436053  0.51061056  0.64359650  1
  C  C69  1  0.89760325  0.51933757  0.14504026  1
  C  C70  1  0.61906046  0.10500370  0.14588726  1
  C  C71  1  0.49056463  0.37060135  0.14644232  1
  C  C72  1  0.47215688  0.30258161  0.02669144  1
  C  C73  1  0.83227505  0.53456054  0.02693456  1
  C  C74  1  0.70213236  0.17009681  0.02714631  1
  C  C75  1  0.47474440  0.16774991  0.52489390  1
  C  C76  1  0.69395851  0.52986565  0.52477048  1
  C  C77  1  0.85404731  0.31480878  0.52724818  1
  C  C78  1  0.52869259  0.69120512  0.97574287  1
  C  C79  1  0.16401727  0.47045535  0.97573460  1
  C  C80  1  0.30773955  0.83628593  0.97542660  1
  C  C81  1  0.52127205  0.84003800  0.47413913  1
  C  C82  1  0.31183616  0.47717723  0.47696049  1
  C  C83  1  0.16000202  0.68651038  0.47681631  1
  C  C84  1  0.13321136  0.62927918  0.35792033  1
  C  C85  1  0.49574450  0.86222095  0.35506375  1
  C  C86  1  0.36377404  0.49903051  0.35830448  1
  C  C87  1  0.13473696  0.50065608  0.85714010  1
  C  C88  1  0.36657143  0.86434982  0.85750268  1
  C  C89  1  0.49914809  0.63366585  0.85709099  1
  C  C90  1  0.01890586  0.82732327  0.41212685  1
  C  C91  1  0.80396849  0.97272899  0.41613109  1
  C  C92  1  0.17312293  0.18811852  0.41643006  1
  C  C93  1  0.02245213  0.18722876  0.91297328  1
  C  C94  1  0.16577147  0.97797408  0.91321800  1
  C  C95  1  0.81203702  0.83484106  0.91359767  1
  C  C96  1  0.97506414  0.17714695  0.58362150  1
  C  C97  1  0.18561038  0.02806254  0.58641384  1
  C  C98  1  0.83928486  0.81869764  0.58630137  1
  C  C99  1  0.98026853  0.82194757  0.09214712  1
  C  C100  1  0.83815056  0.02202323  0.09007995  1
  C  C101  1  0.18784154  0.16250176  0.08890496  1
  C  C102  1  0.69604775  0.16600913  0.74889862  1
  C  C103  1  0.46880135  0.30540331  0.75187947  1
  C  C104  1  0.83661999  0.52297013  0.74708282  1
  C  C105  1  0.67778604  0.53499982  0.24799614  1
  C  C106  1  0.83465831  0.32105583  0.24696603  1
  C  C107  1  0.46051594  0.14834978  0.24950558  1
  C  C108  1  0.63951188  0.49242950  0.92288132  1
  C  C109  1  0.85369225  0.36051177  0.92281206  1
  C  C110  1  0.50751444  0.14671074  0.92352186  1
  C  C111  1  0.63518971  0.14744958  0.42137688  1
  C  C112  1  0.51203960  0.36920690  0.42106094  1
  C  C113  1  0.85261641  0.48449871  0.42242836  1
  C  C114  1  0.34798000  0.49973061  0.07715981  1
  C  C115  1  0.15630290  0.65896893  0.07510468  1
  C  C116  1  0.50256979  0.84537864  0.07525329  1
  C  C117  1  0.34173127  0.84384680  0.57549684  1
  C  C118  1  0.49695668  0.65443310  0.57634329  1
  C  C119  1  0.13541475  0.48675500  0.57767519  1
  C  C120  1  0.30458308  0.83584887  0.25088453  1
  C  C121  1  0.53412345  0.70215992  0.25200172  1
  C  C122  1  0.18292512  0.48735880  0.25362709  1
  C  C123  1  0.29494028  0.47601174  0.75411747  1
  C  C124  1  0.18081208  0.70197591  0.75433526  1
  C  C125  1  0.52351868  0.81991874  0.75410441  1
