# generated using pymatgen
data_Cu10Ni2C7
_symmetry_space_group_name_H-M   'P 1'
_cell_length_a   7.94494959
_cell_length_b   5.12178543
_cell_length_c   5.64517934
_cell_angle_alpha   95.16250544
_cell_angle_beta   92.95871460
_cell_angle_gamma   84.02053914
_symmetry_Int_Tables_number   1
_chemical_formula_structural   Cu10Ni2C7
_chemical_formula_sum   'Cu10 Ni2 C7'
_cell_volume   227.33188534
_cell_formula_units_Z   1
loop_
 _symmetry_equiv_pos_site_id
 _symmetry_equiv_pos_as_xyz
  1  'x, y, z'
loop_
 _atom_site_type_symbol
 _atom_site_label
 _atom_site_symmetry_multiplicity
 _atom_site_fract_x
 _atom_site_fract_y
 _atom_site_fract_z
 _atom_site_occupancy
  C  C0  1  0.49597673  0.99893895  0.97990674  1
  C  C1  1  0.98914446  0.02556849  0.97977296  1
  C  C2  1  0.98536865  0.43743321  0.54217235  1
  C  C3  1  0.29847408  0.91237353  0.37757280  1
  C  C4  1  0.65117073  0.51811480  0.17112743  1
  C  C5  1  0.31426721  0.50599006  0.86481292  1
  C  C6  1  0.70927308  0.05484286  0.58390479  1
  Ni  Ni7  1  0.42297344  0.68662327  0.13715665  1
  Ni  Ni8  1  0.90527004  0.18027818  0.71156622  1
  Cu  Cu9  1  0.26666373  0.17158939  0.03043736  1
  Cu  Cu10  1  0.07378186  0.85233150  0.25938384  1
  Cu  Cu11  1  0.22762003  0.29204732  0.55742830  1
  Cu  Cu12  1  0.10152700  0.72865620  0.79041567  1
  Cu  Cu13  1  0.57121240  0.20135613  0.29363267  1
  Cu  Cu14  1  0.46213476  0.84737949  0.64042504  1
  Cu  Cu15  1  0.88430813  0.31379998  0.18235214  1
  Cu  Cu16  1  0.78460590  0.68487802  0.49615834  1
  Cu  Cu17  1  0.55742860  0.30020572  0.81314093  1
  Cu  Cu18  1  0.72379819  0.80148191  0.00529985  1
