# generated using pymatgen
data_Cu(Ni2C11)3
_symmetry_space_group_name_H-M   'P 1'
_cell_length_a   9.16356760
_cell_length_b   9.16358700
_cell_length_c   22.87351401
_cell_angle_alpha   90.77149180
_cell_angle_beta   89.70877086
_cell_angle_gamma   120.12086993
_symmetry_Int_Tables_number   1
_chemical_formula_structural   Cu(Ni2C11)3
_chemical_formula_sum   'Cu3 Ni18 C99'
_cell_volume   1661.20483228
_cell_formula_units_Z   3
loop_
 _symmetry_equiv_pos_site_id
 _symmetry_equiv_pos_as_xyz
  1  'x, y, z'
loop_
 _atom_site_type_symbol
 _atom_site_label
 _atom_site_symmetry_multiplicity
 _atom_site_fract_x
 _atom_site_fract_y
 _atom_site_fract_z
 _atom_site_occupancy
  Ni  Ni0  1  0.98932971  0.35025146  0.75614044  1
  Ni  Ni1  1  0.39376139  0.02017962  0.75184817  1
  Ni  Ni2  1  0.32192290  0.33733570  0.58567662  1
  Ni  Ni3  1  0.02793010  0.70296382  0.57500817  1
  Ni  Ni4  1  0.65383262  0.96292009  0.58869720  1
  Ni  Ni5  1  0.31553261  0.97527290  0.08285647  1
  Ni  Ni6  1  0.65812025  0.68075455  0.08513337  1
  Ni  Ni7  1  0.02346339  0.33883617  0.08295965  1
  Ni  Ni8  1  0.33152305  0.29472675  0.92273227  1
  Ni  Ni9  1  0.96727729  0.29161702  0.41345061  1
  Ni  Ni10  1  0.32231191  0.03275260  0.41586869  1
  Ni  Ni11  1  0.71150693  0.67977278  0.41628163  1
  Ni  Ni12  1  0.00044798  0.99417589  0.49190996  1
  Ni  Ni13  1  0.99948266  0.99793543  0.99963912  1
  Ni  Ni14  1  0.66308102  0.31797265  0.83465186  1
  Ni  Ni15  1  0.66663978  0.33351970  0.33031065  1
  Ni  Ni16  1  0.33327932  0.66775527  0.16329799  1
  Ni  Ni17  1  0.36775087  0.67403342  0.67014167  1
  Cu  Cu18  1  0.00173577  0.99894215  0.35259480  1
  Cu  Cu19  1  0.65240934  0.33128692  0.68607369  1
  Cu  Cu20  1  0.66337538  0.33082511  0.17992758  1
  C  C21  1  0.28999828  0.29650483  0.75246852  1
  C  C22  1  0.70671066  0.99135999  0.75251906  1
  C  C23  1  0.36492927  0.02971334  0.58384876  1
  C  C24  1  0.66651741  0.63501047  0.58206459  1
  C  C25  1  0.95907072  0.62471798  0.08284855  1
  C  C26  1  0.66320684  0.02894803  0.08355116  1
  C  C27  1  0.37321588  0.33975520  0.08049241  1
  C  C28  1  0.03540072  0.37783335  0.91535629  1
  C  C29  1  0.33276177  0.96238537  0.91533294  1
  C  C30  1  0.62425002  0.96613221  0.41823316  1
  C  C31  1  0.33733664  0.38198959  0.41807888  1
  C  C32  1  0.03744215  0.65566644  0.41938363  1
  C  C33  1  0.00526346  0.01308418  0.85563092  1
  C  C34  1  0.99607280  0.99805510  0.65094531  1
  C  C35  1  0.00338520  0.00147220  0.14641292  1
  C  C36  1  0.67202642  0.31808214  0.98439306  1
  C  C37  1  0.65445083  0.33752422  0.48020844  1
  C  C38  1  0.32347846  0.66866876  0.01571212  1
  C  C39  1  0.34300429  0.67610818  0.51437959  1
  C  C40  1  0.33332180  0.66853394  0.31928340  1
  C  C41  1  0.33827745  0.66849430  0.81650734  1
  C  C42  1  0.29641844  0.98859880  0.25092664  1
  C  C43  1  0.69204438  0.70441957  0.25096926  1
  C  C44  1  0.01152783  0.30667845  0.25145092  1
  C  C45  1  0.00569143  0.71261292  0.75186126  1
  C  C46  1  0.96498510  0.33406244  0.58264904  1
  C  C47  1  0.63072562  0.66708312  0.91638711  1
  C  C48  1  0.21334475  0.00121663  0.30400166  1
  C  C49  1  0.78671218  0.78884968  0.30414378  1
  C  C50  1  0.00048104  0.21177029  0.30386965  1
  C  C51  1  0.19863949  0.17277293  0.80792585  1
  C  C52  1  0.98361692  0.79733773  0.80288819  1
  C  C53  1  0.82791565  0.00843400  0.80672880  1
  C  C54  1  0.78219028  0.96147580  0.68909407  1
  C  C55  1  0.16990073  0.21389373  0.69149064  1
  C  C56  1  0.03069423  0.81116300  0.69606110  1
  C  C57  1  0.77889354  0.80753168  0.19691119  1
  C  C58  1  0.02915559  0.21981437  0.19642167  1
  C  C59  1  0.19176465  0.96988739  0.19648857  1
  C  C60  1  0.89208923  0.36071458  0.63600058  1
  C  C61  1  0.48176943  0.09234728  0.64066404  1
  C  C62  1  0.62333279  0.51397207  0.63593878  1
  C  C63  1  0.89738324  0.50847840  0.13860526  1
  C  C64  1  0.60095699  0.08922116  0.13864773  1
  C  C65  1  0.49124784  0.39269787  0.13628616  1
  C  C66  1  0.44984414  0.29281114  0.02121945  1
  C  C67  1  0.82900667  0.54441441  0.02606292  1
  C  C68  1  0.72209235  0.15717057  0.02701349  1
  C  C69  1  0.44739444  0.15419523  0.52551288  1
  C  C70  1  0.71396593  0.55922170  0.52231832  1
  C  C71  1  0.85781183  0.30734331  0.53013069  1
  C  C72  1  0.55650440  0.69669599  0.96977016  1
  C  C73  1  0.16382017  0.46018614  0.97110913  1
  C  C74  1  0.30974702  0.85426712  0.97390488  1
  C  C75  1  0.55106469  0.85395836  0.47755924  1
  C  C76  1  0.30199260  0.45988279  0.47819673  1
  C  C77  1  0.14992847  0.68713605  0.47867583  1
  C  C78  1  0.12078645  0.61417453  0.36193474  1
  C  C79  1  0.49391725  0.88236477  0.36215965  1
  C  C80  1  0.38103967  0.50880523  0.36226618  1
  C  C81  1  0.12485398  0.48729856  0.85564207  1
  C  C82  1  0.36277773  0.87792237  0.85569820  1
  C  C83  1  0.52069242  0.63827845  0.86392745  1
  C  C84  1  0.01726519  0.82029797  0.41622880  1
  C  C85  1  0.80944579  0.98906711  0.41380877  1
  C  C86  1  0.17581629  0.19524626  0.41560895  1
  C  C87  1  0.02535423  0.19091669  0.91392264  1
  C  C88  1  0.15943966  0.97911599  0.91103020  1
  C  C89  1  0.80119272  0.81753523  0.91004982  1
  C  C90  1  0.98056284  0.17836798  0.58511976  1
  C  C91  1  0.17665633  0.01833088  0.59030980  1
  C  C92  1  0.83858718  0.82745406  0.58709872  1
  C  C93  1  0.97999439  0.81733142  0.09039946  1
  C  C94  1  0.83599989  0.01302338  0.09232958  1
  C  C95  1  0.18240209  0.16462430  0.08909177  1
  C  C96  1  0.70077420  0.16506728  0.75227795  1
  C  C97  1  0.47026177  0.30954270  0.75248427  1
  C  C98  1  0.86437849  0.54106891  0.74702639  1
  C  C99  1  0.67221268  0.53627015  0.24719722  1
  C  C100  1  0.86256370  0.32506502  0.24776837  1
  C  C101  1  0.46386498  0.13761993  0.24765114  1
  C  C102  1  0.63926174  0.51074997  0.92020837  1
  C  C103  1  0.85089921  0.36351926  0.92088873  1
  C  C104  1  0.49517013  0.15799492  0.92048719  1
  C  C105  1  0.63562916  0.15120474  0.42450252  1
  C  C106  1  0.51221308  0.37146528  0.41998641  1
  C  C107  1  0.85335610  0.47964820  0.42402896  1
  C  C108  1  0.34148617  0.49952482  0.07000516  1
  C  C109  1  0.15389788  0.66140674  0.07397491  1
  C  C110  1  0.50723435  0.83621876  0.06993094  1
  C  C111  1  0.32839326  0.83416424  0.57527413  1
  C  C112  1  0.49681214  0.65559925  0.57560320  1
  C  C113  1  0.13718497  0.48398061  0.57704377  1
  C  C114  1  0.30411848  0.82691542  0.25140675  1
  C  C115  1  0.52133715  0.69521869  0.25193589  1
  C  C116  1  0.17306035  0.47692836  0.25213272  1
  C  C117  1  0.28877052  0.47792945  0.75654235  1
  C  C118  1  0.16734436  0.70723620  0.75479359  1
  C  C119  1  0.51213562  0.82598537  0.75615121  1
