# generated using pymatgen
data_Cu2Ni10C7
_symmetry_space_group_name_H-M   'P 1'
_cell_length_a   5.00002066
_cell_length_b   7.51853481
_cell_length_c   5.67004069
_cell_angle_alpha   95.77022745
_cell_angle_beta   95.74941874
_cell_angle_gamma   87.30025478
_symmetry_Int_Tables_number   1
_chemical_formula_structural   Cu2Ni10C7
_chemical_formula_sum   'Cu2 Ni10 C7'
_cell_volume   210.85833990
_cell_formula_units_Z   1
loop_
 _symmetry_equiv_pos_site_id
 _symmetry_equiv_pos_as_xyz
  1  'x, y, z'
loop_
 _atom_site_type_symbol
 _atom_site_label
 _atom_site_symmetry_multiplicity
 _atom_site_fract_x
 _atom_site_fract_y
 _atom_site_fract_z
 _atom_site_occupancy
  C  C0  1  0.00258200  0.83506200  0.34679600  1
  C  C1  1  0.50269900  0.00522900  0.48441800  1
  C  C2  1  0.51503300  0.66146300  0.14977000  1
  C  C3  1  0.52396300  0.33497200  0.81874800  1
  C  C4  1  0.96977600  0.64768800  0.72144600  1
  C  C5  1  0.98456000  0.32157200  0.34504800  1
  C  C6  1  0.00432500  0.00238200  0.95987500  1
  Ni  Ni7  1  0.79721000  0.42780300  0.65505100  1
  Ni  Ni8  1  0.82845500  0.77967000  0.99762200  1
  Ni  Ni9  1  0.86052500  0.08702200  0.26422400  1
  Ni  Ni10  1  0.69914200  0.09782100  0.77756300  1
  Ni  Ni11  1  0.67198400  0.76261600  0.46387100  1
  Ni  Ni12  1  0.69432400  0.42400000  0.12913800  1
  Ni  Ni13  1  0.31575200  0.55275800  0.87151200  1
  Ni  Ni14  1  0.32141600  0.23849400  0.51667500  1
  Ni  Ni15  1  0.31077600  0.89526800  0.18551100  1
  Ni  Ni16  1  0.14541400  0.87344500  0.69266300  1
  Cu  Cu17  1  0.13935900  0.57176000  0.37901000  1
  Cu  Cu18  1  0.21270700  0.22205300  0.99105700  1
