# generated using pymatgen
data_Cu8NiC3
_symmetry_space_group_name_H-M   'P 1'
_cell_length_a   9.03664413
_cell_length_b   9.00697063
_cell_length_c   23.65110835
_cell_angle_alpha   90.43149476
_cell_angle_beta   90.29851155
_cell_angle_gamma   119.92929938
_symmetry_Int_Tables_number   1
_chemical_formula_structural   Cu8NiC3
_chemical_formula_sum   'Cu72 Ni9 C27'
_cell_volume   1668.17439287
_cell_formula_units_Z   9
loop_
 _symmetry_equiv_pos_site_id
 _symmetry_equiv_pos_as_xyz
  1  'x, y, z'
loop_
 _atom_site_type_symbol
 _atom_site_label
 _atom_site_symmetry_multiplicity
 _atom_site_fract_x
 _atom_site_fract_y
 _atom_site_fract_z
 _atom_site_occupancy
  C  C0  1  0.98577752  0.98261622  0.49562906  1
  C  C1  1  0.00492109  0.98869469  0.00123557  1
  C  C2  1  0.65404510  0.31690649  0.82914261  1
  C  C3  1  0.67047847  0.32233990  0.33513593  1
  C  C4  1  0.31769215  0.66136917  0.17421340  1
  C  C5  1  0.34578156  0.66205647  0.66422803  1
  C  C6  1  0.00188831  0.00398877  0.35409008  1
  C  C7  1  0.01336339  0.01172177  0.84966696  1
  C  C8  1  0.98620682  0.00079832  0.64710309  1
  C  C9  1  0.00997639  0.99732298  0.15138415  1
  C  C10  1  0.65186218  0.33182724  0.68708519  1
  C  C11  1  0.68227839  0.33524424  0.19164133  1
  C  C12  1  0.66480344  0.33577691  0.98104969  1
  C  C13  1  0.68034594  0.34684991  0.47664837  1
  C  C14  1  0.31967836  0.67540506  0.02080697  1
  C  C15  1  0.34868185  0.67973989  0.51615270  1
  C  C16  1  0.31903751  0.67646853  0.31386717  1
  C  C17  1  0.34870104  0.68197469  0.80962228  1
  C  C18  1  0.29540168  0.00463399  0.25140578  1
  C  C19  1  0.00938948  0.29133085  0.25048047  1
  C  C20  1  0.28949600  0.29254204  0.74877747  1
  C  C21  1  0.71411939  0.00797615  0.75079391  1
  C  C22  1  0.66422193  0.62460811  0.58334433  1
  C  C23  1  0.95275764  0.62690982  0.08397426  1
  C  C24  1  0.33080048  0.96057912  0.91599417  1
  C  C25  1  0.62786871  0.96030393  0.41536188  1
  C  C26  1  0.04531643  0.67255247  0.41804492  1
  Ni  Ni27  1  0.70823573  0.71088509  0.24981222  1
  Ni  Ni28  1  -0.00027292  0.70982891  0.74961662  1
  Ni  Ni29  1  0.95756796  0.33619374  0.58382134  1
  Ni  Ni30  1  0.37442582  0.04268391  0.58281177  1
  Ni  Ni31  1  0.66830598  0.04363064  0.08276062  1
  Ni  Ni32  1  0.37645586  0.33466912  0.08303808  1
  Ni  Ni33  1  0.62305501  0.66758686  0.91756027  1
  Ni  Ni34  1  0.04273483  0.37713225  0.91672761  1
  Ni  Ni35  1  0.33423274  0.37826604  0.41636181  1
  Cu  Cu36  1  0.20098046  0.02789333  0.30560375  1
  Cu  Cu37  1  0.81496429  0.78648071  0.30050849  1
  Cu  Cu38  1  0.97164320  0.17074380  0.30498859  1
  Cu  Cu39  1  0.20513327  0.17386827  0.80550202  1
  Cu  Cu40  1  0.97356014  0.78832551  0.80143788  1
  Cu  Cu41  1  0.82659994  0.02393344  0.80736394  1
  Cu  Cu42  1  0.79741995  0.96970166  0.69525989  1
  Cu  Cu43  1  0.17324736  0.19698274  0.69356687  1
  Cu  Cu44  1  0.02760550  0.81477756  0.69936067  1
  Cu  Cu45  1  0.78918181  0.81435317  0.19819166  1
  Cu  Cu46  1  0.02100425  0.19529429  0.19234752  1
  Cu  Cu47  1  0.17548965  0.96937363  0.19384624  1
  Cu  Cu48  1  0.87486724  0.35561403  0.63491263  1
  Cu  Cu49  1  0.48140663  0.12167979  0.63500125  1
  Cu  Cu50  1  0.64454477  0.50705333  0.63919665  1
  Cu  Cu51  1  0.86075254  0.50514583  0.13749473  1
  Cu  Cu52  1  0.63655332  0.11884751  0.13337964  1
  Cu  Cu53  1  0.48028616  0.35912243  0.13341981  1
  Cu  Cu54  1  0.45729147  0.30731857  0.03124238  1
  Cu  Cu55  1  0.83870842  0.52826896  0.02680700  1
  Cu  Cu56  1  0.68672606  0.14793659  0.03163209  1
  Cu  Cu57  1  0.45522690  0.14556642  0.53300176  1
  Cu  Cu58  1  0.68807596  0.52787555  0.52864188  1
  Cu  Cu59  1  0.85085463  0.30589326  0.53255784  1
  Cu  Cu60  1  0.54041487  0.68779608  0.96838750  1
  Cu  Cu61  1  0.14945859  0.45711670  0.96843337  1
  Cu  Cu62  1  0.30892919  0.84133059  0.97196038  1
  Cu  Cu63  1  0.53940907  0.84168110  0.47202632  1
  Cu  Cu64  1  0.30979910  0.45788577  0.46826755  1
  Cu  Cu65  1  0.15977047  0.68978082  0.47420952  1
  Cu  Cu66  1  0.12609515  0.63421881  0.36183332  1
  Cu  Cu67  1  0.50784118  0.86396515  0.36057954  1
  Cu  Cu68  1  0.36081816  0.48050914  0.36577967  1
  Cu  Cu69  1  0.12040988  0.47957211  0.86641732  1
  Cu  Cu70  1  0.35719024  0.86381387  0.86191971  1
  Cu  Cu71  1  0.51714316  0.63767372  0.86606032  1
  Cu  Cu72  1  0.02503593  0.84010508  0.41079342  1
  Cu  Cu73  1  0.81696037  0.98200839  0.41037945  1
  Cu  Cu74  1  0.18059889  0.20641203  0.41205011  1
  Cu  Cu75  1  0.02235166  0.20316556  0.91217584  1
  Cu  Cu76  1  0.15854894  0.97591364  0.91117188  1
  Cu  Cu77  1  0.79462055  0.81862092  0.91141229  1
  Cu  Cu78  1  0.97554036  0.17958017  0.58898876  1
  Cu  Cu79  1  0.20349259  0.02439427  0.59068788  1
  Cu  Cu80  1  0.83846563  0.81345970  0.59049268  1
  Cu  Cu81  1  0.97453426  0.81736429  0.08737995  1
  Cu  Cu82  1  0.82014472  0.02588407  0.08756179  1
  Cu  Cu83  1  0.20403248  0.18142397  0.08678035  1
  Cu  Cu84  1  0.69585694  0.17653254  0.74251188  1
  Cu  Cu85  1  0.48043217  0.31419352  0.74423525  1
  Cu  Cu86  1  0.84795679  0.53736649  0.74360898  1
  Cu  Cu87  1  0.69118587  0.53763672  0.24210493  1
  Cu  Cu88  1  0.83796086  0.31334678  0.24328999  1
  Cu  Cu89  1  0.48076389  0.17527424  0.23957729  1
  Cu  Cu90  1  0.64035747  0.51046695  0.92343535  1
  Cu  Cu91  1  0.86980024  0.35762800  0.92454741  1
  Cu  Cu92  1  0.50250483  0.14922990  0.92562080  1
  Cu  Cu93  1  0.63834086  0.14502107  0.42613302  1
  Cu  Cu94  1  0.48566220  0.35569921  0.42395965  1
  Cu  Cu95  1  0.85418606  0.50043681  0.42328638  1
  Cu  Cu96  1  0.36070568  0.48975179  0.07377666  1
  Cu  Cu97  1  0.14369660  0.64235751  0.07568987  1
  Cu  Cu98  1  0.51471817  0.86875132  0.07479726  1
  Cu  Cu99  1  0.35640650  0.86927008  0.57872782  1
  Cu  Cu100  1  0.49264991  0.64218838  0.57842221  1
  Cu  Cu101  1  0.12844925  0.48733922  0.57813291  1
  Cu  Cu102  1  0.31684108  0.83517696  0.25386175  1
  Cu  Cu103  1  0.53828408  0.69022065  0.25490796  1
  Cu  Cu104  1  0.17932830  0.47831099  0.25509436  1
  Cu  Cu105  1  0.30527344  0.47895923  0.75983771  1
  Cu  Cu106  1  0.15233120  0.68975208  0.75734568  1
  Cu  Cu107  1  0.52294606  0.83594894  0.75669059  1
