# generated using pymatgen
data_CuNiC3
_symmetry_space_group_name_H-M   'P 1'
_cell_length_a   5.50072650
_cell_length_b   4.00564175
_cell_length_c   5.72665212
_cell_angle_alpha   111.01723910
_cell_angle_beta   90.00001018
_cell_angle_gamma   133.36331169
_symmetry_Int_Tables_number   1
_chemical_formula_structural   CuNiC3
_chemical_formula_sum   'Cu1 Ni1 C3'
_cell_volume   79.79580498
_cell_formula_units_Z   1
loop_
 _symmetry_equiv_pos_site_id
 _symmetry_equiv_pos_as_xyz
  1  'x, y, z'
loop_
 _atom_site_type_symbol
 _atom_site_label
 _atom_site_symmetry_multiplicity
 _atom_site_fract_x
 _atom_site_fract_y
 _atom_site_fract_z
 _atom_site_occupancy
  C  C0  1  0.84965504  -0.00000001  0.49999999  1
  Ni  Ni1  1  0.34929932  -0.00000001  0.49999999  1
  Cu  Cu2  1  0.10215093  0.00000000  0.00000000  1
  C  C3  1  0.28279261  0.36679053  0.36298725  1
  C  C4  1  0.91600209  0.63320948  0.63701276  1
