# generated using pymatgen
data_CuNi5C13
_symmetry_space_group_name_H-M   'P 1'
_cell_length_a   7.40712902
_cell_length_b   5.79207233
_cell_length_c   5.62244823
_cell_angle_alpha   74.20542978
_cell_angle_beta   71.05348327
_cell_angle_gamma   68.76737502
_symmetry_Int_Tables_number   1
_chemical_formula_structural   CuNi5C13
_chemical_formula_sum   'Cu1 Ni5 C13'
_cell_volume   209.36642437
_cell_formula_units_Z   1
loop_
 _symmetry_equiv_pos_site_id
 _symmetry_equiv_pos_as_xyz
  1  'x, y, z'
loop_
 _atom_site_type_symbol
 _atom_site_label
 _atom_site_symmetry_multiplicity
 _atom_site_fract_x
 _atom_site_fract_y
 _atom_site_fract_z
 _atom_site_occupancy
  C  C0  1  0.50600200  0.49419300  0.99454000  1
  Ni  Ni1  1  0.85957800  0.65748800  0.65398600  1
  Ni  Ni2  1  0.69197400  0.30758900  0.37828600  1
  Ni  Ni3  1  0.31546600  0.68112600  0.61629900  1
  Ni  Ni4  1  0.15024400  0.33392800  0.33483400  1
  Ni  Ni5  1  0.00425500  0.99604100  0.99553000  1
  Cu  Cu6  1  0.50327100  0.99438600  0.99772200  1
  C  C7  1  0.66850100  0.02092000  0.62671100  1
  C  C8  1  0.31919200  0.35385300  0.95152200  1
  C  C9  1  0.97573500  0.21129200  0.23786800  1
  C  C10  1  0.31206600  0.85648800  0.90589300  1
  C  C11  1  0.62371200  0.54241400  0.60343700  1
  C  C12  1  0.69716400  0.13349700  0.08559900  1
  C  C13  1  0.03116000  0.78270200  0.75364800  1
  C  C14  1  0.38659300  0.44827400  0.38645600  1
  C  C15  1  0.01352700  0.30019200  0.69823100  1
  C  C16  1  0.69045400  0.63852800  0.03704200  1
  C  C17  1  0.33858300  0.96996100  0.36673700  1
  C  C18  1  0.99585700  0.69379500  0.29232500  1
