# generated using pymatgen
data_Cu2Ni4C9
_symmetry_space_group_name_H-M   'P 1'
_cell_length_a   5.76765100
_cell_length_b   7.78231000
_cell_length_c   8.24779400
_cell_angle_alpha   90.00000000
_cell_angle_beta   90.00000000
_cell_angle_gamma   90.00000000
_symmetry_Int_Tables_number   1
_chemical_formula_structural   Cu2Ni4C9
_chemical_formula_sum   'Cu4 Ni8 C18'
_cell_volume   370.20757870
_cell_formula_units_Z   2
loop_
 _symmetry_equiv_pos_site_id
 _symmetry_equiv_pos_as_xyz
  1  'x, y, z'
loop_
 _atom_site_type_symbol
 _atom_site_label
 _atom_site_symmetry_multiplicity
 _atom_site_fract_x
 _atom_site_fract_y
 _atom_site_fract_z
 _atom_site_occupancy
  Ni  Ni0  1  0.50000000  0.14769000  0.83945000  1
  Ni  Ni1  1  0.50000000  0.85231000  0.16055000  1
  Ni  Ni2  1  0.50000000  0.64769000  0.66055000  1
  Ni  Ni3  1  0.50000000  0.35231000  0.33945000  1
  Ni  Ni4  1  0.26112600  0.00000000  0.50000000  1
  Ni  Ni5  1  0.73887400  0.50000000  0.00000000  1
  Ni  Ni6  1  0.73887400  0.00000000  0.50000000  1
  Ni  Ni7  1  0.26112600  0.50000000  0.00000000  1
  Cu  Cu8  1  0.00000000  0.32950200  0.66959000  1
  Cu  Cu9  1  0.00000000  0.67049800  0.33041000  1
  Cu  Cu10  1  0.00000000  0.82950200  0.83041000  1
  Cu  Cu11  1  0.00000000  0.17049800  0.16959000  1
  C  C12  1  0.00000000  0.35572200  0.93547700  1
  C  C13  1  0.00000000  0.64427800  0.06452300  1
  C  C14  1  0.00000000  0.85572200  0.56452300  1
  C  C15  1  0.00000000  0.14427800  0.43547700  1
  C  C16  1  0.50000000  0.36113700  0.91547800  1
  C  C17  1  0.50000000  0.63886300  0.08452200  1
  C  C18  1  0.50000000  0.86113700  0.58452200  1
  C  C19  1  0.50000000  0.13886300  0.41547800  1
  C  C20  1  0.25167300  0.87688200  0.29169400  1
  C  C21  1  0.25167300  0.12311800  0.70830600  1
  C  C22  1  0.74832700  0.37688200  0.20830600  1
  C  C23  1  0.74832700  0.62311800  0.79169400  1
  C  C24  1  0.50000000  0.00000000  0.00000000  1
  C  C25  1  0.50000000  0.50000000  0.50000000  1
  C  C26  1  0.25167300  0.37688200  0.20830600  1
  C  C27  1  0.25167300  0.62311800  0.79169400  1
  C  C28  1  0.74832700  0.87688200  0.29169400  1
  C  C29  1  0.74832700  0.12311800  0.70830600  1
