# generated using pymatgen
data_Cu11NiC62
_symmetry_space_group_name_H-M   'P 1'
_cell_length_a   17.66670498
_cell_length_b   8.85850557
_cell_length_c   22.82530495
_cell_angle_alpha   90.40153263
_cell_angle_beta   89.64812694
_cell_angle_gamma   120.11742782
_symmetry_Int_Tables_number   1
_chemical_formula_structural   Cu11NiC62
_chemical_formula_sum   'Cu33 Ni3 C186'
_cell_volume   3089.83626451
_cell_formula_units_Z   3
loop_
 _symmetry_equiv_pos_site_id
 _symmetry_equiv_pos_as_xyz
  1  'x, y, z'
loop_
 _atom_site_type_symbol
 _atom_site_label
 _atom_site_symmetry_multiplicity
 _atom_site_fract_x
 _atom_site_fract_y
 _atom_site_fract_z
 _atom_site_occupancy
  C  C0  1  0.68572149  0.36095313  0.23896819  1
  C  C1  1  0.99575631  0.63367157  0.25826222  1
  C  C2  1  0.33480502  0.96107332  0.59178182  1
  C  C3  1  0.83572411  0.96351007  0.59166056  1
  C  C4  1  0.33417840  0.69968971  0.08111143  1
  C  C5  1  0.34534964  0.66419660  0.41434278  1
  C  C6  1  0.01002882  0.99675668  0.49588509  1
  C  C7  1  0.51646679  0.02027431  0.50122938  1
  C  C8  1  0.00136532  0.99984598  0.99895083  1
  C  C9  1  0.51487963  0.02216172  0.00624612  1
  C  C10  1  0.33361167  0.32055568  0.84300045  1
  C  C11  1  0.83293585  0.32009510  0.84295975  1
  C  C12  1  0.32654140  0.31325577  0.32870019  1
  C  C13  1  0.83893738  0.33747308  0.33567601  1
  C  C14  1  0.17016937  0.67249315  0.16672830  1
  C  C15  1  0.66814685  0.67835630  0.15322589  1
  C  C16  1  0.16698867  0.66406536  0.67650746  1
  C  C17  1  0.66820297  0.66515720  0.67731350  1
  C  C18  1  0.99435735  0.00309952  0.85136960  1
  C  C19  1  0.49461176  0.00255562  0.85241528  1
  C  C20  1  0.99494062  0.99539682  0.14882782  1
  C  C21  1  0.33431209  0.33018522  0.68805980  1
  C  C22  1  0.83425092  0.33041445  0.68787147  1
  C  C23  1  0.66959497  0.67270255  0.31580236  1
  C  C24  1  0.99834597  0.98658818  0.34902276  1
  C  C25  1  0.49599384  0.00091295  0.34711118  1
  C  C26  1  0.99471972  0.99207291  0.65597118  1
  C  C27  1  0.49539250  0.99253730  0.65659957  1
  C  C28  1  0.50085147  0.00314118  0.15056163  1
  C  C29  1  0.33454262  0.33560929  0.17992618  1
  C  C30  1  0.83418867  0.34112475  0.17860680  1
  C  C31  1  0.33564904  0.32629850  0.98606316  1
  C  C32  1  0.82993348  0.33099208  0.98577813  1
  C  C33  1  0.32820306  0.32233240  0.48364528  1
  C  C34  1  0.83641923  0.34248570  0.48115552  1
  C  C35  1  0.16440109  0.67445205  0.01256466  1
  C  C36  1  0.66665148  0.66796118  0.01427560  1
  C  C37  1  0.16047686  0.65480760  0.51274288  1
  C  C38  1  0.66331115  0.65940709  0.51559538  1
  C  C39  1  0.17041503  0.66534433  0.31991288  1
  C  C40  1  0.17640209  0.68473645  0.81755409  1
  C  C41  1  0.67730848  0.68544220  0.81781684  1
  Ni  Ni42  1  0.85323364  0.69554770  0.25226846  1
  Ni  Ni43  1  0.34591965  0.98538673  0.74389023  1
  Ni  Ni44  1  0.84540341  0.98604504  0.74367626  1
  Cu  Cu45  1  0.15173801  0.00561747  0.25071159  1
  Cu  Cu46  1  0.64373057  -0.00094787  0.25039101  1
  Cu  Cu47  1  0.34967067  0.69880705  0.25038302  1
  Cu  Cu48  1  0.00237378  0.29936252  0.25264526  1
  Cu  Cu49  1  0.49544562  0.28973300  0.25117854  1
  Cu  Cu50  1  0.14456664  0.29549534  0.74853990  1
  Cu  Cu51  1  0.64444574  0.29530151  0.74864248  1
  Cu  Cu52  1  0.00303816  0.70909910  0.74875764  1
  Cu  Cu53  1  0.50314128  0.70924556  0.74884878  1
  Cu  Cu54  1  0.48322399  0.33820186  0.57948822  1
  Cu  Cu55  1  0.98340534  0.33714471  0.57969331  1
  Cu  Cu56  1  0.18181524  0.03451444  0.58185662  1
  Cu  Cu57  1  0.68364944  0.03848571  0.58048192  1
  Cu  Cu58  1  0.33377056  0.62981985  0.57773038  1
  Cu  Cu59  1  0.83306252  0.62887153  0.57967480  1
  Cu  Cu60  1  0.48184032  0.62866630  0.08388468  1
  Cu  Cu61  1  0.98497656  0.62819730  0.08324570  1
  Cu  Cu62  1  0.33312516  0.03519605  0.08391833  1
  Cu  Cu63  1  0.83103441  0.04219292  0.08297174  1
  Cu  Cu64  1  0.18792660  0.33814549  0.08222999  1
  Cu  Cu65  1  0.68168106  0.33424584  0.08454747  1
  Cu  Cu66  1  0.31316744  0.65730993  0.92004632  1
  Cu  Cu67  1  0.81244141  0.65739275  0.91874917  1
  Cu  Cu68  1  0.02091600  0.38233689  0.91681633  1
  Cu  Cu69  1  0.52129150  0.38293791  0.91649339  1
  Cu  Cu70  1  0.16890221  0.96819055  0.91796858  1
  Cu  Cu71  1  0.66885306  0.96493234  0.91860200  1
  Cu  Cu72  1  0.31575149  0.96542076  0.41840380  1
  Cu  Cu73  1  0.81680552  0.96936346  0.42223664  1
  Cu  Cu74  1  0.16576851  0.36474639  0.41664071  1
  Cu  Cu75  1  0.66482639  0.36451031  0.41693895  1
  Cu  Cu76  1  0.01820338  0.66687517  0.41560151  1
  Cu  Cu77  1  0.51616989  0.66760017  0.41915268  1
  C  C78  1  0.11530769  0.03411623  0.30472446  1
  C  C79  1  0.60363478  0.02923453  0.30302841  1
  C  C80  1  0.40038792  0.78002784  0.30537061  1
  C  C81  1  0.91689978  0.78140955  0.30689005  1
  C  C82  1  0.48446916  0.19027336  0.30501785  1
  C  C83  1  0.99552588  0.20021574  0.30524009  1
  C  C84  1  0.10527388  0.18240211  0.80126849  1
  C  C85  1  0.60462161  0.18176201  0.80125089  1
  C  C86  1  0.49332980  0.79829012  0.80156768  1
  C  C87  1  0.99350129  0.79855592  0.80152142  1
  C  C88  1  0.41208311  0.01190937  0.79976779  1
  C  C89  1  0.91156073  0.01298129  0.79960854  1
  C  C90  1  0.38670909  0.97298908  0.68166425  1
  C  C91  1  0.88644934  0.97299438  0.68179381  1
  C  C92  1  0.09694338  0.21056662  0.69470714  1
  C  C93  1  0.59691893  0.21079899  0.69463954  1
  C  C94  1  0.01660435  0.81086359  0.69523492  1
  C  C95  1  0.51666883  0.81053628  0.69513316  1
  C  C96  1  0.39311473  0.80485796  0.19729048  1
  C  C97  1  0.89816955  0.81779574  0.19340321  1
  C  C98  1  0.01257255  0.21144503  0.19838141  1
  C  C99  1  0.51674206  0.21621779  0.19945537  1
  C  C100  1  0.09329385  0.98616239  0.19898770  1
  C  C101  1  0.59226621  0.97133080  0.19694598  1
  C  C102  1  0.43710144  0.35099699  0.63407293  1
  C  C103  1  0.93687650  0.35116687  0.63417944  1
  C  C104  1  0.24125290  0.13185369  0.63360289  1
  C  C105  1  0.74141871  0.13330992  0.63320032  1
  C  C106  1  0.32829339  0.52296293  0.62974182  1
  C  C107  1  0.82698444  0.52687268  0.63337127  1
  C  C108  1  0.44235577  0.52754409  0.13794026  1
  C  C109  1  0.94677829  0.53772330  0.13932795  1
  C  C110  1  0.32342732  0.11734322  0.13746761  1
  C  C111  1  0.82378461  0.12566911  0.13723381  1
  C  C112  1  0.24104586  0.36359043  0.13526991  1
  C  C113  1  0.72825372  0.35143278  0.14095381  1
  C  C114  1  0.22695749  0.31079894  0.02888369  1
  C  C115  1  0.72773187  0.31392693  0.03375300  1
  C  C116  1  0.42541717  0.54385568  0.03192372  1
  C  C117  1  0.92934071  0.54331585  0.03213411  1
  C  C118  1  0.34315426  0.13468000  0.03005929  1
  C  C119  1  0.84331858  0.14420326  0.02979749  1
  C  C120  1  0.22099983  0.13691108  0.52836908  1
  C  C121  1  0.72467871  0.14160596  0.52761962  1
  C  C122  1  0.33867436  0.54559286  0.52257465  1
  C  C123  1  0.83732550  0.53978533  0.52638473  1
  C  C124  1  0.42749999  0.31377219  0.52829922  1
  C  C125  1  0.92711397  0.30986782  0.52858125  1
  C  C126  1  0.27791664  0.68558765  0.97577074  1
  C  C127  1  0.77522044  0.68821882  0.97222385  1
  C  C128  1  0.07098075  0.45690666  0.97110209  1
  C  C129  1  0.57008267  0.45794539  0.97099368  1
  C  C130  1  0.15486456  0.86654248  0.97205426  1
  C  C131  1  0.65582995  0.86161539  0.97191000  1
  C  C132  1  0.27598294  0.86114635  0.47279807  1
  C  C133  1  0.77462197  0.86939663  0.47606587  1
  C  C134  1  0.15632678  0.44570058  0.47122245  1
  C  C135  1  0.65482532  0.45132937  0.46919699  1
  C  C136  1  0.07110882  0.68124215  0.46758227  1
  C  C137  1  0.56800657  0.68770991  0.47178606  1
  C  C138  1  0.05850340  0.65099859  0.35956155  1
  C  C139  1  0.56192946  0.65231581  0.36564100  1
  C  C140  1  0.26222969  0.87896169  0.36596104  1
  C  C141  1  0.75986545  0.86566199  0.36985288  1
  C  C142  1  0.18197615  0.48031831  0.36526343  1
  C  C143  1  0.67128075  0.47044098  0.36262117  1
  C  C144  1  0.06438604  0.48166342  0.86399012  1
  C  C145  1  0.56465209  0.48194845  0.86367759  1
  C  C146  1  0.17742610  0.88360499  0.86487726  1
  C  C147  1  0.67762899  0.88321597  0.86477644  1
  C  C148  1  0.25988200  0.63966978  0.86882317  1
  C  C149  1  0.76266127  0.63737775  0.86529897  1
  C  C150  1  0.01053046  0.82624522  0.41523724  1
  C  C151  1  0.50536448  0.82329930  0.41371482  1
  C  C152  1  0.40302641  0.97449348  0.41295077  1
  C  C153  1  0.90395333  0.98919353  0.41555327  1
  C  C154  1  0.08819501  0.18970640  0.41008754  1
  C  C155  1  0.58610415  0.19000514  0.41137151  1
  C  C156  1  0.01178684  0.20012990  0.91179656  1
  C  C157  1  0.51255509  0.20129326  0.91177236  1
  C  C158  1  0.08933740  0.98909364  0.91212785  1
  C  C159  1  0.58896397  0.98557273  0.91322029  1
  C  C160  1  0.40373892  0.82004384  0.91310122  1
  C  C161  1  0.90392558  0.81984966  0.91254965  1
  C  C162  1  0.49177105  0.18064365  0.58361536  1
  C  C163  1  0.99235241  0.18046957  0.58472250  1
  C  C164  1  0.09446564  0.01213387  0.59061319  1
  C  C165  1  0.59592052  0.01595030  0.58866162  1
  C  C166  1  0.41364256  0.80549062  0.58103660  1
  C  C167  1  0.91294762  0.80460541  0.58217797  1
  C  C168  1  0.48686739  0.80360174  0.08842201  1
  C  C169  1  0.99586710  0.81089893  0.08713670  1
  C  C170  1  0.41163219  0.01078304  0.08785459  1
  C  C171  1  0.91350890  0.02662061  0.08731641  1
  C  C172  1  0.09805615  0.18126131  0.08870998  1
  C  C173  1  0.59291820  0.17419886  0.08728822  1
  C  C174  1  0.34211598  0.17078492  0.74358485  1
  C  C175  1  0.84155004  0.17095192  0.74378253  1
  C  C176  1  0.23557653  0.32027688  0.74442197  1
  C  C177  1  0.73525506  0.31963084  0.74473560  1
  C  C178  1  0.41705900  0.53917341  0.74465443  1
  C  C179  1  0.91723339  0.53908074  0.74482932  1
  C  C180  1  0.34038807  0.52263728  0.24563803  1
  C  C181  1  0.83852714  0.49992530  0.24329141  1
  C  C182  1  0.41962755  0.31326097  0.24402781  1
  C  C183  1  0.92299658  0.31460710  0.24628076  1
  C  C184  1  0.24036604  0.15479602  0.24160709  1
  C  C185  1  0.73320417  0.14954659  0.24525839  1
  C  C186  1  0.32603246  0.50550942  0.92329436  1
  C  C187  1  0.82551484  0.50555484  0.92381021  1
  C  C188  1  0.43101460  0.35341212  0.92031429  1
  C  C189  1  0.93108075  0.35388951  0.92115029  1
  C  C190  1  0.24752050  0.14514934  0.92249323  1
  C  C191  1  0.74706928  0.14301277  0.92312558  1
  C  C192  1  0.32846344  0.14352628  0.42243429  1
  C  C193  1  0.81923412  0.13839054  0.42083195  1
  C  C194  1  0.24804607  0.35310587  0.42012739  1
  C  C195  1  0.74560375  0.35458778  0.41770644  1
  C  C196  1  0.42774943  0.50926962  0.42010148  1
  C  C197  1  0.92955572  0.50711050  0.41885224  1
  C  C198  1  0.17958337  0.49693661  0.07782632  1
  C  C199  1  0.67305289  0.49219741  0.07919055  1
  C  C200  1  0.07334782  0.65059004  0.07813403  1
  C  C201  1  0.57075828  0.65351641  0.07741745  1
  C  C202  1  0.25476918  0.85400551  0.07982268  1
  C  C203  1  0.75542982  0.86345709  0.07894175  1
  C  C204  1  0.18118915  0.86596065  0.57958858  1
  C  C205  1  0.68182745  0.86820501  0.57907763  1
  C  C206  1  0.25477857  0.65028781  0.57855554  1
  C  C207  1  0.75402735  0.65008979  0.57969814  1
  C  C208  1  0.06908716  0.49958441  0.57776403  1
  C  C209  1  0.56914497  0.49985986  0.57767874  1
  C  C210  1  0.15149864  0.83670272  0.25202481  1
  C  C211  1  0.65089912  0.83740214  0.25816053  1
  C  C212  1  0.26164030  0.68383233  0.25460447  1
  C  C213  1  0.75421988  0.67277932  0.25750666  1
  C  C214  1  0.08013856  0.47984104  0.25342324  1
  C  C215  1  0.57719061  0.46897526  0.25853805  1
  C  C216  1  0.15095368  0.46461621  0.75653665  1
  C  C217  1  0.65072118  0.46436463  0.75652529  1
  C  C218  1  0.07348024  0.67104079  0.75612506  1
  C  C219  1  0.57330618  0.67069903  0.75617374  1
  C  C220  1  0.25079334  0.81935060  0.75307207  1
  C  C221  1  0.75049134  0.82008220  0.75309528  1
