# generated using pymatgen
data_Cu3Ni8C71
_symmetry_space_group_name_H-M   'P 1'
_cell_length_a   18.04229514
_cell_length_b   9.00966040
_cell_length_c   22.15702559
_cell_angle_alpha   90.05190258
_cell_angle_beta   89.83048486
_cell_angle_gamma   119.95769931
_symmetry_Int_Tables_number   1
_chemical_formula_structural   Cu3Ni8C71
_chemical_formula_sum   'Cu9 Ni24 C213'
_cell_volume   3120.50771146
_cell_formula_units_Z   3
loop_
 _symmetry_equiv_pos_site_id
 _symmetry_equiv_pos_as_xyz
  1  'x, y, z'
loop_
 _atom_site_type_symbol
 _atom_site_label
 _atom_site_symmetry_multiplicity
 _atom_site_fract_x
 _atom_site_fract_y
 _atom_site_fract_z
 _atom_site_occupancy
  C  C0  1  0.80833718  0.99760234  0.25612518  1
  C  C1  1  0.18231981  0.36782313  0.25728901  1
  C  C2  1  0.68098366  0.34731634  0.25141732  1
  C  C3  1  0.99772171  0.62891502  0.24081945  1
  C  C4  1  0.50717950  0.65330815  0.24720549  1
  C  C5  1  0.31113303  0.62305049  0.75637047  1
  C  C6  1  0.00540635  0.36054289  0.74733323  1
  C  C7  1  0.50674015  0.36241705  0.73978407  1
  C  C8  1  0.18179846  0.01497881  0.75111688  1
  C  C9  1  0.67839170  0.00992402  0.75919561  1
  C  C10  1  0.14958693  0.33217431  0.58539550  1
  C  C11  1  0.64157716  0.33152288  0.59300430  1
  C  C12  1  0.34178737  0.99181153  0.58396646  1
  C  C13  1  0.83088661  0.96016710  0.57859561  1
  C  C14  1  0.14374329  0.95231190  0.08178805  1
  C  C15  1  0.64967360  0.96580821  0.07985356  1
  C  C16  1  0.33246325  0.70383751  0.07349246  1
  C  C17  1  0.84080313  0.68980541  0.07936434  1
  C  C18  1  0.48593338  0.68390110  0.91544795  1
  C  C19  1  0.98062830  0.66060909  0.92328689  1
  C  C20  1  0.34997320  0.01572272  0.91688236  1
  C  C21  1  0.83834704  0.02711532  0.91253447  1
  C  C22  1  0.17288348  0.32069577  0.90596381  1
  C  C23  1  0.66468177  0.28107093  0.90741611  1
  C  C24  1  0.48218647  0.30225981  0.42799891  1
  C  C25  1  0.98471016  0.28737888  0.42035569  1
  C  C26  1  0.16752779  0.04788970  0.41921513  1
  C  C27  1  0.67250814  0.02688728  0.41020927  1
  C  C28  1  0.34109583  0.65163236  0.41757052  1
  C  C29  1  0.84623136  0.68093001  0.42205912  1
  C  C30  1  0.99900147  0.00289377  0.49660261  1
  C  C31  1  0.50085090  0.00108447  0.50826644  1
  C  C32  1  0.99820431  0.99602132  0.00384272  1
  C  C33  1  0.50088407  0.99769358  0.99203204  1
  C  C34  1  0.32950437  0.34826934  0.83143154  1
  C  C35  1  0.81851236  0.32438641  0.83103990  1
  C  C36  1  0.32890859  0.32836689  0.33708997  1
  C  C37  1  0.82530977  0.30633516  0.33373556  1
  C  C38  1  0.15815288  0.66117004  0.16048747  1
  C  C39  1  0.66248900  0.66942718  0.16707360  1
  C  C40  1  0.16316235  0.65723762  0.66931821  1
  C  C41  1  0.65684822  0.63885009  0.66768542  1
  Ni  Ni42  1  0.99956485  0.00811832  0.35530151  1
  Ni  Ni43  1  0.50420894  0.00292232  0.34504229  1
  Ni  Ni44  1  0.00299674  0.00466482  0.84347167  1
  Ni  Ni45  1  0.50661986  0.99857355  0.85230478  1
  Ni  Ni46  1  0.00210079  0.99855552  0.65311928  1
  Ni  Ni47  1  0.50463199  0.01845492  0.65095951  1
  Ni  Ni48  1  0.99929970  0.99643127  0.14675400  1
  Ni  Ni49  1  0.50334749  0.00575992  0.15159436  1
  Ni  Ni50  1  0.33712616  0.33959443  0.68191697  1
  Ni  Ni51  1  0.82804817  0.33962511  0.68666384  1
  Ni  Ni52  1  0.33493574  0.32825058  0.18261746  1
  Ni  Ni53  1  0.83398770  0.33229756  0.18001704  1
  Ni  Ni54  1  0.33502827  0.34070482  0.98191633  1
  Ni  Ni55  1  0.83329408  0.33310825  0.98487569  1
  Ni  Ni56  1  0.33358688  0.33621841  0.48749302  1
  Ni  Ni57  1  0.83335444  0.32684561  0.48444085  1
  Ni  Ni58  1  0.16337791  0.65860282  0.01686058  1
  Ni  Ni59  1  0.66368746  0.66592541  0.01285393  1
  Ni  Ni60  1  0.16300314  0.65661480  0.51570017  1
  Ni  Ni61  1  0.66401457  0.66830802  0.51948570  1
  Ni  Ni62  1  0.17053794  0.66349661  0.31982590  1
  Ni  Ni63  1  0.66893125  0.68598129  0.31748519  1
  Ni  Ni64  1  0.16924386  0.65323018  0.81633210  1
  Ni  Ni65  1  0.66998250  0.66972157  0.81516271  1
  Cu  Cu66  1  0.65006940  0.00098692  0.24766666  1
  Cu  Cu67  1  0.15008569  0.29879101  0.74757863  1
  Cu  Cu68  1  0.65048826  0.30387693  0.75139893  1
  Cu  Cu69  1  0.48225336  0.33512024  0.58162449  1
  Cu  Cu70  1  0.98295294  0.62812996  0.08348079  1
  Cu  Cu71  1  0.31494694  0.66671395  0.91884897  1
  Cu  Cu72  1  0.66914365  0.96515366  0.91849506  1
  Cu  Cu73  1  0.81438765  0.96413225  0.41873523  1
  Cu  Cu74  1  0.16941675  0.36980407  0.41690667  1
  C  C75  1  0.14802670  0.99935389  0.25033669  1
  C  C76  1  0.35108568  0.70597498  0.24838512  1
  C  C77  1  0.85379682  0.70686744  0.25086359  1
  C  C78  1  0.00119527  0.29286467  0.24948644  1
  C  C79  1  0.49731676  0.29247545  0.25138652  1
  C  C80  1  0.99973718  0.70441624  0.75146044  1
  C  C81  1  0.49870336  0.70782807  0.74924357  1
  C  C82  1  0.35156049  0.99900306  0.75071112  1
  C  C83  1  0.85312385  0.99870125  0.74812363  1
  C  C84  1  0.98007486  0.33546524  0.58459389  1
  C  C85  1  0.18302597  0.03067659  0.58255213  1
  C  C86  1  0.68674671  0.03931722  0.58327441  1
  C  C87  1  0.33346369  0.63218168  0.58340742  1
  C  C88  1  0.83703365  0.62958801  0.58187305  1
  C  C89  1  0.48018128  0.62545751  0.08514943  1
  C  C90  1  0.33594801  0.04393357  0.08366916  1
  C  C91  1  0.83379104  0.03562090  0.08406012  1
  C  C92  1  0.18735051  0.33206722  0.08552008  1
  C  C93  1  0.68348527  0.33608921  0.08341217  1
  C  C94  1  0.81539065  0.66988119  0.91725229  1
  C  C95  1  0.01867295  0.36929712  0.91598908  1
  C  C96  1  0.51902158  0.37395814  0.91743745  1
  C  C97  1  0.16487870  0.95813018  0.91677569  1
  C  C98  1  0.31399453  0.95925780  0.41548017  1
  C  C99  1  0.66488930  0.37257335  0.41561992  1
  C  C100  1  0.02077242  0.66647949  0.41531273  1
  C  C101  1  0.51849001  0.66813911  0.41521075  1
  C  C102  1  0.10728818  0.02546160  0.30443610  1
  C  C103  1  0.60827736  0.03571768  0.30844101  1
  C  C104  1  0.40306525  0.78518113  0.30330210  1
  C  C105  1  0.90783774  0.78980363  0.30459253  1
  C  C106  1  0.48295966  0.19009360  0.30702624  1
  C  C107  1  0.99091241  0.19232761  0.30489421  1
  C  C108  1  0.10838896  0.18082037  0.80848138  1
  C  C109  1  0.60542585  0.18171288  0.81042711  1
  C  C110  1  0.48396346  0.78132226  0.80507982  1
  C  C111  1  0.98482602  0.77730379  0.80743048  1
  C  C112  1  0.40348883  0.02096264  0.80507617  1
  C  C113  1  0.90501652  0.02094594  0.80348202  1
  C  C114  1  0.38903550  0.96571613  0.69623714  1
  C  C115  1  0.89426340  0.97492517  0.69378774  1
  C  C116  1  0.08951816  0.20944207  0.68859305  1
  C  C117  1  0.59289355  0.21765353  0.69078131  1
  C  C118  1  0.01185997  0.81403957  0.69854251  1
  C  C119  1  0.50856179  0.81419174  0.69621148  1
  C  C120  1  0.39291633  0.80765927  0.19376903  1
  C  C121  1  0.89296516  0.81559131  0.19665412  1
  C  C122  1  0.01477889  0.20906566  0.19673100  1
  C  C123  1  0.50866358  0.20724430  0.19813455  1
  C  C124  1  0.09524811  0.97514558  0.19585405  1
  C  C125  1  0.58884045  0.96833747  0.18916744  1
  C  C126  1  0.43531882  0.35110192  0.64224060  1
  C  C127  1  0.93761079  0.35123607  0.63931848  1
  C  C128  1  0.23577658  0.11071808  0.63696083  1
  C  C129  1  0.74269217  0.12392883  0.63634047  1
  C  C130  1  0.31657147  0.51908566  0.63626194  1
  C  C131  1  0.82692167  0.51934345  0.63408132  1
  C  C132  1  0.43860359  0.52667829  0.14085974  1
  C  C133  1  0.93844872  0.52155436  0.14548553  1
  C  C134  1  0.32374150  0.13018011  0.13647408  1
  C  C135  1  0.81875337  0.11462709  0.13784949  1
  C  C136  1  0.24087254  0.35689920  0.14012246  1
  C  C137  1  0.73592339  0.36253334  0.13854780  1
  C  C138  1  0.22726564  0.30172791  0.03158841  1
  C  C139  1  0.72436819  0.30727775  0.03001772  1
  C  C140  1  0.42749515  0.53944250  0.03150805  1
  C  C141  1  0.92152666  0.54469786  0.02409038  1
  C  C142  1  0.34567646  0.14246338  0.02768088  1
  C  C143  1  0.84373881  0.13584260  0.02883841  1
  C  C144  1  0.22297292  0.13975920  0.52816465  1
  C  C145  1  0.72585412  0.14858678  0.52836409  1
  C  C146  1  0.34255754  0.55249593  0.52731691  1
  C  C147  1  0.84727066  0.55216008  0.52505001  1
  C  C148  1  0.42226608  0.29975342  0.52109271  1
  C  C149  1  0.92943397  0.31746828  0.52958679  1
  C  C150  1  0.27115462  0.69761741  0.97926976  1
  C  C151  1  0.77769421  0.69432788  0.97369077  1
  C  C152  1  0.07458402  0.45033163  0.96871909  1
  C  C153  1  0.57418784  0.45306842  0.97085624  1
  C  C154  1  0.15204877  0.85180542  0.97107325  1
  C  C155  1  0.65366895  0.85005138  0.97964863  1
  C  C156  1  0.27540210  0.85774548  0.47116546  1
  C  C157  1  0.76980123  0.84228059  0.47756794  1
  C  C158  1  0.15081406  0.45612278  0.47566168  1
  C  C159  1  0.65258293  0.45494811  0.46904077  1
  C  C160  1  0.07657459  0.69770934  0.46811791  1
  C  C161  1  0.57423328  0.69791849  0.46748349  1
  C  C162  1  0.05881568  0.63763330  0.35982665  1
  C  C163  1  0.55558096  0.63814019  0.35953656  1
  C  C164  1  0.25858263  0.87626431  0.36269630  1
  C  C165  1  0.75670812  0.88413436  0.35794183  1
  C  C166  1  0.18724656  0.48717396  0.35588485  1
  C  C167  1  0.67616881  0.47353814  0.35981205  1
  C  C168  1  0.05628440  0.47436184  0.86080971  1
  C  C169  1  0.55637001  0.48085201  0.86306355  1
  C  C170  1  0.17606941  0.87832963  0.86173984  1
  C  C171  1  0.68637048  0.87680275  0.85920979  1
  C  C172  1  0.25421791  0.62865229  0.85968899  1
  C  C173  1  0.76032777  0.64513130  0.86477520  1
  C  C174  1  0.01128806  0.82046640  0.40868581  1
  C  C175  1  0.50716119  0.82206862  0.40971850  1
  C  C176  1  0.40044543  0.97449211  0.40866539  1
  C  C177  1  0.90923139  0.97922824  0.41287441  1
  C  C178  1  0.08548866  0.17691219  0.41126770  1
  C  C179  1  0.58690760  0.19701860  0.41189965  1
  C  C180  1  0.00771652  0.19317340  0.91054805  1
  C  C181  1  0.50759227  0.19966075  0.91169889  1
  C  C182  1  0.08707466  0.97799130  0.91316116  1
  C  C183  1  0.58335556  0.98399884  0.91534386  1
  C  C184  1  0.40921815  0.84013166  0.91192185  1
  C  C185  1  0.90248541  0.82769643  0.91093553  1
  C  C186  1  0.48908739  0.15591838  0.58413633  1
  C  C187  1  0.98671093  0.17521430  0.58644037  1
  C  C188  1  0.09646151  0.01246108  0.58779145  1
  C  C189  1  0.60063540  0.01891695  0.58912349  1
  C  C190  1  0.40988572  0.80313780  0.58998928  1
  C  C191  1  0.91265689  0.80601714  0.58791013  1
  C  C192  1  0.48616970  0.79825803  0.08737626  1
  C  C193  1  0.99289044  0.82472517  0.08757893  1
  C  C194  1  0.41163118  0.01960507  0.09012482  1
  C  C195  1  0.91104389  0.01741063  0.09021748  1
  C  C196  1  0.10140119  0.17804769  0.09181817  1
  C  C197  1  0.59701120  0.18108201  0.08903796  1
  C  C198  1  0.34393215  0.15606341  0.74522878  1
  C  C199  1  0.85007999  0.16162824  0.74300707  1
  C  C200  1  0.24645868  0.31949153  0.74251880  1
  C  C201  1  0.74370870  0.31004686  0.74633138  1
  C  C202  1  0.42213251  0.53178217  0.74482335  1
  C  C203  1  0.92780676  0.52689454  0.74404471  1
  C  C204  1  0.34276784  0.53048130  0.24416948  1
  C  C205  1  0.84556358  0.53415807  0.24578037  1
  C  C206  1  0.42360662  0.32375638  0.24491631  1
  C  C207  1  0.92322677  0.30877178  0.24512479  1
  C  C208  1  0.23407741  0.15759333  0.24429303  1
  C  C209  1  0.74663849  0.17373803  0.24269664  1
  C  C210  1  0.32597602  0.49434242  0.92359742  1
  C  C211  1  0.82557658  0.51628598  0.92096615  1
  C  C212  1  0.43167104  0.35326484  0.92538248  1
  C  C213  1  0.93272104  0.35167602  0.92294866  1
  C  C214  1  0.24330875  0.13075697  0.92302063  1
  C  C215  1  0.75566349  0.15987186  0.92341492  1
  C  C216  1  0.32411089  0.13325374  0.41915036  1
  C  C217  1  0.82721598  0.16002128  0.42318583  1
  C  C218  1  0.25605173  0.35009186  0.42278782  1
  C  C219  1  0.74328199  0.35598817  0.42128017  1
  C  C220  1  0.43189128  0.51396807  0.42135144  1
  C  C221  1  0.93402374  0.51364968  0.42282282  1
  C  C222  1  0.18120188  0.48950158  0.08003861  1
  C  C223  1  0.67799219  0.49538657  0.07660977  1
  C  C224  1  0.08134852  0.66083582  0.07798075  1
  C  C225  1  0.56730833  0.64744521  0.08179690  1
  C  C226  1  0.25728169  0.87094980  0.08100537  1
  C  C227  1  0.75725097  0.85786751  0.08021324  1
  C  C228  1  0.17780374  0.86066172  0.57524699  1
  C  C229  1  0.68158182  0.87046630  0.57754716  1
  C  C230  1  0.25576749  0.65497236  0.57896570  1
  C  C231  1  0.75827083  0.64388013  0.57931104  1
  C  C232  1  0.06792637  0.48775530  0.58106096  1
  C  C233  1  0.58033792  0.49898592  0.57642543  1
  C  C234  1  0.15527812  0.84225387  0.25629790  1
  C  C235  1  0.65681420  0.82387505  0.25097910  1
  C  C236  1  0.26377702  0.68342535  0.25230813  1
  C  C237  1  0.76561222  0.68112180  0.25622684  1
  C  C238  1  0.07818702  0.47034133  0.25353359  1
  C  C239  1  0.57751235  0.46292119  0.25649767  1
  C  C240  1  0.15645844  0.48868535  0.75104494  1
  C  C241  1  0.65516466  0.49087443  0.75703035  1
  C  C242  1  0.08082979  0.69711796  0.75710529  1
  C  C243  1  0.57713650  0.69260378  0.75423297  1
  C  C244  1  0.26240726  0.84909818  0.75601839  1
  C  C245  1  0.76545062  0.85250455  0.75264725  1
