# generated using pymatgen
data_CuNiC4
_symmetry_space_group_name_H-M   'P 1'
_cell_length_a   3.81166800
_cell_length_b   6.44028453
_cell_length_c   6.56928817
_cell_angle_alpha   106.99192796
_cell_angle_beta   90.00000000
_cell_angle_gamma   107.21294566
_symmetry_Int_Tables_number   1
_chemical_formula_structural   CuNiC4
_chemical_formula_sum   'Cu2 Ni2 C8'
_cell_volume   146.65543927
_cell_formula_units_Z   2
loop_
 _symmetry_equiv_pos_site_id
 _symmetry_equiv_pos_as_xyz
  1  'x, y, z'
loop_
 _atom_site_type_symbol
 _atom_site_label
 _atom_site_symmetry_multiplicity
 _atom_site_fract_x
 _atom_site_fract_y
 _atom_site_fract_z
 _atom_site_occupancy
  Ni  Ni0  1  0.89536300  0.79072600  0.76224600  1
  Ni  Ni1  1  0.10463700  0.20927400  0.23775400  1
  Cu  Cu2  1  0.20218200  0.40436400  0.82442700  1
  Cu  Cu3  1  0.79781800  0.59563600  0.17557300  1
  C  C4  1  0.64371200  0.28742400  0.20411800  1
  C  C5  1  0.35628800  0.71257600  0.79588200  1
  C  C6  1  0.26298700  0.52597400  0.14081500  1
  C  C7  1  0.73701300  0.47402600  0.85918500  1
  C  C8  1  0.14072600  0.28145200  0.52790000  1
  C  C9  1  0.85927400  0.71854800  0.47210000  1
  C  C10  1  0.05724100  0.11448200  0.86097900  1
  C  C11  1  0.94275900  0.88551800  0.13902100  1
