# generated using pymatgen
data_Cu3Ni25C18
_symmetry_space_group_name_H-M   'P 1'
_cell_length_a   11.74570259
_cell_length_b   11.74570259
_cell_length_c   6.41115600
_cell_angle_alpha   90.00000000
_cell_angle_beta   90.00000000
_cell_angle_gamma   120.00000333
_symmetry_Int_Tables_number   1
_chemical_formula_structural   Cu3Ni25C18
_chemical_formula_sum   'Cu3 Ni25 C18'
_cell_volume   765.99328368
_cell_formula_units_Z   1
loop_
 _symmetry_equiv_pos_site_id
 _symmetry_equiv_pos_as_xyz
  1  'x, y, z'
loop_
 _atom_site_type_symbol
 _atom_site_label
 _atom_site_symmetry_multiplicity
 _atom_site_fract_x
 _atom_site_fract_y
 _atom_site_fract_z
 _atom_site_occupancy
  Ni  Ni0  1  0.04817000  0.30470800  0.33932200  1
  Ni  Ni1  1  0.76499100  0.24914100  0.24758000  1
  Ni  Ni2  1  0.75085900  0.51585000  0.24758000  1
  Ni  Ni3  1  0.48415000  0.23500900  0.24758000  1
  Ni  Ni4  1  0.23500900  0.75085900  0.75242000  1
  Ni  Ni5  1  0.24914100  0.48415000  0.75242000  1
  Ni  Ni6  1  0.50000000  0.00000000  0.50000000  1
  Ni  Ni7  1  0.00000000  0.50000000  0.50000000  1
  Ni  Ni8  1  0.50000000  0.50000000  0.50000000  1
  Ni  Ni9  1  0.00000000  0.00000000  0.00000000  1
  Ni  Ni10  1  0.69529200  0.74346200  0.33932200  1
  Ni  Ni11  1  0.95183000  0.69529200  0.66067800  1
  Ni  Ni12  1  0.74346200  0.04817000  0.66067800  1
  Ni  Ni13  1  0.30470800  0.25653800  0.66067800  1
  Ni  Ni14  1  0.97915900  0.25004700  0.84451100  1
  Ni  Ni15  1  0.27088800  0.02084100  0.84451100  1
  Ni  Ni16  1  0.74995300  0.72911200  0.84451100  1
  Ni  Ni17  1  0.02084100  0.74995300  0.15548900  1
  Ni  Ni18  1  0.72911200  0.97915900  0.15548900  1
  Ni  Ni19  1  0.25004700  0.27088800  0.15548900  1
  Ni  Ni20  1  0.50000000  0.50000000  0.00000000  1
  Ni  Ni21  1  0.00000000  0.50000000  0.00000000  1
  Ni  Ni22  1  0.50000000  0.00000000  0.00000000  1
  Ni  Ni23  1  0.51585000  0.76499100  0.75242000  1
  Ni  Ni24  1  0.25653800  0.95183000  0.33932200  1
  Cu  Cu25  1  0.00000000  0.00000000  0.50000000  1
  Cu  Cu26  1  0.66666700  0.33333300  0.75915900  1
  Cu  Cu27  1  0.33333300  0.66666700  0.24084100  1
  C  C28  1  0.67622300  0.18249600  0.54879100  1
  C  C29  1  0.50627300  0.32377700  0.54879100  1
  C  C30  1  0.81750400  0.49372700  0.54879100  1
  C  C31  1  0.18249600  0.50627300  0.45120900  1
  C  C32  1  0.92242700  0.09530800  0.29329400  1
  C  C33  1  0.17288200  0.07757300  0.29329400  1
  C  C34  1  0.90469200  0.82711800  0.29329400  1
  C  C35  1  0.07757300  0.90469200  0.70670600  1
  C  C36  1  0.82711800  0.92242700  0.70670600  1
  C  C37  1  0.09530800  0.17288200  0.70670600  1
  C  C38  1  0.83967400  0.31071600  0.93941500  1
  C  C39  1  0.47104200  0.16032600  0.93941500  1
  C  C40  1  0.68928400  0.52895800  0.93941500  1
  C  C41  1  0.16032600  0.68928400  0.06058500  1
  C  C42  1  0.52895800  0.83967400  0.06058500  1
  C  C43  1  0.31071600  0.47104200  0.06058500  1
  C  C44  1  0.32377700  0.81750400  0.45120900  1
  C  C45  1  0.49372700  0.67622300  0.45120900  1
