# generated using pymatgen
data_Cu4NiC13
_symmetry_space_group_name_H-M   'P 1'
_cell_length_a   7.93179449
_cell_length_b   7.93179449
_cell_length_c   17.41370300
_cell_angle_alpha   90.00000000
_cell_angle_beta   90.00000000
_cell_angle_gamma   97.81819944
_symmetry_Int_Tables_number   1
_chemical_formula_structural   Cu4NiC13
_chemical_formula_sum   'Cu16 Ni4 C52'
_cell_volume   1085.37110291
_cell_formula_units_Z   4
loop_
 _symmetry_equiv_pos_site_id
 _symmetry_equiv_pos_as_xyz
  1  'x, y, z'
loop_
 _atom_site_type_symbol
 _atom_site_label
 _atom_site_symmetry_multiplicity
 _atom_site_fract_x
 _atom_site_fract_y
 _atom_site_fract_z
 _atom_site_occupancy
  C  C0  1  0.10548000  0.17819100  0.35642300  1
  C  C1  1  0.82180900  0.89452000  0.14357700  1
  C  C2  1  0.89452000  0.82180900  0.85642300  1
  C  C3  1  0.17819100  0.10548000  0.64357700  1
  Ni  Ni4  1  0.01541700  0.43346300  0.63516700  1
  Ni  Ni5  1  0.56653700  0.98458300  0.86483300  1
  Ni  Ni6  1  0.43346300  0.01541700  0.36483300  1
  Ni  Ni7  1  0.98458300  0.56653700  0.13516700  1
  Cu  Cu8  1  0.03626400  0.74357100  0.34325800  1
  Cu  Cu9  1  0.25642900  0.96373600  0.15674200  1
  Cu  Cu10  1  0.21806200  0.68470600  0.48819000  1
  Cu  Cu11  1  0.31529400  0.78193800  0.01181000  1
  Cu  Cu12  1  0.36129500  0.63870500  0.75000000  1
  Cu  Cu13  1  0.67990600  0.71338700  0.31025700  1
  Cu  Cu14  1  0.28661300  0.32009400  0.18974300  1
  Cu  Cu15  1  0.34794900  0.34794900  0.50000000  1
  Cu  Cu16  1  0.65205100  0.65205100  0.00000000  1
  Cu  Cu17  1  0.32009400  0.28661300  0.81025700  1
  Cu  Cu18  1  0.71338700  0.67990600  0.68974300  1
  Cu  Cu19  1  0.63870500  0.36129500  0.25000000  1
  Cu  Cu20  1  0.68470600  0.21806200  0.51181000  1
  Cu  Cu21  1  0.78193800  0.31529400  0.98819000  1
  Cu  Cu22  1  0.74357100  0.03626400  0.65674200  1
  Cu  Cu23  1  0.96373600  0.25642900  0.84325800  1
  C  C24  1  0.10278700  0.92985200  0.35212200  1
  C  C25  1  0.07014800  0.89721300  0.14787800  1
  C  C26  1  0.05853500  0.64628000  0.27165700  1
  C  C27  1  0.35372000  0.94146500  0.22834300  1
  C  C28  1  0.14054100  0.68380700  0.01701100  1
  C  C29  1  0.31619300  0.85945900  0.48298900  1
  C  C30  1  0.35470900  0.89922900  0.94323300  1
  C  C31  1  0.10077100  0.64529100  0.55676700  1
  C  C32  1  0.36462900  0.89161000  0.08795600  1
  C  C33  1  0.10839000  0.63537100  0.41204400  1
  C  C34  1  0.19534700  0.61035700  0.70717800  1
  C  C35  1  0.38964300  0.80465300  0.79282200  1
  C  C36  1  0.21403000  0.45964900  0.14601100  1
  C  C37  1  0.54035100  0.78597000  0.35398900  1
  C  C38  1  0.35121800  0.54795200  0.48493800  1
  C  C39  1  0.45204800  0.64878200  0.01506200  1
  C  C40  1  0.51010400  0.61825400  0.68959600  1
  C  C41  1  0.38174600  0.48989600  0.81040400  1
  C  C42  1  0.16308000  0.27466100  0.86870600  1
  C  C43  1  0.72533900  0.83692000  0.63129400  1
  C  C44  1  0.72907500  0.78118500  0.23287100  1
  C  C45  1  0.21881500  0.27092500  0.26712900  1
  C  C46  1  0.70453000  0.75152900  0.92810600  1
  C  C47  1  0.24847100  0.29547000  0.57189400  1
  C  C48  1  0.29547000  0.24847100  0.42810600  1
  C  C49  1  0.75152900  0.70453000  0.07189400  1
  C  C50  1  0.27092500  0.21881500  0.73287100  1
  C  C51  1  0.78118500  0.72907500  0.76712900  1
  C  C52  1  0.83692000  0.72533900  0.36870600  1
  C  C53  1  0.27466100  0.16308000  0.13129400  1
  C  C54  1  0.48989600  0.38174600  0.18959600  1
  C  C55  1  0.61825400  0.51010400  0.31040400  1
  C  C56  1  0.54795200  0.35121800  0.51506200  1
  C  C57  1  0.64878200  0.45204800  0.98493800  1
  C  C58  1  0.45964900  0.21403000  0.85398900  1
  C  C59  1  0.78597000  0.54035100  0.64601100  1
  C  C60  1  0.80465300  0.38964300  0.20717800  1
  C  C61  1  0.61035700  0.19534700  0.29282200  1
  C  C62  1  0.63537100  0.10839000  0.58795600  1
  C  C63  1  0.89161000  0.36462900  0.91204400  1
  C  C64  1  0.64529100  0.10077100  0.44323300  1
  C  C65  1  0.89922900  0.35470900  0.05676700  1
  C  C66  1  0.68380700  0.14054100  0.98298900  1
  C  C67  1  0.85945900  0.31619300  0.51701100  1
  C  C68  1  0.64628000  0.05853500  0.72834300  1
  C  C69  1  0.94146500  0.35372000  0.77165700  1
  C  C70  1  0.89721300  0.07014800  0.85212200  1
  C  C71  1  0.92985200  0.10278700  0.64787800  1
