# generated using pymatgen
data_Cu2NiC10
_symmetry_space_group_name_H-M   'P 1'
_cell_length_a   5.52102254
_cell_length_b   9.93876604
_cell_length_c   3.99472528
_cell_angle_alpha   78.40239572
_cell_angle_beta   90.00414914
_cell_angle_gamma   106.30800567
_symmetry_Int_Tables_number   1
_chemical_formula_structural   Cu2NiC10
_chemical_formula_sum   'Cu2 Ni1 C10'
_cell_volume   205.71386230
_cell_formula_units_Z   1
loop_
 _symmetry_equiv_pos_site_id
 _symmetry_equiv_pos_as_xyz
  1  'x, y, z'
loop_
 _atom_site_type_symbol
 _atom_site_label
 _atom_site_symmetry_multiplicity
 _atom_site_fract_x
 _atom_site_fract_y
 _atom_site_fract_z
 _atom_site_occupancy
  C  C0  1  0.52640515  0.00093682  0.03602548  1
  C  C1  1  0.79727927  0.37030501  0.35113633  1
  C  C2  1  0.42930554  0.63030464  0.72127083  1
  Ni  Ni3  1  0.02362667  0.99857897  0.53710045  1
  Cu  Cu4  1  0.95847691  0.77264530  0.15007913  1
  Cu  Cu5  1  0.18128025  0.22634933  0.92306586  1
  C  C6  1  0.06765069  0.99909146  0.03684743  1
  C  C7  1  0.27411157  0.74628734  0.16335668  1
  C  C8  1  0.52391376  0.25509972  0.90880564  1
  C  C9  1  0.07117998  0.21129681  0.43064174  1
  C  C10  1  0.67878697  0.58608189  0.24346073  1
  C  C11  1  0.09201514  0.41304057  0.82960662  1
  C  C12  1  0.86671111  0.78486813  0.64403008  1
