# generated using pymatgen
data_Cu5NiC48
_symmetry_space_group_name_H-M   'P 1'
_cell_length_a   8.74848476
_cell_length_b   8.74848448
_cell_length_c   22.75519762
_cell_angle_alpha   90.00000000
_cell_angle_beta   90.00000000
_cell_angle_gamma   120.00000107
_symmetry_Int_Tables_number   1
_chemical_formula_structural   Cu5NiC48
_chemical_formula_sum   'Cu10 Ni2 C96'
_cell_volume   1508.26239728
_cell_formula_units_Z   2
loop_
 _symmetry_equiv_pos_site_id
 _symmetry_equiv_pos_as_xyz
  1  'x, y, z'
loop_
 _atom_site_type_symbol
 _atom_site_label
 _atom_site_symmetry_multiplicity
 _atom_site_fract_x
 _atom_site_fract_y
 _atom_site_fract_z
 _atom_site_occupancy
  C  C0  1  0.00000000  -0.00000000  0.50420537  1
  C  C1  1  0.00000000  -0.00000000  0.00420537  1
  C  C2  1  0.66666700  0.33333300  0.83326664  1
  C  C3  1  0.66666700  0.33333300  0.33326664  1
  C  C4  1  0.33333300  0.66666700  0.15694387  1
  C  C5  1  0.33333300  0.66666700  0.65694387  1
  Ni  Ni6  1  0.33333300  0.66666700  0.31425513  1
  Ni  Ni7  1  0.33333300  0.66666700  0.81425513  1
  Cu  Cu8  1  0.00000000  -0.00000000  0.34957526  1
  Cu  Cu9  1  0.00000000  -0.00000000  0.84957526  1
  Cu  Cu10  1  0.00000000  -0.00000000  0.64701512  1
  Cu  Cu11  1  0.00000000  -0.00000000  0.14701512  1
  Cu  Cu12  1  0.66666700  0.33333300  0.67716204  1
  Cu  Cu13  1  0.66666700  0.33333300  0.17716204  1
  Cu  Cu14  1  0.66666700  0.33333300  0.98822155  1
  Cu  Cu15  1  0.66666700  0.33333300  0.48822155  1
  Cu  Cu16  1  0.33333300  0.66666700  0.02037433  1
  Cu  Cu17  1  0.33333300  0.66666700  0.52037433  1
  C  C18  1  0.29519346  0.00516608  0.25092497  1
  C  C19  1  0.70997261  0.70480654  0.25092497  1
  C  C20  1  0.99483392  0.29002739  0.25092497  1
  C  C21  1  0.29519346  0.29002739  0.75092497  1
  C  C22  1  0.99483392  0.70480654  0.75092497  1
  C  C23  1  0.70997261  0.00516608  0.75092497  1
  C  C24  1  0.96248586  0.33252969  0.58325845  1
  C  C25  1  0.37004483  0.03751414  0.58325845  1
  C  C26  1  0.66747031  0.62995517  0.58325845  1
  C  C27  1  0.96248586  0.62995517  0.08325845  1
  C  C28  1  0.66747031  0.03751414  0.08325845  1
  C  C29  1  0.37004483  0.33252969  0.08325845  1
  C  C30  1  0.62797382  0.66755159  0.91799625  1
  C  C31  1  0.03957677  0.37202618  0.91799625  1
  C  C32  1  0.33244841  0.96042323  0.91799625  1
  C  C33  1  0.62797382  0.96042323  0.41799625  1
  C  C34  1  0.33244841  0.37202618  0.41799625  1
  C  C35  1  0.03957677  0.66755159  0.41799625  1
  C  C36  1  0.21555915  0.02653070  0.30486827  1
  C  C37  1  0.81097155  0.78444085  0.30486827  1
  C  C38  1  0.97346930  0.18902845  0.30486827  1
  C  C39  1  0.21555915  0.18902845  0.80486827  1
  C  C40  1  0.97346930  0.78444085  0.80486827  1
  C  C41  1  0.81097155  0.02653070  0.80486827  1
  C  C42  1  0.77842943  0.96435470  0.69832577  1
  C  C43  1  0.18592527  0.22157057  0.69832577  1
  C  C44  1  0.03564530  0.81407473  0.69832577  1
  C  C45  1  0.77842943  0.81407473  0.19832577  1
  C  C46  1  0.03564530  0.22157057  0.19832577  1
  C  C47  1  0.18592527  0.96435470  0.19832577  1
  C  C48  1  0.88214473  0.35751384  0.63734116  1
  C  C49  1  0.47537011  0.11785527  0.63734116  1
  C  C50  1  0.64248616  0.52462989  0.63734116  1
  C  C51  1  0.88214473  0.52462989  0.13734116  1
  C  C52  1  0.64248616  0.11785527  0.13734116  1
  C  C53  1  0.47537011  0.35751384  0.13734116  1
  C  C54  1  0.45102526  0.30816750  0.02912226  1
  C  C55  1  0.85714323  0.54897474  0.02912226  1
  C  C56  1  0.69183250  0.14285677  0.02912226  1
  C  C57  1  0.45102526  0.14285677  0.52912226  1
  C  C58  1  0.69183250  0.54897474  0.52912226  1
  C  C59  1  0.85714323  0.30816750  0.52912226  1
  C  C60  1  0.54322507  0.69084294  0.96956709  1
  C  C61  1  0.14761688  0.45677493  0.96956709  1
  C  C62  1  0.30915706  0.85238312  0.96956709  1
  C  C63  1  0.54322507  0.85238312  0.46956709  1
  C  C64  1  0.30915706  0.45677493  0.46956709  1
  C  C65  1  0.14761688  0.69084294  0.46956709  1
  C  C66  1  0.13884256  0.65015985  0.36283399  1
  C  C67  1  0.51131629  0.86115744  0.36283399  1
  C  C68  1  0.34984015  0.48868371  0.36283399  1
  C  C69  1  0.13884256  0.48868371  0.86283399  1
  C  C70  1  0.34984015  0.86115744  0.86283399  1
  C  C71  1  0.51131629  0.65015985  0.86283399  1
  C  C72  1  0.02443398  0.82616127  0.40906695  1
  C  C73  1  0.80172730  0.97556602  0.40906695  1
  C  C74  1  0.17383873  0.19827270  0.40906695  1
  C  C75  1  0.02443398  0.19827270  0.90906695  1
  C  C76  1  0.17383873  0.97556602  0.90906695  1
  C  C77  1  0.80172730  0.82616127  0.90906695  1
  C  C78  1  0.98026069  0.17176236  0.58819243  1
  C  C79  1  0.19150167  0.01973931  0.58819243  1
  C  C80  1  0.82823764  0.80849833  0.58819243  1
  C  C81  1  0.98026069  0.80849833  0.08819243  1
  C  C82  1  0.82823764  0.01973931  0.08819243  1
  C  C83  1  0.19150167  0.17176236  0.08819243  1
  C  C84  1  0.67791700  0.15404963  0.74503481  1
  C  C85  1  0.47613363  0.32208300  0.74503481  1
  C  C86  1  0.84595037  0.52386637  0.74503481  1
  C  C87  1  0.67791700  0.52386637  0.24503481  1
  C  C88  1  0.84595037  0.32208300  0.24503481  1
  C  C89  1  0.47613363  0.15404963  0.24503481  1
  C  C90  1  0.63500743  0.50299041  0.91764209  1
  C  C91  1  0.86798398  0.36499257  0.91764209  1
  C  C92  1  0.49700959  0.13201602  0.91764209  1
  C  C93  1  0.63500743  0.13201602  0.41764209  1
  C  C94  1  0.49700959  0.36499257  0.41764209  1
  C  C95  1  0.86798398  0.50299041  0.41764209  1
  C  C96  1  0.35194475  0.49321256  0.07857599  1
  C  C97  1  0.14126681  0.64805525  0.07857599  1
  C  C98  1  0.50678744  0.85873319  0.07857599  1
  C  C99  1  0.35194475  0.85873319  0.57857599  1
  C  C100  1  0.50678744  0.64805525  0.57857599  1
  C  C101  1  0.14126681  0.49321256  0.57857599  1
  C  C102  1  0.31399688  0.83654414  0.26024308  1
  C  C103  1  0.52254626  0.68600312  0.26024308  1
  C  C104  1  0.16345586  0.47745374  0.26024308  1
  C  C105  1  0.31399688  0.47745374  0.76024308  1
  C  C106  1  0.16345586  0.68600312  0.76024308  1
  C  C107  1  0.52254626  0.83654414  0.76024308  1
