# generated using pymatgen
data_CuNi5C34
_symmetry_space_group_name_H-M   'P 1'
_cell_length_a   9.07147878
_cell_length_b   9.07469698
_cell_length_c   22.40040380
_cell_angle_alpha   90.01498742
_cell_angle_beta   90.03418851
_cell_angle_gamma   119.98067782
_symmetry_Int_Tables_number   1
_chemical_formula_structural   CuNi5C34
_chemical_formula_sum   'Cu3 Ni15 C102'
_cell_volume   1597.28001499
_cell_formula_units_Z   3
loop_
 _symmetry_equiv_pos_site_id
 _symmetry_equiv_pos_as_xyz
  1  'x, y, z'
loop_
 _atom_site_type_symbol
 _atom_site_label
 _atom_site_symmetry_multiplicity
 _atom_site_fract_x
 _atom_site_fract_y
 _atom_site_fract_z
 _atom_site_occupancy
  C  C0  1  0.65256607  0.63179358  0.74372551  1
  C  C1  1  0.97572391  0.36304845  0.74461198  1
  C  C2  1  0.02207974  0.67976674  0.58929422  1
  C  C3  1  0.65688452  0.98379149  0.59056221  1
  C  C4  1  0.33145339  0.98192014  0.09120165  1
  C  C5  1  0.66044515  0.68115295  0.09013791  1
  C  C6  1  0.96224374  0.68465010  0.90622089  1
  C  C7  1  0.72093068  0.03827264  0.90703668  1
  C  C8  1  0.32031565  0.28735188  0.91277934  1
  C  C9  1  0.96408702  0.28470812  0.41155512  1
  C  C10  1  0.31719777  0.03691762  0.40608592  1
  C  C11  1  0.71478007  0.68189545  0.41138154  1
  C  C12  1  0.01492186  0.01482760  0.49334853  1
  C  C13  1  0.99698646  0.01050947  0.99190469  1
  C  C14  1  0.66547029  0.31857248  0.82211383  1
  C  C15  1  0.65248448  0.32321345  0.32019844  1
  C  C16  1  0.31642908  0.65402216  0.16744155  1
  C  C17  1  0.33431029  0.67346628  0.66619223  1
  C  C18  1  0.00809545  0.00135386  0.35414007  1
  C  C19  1  0.99267482  0.99403284  0.85481961  1
  C  C20  1  0.67088676  0.32861341  0.68321066  1
  C  C21  1  0.65372823  0.32140903  0.18229313  1
  C  C22  1  0.99335020  0.98762576  0.64526748  1
  C  C23  1  0.01169359  0.00202908  0.14532425  1
  C  C24  1  0.67111038  0.33337447  0.98050457  1
  C  C25  1  0.66224278  0.32981410  0.48023938  1
  C  C26  1  0.32779740  0.66421067  0.02153085  1
  C  C27  1  0.33566362  0.66600452  0.52084341  1
  C  C28  1  0.33090204  0.67360674  0.31198322  1
  C  C29  1  0.33619437  0.67945519  0.81213941  1
  Ni  Ni30  1  0.30102919  0.00581413  0.25529377  1
  Ni  Ni31  1  0.00014581  0.70577882  0.75466074  1
  Ni  Ni32  1  0.70682985  0.00130499  0.75390540  1
  Ni  Ni33  1  0.96110172  0.33290217  0.58574780  1
  Ni  Ni34  1  0.37624846  0.04574715  0.58445637  1
  Ni  Ni35  1  0.65918887  0.61708188  0.58777840  1
  Ni  Ni36  1  0.95501948  0.61442371  0.08876316  1
  Ni  Ni37  1  0.66970143  0.04387739  0.08509216  1
  Ni  Ni38  1  0.38033061  0.33772296  0.08476155  1
  Ni  Ni39  1  0.61912349  0.66071959  0.91676743  1
  Ni  Ni40  1  0.04183236  0.38015272  0.91446928  1
  Ni  Ni41  1  0.33806563  0.96436990  0.91821537  1
  Ni  Ni42  1  0.62349375  0.96073752  0.41612433  1
  Ni  Ni43  1  0.33909836  0.38190618  0.41383899  1
  Ni  Ni44  1  0.03869210  0.66179885  0.41709774  1
  Cu  Cu45  1  0.70721044  0.71224840  0.25222476  1
  Cu  Cu46  1  0.00435636  0.29051003  0.25247728  1
  Cu  Cu47  1  0.28552630  0.28804849  0.75199567  1
  C  C48  1  0.20580639  0.00783756  0.31511753  1
  C  C49  1  0.79856899  0.80181314  0.30668757  1
  C  C50  1  0.99262570  0.20019806  0.30837459  1
  C  C51  1  0.20813190  0.19995574  0.80818198  1
  C  C52  1  0.98808893  0.79898963  0.81317801  1
  C  C53  1  0.81434807  0.02276805  0.81324208  1
  C  C54  1  0.81046901  0.97608231  0.69423833  1
  C  C55  1  0.17568088  0.19400852  0.69906431  1
  C  C56  1  0.01954656  0.82451706  0.69317146  1
  C  C57  1  0.79570307  0.81797451  0.19712705  1
  C  C58  1  0.01642242  0.19192916  0.19962218  1
  C  C59  1  0.17253721  0.98540439  0.19545002  1
  C  C60  1  0.89619735  0.38530282  0.64366194  1
  C  C61  1  0.51002373  0.12369599  0.63678126  1
  C  C62  1  0.63507133  0.51718851  0.64795227  1
  C  C63  1  0.87113106  0.50229475  0.14518657  1
  C  C64  1  0.60434524  0.11405802  0.13699449  1
  C  C65  1  0.50659663  0.39335768  0.13930034  1
  C  C66  1  0.46463622  0.29588991  0.02454191  1
  C  C67  1  0.83413576  0.53191440  0.02690858  1
  C  C68  1  0.70171488  0.16257338  0.02306848  1
  C  C69  1  0.46232713  0.15792755  0.52164885  1
  C  C70  1  0.69094756  0.52395989  0.52850972  1
  C  C71  1  0.83148241  0.29987705  0.52683983  1
  C  C72  1  0.51374722  0.67468850  0.97381190  1
  C  C73  1  0.15905628  0.48772278  0.97168203  1
  C  C74  1  0.32024676  0.84841834  0.97657912  1
  C  C75  1  0.53010857  0.84762081  0.47596630  1
  C  C76  1  0.32632306  0.48878876  0.47131246  1
  C  C77  1  0.16014640  0.68483228  0.47480614  1
  C  C78  1  0.13644133  0.63056034  0.35894431  1
  C  C79  1  0.49237825  0.86075606  0.35895930  1
  C  C80  1  0.36990571  0.50543723  0.35558930  1
  C  C81  1  0.13501047  0.49884814  0.85473087  1
  C  C82  1  0.36532012  0.86351929  0.85961493  1
  C  C83  1  0.49696775  0.63080707  0.85706971  1
  C  C84  1  0.01071690  0.82274552  0.41491286  1
  C  C85  1  0.80963708  0.98254368  0.41059544  1
  C  C86  1  0.17113015  0.19762815  0.41363307  1
  C  C87  1  0.02477513  0.19584841  0.91400378  1
  C  C88  1  0.17569863  0.98925506  0.91487505  1
  C  C89  1  0.80489106  0.82689210  0.91702673  1
  C  C90  1  0.97038841  0.15619243  0.59090523  1
  C  C91  1  0.18362102  0.02128841  0.59094225  1
  C  C92  1  0.83907572  0.81031853  0.58906009  1
  C  C93  1  0.97190812  0.81078547  0.09405130  1
  C  C94  1  0.83686641  0.01821967  0.09441532  1
  C  C95  1  0.19036720  0.16007717  0.09190899  1
  C  C96  1  0.68006121  0.16096753  0.74453843  1
  C  C97  1  0.45916230  0.31770203  0.74631474  1
  C  C98  1  0.83364199  0.51824878  0.74916818  1
  C  C99  1  0.69041568  0.54351339  0.24908646  1
  C  C100  1  0.85934935  0.31746002  0.24633643  1
  C  C101  1  0.48716941  0.16556131  0.24684972  1
  C  C102  1  0.62901527  0.48366662  0.92231652  1
  C  C103  1  0.85592864  0.37231345  0.92042707  1
  C  C104  1  0.51868257  0.14703111  0.92010383  1
  C  C105  1  0.63109919  0.14605521  0.42024624  1
  C  C106  1  0.51602670  0.37200731  0.42133722  1
  C  C107  1  0.85527120  0.48236477  0.42232992  1
  C  C108  1  0.34108144  0.49430704  0.07304131  1
  C  C109  1  0.15577301  0.66595842  0.07795227  1
  C  C110  1  0.50972819  0.84545983  0.07336006  1
  C  C111  1  0.33966530  0.84708019  0.57500707  1
  C  C112  1  0.50777719  0.66524556  0.57730184  1
  C  C113  1  0.15221194  0.49632933  0.57240076  1
  C  C114  1  0.30464694  0.81719021  0.25359076  1
  C  C115  1  0.53211708  0.69826917  0.25121768  1
  C  C116  1  0.17132850  0.46023335  0.25129614  1
  C  C117  1  0.29028906  0.45913795  0.75024984  1
  C  C118  1  0.17639326  0.68649836  0.75309723  1
  C  C119  1  0.52262043  0.81086568  0.75376002  1
