# generated using pymatgen
data_Cu6NiC18
_symmetry_space_group_name_H-M   'P 1'
_cell_length_a   8.46555547
_cell_length_b   8.28948259
_cell_length_c   9.64015474
_cell_angle_alpha   78.90235338
_cell_angle_beta   100.87396657
_cell_angle_gamma   153.45449967
_symmetry_Int_Tables_number   1
_chemical_formula_structural   Cu6NiC18
_chemical_formula_sum   'Cu6 Ni1 C18'
_cell_volume   296.47040759
_cell_formula_units_Z   1
loop_
 _symmetry_equiv_pos_site_id
 _symmetry_equiv_pos_as_xyz
  1  'x, y, z'
loop_
 _atom_site_type_symbol
 _atom_site_label
 _atom_site_symmetry_multiplicity
 _atom_site_fract_x
 _atom_site_fract_y
 _atom_site_fract_z
 _atom_site_occupancy
  Ni  Ni0  1  0.31436200  0.71973600  0.97526400  1
  Cu  Cu1  1  0.78954600  0.25668100  0.75896800  1
  Cu  Cu2  1  0.25576400  0.80947800  0.22314000  1
  Cu  Cu3  1  0.83940600  0.19040400  0.48260700  1
  Cu  Cu4  1  0.21006500  0.87867700  0.50827400  1
  Cu  Cu5  1  0.87272000  0.13350300  0.20301700  1
  Cu  Cu6  1  0.17386600  0.92612600  0.81594500  1
  C  C7  1  0.67873000  0.67693400  0.13486800  1
  C  C8  1  0.03707300  0.94115000  0.22341900  1
  C  C9  1  0.02979900  0.04276300  0.95220900  1
  C  C10  1  0.99770300  0.09520600  0.78231400  1
  C  C11  1  0.83800400  0.18453600  0.96054300  1
  C  C12  1  0.22094700  0.85773900  0.03469000  1
  C  C13  1  0.87540900  0.14641300  0.67550100  1
  C  C14  1  0.17808100  0.92592000  0.31344900  1
  C  C15  1  0.91409700  0.08623700  0.39520100  1
  C  C16  1  0.14570100  0.97144300  0.61151700  1
  C  C17  1  0.92088600  0.93459700  0.14807900  1
  C  C18  1  0.07725400  0.06760800  0.85655600  1
  C  C19  1  0.69533400  0.39624600  0.81643600  1
  C  C20  1  0.35966900  0.65246000  0.17539600  1
  C  C21  1  0.74052800  0.33302800  0.54585300  1
  C  C22  1  0.31006600  0.73258600  0.45453700  1
  C  C23  1  0.78216700  0.27148900  0.26090600  1
  C  C24  1  0.27417900  0.78024000  0.76440300  1
