# generated using pymatgen
data_CuNi3C22
_symmetry_space_group_name_H-M   'P 1'
_cell_length_a   18.24450240
_cell_length_b   9.14802080
_cell_length_c   23.13385272
_cell_angle_alpha   90.05198368
_cell_angle_beta   89.85345069
_cell_angle_gamma   119.96703870
_symmetry_Int_Tables_number   1
_chemical_formula_structural   CuNi3C22
_chemical_formula_sum   'Cu9 Ni27 C198'
_cell_volume   3344.87933066
_cell_formula_units_Z   9
loop_
 _symmetry_equiv_pos_site_id
 _symmetry_equiv_pos_as_xyz
  1  'x, y, z'
loop_
 _atom_site_type_symbol
 _atom_site_label
 _atom_site_symmetry_multiplicity
 _atom_site_fract_x
 _atom_site_fract_y
 _atom_site_fract_z
 _atom_site_occupancy
  C  C0  1  0.32144600  0.99904792  0.24947553  1
  C  C1  1  0.82211687  0.99945773  0.24946400  1
  C  C2  1  0.18373794  0.98874799  0.74765949  1
  C  C3  1  0.68381600  0.99487531  0.74683566  1
  C  C4  1  0.01792668  0.70564403  0.58043383  1
  C  C5  1  0.51782696  0.70632552  0.58002064  1
  C  C6  1  0.01798717  0.33099428  0.08019509  1
  C  C7  1  0.51651829  0.32606326  0.08041817  1
  C  C8  1  0.48426091  0.66464284  0.91368274  1
  C  C9  1  0.34895238  0.03106003  0.91573921  1
  C  C10  1  0.85189886  0.04326396  0.91357084  1
  C  C11  1  0.16445505  0.30583705  0.91971916  1
  C  C12  1  0.48490196  0.30577914  0.41449795  1
  C  C13  1  0.98527915  0.30682426  0.41417271  1
  C  C14  1  0.16559358  0.02769075  0.41884182  1
  C  C15  1  0.66561051  0.02725472  0.41902768  1
  C  C16  1  0.34890803  0.66609395  0.41626209  1
  C  C17  1  0.84953056  0.66693685  0.41583055  1
  C  C18  1  0.00219086  0.00198345  0.50115908  1
  C  C19  1  0.50220344  0.00184218  0.50116999  1
  C  C20  1  0.00696679  0.00127275  0.00180491  1
  C  C21  1  0.50680693  0.01203703  0.99859501  1
  C  C22  1  0.34307527  0.34266449  0.83207212  1
  C  C23  1  0.84571128  0.34639546  0.83240474  1
  C  C24  1  0.33999301  0.35139704  0.33148396  1
  C  C25  1  0.84012639  0.35171686  0.33108829  1
  C  C26  1  0.17278030  0.65945504  0.16562500  1
  C  C27  1  0.67337182  0.65839560  0.16781597  1
  C  C28  1  0.17720575  0.67725952  0.66709524  1
  C  C29  1  0.67776816  0.67572778  0.66499016  1
  C  C30  1  0.99504644  0.99591382  0.35154556  1
  C  C31  1  0.99706128  0.99469017  0.85157844  1
  C  C32  1  0.49615620  0.99817553  0.85425926  1
  C  C33  1  0.99421932  0.98238513  0.64802723  1
  C  C34  1  0.99538774  0.00737860  0.14684128  1
  C  C35  1  0.83107635  0.33863506  0.18561131  1
  C  C36  1  0.82887626  0.31836070  0.98143821  1
  C  C37  1  0.17295016  0.67191408  0.01751648  1
  C  C38  1  0.66821522  0.66801689  0.02012962  1
  C  C39  1  0.17341385  0.67625305  0.51842520  1
  C  C40  1  0.16532878  0.66965211  0.81608509  1
  C  C41  1  0.66291836  0.67354996  0.81292050  1
  C  C42  1  0.49455529  0.99524623  0.35160031  1
  C  C43  1  0.49363409  0.98325322  0.64798107  1
  C  C44  1  0.49633231  0.00911534  0.14671730  1
  C  C45  1  0.33301245  0.33274744  0.68639123  1
  C  C46  1  0.83396503  0.33432187  0.68684041  1
  C  C47  1  0.32964161  0.33658161  0.18546953  1
  C  C48  1  0.32668939  0.31843415  0.97955422  1
  C  C49  1  0.32757118  0.33266748  0.48173946  1
  C  C50  1  0.82860961  0.33428488  0.48181807  1
  C  C51  1  0.67488760  0.67813873  0.51836904  1
  C  C52  1  0.16431792  0.65072513  0.31408407  1
  C  C53  1  0.66564864  0.65248629  0.31431097  1
  Ni  Ni54  1  0.35241072  0.70376557  0.24987743  1
  Ni  Ni55  1  0.85417805  0.70531501  0.24976549  1
  Ni  Ni56  1  0.99901498  0.29535275  0.24930348  1
  Ni  Ni57  1  0.49976613  0.29953739  0.24968192  1
  Ni  Ni58  1  -0.00030168  0.70443504  0.75037747  1
  Ni  Ni59  1  0.49781133  0.70476462  0.75159058  1
  Ni  Ni60  1  0.35180371  0.99806257  0.75171989  1
  Ni  Ni61  1  0.85316557  0.99822757  0.75139571  1
  Ni  Ni62  1  0.18382614  0.03626064  0.58488548  1
  Ni  Ni63  1  0.68459252  0.03808384  0.58506879  1
  Ni  Ni64  1  0.32969325  0.62311906  0.58346119  1
  Ni  Ni65  1  0.83123684  0.62477734  0.58407435  1
  Ni  Ni66  1  0.32904690  0.03513192  0.08432704  1
  Ni  Ni67  1  0.83037716  0.03903197  0.08486628  1
  Ni  Ni68  1  0.18391794  0.33278420  0.08266668  1
  Ni  Ni69  1  0.68762219  0.33408435  0.08278294  1
  Ni  Ni70  1  0.31225768  0.66539704  0.91486055  1
  Ni  Ni71  1  0.02008718  0.37774535  0.91766666  1
  Ni  Ni72  1  0.52348593  0.37656959  0.91796330  1
  Ni  Ni73  1  0.16158392  0.95063396  0.91670624  1
  Ni  Ni74  1  0.66599699  0.95792416  0.91676168  1
  Ni  Ni75  1  0.31165967  0.95960749  0.41417262  1
  Ni  Ni76  1  0.81354233  0.96222676  0.41333581  1
  Ni  Ni77  1  0.16422796  0.37292350  0.41815825  1
  Ni  Ni78  1  0.66504042  0.37276098  0.41813129  1
  Ni  Ni79  1  0.02207101  0.66784020  0.41816306  1
  Ni  Ni80  1  0.52151824  0.66595056  0.41806553  1
  Cu  Cu81  1  0.14369419  0.99900868  0.24948797  1
  Cu  Cu82  1  0.64646512  0.00107799  0.24915305  1
  Cu  Cu83  1  0.14299845  0.29003951  0.74986968  1
  Cu  Cu84  1  0.64407780  0.29186737  0.75068435  1
  Cu  Cu85  1  0.47955116  0.33207970  0.58305434  1
  Cu  Cu86  1  0.98017989  0.33193224  0.58315213  1
  Cu  Cu87  1  0.47984218  0.62653599  0.08234747  1
  Cu  Cu88  1  0.97703914  0.62310409  0.08303881  1
  Cu  Cu89  1  0.81091271  0.66408683  0.91631052  1
  C  C90  1  0.10504023  0.02093540  0.30325085  1
  C  C91  1  0.60881244  0.02463838  0.30291392  1
  C  C92  1  0.40800007  0.78922108  0.30914030  1
  C  C93  1  0.90974641  0.79245149  0.30896670  1
  C  C94  1  0.48632256  0.17925537  0.30680181  1
  C  C95  1  0.98571439  0.17520846  0.30652352  1
  C  C96  1  0.10345321  0.18504587  0.80302501  1
  C  C97  1  0.60382076  0.18330631  0.80187910  1
  C  C98  1  0.49033795  0.80193311  0.80831904  1
  C  C99  1  0.98980576  0.80786505  0.80518936  1
  C  C100  1  0.41028532  0.02635580  0.80895027  1
  C  C101  1  0.90899507  0.02338142  0.81015270  1
  C  C102  1  0.40258433  0.98243563  0.69567974  1
  C  C103  1  0.90426987  0.98308774  0.69592798  1
  C  C104  1  0.09135872  0.20564227  0.69836942  1
  C  C105  1  0.59403011  0.21672394  0.69812798  1
  C  C106  1  0.01635674  0.82581781  0.69294288  1
  C  C107  1  0.51814467  0.82613260  0.69397622  1
  C  C108  1  0.40389773  0.82930058  0.19590504  1
  C  C109  1  0.90504566  0.83075771  0.19570387  1
  C  C110  1  0.01151575  0.20172634  0.19240133  1
  C  C111  1  0.51277252  0.20751165  0.19242290  1
  C  C112  1  0.09227349  0.98116530  0.19863980  1
  C  C113  1  0.59433608  0.98062005  0.19858744  1
  C  C114  1  0.43685022  0.35615201  0.63386675  1
  C  C115  1  0.93809919  0.35776027  0.63380339  1
  C  C116  1  0.24261329  0.12715311  0.64173585  1
  C  C117  1  0.74286593  0.12876535  0.64212628  1
  C  C118  1  0.32327230  0.50604222  0.63846438  1
  C  C119  1  0.82456390  0.50598458  0.63850962  1
  C  C120  1  0.43966237  0.51670835  0.13343497  1
  C  C121  1  0.93617840  0.51446319  0.13485783  1
  C  C122  1  0.32278735  0.13288366  0.14189123  1
  C  C123  1  0.82141903  0.13359881  0.14192074  1
  C  C124  1  0.24629290  0.36083348  0.13739991  1
  C  C125  1  0.74722799  0.36073615  0.13886807  1
  C  C126  1  0.22940903  0.31125981  0.02429683  1
  C  C127  1  0.73728518  0.31739168  0.02661622  1
  C  C128  1  0.43005811  0.55074580  0.02947755  1
  C  C129  1  0.92514605  0.54478382  0.03112698  1
  C  C130  1  0.34995421  0.15949759  0.02741720  1
  C  C131  1  0.84970020  0.16160171  0.02755288  1
  C  C132  1  0.23012685  0.14851796  0.52651973  1
  C  C133  1  0.73155404  0.14914892  0.52656825  1
  C  C134  1  0.35033852  0.54411446  0.52552002  1
  C  C135  1  0.85150805  0.54631869  0.52574988  1
  C  C136  1  0.42930709  0.30799300  0.52977766  1
  C  C137  1  0.92966856  0.30551129  0.52997783  1
  C  C138  1  0.26992671  0.70337158  0.97119131  1
  C  C139  1  0.77170782  0.69428318  0.96799175  1
  C  C140  1  0.07886625  0.45810610  0.97547433  1
  C  C141  1  0.57857807  0.46547993  0.97638819  1
  C  C142  1  0.15029534  0.83547990  0.97264841  1
  C  C143  1  0.65294896  0.83213746  0.97088511  1
  C  C144  1  0.26795108  0.83417458  0.46962574  1
  C  C145  1  0.77143875  0.83706267  0.46909940  1
  C  C146  1  0.14578913  0.46149593  0.47283547  1
  C  C147  1  0.64596009  0.45956587  0.47290259  1
  C  C148  1  0.07911258  0.69937911  0.47634954  1
  C  C149  1  0.57829278  0.69912862  0.47648522  1
  C  C150  1  0.06686335  0.63358065  0.36288522  1
  C  C151  1  0.56726548  0.63353037  0.36289739  1
  C  C152  1  0.25361090  0.88091080  0.35686741  1
  C  C153  1  0.75410158  0.88215722  0.35677858  1
  C  C154  1  0.18613758  0.49575508  0.36183720  1
  C  C155  1  0.68650142  0.49576804  0.36187314  1
  C  C156  1  0.06760647  0.49204011  0.86119622  1
  C  C157  1  0.57211970  0.50171584  0.86315691  1
  C  C158  1  0.18201528  0.87351446  0.85886317  1
  C  C159  1  0.68543686  0.87470227  0.85919777  1
  C  C160  1  0.25007301  0.62866256  0.86013906  1
  C  C161  1  0.75970836  0.64014291  0.86425867  1
  C  C162  1  0.01347349  0.83774234  0.40986112  1
  C  C163  1  0.51305359  0.83592288  0.41060206  1
  C  C164  1  0.40627407  0.97751132  0.41143335  1
  C  C165  1  0.90765470  0.97896886  0.40951627  1
  C  C166  1  0.08291901  0.18372903  0.40902258  1
  C  C167  1  0.58395875  0.18344666  0.40986480  1
  C  C168  1  0.00851651  0.18490738  0.90988842  1
  C  C169  1  0.50828228  0.18578387  0.91076085  1
  C  C170  1  0.08362996  0.99062530  0.90939759  1
  C  C171  1  0.58077651  0.96969999  0.90945461  1
  C  C172  1  0.40617158  0.83542509  0.90996761  1
  C  C173  1  0.89550951  0.82373648  0.91090210  1
  C  C174  1  0.49031357  0.18435554  0.58987881  1
  C  C175  1  0.99108414  0.18353999  0.59101302  1
  C  C176  1  0.08999700  0.02000378  0.59032730  1
  C  C177  1  0.59067053  0.02133162  0.58906818  1
  C  C178  1  0.41751572  0.80890789  0.58873823  1
  C  C179  1  0.91854661  0.81090707  0.58987427  1
  C  C180  1  0.49212324  0.79592318  0.09003368  1
  C  C181  1  0.98802135  0.79302108  0.09085130  1
  C  C182  1  0.41756162  0.02517996  0.08823588  1
  C  C183  1  0.91816876  0.02744696  0.08919939  1
  C  C184  1  0.09076817  0.16100472  0.08964426  1
  C  C185  1  0.59300723  0.16520564  0.08825686  1
  C  C186  1  0.33629263  0.16107183  0.74562797  1
  C  C187  1  0.83613711  0.15877401  0.74570484  1
  C  C188  1  0.22693203  0.29904075  0.74564470  1
  C  C189  1  0.72877533  0.30254166  0.74573025  1
  C  C190  1  0.41553848  0.51795654  0.74441485  1
  C  C191  1  0.91549074  0.51881131  0.74436720  1
  C  C192  1  0.34196689  0.51667314  0.24456693  1
  C  C193  1  0.84318761  0.51765003  0.24348760  1
  C  C194  1  0.40987466  0.29867168  0.24429509  1
  C  C195  1  0.90966094  0.29712331  0.24305255  1
  C  C196  1  0.23015934  0.15163540  0.24534721  1
  C  C197  1  0.73306310  0.15424279  0.24386499  1
  C  C198  1  0.32540837  0.50212694  0.92282538  1
  C  C199  1  0.82369410  0.51931116  0.92391176  1
  C  C200  1  0.42977131  0.36315667  0.92276692  1
  C  C201  1  0.92442184  0.35222904  0.92379046  1
  C  C202  1  0.24869657  0.14020615  0.92162733  1
  C  C203  1  0.75293076  0.14247326  0.92358226  1
  C  C204  1  0.32541293  0.14893492  0.42363300  1
  C  C205  1  0.82679916  0.15091338  0.42327145  1
  C  C206  1  0.24935514  0.35431652  0.42315516  1
  C  C207  1  0.75055503  0.35539663  0.42290136  1
  C  C208  1  0.42737365  0.49668701  0.42323953  1
  C  C209  1  0.92797743  0.49863236  0.42375820  1
  C  C210  1  0.16702772  0.49291768  0.07827800  1
  C  C211  1  0.67100802  0.49563713  0.07676975  1
  C  C212  1  0.06063066  0.63257322  0.07794055  1
  C  C213  1  0.56458242  0.63603009  0.07733199  1
  C  C214  1  0.24526068  0.85050963  0.07863740  1
  C  C215  1  0.74839400  0.85220333  0.07556313  1
  C  C216  1  0.16789429  0.84263869  0.57861594  1
  C  C217  1  0.66839120  0.84409192  0.58023206  1
  C  C218  1  0.24567097  0.64006888  0.57836352  1
  C  C219  1  0.74703209  0.64107188  0.58011295  1
  C  C220  1  0.06331597  0.48934501  0.57803050  1
  C  C221  1  0.56259138  0.49011372  0.57886688  1
  C  C222  1  0.15530519  0.85032017  0.25386989  1
  C  C223  1  0.65858052  0.85298366  0.25375149  1
  C  C224  1  0.26324919  0.70663868  0.25369080  1
  C  C225  1  0.76439620  0.70687104  0.25378268  1
  C  C226  1  0.08215647  0.48230612  0.25349788  1
  C  C227  1  0.58312037  0.48619313  0.25322976  1
  C  C228  1  0.15328904  0.45824354  0.75531854  1
  C  C229  1  0.65671886  0.46301095  0.75863668  1
  C  C230  1  0.08659464  0.69488285  0.75572908  1
  C  C231  1  0.58603486  0.69460186  0.75667815  1
  C  C232  1  0.25742497  0.82989713  0.75559060  1
  C  C233  1  0.75911743  0.82755795  0.75668563  1
