# generated using pymatgen
data_Cu2Ni10C7
_symmetry_space_group_name_H-M   'P 1'
_cell_length_a   4.89290694
_cell_length_b   13.72919495
_cell_length_c   2.91044871
_cell_angle_alpha   89.99146098
_cell_angle_beta   90.00056594
_cell_angle_gamma   99.73960159
_symmetry_Int_Tables_number   1
_chemical_formula_structural   Cu2Ni10C7
_chemical_formula_sum   'Cu2 Ni10 C7'
_cell_volume   192.69340062
_cell_formula_units_Z   1
loop_
 _symmetry_equiv_pos_site_id
 _symmetry_equiv_pos_as_xyz
  1  'x, y, z'
loop_
 _atom_site_type_symbol
 _atom_site_label
 _atom_site_symmetry_multiplicity
 _atom_site_fract_x
 _atom_site_fract_y
 _atom_site_fract_z
 _atom_site_occupancy
  C  C0  1  0.87922809  0.82224481  0.99118303  1
  C  C1  1  0.95245812  0.01788538  0.99159086  1
  C  C2  1  0.02369027  0.34380884  0.99108952  1
  C  C3  1  0.16505522  0.62158648  0.99073421  1
  C  C4  1  0.51633148  0.16351912  0.49148597  1
  C  C5  1  0.59322886  0.48964649  0.49099802  1
  C  C6  1  0.39515753  0.85367133  0.49131123  1
  Ni  Ni7  1  0.06897054  0.93259311  0.49155111  1
  Ni  Ni8  1  0.34307323  0.57750378  0.49085945  1
  Ni  Ni9  1  0.22199836  0.76863364  0.99143042  1
  Ni  Ni10  1  0.31106759  0.10015281  0.99166845  1
  Ni  Ni11  1  0.38875423  0.42442817  0.99122413  1
  Ni  Ni12  1  0.78981929  0.55918930  0.99076652  1
  Ni  Ni13  1  0.68923965  0.23600958  0.99124818  1
  Ni  Ni14  1  0.60290469  0.91770973  0.99129667  1
  Ni  Ni15  1  0.81549876  0.07975642  0.49152856  1
  Ni  Ni16  1  0.85919478  0.40446369  0.49105539  1
  Cu  Cu17  1  0.17599947  0.26539526  0.49111448  1
  Cu  Cu18  1  0.69444285  0.75050606  0.49119679  1
