# generated using pymatgen
data_Cu24Ni6C5
_symmetry_space_group_name_H-M   'P 1'
_cell_length_a   9.13217322
_cell_length_b   9.13217290
_cell_length_c   23.90674114
_cell_angle_alpha   90.00000000
_cell_angle_beta   90.00000000
_cell_angle_gamma   120.00000116
_symmetry_Int_Tables_number   1
_chemical_formula_structural   Cu24Ni6C5
_chemical_formula_sum   'Cu72 Ni18 C15'
_cell_volume   1726.62995727
_cell_formula_units_Z   3
loop_
 _symmetry_equiv_pos_site_id
 _symmetry_equiv_pos_as_xyz
  1  'x, y, z'
loop_
 _atom_site_type_symbol
 _atom_site_label
 _atom_site_symmetry_multiplicity
 _atom_site_fract_x
 _atom_site_fract_y
 _atom_site_fract_z
 _atom_site_occupancy
  C  C0  1  0.00000000  -0.00000000  0.00527609  1
  C  C1  1  0.66666700  0.33333300  0.83676714  1
  C  C2  1  0.66666700  0.33333300  0.31937740  1
  C  C3  1  0.00000000  -0.00000000  0.35259304  1
  C  C4  1  0.00000000  -0.00000000  0.85936697  1
  C  C5  1  0.00000000  -0.00000000  0.15421672  1
  C  C6  1  0.66666700  0.33333300  0.67873492  1
  C  C7  1  0.66666700  0.33333300  0.18301169  1
  C  C8  1  0.66666700  0.33333300  0.98409364  1
  C  C9  1  0.66666700  0.33333300  0.48629251  1
  C  C10  1  0.33333300  0.66666700  0.30579904  1
  C  C11  1  0.33333300  0.66666700  0.80658326  1
  C  C12  1  0.00000000  -0.00000000  0.64843857  1
  C  C13  1  0.33333300  0.66666700  0.02063959  1
  C  C14  1  0.33333300  0.66666700  0.51442698  1
  Ni  Ni15  1  0.30329583  0.01047513  0.25160984  1
  Ni  Ni16  1  0.70717930  0.69670417  0.25160984  1
  Ni  Ni17  1  0.98952487  0.29282070  0.25160984  1
  Ni  Ni18  1  0.28641232  0.28060819  0.74824323  1
  Ni  Ni19  1  0.99419587  0.71358768  0.74824323  1
  Ni  Ni20  1  0.71939181  0.00580413  0.74824323  1
  Ni  Ni21  1  0.97888686  0.33384505  0.58393416  1
  Ni  Ni22  1  0.35495919  0.02111314  0.58393416  1
  Ni  Ni23  1  0.66615495  0.64504081  0.58393416  1
  Ni  Ni24  1  0.97402900  0.63780971  0.07876801  1
  Ni  Ni25  1  0.66378172  0.02597100  0.07876801  1
  Ni  Ni26  1  0.36219029  0.33621828  0.07876801  1
  Ni  Ni27  1  0.61725837  0.66667262  0.91844982  1
  Ni  Ni28  1  0.04941325  0.38274163  0.91844982  1
  Ni  Ni29  1  0.33332738  0.95058675  0.91844982  1
  Ni  Ni30  1  0.61995209  0.95662928  0.41773341  1
  Ni  Ni31  1  0.33667619  0.38004791  0.41773341  1
  Ni  Ni32  1  0.04337072  0.66332381  0.41773341  1
  Cu  Cu33  1  0.21830622  0.02793850  0.30223242  1
  Cu  Cu34  1  0.80963228  0.78169378  0.30223242  1
  Cu  Cu35  1  0.97206150  0.19036772  0.30223242  1
  Cu  Cu36  1  0.20671699  0.18078930  0.79840381  1
  Cu  Cu37  1  0.97407230  0.79328301  0.79840381  1
  Cu  Cu38  1  0.81921070  0.02592770  0.79840381  1
  Cu  Cu39  1  0.82218795  0.99907165  0.69607635  1
  Cu  Cu40  1  0.17688370  0.17781205  0.69607635  1
  Cu  Cu41  1  0.00092835  0.82311630  0.69607635  1
  Cu  Cu42  1  0.78970171  0.79065777  0.19986630  1
  Cu  Cu43  1  0.00095606  0.21029829  0.19986630  1
  Cu  Cu44  1  0.20934223  0.99904394  0.19986630  1
  Cu  Cu45  1  0.91111863  0.37542954  0.63305224  1
  Cu  Cu46  1  0.46431190  0.08888137  0.63305224  1
  Cu  Cu47  1  0.62457046  0.53568810  0.63305224  1
  Cu  Cu48  1  0.91254928  0.53609375  0.12908206  1
  Cu  Cu49  1  0.62354546  0.08745072  0.12908206  1
  Cu  Cu50  1  0.46390625  0.37645454  0.12908206  1
  Cu  Cu51  1  0.44434225  0.31556246  0.02913290  1
  Cu  Cu52  1  0.87122122  0.55565775  0.02913290  1
  Cu  Cu53  1  0.68443754  0.12877878  0.02913290  1
  Cu  Cu54  1  0.41848650  0.13343398  0.53559180  1
  Cu  Cu55  1  0.71494848  0.58151350  0.53559180  1
  Cu  Cu56  1  0.86656602  0.28505152  0.53559180  1
  Cu  Cu57  1  0.51664378  0.67204951  0.96893815  1
  Cu  Cu58  1  0.15540473  0.48335622  0.96893815  1
  Cu  Cu59  1  0.32795049  0.84459527  0.96893815  1
  Cu  Cu60  1  0.51155370  0.84240547  0.47200944  1
  Cu  Cu61  1  0.33085078  0.48844630  0.47200944  1
  Cu  Cu62  1  0.15759453  0.66914922  0.47200944  1
  Cu  Cu63  1  0.12535883  0.64166422  0.36961507  1
  Cu  Cu64  1  0.51630440  0.87464117  0.36961507  1
  Cu  Cu65  1  0.35833578  0.48369560  0.36961507  1
  Cu  Cu66  1  0.13058744  0.47372386  0.86670160  1
  Cu  Cu67  1  0.34313542  0.86941256  0.86670160  1
  Cu  Cu68  1  0.52627614  0.65686458  0.86670160  1
  Cu  Cu69  1  0.04427208  0.82194692  0.42128053  1
  Cu  Cu70  1  0.77767485  0.95572792  0.42128053  1
  Cu  Cu71  1  0.17805308  0.22232515  0.42128053  1
  Cu  Cu72  1  0.04105479  0.21653736  0.92183356  1
  Cu  Cu73  1  0.17548257  0.95894521  0.92183356  1
  Cu  Cu74  1  0.78346264  0.82451743  0.92183356  1
  Cu  Cu75  1  0.00395758  0.18285693  0.59856440  1
  Cu  Cu76  1  0.17889935  0.99604242  0.59856440  1
  Cu  Cu77  1  0.81714307  0.82110065  0.59856440  1
  Cu  Cu78  1  0.00921236  0.81217121  0.08305462  1
  Cu  Cu79  1  0.80295885  0.99078764  0.08305462  1
  Cu  Cu80  1  0.18782879  0.19704115  0.08305462  1
  Cu  Cu81  1  0.70186944  0.15586680  0.74002737  1
  Cu  Cu82  1  0.45399836  0.29813056  0.74002737  1
  Cu  Cu83  1  0.84413320  0.54600164  0.74002737  1
  Cu  Cu84  1  0.68869216  0.52480826  0.24889278  1
  Cu  Cu85  1  0.83611710  0.31130784  0.24889278  1
  Cu  Cu86  1  0.47519174  0.16388290  0.24889278  1
  Cu  Cu87  1  0.63635923  0.51564733  0.92276543  1
  Cu  Cu88  1  0.87928910  0.36364077  0.92276543  1
  Cu  Cu89  1  0.48435267  0.12071090  0.92276543  1
  Cu  Cu90  1  0.63365610  0.12070627  0.42868670  1
  Cu  Cu91  1  0.48705117  0.36634390  0.42868670  1
  Cu  Cu92  1  0.87929373  0.51294883  0.42868670  1
  Cu  Cu93  1  0.34668573  0.49775810  0.06612147  1
  Cu  Cu94  1  0.15107137  0.65331427  0.06612147  1
  Cu  Cu95  1  0.50224190  0.84892863  0.06612147  1
  Cu  Cu96  1  0.32536326  0.84719334  0.57091022  1
  Cu  Cu97  1  0.52182908  0.67463674  0.57091022  1
  Cu  Cu98  1  0.15280666  0.47817092  0.57091022  1
  Cu  Cu99  1  0.31858111  0.85836140  0.25548137  1
  Cu  Cu100  1  0.53977929  0.68141889  0.25548137  1
  Cu  Cu101  1  0.14163860  0.46022071  0.25548137  1
  Cu  Cu102  1  0.28788570  0.44081958  0.74662377  1
  Cu  Cu103  1  0.15293288  0.71211430  0.74662377  1
  Cu  Cu104  1  0.55918042  0.84706712  0.74662377  1
