# generated using pymatgen
data_Cu2NiC17
_symmetry_space_group_name_H-M   'P 1'
_cell_length_a   5.63009000
_cell_length_b   7.31371717
_cell_length_c   7.39717569
_cell_angle_alpha   92.59657748
_cell_angle_beta   90.00000000
_cell_angle_gamma   90.00000000
_symmetry_Int_Tables_number   1
_chemical_formula_structural   Cu2NiC17
_chemical_formula_sum   'Cu2 Ni1 C17'
_cell_volume   304.27992733
_cell_formula_units_Z   1
loop_
 _symmetry_equiv_pos_site_id
 _symmetry_equiv_pos_as_xyz
  1  'x, y, z'
loop_
 _atom_site_type_symbol
 _atom_site_label
 _atom_site_symmetry_multiplicity
 _atom_site_fract_x
 _atom_site_fract_y
 _atom_site_fract_z
 _atom_site_occupancy
  C  C0  1  0.50000000  0.52168000  0.48835100  1
  Ni  Ni1  1  0.00000000  0.33536300  0.74490000  1
  Cu  Cu2  1  0.00000000  0.97856900  0.47978400  1
  Cu  Cu3  1  0.50000000  0.49882000  0.01648600  1
  C  C4  1  0.50000000  0.90971100  0.26831700  1
  C  C5  1  0.00000000  0.30097300  0.13150200  1
  C  C6  1  0.00000000  0.71015300  0.88674100  1
  C  C7  1  0.50000000  0.09746300  0.72645800  1
  C  C8  1  0.77531500  0.55653400  0.79854300  1
  C  C9  1  0.50000000  0.21982300  0.92591400  1
  C  C10  1  0.73825100  0.19888800  0.60982800  1
  C  C11  1  0.22468500  0.55653400  0.79854300  1
  C  C12  1  0.00000000  0.09579600  0.22744100  1
  C  C13  1  0.50000000  0.77605000  0.07104200  1
  C  C14  1  0.26174900  0.19888800  0.60982800  1
  C  C15  1  0.72395000  0.81342200  0.39691500  1
  C  C16  1  0.00000000  0.89050600  0.75368900  1
  C  C17  1  0.27605000  0.81342200  0.39691500  1
  C  C18  1  0.75850300  0.42111100  0.21866100  1
  C  C19  1  0.24149700  0.42111100  0.21866100  1
