# generated using pymatgen
data_Cu2NiC2
_symmetry_space_group_name_H-M   'P 1'
_cell_length_a   7.73218900
_cell_length_b   7.73218900
_cell_length_c   3.72758700
_cell_angle_alpha   90.00000000
_cell_angle_beta   90.00000000
_cell_angle_gamma   90.00000000
_symmetry_Int_Tables_number   1
_chemical_formula_structural   Cu2NiC2
_chemical_formula_sum   'Cu4 Ni2 C4'
_cell_volume   222.86029989
_cell_formula_units_Z   2
loop_
 _symmetry_equiv_pos_site_id
 _symmetry_equiv_pos_as_xyz
  1  'x, y, z'
loop_
 _atom_site_type_symbol
 _atom_site_label
 _atom_site_symmetry_multiplicity
 _atom_site_fract_x
 _atom_site_fract_y
 _atom_site_fract_z
 _atom_site_occupancy
  C  C0  1  0.32668400  0.82668400  0.50000000  1
  C  C1  1  0.82668400  0.67331600  0.50000000  1
  C  C2  1  0.17331600  0.32668400  0.50000000  1
  C  C3  1  0.67331600  0.17331600  0.50000000  1
  Ni  Ni4  1  0.00000000  0.00000000  0.00000000  1
  Ni  Ni5  1  0.50000000  0.50000000  0.00000000  1
  Cu  Cu6  1  0.37178000  0.12822000  0.00000000  1
  Cu  Cu7  1  0.87178000  0.37178000  0.00000000  1
  Cu  Cu8  1  0.12822000  0.62822000  0.00000000  1
  Cu  Cu9  1  0.62822000  0.87178000  0.00000000  1
