# generated using pymatgen
data_Cu2Ni2C9
_symmetry_space_group_name_H-M   'P 1'
_cell_length_a   3.33522600
_cell_length_b   3.33546638
_cell_length_c   45.76510012
_cell_angle_alpha   90.00746224
_cell_angle_beta   89.99999374
_cell_angle_gamma   119.99761603
_symmetry_Int_Tables_number   1
_chemical_formula_structural   Cu2Ni2C9
_chemical_formula_sum   'Cu2 Ni2 C9'
_cell_volume   440.91747468
_cell_formula_units_Z   1
loop_
 _symmetry_equiv_pos_site_id
 _symmetry_equiv_pos_as_xyz
  1  'x, y, z'
loop_
 _atom_site_type_symbol
 _atom_site_label
 _atom_site_symmetry_multiplicity
 _atom_site_fract_x
 _atom_site_fract_y
 _atom_site_fract_z
 _atom_site_occupancy
  C  C0  1  0.99994600  0.99989200  0.56031100  1
  C  C1  1  0.66666100  0.33332200  0.05201200  1
  C  C2  1  0.66664900  0.33329700  0.13504500  1
  Ni  Ni3  1  0.33333600  0.66667100  0.09355100  1
  Ni  Ni4  1  0.66659300  0.33318600  0.28200600  1
  Cu  Cu5  1  0.33332700  0.66665400  0.46181800  1
  Cu  Cu6  1  0.66674600  0.33349400  0.66512600  1
  C  C7  1  0.33339400  0.66678700  0.31854700  1
  C  C8  1  0.33347800  0.66695500  0.70178100  1
  C  C9  1  0.33314400  0.66628800  0.24552500  1
  C  C10  1  0.33342400  0.66684900  0.62815100  1
  C  C11  1  0.66661300  0.33322500  0.42860600  1
  C  C12  1  0.66669100  0.33338200  0.49529400  1
