# generated using pymatgen
data_CuNi3C2
_symmetry_space_group_name_H-M   'P 1'
_cell_length_a   6.11639198
_cell_length_b   6.11639198
_cell_length_c   7.66724285
_cell_angle_alpha   96.92006244
_cell_angle_beta   96.92006244
_cell_angle_gamma   96.79401101
_symmetry_Int_Tables_number   1
_chemical_formula_structural   CuNi3C2
_chemical_formula_sum   'Cu2 Ni6 C4'
_cell_volume   280.09071814
_cell_formula_units_Z   2
loop_
 _symmetry_equiv_pos_site_id
 _symmetry_equiv_pos_as_xyz
  1  'x, y, z'
loop_
 _atom_site_type_symbol
 _atom_site_label
 _atom_site_symmetry_multiplicity
 _atom_site_fract_x
 _atom_site_fract_y
 _atom_site_fract_z
 _atom_site_occupancy
  C  C0  1  0.33266800  0.64012000  0.56723200  1
  C  C1  1  0.64012000  0.33266800  0.06723200  1
  C  C2  1  0.85072500  0.15786900  0.49951700  1
  C  C3  1  0.15786900  0.85072500  0.99951700  1
  Ni  Ni4  1  0.05035200  0.44006900  0.03286600  1
  Ni  Ni5  1  0.44006900  0.05035200  0.53286600  1
  Ni  Ni6  1  0.31506700  0.40552800  0.24725200  1
  Ni  Ni7  1  0.40552800  0.31506700  0.74725200  1
  Ni  Ni8  1  0.17554600  0.08518900  0.31849600  1
  Ni  Ni9  1  0.08518900  0.17554600  0.81849600  1
  Cu  Cu10  1  0.88054100  0.60832800  0.52663700  1
  Cu  Cu11  1  0.60832800  0.88054100  0.02663700  1
