# generated using pymatgen
data_CuNiC36
_symmetry_space_group_name_H-M   'P 1'
_cell_length_a   9.24324327
_cell_length_b   9.27143853
_cell_length_c   23.62116019
_cell_angle_alpha   90.36619983
_cell_angle_beta   89.76910456
_cell_angle_gamma   120.11965227
_symmetry_Int_Tables_number   1
_chemical_formula_structural   CuNiC36
_chemical_formula_sum   'Cu3 Ni3 C108'
_cell_volume   1750.93250558
_cell_formula_units_Z   3
loop_
 _symmetry_equiv_pos_site_id
 _symmetry_equiv_pos_as_xyz
  1  'x, y, z'
loop_
 _atom_site_type_symbol
 _atom_site_label
 _atom_site_symmetry_multiplicity
 _atom_site_fract_x
 _atom_site_fract_y
 _atom_site_fract_z
 _atom_site_occupancy
  C  C0  1  0.36006921  0.35979360  0.25192785  1
  C  C1  1  0.32072742  0.34843283  0.59059851  1
  C  C2  1  0.01716347  0.69211752  0.57865659  1
  C  C3  1  0.00104468  0.68258422  0.92023486  1
  C  C4  1  0.69213632  0.02630058  0.91018443  1
  C  C5  1  0.30690268  0.29268279  0.92163801  1
  C  C6  1  0.95915794  0.97468642  0.50107696  1
  C  C7  1  0.02048534  0.02217995  0.99929953  1
  C  C8  1  0.66713689  0.32328788  0.82985487  1
  C  C9  1  0.68497783  0.33300395  0.33270892  1
  C  C10  1  0.33470623  0.68616846  0.16799674  1
  C  C11  1  0.38356723  0.68295381  0.66625652  1
  C  C12  1  0.99326893  0.99219062  0.35177566  1
  C  C13  1  0.00319089  0.00377618  0.84598214  1
  C  C14  1  0.97985537  0.99078260  0.65236045  1
  C  C15  1  0.99580278  0.99412613  0.14757032  1
  C  C16  1  0.66328351  0.33497008  0.68654374  1
  C  C17  1  0.67688542  0.33126262  0.18535501  1
  C  C18  1  0.32422542  0.66032268  0.01801273  1
  C  C19  1  0.34670392  0.67223121  0.51329053  1
  C  C20  1  0.33705515  0.67961733  0.32104208  1
  Ni  Ni21  1  0.66661461  0.62786214  0.58292691  1
  Ni  Ni22  1  0.03510479  0.37047648  0.91751622  1
  Ni  Ni23  1  0.33774772  0.96706813  0.91861101  1
  Cu  Cu24  1  0.67011041  0.32456217  0.98311766  1
  Cu  Cu25  1  0.66848587  0.34062577  0.48392963  1
  Cu  Cu26  1  0.32003928  0.67264021  0.82094520  1
  C  C27  1  0.29896707  0.00018234  0.24972318  1
  C  C28  1  0.69123230  0.69423024  0.25016552  1
  C  C29  1  0.00767601  0.30182503  0.25160068  1
  C  C30  1  0.30709546  0.32469757  0.75405050  1
  C  C31  1  0.01229569  0.69376682  0.75214179  1
  C  C32  1  0.67446950  0.98360685  0.75642051  1
  C  C33  1  0.95778466  0.32998742  0.57979422  1
  C  C34  1  0.37104662  0.04199271  0.58130474  1
  C  C35  1  0.95344493  0.62858466  0.07949527  1
  C  C36  1  0.67332754  0.03826207  0.07992016  1
  C  C37  1  0.37667409  0.33039616  0.08162905  1
  C  C38  1  0.62241055  0.65628657  0.91619362  1
  C  C39  1  0.64177364  0.99174959  0.42057594  1
  C  C40  1  0.34273856  0.35757972  0.41815857  1
  C  C41  1  0.01698362  0.65532941  0.42161655  1
  C  C42  1  0.21087259  0.01076280  0.30065285  1
  C  C43  1  0.78455267  0.77895464  0.30185773  1
  C  C44  1  0.99544928  0.20444798  0.30244584  1
  C  C45  1  0.21760363  0.22866179  0.80465574  1
  C  C46  1  0.00073321  0.77623295  0.80415517  1
  C  C47  1  0.76509550  -0.00510131  0.80898008  1
  C  C48  1  0.76138487  0.97072155  0.70569236  1
  C  C49  1  0.21369013  0.24586594  0.70102669  1
  C  C50  1  0.02343960  0.78911800  0.70061491  1
  C  C51  1  0.77709529  0.78766443  0.19877218  1
  C  C52  1  0.01956515  0.21729225  0.19965113  1
  C  C53  1  0.20441783  0.98763539  0.19774629  1
  C  C54  1  0.87119231  0.33916780  0.63035503  1
  C  C55  1  0.47559484  0.11302297  0.63136159  1
  C  C56  1  0.63765056  0.50572190  0.63504031  1
  C  C57  1  0.85533114  0.53069853  0.12783848  1
  C  C58  1  0.66669365  0.13412483  0.12820327  1
  C  C59  1  0.46845951  0.33049610  0.13225068  1
  C  C60  1  0.46663768  0.32118514  0.02653925  1
  C  C61  1  0.85950800  0.54401616  0.02356405  1
  C  C62  1  0.68292651  0.13056086  0.02408081  1
  C  C63  1  0.45813405  0.14171460  0.52826632  1
  C  C64  1  0.70567512  0.54104772  0.52432744  1
  C  C65  1  0.85140854  0.29826063  0.52698186  1
  C  C66  1  0.55662063  0.69434156  0.96672309  1
  C  C67  1  0.16871544  0.43834593  0.96764026  1
  C  C68  1  0.29858470  0.84457197  0.97041479  1
  C  C69  1  0.55856435  0.89659478  0.47149695  1
  C  C70  1  0.33164659  0.44161380  0.46987868  1
  C  C71  1  0.10462046  0.66680470  0.47503248  1
  C  C72  1  0.10829965  0.64514514  0.37196417  1
  C  C73  1  0.54505243  0.91427911  0.36880644  1
  C  C74  1  0.36219457  0.45667272  0.36667295  1
  C  C75  1  0.11457641  0.50161280  0.86122785  1
  C  C76  1  0.39235366  0.89050916  0.86173721  1
  C  C77  1  0.51179181  0.62462818  0.86524106  1
  C  C78  1  -0.01317922  0.79714867  0.41774024  1
  C  C79  1  0.81250361  0.01708509  0.41712685  1
  C  C80  1  0.19616521  0.18834272  0.41454961  1
  C  C81  1  0.98037401  0.17665867  0.90665427  1
  C  C82  1  0.18030052  0.99680493  0.90922646  1
  C  C83  1  0.79489537  0.79476341  0.90587160  1
  C  C84  1  0.99669396  0.19272010  0.58267605  1
  C  C85  1  0.21274536  0.04858244  0.58583504  1
  C  C86  1  0.84236697  0.80774745  0.58383613  1
  C  C87  1  0.97118537  0.79590989  0.07813700  1
  C  C88  1  0.82727783  0.02705753  0.07955372  1
  C  C89  1  0.20867751  0.17950013  0.07904087  1
  C  C90  1  0.64794800  0.12758351  0.75273363  1
  C  C91  1  0.47587561  0.34399917  0.75304270  1
  C  C92  1  0.86973455  0.52132562  0.74986839  1
  C  C93  1  0.66676733  0.52081433  0.24888973  1
  C  C94  1  0.86091490  0.32672874  0.24987088  1
  C  C95  1  0.46540561  0.15971656  0.24848897  1
  C  C96  1  0.62837082  0.49623805  0.92237479  1
  C  C97  1  0.85542199  0.37788422  0.92561653  1
  C  C98  1  0.51270170  0.15891531  0.92404586  1
  C  C99  1  0.65442868  0.16421004  0.42388030  1
  C  C100  1  0.50137090  0.34303639  0.42088549  1
  C  C101  1  0.84807013  0.49125898  0.42072156  1
  C  C102  1  0.36787479  0.48403962  0.08030202  1
  C  C103  1  0.11722646  0.63844809  0.07984682  1
  C  C104  1  0.52307945  0.87209980  0.07924841  1
  C  C105  1  0.32606242  0.86534563  0.57411562  1
  C  C106  1  0.49552905  0.63847828  0.57785332  1
  C  C107  1  0.11851622  0.49120053  0.57413814  1
  C  C108  1  0.32472020  0.85434728  0.25229742  1
  C  C109  1  0.51794483  0.67148418  0.25177500  1
  C  C110  1  0.16652731  0.46857399  0.25436144  1
  C  C111  1  0.32204486  0.49674886  0.75743409  1
  C  C112  1  0.17578725  0.68922561  0.75344511  1
  C  C113  1  0.50580154  0.82066614  0.75708355  1
