# generated using pymatgen
data_Cu6NiC12
_symmetry_space_group_name_H-M   'P 1'
_cell_length_a   8.50870448
_cell_length_b   5.83819030
_cell_length_c   6.11703554
_cell_angle_alpha   65.19902117
_cell_angle_beta   62.07601786
_cell_angle_gamma   64.91816752
_symmetry_Int_Tables_number   1
_chemical_formula_structural   Cu6NiC12
_chemical_formula_sum   'Cu6 Ni1 C12'
_cell_volume   233.71741140
_cell_formula_units_Z   1
loop_
 _symmetry_equiv_pos_site_id
 _symmetry_equiv_pos_as_xyz
  1  'x, y, z'
loop_
 _atom_site_type_symbol
 _atom_site_label
 _atom_site_symmetry_multiplicity
 _atom_site_fract_x
 _atom_site_fract_y
 _atom_site_fract_z
 _atom_site_occupancy
  Ni  Ni0  1  0.49906900  0.99770700  0.50317300  1
  Cu  Cu1  1  0.85577700  0.66834200  0.66818300  1
  Cu  Cu2  1  0.67877800  0.36585800  0.33642700  1
  Cu  Cu3  1  0.31090500  0.61980300  0.65892600  1
  Cu  Cu4  1  0.15149900  0.32609400  0.32639700  1
  Cu  Cu5  1  0.50730400  0.99504700  0.99881300  1
  Cu  Cu6  1  0.99830200  0.99933200  0.00074100  1
  C  C7  1  0.66800200  0.03015300  0.63284000  1
  C  C8  1  0.32390300  0.33753800  0.96390000  1
  C  C9  1  0.42006000  0.40256400  0.43994800  1
  C  C10  1  0.34072100  0.95772500  0.36308500  1
  C  C11  1  0.67901500  0.64638700  0.02661500  1
  C  C12  1  0.00636200  0.30714600  0.68828700  1
  C  C13  1  0.01047900  0.69081300  0.30835600  1
  C  C14  1  0.30236500  0.87695000  0.84132400  1
  C  C15  1  0.62265600  0.60875500  0.55750200  1
  C  C16  1  0.95145600  0.24422600  0.22602600  1
  C  C17  1  0.69372300  0.08234600  0.14384400  1
  C  C18  1  0.02962500  0.77178200  0.77989700  1
