# generated using pymatgen
data_CuNiC5
_symmetry_space_group_name_H-M   'P 1'
_cell_length_a   4.74166800
_cell_length_b   6.03761300
_cell_length_c   10.10222800
_cell_angle_alpha   90.00000000
_cell_angle_beta   90.00000000
_cell_angle_gamma   90.00000000
_symmetry_Int_Tables_number   1
_chemical_formula_structural   CuNiC5
_chemical_formula_sum   'Cu4 Ni4 C20'
_cell_volume   289.21018320
_cell_formula_units_Z   4
loop_
 _symmetry_equiv_pos_site_id
 _symmetry_equiv_pos_as_xyz
  1  'x, y, z'
loop_
 _atom_site_type_symbol
 _atom_site_label
 _atom_site_symmetry_multiplicity
 _atom_site_fract_x
 _atom_site_fract_y
 _atom_site_fract_z
 _atom_site_occupancy
  C  C0  1  0.00000000  0.00000000  0.00000000  1
  C  C1  1  0.50000000  0.00000000  0.50000000  1
  C  C2  1  0.00000000  0.50000000  0.00000000  1
  C  C3  1  0.50000000  0.50000000  0.50000000  1
  Ni  Ni4  1  0.02238700  0.75000000  0.28186800  1
  Ni  Ni5  1  0.47761300  0.75000000  0.78186800  1
  Ni  Ni6  1  0.97761300  0.25000000  0.71813200  1
  Ni  Ni7  1  0.52238700  0.25000000  0.21813200  1
  Cu  Cu8  1  0.57485500  0.75000000  0.09615800  1
  Cu  Cu9  1  0.92514500  0.75000000  0.59615800  1
  Cu  Cu10  1  0.42514500  0.25000000  0.90384200  1
  Cu  Cu11  1  0.07485500  0.25000000  0.40384200  1
  C  C12  1  0.74979100  0.25000000  0.90108000  1
  C  C13  1  0.21240200  0.45498200  0.33319200  1
  C  C14  1  0.71240200  0.54501800  0.16680800  1
  C  C15  1  0.78759800  0.95498200  0.66680800  1
  C  C16  1  0.28759800  0.04501800  0.83319200  1
  C  C17  1  0.78759800  0.54501800  0.66680800  1
  C  C18  1  0.28759800  0.45498200  0.83319200  1
  C  C19  1  0.21240200  0.04501800  0.33319200  1
  C  C20  1  0.25020900  0.75000000  0.09892000  1
  C  C21  1  0.75020900  0.25000000  0.40108000  1
  C  C22  1  0.71240200  0.95498200  0.16680800  1
  C  C23  1  0.24979100  0.75000000  0.59892000  1
  C  C24  1  0.69827600  0.75000000  0.95257800  1
  C  C25  1  0.30172400  0.25000000  0.04742200  1
  C  C26  1  0.19827600  0.25000000  0.54742200  1
  C  C27  1  0.80172400  0.75000000  0.45257800  1
