# generated using pymatgen
data_Cu6Ni6C7
_symmetry_space_group_name_H-M   'P 1'
_cell_length_a   5.23077775
_cell_length_b   5.31134926
_cell_length_c   8.81389921
_cell_angle_alpha   90.07554210
_cell_angle_beta   86.38143096
_cell_angle_gamma   85.12212663
_symmetry_Int_Tables_number   1
_chemical_formula_structural   Cu6Ni6C7
_chemical_formula_sum   'Cu6 Ni6 C7'
_cell_volume   243.49323945
_cell_formula_units_Z   1
loop_
 _symmetry_equiv_pos_site_id
 _symmetry_equiv_pos_as_xyz
  1  'x, y, z'
loop_
 _atom_site_type_symbol
 _atom_site_label
 _atom_site_symmetry_multiplicity
 _atom_site_fract_x
 _atom_site_fract_y
 _atom_site_fract_z
 _atom_site_occupancy
  C  C0  1  0.03114200  0.42819100  0.20368700  1
  C  C1  1  0.91119700  0.92936700  0.98955900  1
  C  C2  1  0.91921400  0.93309100  0.36107500  1
  C  C3  1  0.12028100  0.08222200  0.66840400  1
  C  C4  1  0.55552800  0.46008100  0.15916400  1
  C  C5  1  0.45111100  0.56572300  0.83517900  1
  C  C6  1  0.47220400  0.56593000  0.50079400  1
  Ni  Ni7  1  0.21715500  0.84763900  0.50099300  1
  Ni  Ni8  1  0.19488100  0.85072200  0.83880900  1
  Ni  Ni9  1  0.33322300  0.35966300  0.67133800  1
  Ni  Ni10  1  0.68761100  0.66558300  0.98447500  1
  Ni  Ni11  1  0.72753300  0.61537400  0.33543400  1
  Ni  Ni12  1  0.82315000  0.14568800  0.16639500  1
  Cu  Cu13  1  0.15845500  0.75441300  0.15679200  1
  Cu  Cu14  1  0.28801000  0.34676200  0.00661900  1
  Cu  Cu15  1  0.30215200  0.34614300  0.34103600  1
  Cu  Cu16  1  0.66628400  0.70388700  0.66471800  1
  Cu  Cu17  1  0.81409400  0.18353200  0.83429600  1
  Cu  Cu18  1  0.84066600  0.20210200  0.53123600  1
