# generated using pymatgen
data_Cu(NiC8)2
_symmetry_space_group_name_H-M   'P 1'
_cell_length_a   9.09787520
_cell_length_b   9.09787489
_cell_length_c   22.94502642
_cell_angle_alpha   90.00000000
_cell_angle_beta   90.00000000
_cell_angle_gamma   120.00000115
_symmetry_Int_Tables_number   1
_chemical_formula_structural   Cu(NiC8)2
_chemical_formula_sum   'Cu6 Ni12 C96'
_cell_volume   1644.74707967
_cell_formula_units_Z   6
loop_
 _symmetry_equiv_pos_site_id
 _symmetry_equiv_pos_as_xyz
  1  'x, y, z'
loop_
 _atom_site_type_symbol
 _atom_site_label
 _atom_site_symmetry_multiplicity
 _atom_site_fract_x
 _atom_site_fract_y
 _atom_site_fract_z
 _atom_site_occupancy
  C  C0  1  0.96749898  0.68035107  0.91883100  1
  C  C1  1  0.71285109  0.03250102  0.91883100  1
  C  C2  1  0.31964893  0.28714891  0.91883100  1
  C  C3  1  0.96749898  0.28714891  0.41883100  1
  C  C4  1  0.31964893  0.03250102  0.41883100  1
  C  C5  1  0.71285109  0.68035107  0.41883100  1
  C  C6  1  -0.00000000  -0.00000000  0.49431066  1
  C  C7  1  -0.00000000  -0.00000000  0.99431066  1
  C  C8  1  0.66666700  0.33333300  0.82946009  1
  C  C9  1  0.66666700  0.33333300  0.32946009  1
  C  C10  1  0.33333300  0.66666700  0.16168989  1
  C  C11  1  0.33333300  0.66666700  0.66168989  1
  C  C12  1  -0.00000000  -0.00000000  0.35195254  1
  C  C13  1  -0.00000000  -0.00000000  0.85195254  1
  C  C14  1  0.66666700  0.33333300  0.68039406  1
  C  C15  1  0.66666700  0.33333300  0.18039406  1
  C  C16  1  -0.00000000  -0.00000000  0.63893521  1
  C  C17  1  -0.00000000  -0.00000000  0.13893521  1
  C  C18  1  0.66666700  0.33333300  0.98390031  1
  C  C19  1  0.66666700  0.33333300  0.48390031  1
  C  C20  1  0.33333300  0.66666700  0.02159164  1
  C  C21  1  0.33333300  0.66666700  0.52159164  1
  C  C22  1  0.33333300  0.66666700  0.31602610  1
  C  C23  1  0.33333300  0.66666700  0.81602610  1
  Ni  Ni24  1  0.96308349  0.33829674  0.58432823  1
  Ni  Ni25  1  0.37521424  0.03691651  0.58432823  1
  Ni  Ni26  1  0.66170326  0.62478576  0.58432823  1
  Ni  Ni27  1  0.96308349  0.62478576  0.08432823  1
  Ni  Ni28  1  0.66170326  0.03691651  0.08432823  1
  Ni  Ni29  1  0.37521424  0.33829674  0.08432823  1
  Ni  Ni30  1  0.61611135  0.65604974  0.91803003  1
  Ni  Ni31  1  0.03993739  0.38388865  0.91803003  1
  Ni  Ni32  1  0.34395026  0.96006261  0.91803003  1
  Ni  Ni33  1  0.61611135  0.96006261  0.41803003  1
  Ni  Ni34  1  0.34395026  0.38388865  0.41803003  1
  Ni  Ni35  1  0.03993739  0.65604974  0.41803003  1
  Cu  Cu36  1  0.29069012  0.98879618  0.25076081  1
  Cu  Cu37  1  0.69810606  0.70930988  0.25076081  1
  Cu  Cu38  1  0.01120382  0.30189394  0.25076081  1
  Cu  Cu39  1  0.29069012  0.30189394  0.75076081  1
  Cu  Cu40  1  0.01120382  0.70930988  0.75076081  1
  Cu  Cu41  1  0.69810606  0.98879618  0.75076081  1
  C  C42  1  0.21577096  0.00091185  0.30594946  1
  C  C43  1  0.78514089  0.78422904  0.30594946  1
  C  C44  1  0.99908815  0.21485911  0.30594946  1
  C  C45  1  0.21577096  0.21485911  0.80594946  1
  C  C46  1  0.99908815  0.78422904  0.80594946  1
  C  C47  1  0.78514089  0.00091185  0.80594946  1
  C  C48  1  0.79524481  0.97436273  0.70009222  1
  C  C49  1  0.17911792  0.20475519  0.70009222  1
  C  C50  1  0.02563727  0.82088208  0.70009222  1
  C  C51  1  0.79524481  0.82088208  0.20009222  1
  C  C52  1  0.02563727  0.20475519  0.20009222  1
  C  C53  1  0.17911792  0.97436273  0.20009222  1
  C  C54  1  0.90255968  0.38032602  0.64219865  1
  C  C55  1  0.47776735  0.09744032  0.64219865  1
  C  C56  1  0.61967398  0.52223265  0.64219865  1
  C  C57  1  0.90255968  0.52223265  0.14219865  1
  C  C58  1  0.61967398  0.09744032  0.14219865  1
  C  C59  1  0.47776735  0.38032602  0.14219865  1
  C  C60  1  0.46652862  0.30163175  0.02564185  1
  C  C61  1  0.83510413  0.53347138  0.02564185  1
  C  C62  1  0.69836825  0.16489587  0.02564185  1
  C  C63  1  0.46652862  0.16489587  0.52564185  1
  C  C64  1  0.69836825  0.53347138  0.52564185  1
  C  C65  1  0.83510413  0.30163175  0.52564185  1
  C  C66  1  0.51404318  0.67806928  0.97101605  1
  C  C67  1  0.16402510  0.48595682  0.97101605  1
  C  C68  1  0.32193072  0.83597490  0.97101605  1
  C  C69  1  0.51404318  0.83597490  0.47101605  1
  C  C70  1  0.32193072  0.48595682  0.47101605  1
  C  C71  1  0.16402510  0.67806928  0.47101605  1
  C  C72  1  0.13895110  0.63212492  0.35848408  1
  C  C73  1  0.49317281  0.86104890  0.35848408  1
  C  C74  1  0.36787508  0.50682719  0.35848408  1
  C  C75  1  0.13895110  0.50682719  0.85848408  1
  C  C76  1  0.36787508  0.86104890  0.85848408  1
  C  C77  1  0.49317281  0.63212492  0.85848408  1
  C  C78  1  0.01734067  0.81979730  0.41566683  1
  C  C79  1  0.80245663  0.98265933  0.41566683  1
  C  C80  1  0.18020270  0.19754337  0.41566683  1
  C  C81  1  0.01734067  0.19754337  0.91566683  1
  C  C82  1  0.18020270  0.98265933  0.91566683  1
  C  C83  1  0.80245663  0.81979730  0.91566683  1
  C  C84  1  0.97659930  0.15913472  0.59320526  1
  C  C85  1  0.18253542  0.02340070  0.59320526  1
  C  C86  1  0.84086528  0.81746458  0.59320526  1
  C  C87  1  0.97659930  0.81746458  0.09320526  1
  C  C88  1  0.84086528  0.02340070  0.09320526  1
  C  C89  1  0.18253542  0.15913472  0.09320526  1
  C  C90  1  0.67198363  0.13414963  0.74664849  1
  C  C91  1  0.46216700  0.32801637  0.74664849  1
  C  C92  1  0.86585037  0.53783300  0.74664849  1
  C  C93  1  0.67198363  0.53783300  0.24664849  1
  C  C94  1  0.86585037  0.32801637  0.24664849  1
  C  C95  1  0.46216700  0.13414963  0.24664849  1
  C  C96  1  0.62299276  0.47873075  0.92242644  1
  C  C97  1  0.85573899  0.37700724  0.92242644  1
  C  C98  1  0.52126925  0.14426101  0.92242644  1
  C  C99  1  0.62299276  0.14426101  0.42242644  1
  C  C100  1  0.52126925  0.37700724  0.42242644  1
  C  C101  1  0.85573899  0.47873075  0.42242644  1
  C  C102  1  0.33216294  0.48690590  0.06839749  1
  C  C103  1  0.15474196  0.66783706  0.06839749  1
  C  C104  1  0.51309410  0.84525804  0.06839749  1
  C  C105  1  0.33216294  0.84525804  0.56839749  1
  C  C106  1  0.51309410  0.66783706  0.56839749  1
  C  C107  1  0.15474196  0.48690590  0.56839749  1
  C  C108  1  0.29784152  0.82387326  0.25223660  1
  C  C109  1  0.52603074  0.70215848  0.25223660  1
  C  C110  1  0.17612674  0.47396926  0.25223660  1
  C  C111  1  0.29784152  0.47396926  0.75223660  1
  C  C112  1  0.17612674  0.70215848  0.75223660  1
  C  C113  1  0.52603074  0.82387326  0.75223660  1
