# generated using pymatgen
data_CuNi2C17
_symmetry_space_group_name_H-M   'P 1'
_cell_length_a   9.22450241
_cell_length_b   9.20700184
_cell_length_c   22.84294312
_cell_angle_alpha   89.82620587
_cell_angle_beta   90.20486620
_cell_angle_gamma   119.93132281
_symmetry_Int_Tables_number   1
_chemical_formula_structural   CuNi2C17
_chemical_formula_sum   'Cu6 Ni12 C102'
_cell_volume   1681.28281260
_cell_formula_units_Z   6
loop_
 _symmetry_equiv_pos_site_id
 _symmetry_equiv_pos_as_xyz
  1  'x, y, z'
loop_
 _atom_site_type_symbol
 _atom_site_label
 _atom_site_symmetry_multiplicity
 _atom_site_fract_x
 _atom_site_fract_y
 _atom_site_fract_z
 _atom_site_occupancy
  C  C0  1  0.98916190  0.35514650  0.75229043  1
  C  C1  1  0.39130612  0.02092247  0.74777089  1
  C  C2  1  0.32476378  0.33503938  0.58536492  1
  C  C3  1  0.03021707  0.70448770  0.57393127  1
  C  C4  1  0.65341797  0.96378364  0.59092131  1
  C  C5  1  0.32062674  0.98157179  0.08501911  1
  C  C6  1  0.65590478  0.67810104  0.08886165  1
  C  C7  1  0.02279579  0.33838835  0.08620687  1
  C  C8  1  0.32855560  0.29364654  0.92495588  1
  C  C9  1  0.96476552  0.29051688  0.40711837  1
  C  C10  1  0.32136208  0.03040298  0.40988521  1
  C  C11  1  0.71264223  0.67941593  0.41032053  1
  C  C12  1  0.00045593  0.99321559  0.48900257  1
  C  C13  1  -0.00040626  0.99288155  0.99853538  1
  C  C14  1  0.66386677  0.32002485  0.83040948  1
  C  C15  1  0.66871696  0.33428590  0.31951933  1
  C  C16  1  0.33571868  0.66524182  0.16627711  1
  C  C17  1  0.37273678  0.67349538  0.66916088  1
  C  C18  1  0.00310694  0.01532781  0.85338094  1
  C  C19  1  0.99569462  0.99962327  0.64841567  1
  C  C20  1  0.00362761  0.00123519  0.14860095  1
  C  C21  1  0.67233387  0.32233487  0.98183873  1
  C  C22  1  0.65600460  0.33575053  0.47835133  1
  C  C23  1  0.32257112  0.66954031  0.01895104  1
  C  C24  1  0.34412393  0.67310296  0.51566791  1
  C  C25  1  0.33334134  0.66858958  0.31653513  1
  C  C26  1  0.33768229  0.67431832  0.81424378  1
  C  C27  1  0.00037626  0.99872338  0.35493425  1
  C  C28  1  0.62657498  0.31718973  0.68518363  1
  C  C29  1  0.66585990  0.33110834  0.16643555  1
  Ni  Ni30  1  0.29736883  0.30201405  0.74959237  1
  Ni  Ni31  1  0.70353929  0.00496828  0.74765479  1
  Ni  Ni32  1  0.36931312  0.03143005  0.58555541  1
  Ni  Ni33  1  0.66676280  0.62471361  0.58487384  1
  Ni  Ni34  1  0.95401536  0.62049520  0.08582386  1
  Ni  Ni35  1  0.66271563  0.03479565  0.08715415  1
  Ni  Ni36  1  0.37731262  0.33736496  0.08317203  1
  Ni  Ni37  1  0.03486378  0.37663221  0.91482505  1
  Ni  Ni38  1  0.33298758  0.96763760  0.91560179  1
  Ni  Ni39  1  0.63185175  0.96499756  0.41586817  1
  Ni  Ni40  1  0.32949924  0.37135139  0.41703772  1
  Ni  Ni41  1  0.03765463  0.66309719  0.41739974  1
  Cu  Cu42  1  0.29746634  0.00128960  0.25318515  1
  Cu  Cu43  1  0.70430939  0.70411419  0.25283710  1
  Cu  Cu44  1  0.00034056  0.29651207  0.25286194  1
  Cu  Cu45  1  0.00097553  0.70767504  0.75071341  1
  Cu  Cu46  1  0.96077598  0.33395923  0.58525171  1
  Cu  Cu47  1  0.62750287  0.66781601  0.91748677  1
  C  C48  1  0.20836863  0.00542729  0.30654692  1
  C  C49  1  0.79804775  0.79196655  0.30654795  1
  C  C50  1  0.99520052  0.20257750  0.30635907  1
  C  C51  1  0.19449866  0.18334798  0.80666623  1
  C  C52  1  0.98645342  0.79505615  0.80200600  1
  C  C53  1  0.82294934  0.01187300  0.80226216  1
  C  C54  1  0.78891965  0.97930188  0.68709210  1
  C  C55  1  0.17918443  0.20446530  0.69097540  1
  C  C56  1  0.01934666  0.80851714  0.69635365  1
  C  C57  1  0.79373486  0.80770651  0.19965445  1
  C  C58  1  0.01484919  0.20706120  0.19964251  1
  C  C59  1  0.19350686  0.98736548  0.19983194  1
  C  C60  1  0.88754197  0.35349856  0.63809052  1
  C  C61  1  0.48335417  0.09993207  0.64393711  1
  C  C62  1  0.63616886  0.50158332  0.63891278  1
  C  C63  1  0.88988268  0.49759772  0.14136194  1
  C  C64  1  0.60340799  0.10251513  0.14134052  1
  C  C65  1  0.50280430  0.38905038  0.13800071  1
  C  C66  1  0.45233677  0.29428793  0.02417936  1
  C  C67  1  0.82893225  0.53866151  0.02888304  1
  C  C68  1  0.70892727  0.16278377  0.03013119  1
  C  C69  1  0.46343623  0.15489352  0.52871878  1
  C  C70  1  0.69843866  0.54606763  0.52420815  1
  C  C71  1  0.85970473  0.31431745  0.53170483  1
  C  C72  1  0.55225769  0.68797634  0.97166634  1
  C  C73  1  0.15570657  0.46461762  0.97181367  1
  C  C74  1  0.32360753  0.85997380  0.97394580  1
  C  C75  1  0.54535437  0.84907120  0.47517309  1
  C  C76  1  0.30456734  0.45524322  0.47706207  1
  C  C77  1  0.15142383  0.69003289  0.47674355  1
  C  C78  1  0.13441753  0.63426401  0.36196057  1
  C  C79  1  0.50074935  0.87094199  0.36150952  1
  C  C80  1  0.36446001  0.50108908  0.36238845  1
  C  C81  1  0.13313638  0.48499775  0.85592360  1
  C  C82  1  0.35202028  0.87226771  0.85755054  1
  C  C83  1  0.52059347  0.65186216  0.86566811  1
  C  C84  1  0.01892630  0.82869470  0.41131369  1
  C  C85  1  0.81377959  0.98073465  0.40986116  1
  C  C86  1  0.16727961  0.18646563  0.41088313  1
  C  C87  1  0.01958967  0.18858532  0.91246227  1
  C  C88  1  0.16276257  0.98335472  0.91238042  1
  C  C89  1  0.79705823  0.81326804  0.91142278  1
  C  C90  1  0.97758022  0.17785766  0.58560961  1
  C  C91  1  0.18391778  0.01956694  0.58925228  1
  C  C92  1  0.83489792  0.81500104  0.58913039  1
  C  C93  1  0.97534898  0.81101014  0.09433409  1
  C  C94  1  0.83616037  0.02294420  0.09576488  1
  C  C95  1  0.18911674  0.16535284  0.09358975  1
  C  C96  1  0.69881363  0.17975212  0.74724106  1
  C  C97  1  0.47525012  0.30787549  0.75113420  1
  C  C98  1  0.86097292  0.53653699  0.74673134  1
  C  C99  1  0.68517857  0.53777619  0.24927806  1
  C  C100  1  0.85239817  0.31378047  0.24929844  1
  C  C101  1  0.46218002  0.14869917  0.24972094  1
  C  C102  1  0.63188668  0.50842600  0.91930997  1
  C  C103  1  0.85155104  0.36124450  0.91918643  1
  C  C104  1  0.49416069  0.15894248  0.91844332  1
  C  C105  1  0.64828113  0.14960883  0.42227629  1
  C  C106  1  0.50141536  0.35736915  0.41975722  1
  C  C107  1  0.85491880  0.49117903  0.42173693  1
  C  C108  1  0.34323553  0.49567092  0.07451939  1
  C  C109  1  0.14859728  0.65762903  0.07612682  1
  C  C110  1  0.50930145  0.84218395  0.07588017  1
  C  C111  1  0.33758045  0.83861235  0.57806765  1
  C  C112  1  0.49876425  0.64691622  0.57998971  1
  C  C113  1  0.13350688  0.48085266  0.57878787  1
  C  C114  1  0.30583513  0.84095580  0.25171720  1
  C  C115  1  0.53541940  0.69518681  0.25183356  1
  C  C116  1  0.15970434  0.46570834  0.25177207  1
  C  C117  1  0.30152440  0.48281416  0.75261170  1
  C  C118  1  0.16336968  0.70449427  0.75269844  1
  C  C119  1  0.51291870  0.84114595  0.75274504  1
