# generated using pymatgen
data_Cu12Ni3C2
_symmetry_space_group_name_H-M   'P 1'
_cell_length_a   9.27623488
_cell_length_b   9.27623455
_cell_length_c   24.05603667
_cell_angle_alpha   90.00000000
_cell_angle_beta   90.00000000
_cell_angle_gamma   120.00000117
_symmetry_Int_Tables_number   1
_chemical_formula_structural   Cu12Ni3C2
_chemical_formula_sum   'Cu72 Ni18 C12'
_cell_volume   1792.66096479
_cell_formula_units_Z   6
loop_
 _symmetry_equiv_pos_site_id
 _symmetry_equiv_pos_as_xyz
  1  'x, y, z'
loop_
 _atom_site_type_symbol
 _atom_site_label
 _atom_site_symmetry_multiplicity
 _atom_site_fract_x
 _atom_site_fract_y
 _atom_site_fract_z
 _atom_site_occupancy
  C  C0  1  -0.00000000  0.00000000  0.85129890  1
  C  C1  1  0.66666700  0.33333300  0.98203410  1
  C  C2  1  0.33333300  0.66666700  0.02630402  1
  C  C3  1  0.33333300  0.66666700  0.52209694  1
  C  C4  1  0.33333300  0.66666700  0.31123706  1
  C  C5  1  0.33333300  0.66666700  0.80702998  1
  C  C6  1  -0.00000000  0.00000000  0.35072525  1
  C  C7  1  -0.00000000  0.00000000  0.64552606  1
  C  C8  1  -0.00000000  0.00000000  0.14918340  1
  C  C9  1  0.66666700  0.33333300  0.68414960  1
  C  C10  1  0.66666700  0.33333300  0.18780694  1
  C  C11  1  0.66666700  0.33333300  0.48260775  1
  Ni  Ni12  1  0.28964404  0.01187514  0.24786464  1
  Ni  Ni13  1  0.72223110  0.71035596  0.24786464  1
  Ni  Ni14  1  0.98812486  0.27776890  0.24786464  1
  Ni  Ni15  1  0.29854457  0.28563780  0.74355971  1
  Ni  Ni16  1  0.98709322  0.70145543  0.74355971  1
  Ni  Ni17  1  0.71436220  0.01290678  0.74355971  1
  Ni  Ni18  1  0.94443590  0.32145786  0.58546836  1
  Ni  Ni19  1  0.37702296  0.05556410  0.58546836  1
  Ni  Ni20  1  0.67854214  0.62297704  0.58546836  1
  Ni  Ni21  1  0.95230480  0.63187757  0.08977329  1
  Ni  Ni22  1  0.67957378  0.04769520  0.08977329  1
  Ni  Ni23  1  0.36812243  0.32042622  0.08977329  1
  Ni  Ni24  1  0.62612404  0.66666700  0.91666700  1
  Ni  Ni25  1  0.04054196  0.37387596  0.91666700  1
  Ni  Ni26  1  0.33333300  0.95945804  0.91666700  1
  Ni  Ni27  1  0.64117659  0.97451059  0.41666700  1
  Ni  Ni28  1  0.33333300  0.35882341  0.41666700  1
  Ni  Ni29  1  0.02548941  0.66666700  0.41666700  1
  Cu  Cu30  1  0.21320471  0.03721457  0.29898634  1
  Cu  Cu31  1  0.82400986  0.78679529  0.29898634  1
  Cu  Cu32  1  0.96278543  0.17599014  0.29898634  1
  Cu  Cu33  1  0.22765484  0.18858008  0.79534417  1
  Cu  Cu34  1  0.96092524  0.77234516  0.79534417  1
  Cu  Cu35  1  0.81141992  0.03907476  0.79534417  1
  Cu  Cu36  1  0.79828684  0.98470619  0.69551760  1
  Cu  Cu37  1  0.18641935  0.20171316  0.69551760  1
  Cu  Cu38  1  0.01529381  0.81358065  0.69551760  1
  Cu  Cu39  1  0.79884236  0.81643149  0.19822629  1
  Cu  Cu40  1  0.01758913  0.20115764  0.19822629  1
  Cu  Cu41  1  0.18356851  0.98241087  0.19822629  1
  Cu  Cu42  1  0.86782464  0.35092213  0.63510671  1
  Cu  Cu43  1  0.48309849  0.13217536  0.63510671  1
  Cu  Cu44  1  0.64907787  0.51690151  0.63510671  1
  Cu  Cu45  1  0.86838016  0.51975235  0.13781540  1
  Cu  Cu46  1  0.65137319  0.13161984  0.13781540  1
  Cu  Cu47  1  0.48024765  0.34862681  0.13781540  1
  Cu  Cu48  1  0.43901216  0.29425824  0.03798883  1
  Cu  Cu49  1  0.85524708  0.56098784  0.03798883  1
  Cu  Cu50  1  0.70574176  0.14475292  0.03798883  1
  Cu  Cu51  1  0.45346229  0.15734286  0.53434666  1
  Cu  Cu52  1  0.70388157  0.54653771  0.53434666  1
  Cu  Cu53  1  0.84265714  0.29611843  0.53434666  1
  Cu  Cu54  1  0.54517558  0.68651900  0.96693540  1
  Cu  Cu55  1  0.14134242  0.45482442  0.96693540  1
  Cu  Cu56  1  0.31348100  0.85865758  0.96693540  1
  Cu  Cu57  1  0.56353338  0.86547091  0.46594876  1
  Cu  Cu58  1  0.30193653  0.43646662  0.46594876  1
  Cu  Cu59  1  0.13452909  0.69806347  0.46594876  1
  Cu  Cu60  1  0.10313262  0.63527053  0.36738524  1
  Cu  Cu61  1  0.53213691  0.89686738  0.36738524  1
  Cu  Cu62  1  0.36472947  0.46786309  0.36738524  1
  Cu  Cu63  1  0.12149042  0.47467642  0.86639860  1
  Cu  Cu64  1  0.35318500  0.87850958  0.86639860  1
  Cu  Cu65  1  0.52532358  0.64681500  0.86639860  1
  Cu  Cu66  1  0.00853050  0.81652610  0.40679367  1
  Cu  Cu67  1  0.80799560  0.99146950  0.40679367  1
  Cu  Cu68  1  0.18347390  0.19200440  0.40679367  1
  Cu  Cu69  1  0.02341316  0.20748224  0.91144482  1
  Cu  Cu70  1  0.18406908  0.97658684  0.91144482  1
  Cu  Cu71  1  0.79251776  0.81593092  0.91144482  1
  Cu  Cu72  1  0.96235098  0.17181745  0.59325983  1
  Cu  Cu73  1  0.20946647  0.03764902  0.59325983  1
  Cu  Cu74  1  0.82818255  0.79053353  0.59325983  1
  Cu  Cu75  1  0.97075982  0.79899676  0.09736184  1
  Cu  Cu76  1  0.82823694  0.02924018  0.09736184  1
  Cu  Cu77  1  0.20100324  0.17176306  0.09736184  1
  Cu  Cu78  1  0.69590718  0.16156994  0.73597116  1
  Cu  Cu79  1  0.46566376  0.30409282  0.73597116  1
  Cu  Cu80  1  0.83843006  0.53433624  0.73597116  1
  Cu  Cu81  1  0.70431602  0.54279947  0.24007317  1
  Cu  Cu82  1  0.83848445  0.29568398  0.24007317  1
  Cu  Cu83  1  0.45720053  0.16151555  0.24007317  1
  Cu  Cu84  1  0.64325384  0.51740208  0.92188818  1
  Cu  Cu85  1  0.87414924  0.35674616  0.92188818  1
  Cu  Cu86  1  0.48259792  0.12585076  0.92188818  1
  Cu  Cu87  1  0.65813650  0.14132860  0.42653933  1
  Cu  Cu88  1  0.48319310  0.34186350  0.42653933  1
  Cu  Cu89  1  0.85867140  0.51680690  0.42653933  1
  Cu  Cu90  1  0.35167131  0.47020670  0.08380659  1
  Cu  Cu91  1  0.11853439  0.64832869  0.08380659  1
  Cu  Cu92  1  0.52979330  0.88146561  0.08380659  1
  Cu  Cu93  1  0.35865576  0.88844973  0.57857818  1
  Cu  Cu94  1  0.52979297  0.64134424  0.57857818  1
  Cu  Cu95  1  0.11155027  0.47020703  0.57857818  1
  Cu  Cu96  1  0.30801024  0.86312697  0.25475582  1
  Cu  Cu97  1  0.55511573  0.69198976  0.25475582  1
  Cu  Cu98  1  0.13687303  0.44488427  0.25475582  1
  Cu  Cu99  1  0.31499469  0.45186839  0.74952741  1
  Cu  Cu100  1  0.13687270  0.68500531  0.74952741  1
  Cu  Cu101  1  0.54813161  0.86312730  0.74952741  1
