# generated using pymatgen
data_Cu3(NiC16)2
_symmetry_space_group_name_H-M   'P 1'
_cell_length_a   8.75511396
_cell_length_b   8.44350012
_cell_length_c   8.48382830
_cell_angle_alpha   61.74202979
_cell_angle_beta   60.31256289
_cell_angle_gamma   60.93058108
_symmetry_Int_Tables_number   1
_chemical_formula_structural   Cu3(NiC16)2
_chemical_formula_sum   'Cu3 Ni2 C32'
_cell_volume   453.26879941
_cell_formula_units_Z   1
loop_
 _symmetry_equiv_pos_site_id
 _symmetry_equiv_pos_as_xyz
  1  'x, y, z'
loop_
 _atom_site_type_symbol
 _atom_site_label
 _atom_site_symmetry_multiplicity
 _atom_site_fract_x
 _atom_site_fract_y
 _atom_site_fract_z
 _atom_site_occupancy
  C  C0  1  0.12527100  0.37707900  0.75882000  1
  Ni  Ni1  1  0.99492300  0.99395400  0.00398800  1
  Ni  Ni2  1  0.51429100  0.49453100  0.49239900  1
  Cu  Cu3  1  0.16754200  0.12951400  0.15708300  1
  Cu  Cu4  1  0.35303900  0.35875600  0.34877900  1
  Cu  Cu5  1  0.64087600  0.64757700  0.64126800  1
  C  C6  1  0.84655100  0.86360400  0.85729100  1
  C  C7  1  0.02857600  0.76470500  0.45131100  1
  C  C8  1  0.45486100  0.04660000  0.75006700  1
  C  C9  1  0.73815700  0.45904400  0.03598600  1
  C  C10  1  0.24726300  0.54351600  0.94673700  1
  C  C11  1  0.55327900  0.95029000  0.25240000  1
  C  C12  1  0.96610000  0.24921500  0.56578600  1
  C  C13  1  0.10613900  0.31863700  0.55734000  1
  C  C14  1  0.30600200  0.46835400  0.11784800  1
  C  C15  1  0.05696100  0.91893800  0.24489700  1
  C  C16  1  0.49231200  0.10582800  0.33500300  1
  C  C17  1  0.99257400  0.84182000  0.59796700  1
  C  C18  1  0.21594000  0.59173400  0.44939400  1
  C  C19  1  0.24556400  0.07212200  0.90662600  1
  C  C20  1  0.41415900  0.25874200  0.60391100  1
  C  C21  1  0.17849600  0.39371800  0.96274800  1
  C  C22  1  0.59108900  0.43232300  0.24237700  1
  C  C23  1  0.09289500  0.74042800  0.94921900  1
  C  C24  1  0.40953300  0.98964600  0.17258300  1
  C  C25  1  0.60129200  0.01729200  0.81234400  1
  C  C26  1  0.91013500  0.26382500  0.02119100  1
  C  C27  1  0.40724800  0.56097700  0.75045400  1
  C  C28  1  0.82432200  0.60233900  0.98384800  1
  C  C29  1  0.57072700  0.74877200  0.40193700  1
  C  C30  1  0.75024100  0.94479100  0.09641300  1
  C  C31  1  0.77475100  0.40138500  0.56950000  1
  C  C32  1  0.04507100  0.18891500  0.38840000  1
  C  C33  1  0.48682700  0.89326600  0.68187900  1
  C  C34  1  0.94690100  0.08462400  0.75830400  1
  C  C35  1  0.65364500  0.50428900  0.89438000  1
  C  C36  1  0.87457100  0.70072700  0.48952400  1
