# generated using pymatgen
data_Cu19Ni5C7
_symmetry_space_group_name_H-M   'P 1'
_cell_length_a   5.47349727
_cell_length_b   5.36577183
_cell_length_c   15.48571591
_cell_angle_alpha   90.07479343
_cell_angle_beta   99.93922388
_cell_angle_gamma   90.57260124
_symmetry_Int_Tables_number   1
_chemical_formula_structural   Cu19Ni5C7
_chemical_formula_sum   'Cu19 Ni5 C7'
_cell_volume   447.95778389
_cell_formula_units_Z   1
loop_
 _symmetry_equiv_pos_site_id
 _symmetry_equiv_pos_as_xyz
  1  'x, y, z'
loop_
 _atom_site_type_symbol
 _atom_site_label
 _atom_site_symmetry_multiplicity
 _atom_site_fract_x
 _atom_site_fract_y
 _atom_site_fract_z
 _atom_site_occupancy
  C  C0  1  0.83705400  0.26970200  0.17968500  1
  C  C1  1  0.03346000  0.97275600  0.99163200  1
  C  C2  1  0.15122200  0.48211300  0.34536400  1
  C  C3  1  0.26980700  0.03128400  0.66545300  1
  C  C4  1  0.53294100  0.46402700  0.98306300  1
  C  C5  1  0.67127300  0.00155300  0.34389700  1
  C  C6  1  0.77205500  0.48264200  0.66532500  1
  Ni  Ni7  1  0.02384800  0.21072200  0.64425600  1
  Ni  Ni8  1  0.52449400  0.29961100  0.64363200  1
  Ni  Ni9  1  0.72528200  0.22987500  0.97489300  1
  Ni  Ni10  1  0.27064100  0.79000300  0.01654600  1
  Ni  Ni11  1  0.88863800  0.28123400  0.32440500  1
  Cu  Cu12  1  0.21263600  0.26787300  0.97317500  1
  Cu  Cu13  1  0.13662100  0.73715800  0.69229100  1
  Cu  Cu14  1  0.03519200  0.08280900  0.11111300  1
  Cu  Cu15  1  0.27587900  0.47146400  0.45860000  1
  Cu  Cu16  1  0.39499900  0.09866100  0.77587200  1
  Cu  Cu17  1  0.08246000  0.53532000  0.21871000  1
  Cu  Cu18  1  0.30868700  0.93032300  0.55942200  1
  Cu  Cu19  1  0.43131900  0.60335100  0.87755300  1
  Cu  Cu20  1  0.38101400  0.21424100  0.32105100  1
  Cu  Cu21  1  0.44857300  0.71973500  0.33686400  1
  Cu  Cu22  1  0.63941700  0.77417700  0.69108100  1
  Cu  Cu23  1  0.56122100  0.43005900  0.11230100  1
  Cu  Cu24  1  0.69815400  0.05413700  0.45621300  1
  Cu  Cu25  1  0.89389400  0.41496000  0.77579200  1
  Cu  Cu26  1  0.65502400  0.97392200  0.22130100  1
  Cu  Cu27  1  0.81714700  0.57737500  0.55907900  1
  Cu  Cu28  1  0.95100100  0.91796700  0.87864000  1
  Cu  Cu29  1  0.78933600  0.73636700  0.01441500  1
  Cu  Cu30  1  0.95575700  0.78207500  0.36248900  1
