# generated using pymatgen
data_Cu6Ni6C7
_symmetry_space_group_name_H-M   'P 1'
_cell_length_a   5.09698287
_cell_length_b   14.28964079
_cell_length_c   3.05857176
_cell_angle_alpha   90.00000000
_cell_angle_beta   90.00000000
_cell_angle_gamma   79.76791647
_symmetry_Int_Tables_number   1
_chemical_formula_structural   Cu6Ni6C7
_chemical_formula_sum   'Cu6 Ni6 C7'
_cell_volume   219.22534178
_cell_formula_units_Z   1
loop_
 _symmetry_equiv_pos_site_id
 _symmetry_equiv_pos_as_xyz
  1  'x, y, z'
loop_
 _atom_site_type_symbol
 _atom_site_label
 _atom_site_symmetry_multiplicity
 _atom_site_fract_x
 _atom_site_fract_y
 _atom_site_fract_z
 _atom_site_occupancy
  C  C0  1  0.50000000  -0.00000000  0.50000000  1
  C  C1  1  0.00000000  -0.00000000  -0.00000000  1
  C  C2  1  0.14855160  0.34638881  0.00000000  1
  C  C3  1  0.85144840  0.65361119  0.00000000  1
  C  C4  1  0.77413042  0.20976479  0.50000000  1
  C  C5  1  0.50000000  0.50000000  0.50000000  1
  C  C6  1  0.22586958  0.79023521  0.50000000  1
  Ni  Ni7  1  0.18277329  0.92885988  0.50000000  1
  Ni  Ni8  1  0.07611670  0.74484023  0.00000000  1
  Ni  Ni9  1  0.38801807  0.43330867  -0.00000000  1
  Ni  Ni10  1  0.61198193  0.56669133  -0.00000000  1
  Ni  Ni11  1  0.92388330  0.25515977  0.00000000  1
  Ni  Ni12  1  0.81722671  0.07114012  0.50000000  1
  Cu  Cu13  1  0.38534303  0.26920885  0.50000000  1
  Cu  Cu14  1  0.07472830  0.58766794  0.50000000  1
  Cu  Cu15  1  0.31645533  0.07499027  -0.00000000  1
  Cu  Cu16  1  0.68354467  0.92500973  -0.00000000  1
  Cu  Cu17  1  0.92527170  0.41233206  0.50000000  1
  Cu  Cu18  1  0.61465697  0.73079115  0.50000000  1
