# generated using pymatgen
data_Cu2Ni7C5
_symmetry_space_group_name_H-M   'P 1'
_cell_length_a   5.00136792
_cell_length_b   5.63073215
_cell_length_c   7.73730620
_cell_angle_alpha   115.08468330
_cell_angle_beta   93.89224658
_cell_angle_gamma   79.06175348
_symmetry_Int_Tables_number   1
_chemical_formula_structural   Cu2Ni7C5
_chemical_formula_sum   'Cu2 Ni7 C5'
_cell_volume   193.73728366
_cell_formula_units_Z   1
loop_
 _symmetry_equiv_pos_site_id
 _symmetry_equiv_pos_as_xyz
  1  'x, y, z'
loop_
 _atom_site_type_symbol
 _atom_site_label
 _atom_site_symmetry_multiplicity
 _atom_site_fract_x
 _atom_site_fract_y
 _atom_site_fract_z
 _atom_site_occupancy
  C  C0  1  0.25887798  0.06994050  0.01546691  1
  C  C1  1  0.76300779  0.35730778  0.36091071  1
  C  C2  1  0.21912754  0.63097552  0.63346373  1
  C  C3  1  0.75583457  0.33323572  0.80629429  1
  C  C4  1  0.22942007  0.69855530  0.21809115  1
  Ni  Ni5  1  0.06075573  0.98832458  0.77197229  1
  Ni  Ni6  1  0.02111281  0.62151566  0.38268459  1
  Ni  Ni7  1  0.00131611  0.03795283  0.19926102  1
  Ni  Ni8  1  0.45992129  0.67473638  0.88356358  1
  Ni  Ni9  1  0.50143500  0.33576825  0.14709006  1
  Ni  Ni10  1  0.93739517  0.41638161  0.62812018  1
  Ni  Ni11  1  0.01491165  0.46675798  0.01204113  1
  Cu  Cu12  1  0.47186747  0.25158247  0.48470908  1
  Cu  Cu13  1  0.51751681  0.71696541  0.52114629  1
