# generated using pymatgen
data_CuNi2C15
_symmetry_space_group_name_H-M   'P 1'
_cell_length_a   8.40167891
_cell_length_b   8.40867317
_cell_length_c   21.93897141
_cell_angle_alpha   89.78929543
_cell_angle_beta   89.88501904
_cell_angle_gamma   119.86708293
_symmetry_Int_Tables_number   1
_chemical_formula_structural   CuNi2C15
_chemical_formula_sum   'Cu6 Ni12 C90'
_cell_volume   1344.04365728
_cell_formula_units_Z   6
loop_
 _symmetry_equiv_pos_site_id
 _symmetry_equiv_pos_as_xyz
  1  'x, y, z'
loop_
 _atom_site_type_symbol
 _atom_site_label
 _atom_site_symmetry_multiplicity
 _atom_site_fract_x
 _atom_site_fract_y
 _atom_site_fract_z
 _atom_site_occupancy
  C  C0  1  0.00020451  0.99488953  0.50416743  1
  C  C1  1  0.00537617  0.99914066  0.00153201  1
  C  C2  1  0.66410165  0.32979406  0.83207312  1
  C  C3  1  0.66724327  0.33323973  0.33708017  1
  C  C4  1  0.32997075  0.66290658  0.16808652  1
  C  C5  1  0.34081466  0.66857057  0.66538507  1
  C  C6  1  0.99861795  0.99965873  0.64540467  1
  C  C7  1  0.00454124  0.99976195  0.14369141  1
  C  C8  1  0.33332729  0.66808532  0.31769298  1
  C  C9  1  0.00205039  0.00101976  0.35970973  1
  C  C10  1  0.00186996  0.00915997  0.85215585  1
  C  C11  1  0.64517085  0.31766106  0.68450290  1
  C  C12  1  0.66989668  0.34375053  0.18400570  1
  C  C13  1  0.66466593  0.33877908  0.97709372  1
  C  C14  1  0.66122410  0.33558849  0.47949020  1
  C  C15  1  0.32560239  0.65763901  0.01774060  1
  C  C16  1  0.34283509  0.67326787  0.51711872  1
  C  C17  1  0.33992372  0.66771682  0.81475167  1
  Ni  Ni18  1  0.28795349  0.29170728  0.75014792  1
  Ni  Ni19  1  0.70977342  0.00102603  0.74968001  1
  Ni  Ni20  1  0.37789976  0.04084584  0.58088324  1
  Ni  Ni21  1  0.66342784  0.61748078  0.58215343  1
  Ni  Ni22  1  0.95455471  0.61757080  0.08080331  1
  Ni  Ni23  1  0.38273341  0.33801200  0.08105255  1
  Ni  Ni24  1  0.62324479  0.67095565  0.91690730  1
  Ni  Ni25  1  0.04467501  0.37866299  0.91613577  1
  Ni  Ni26  1  0.33192843  0.95264106  0.91683344  1
  Ni  Ni27  1  0.62385533  0.96142746  0.41604547  1
  Ni  Ni28  1  0.33488730  0.37983922  0.41656864  1
  Ni  Ni29  1  0.04253622  0.66231757  0.41723188  1
  Cu  Cu30  1  0.29306434  0.00292309  0.24897021  1
  Cu  Cu31  1  0.71154476  0.71097135  0.24922691  1
  Cu  Cu32  1  0.99681490  0.28853100  0.24860604  1
  Cu  Cu33  1  0.00027948  0.70842977  0.75084681  1
  Cu  Cu34  1  0.95390017  0.33750976  0.58255097  1
  Cu  Cu35  1  0.66236910  0.04532059  0.08199440  1
  C  C36  1  0.21565368  0.04030780  0.30566651  1
  C  C37  1  0.82535729  0.78705219  0.30551714  1
  C  C38  1  0.96026905  0.17448892  0.30547974  1
  C  C39  1  0.21181739  0.17152233  0.80972441  1
  C  C40  1  0.96341782  0.78577694  0.80785034  1
  C  C41  1  0.82618534  0.03865750  0.80961975  1
  C  C42  1  0.78445527  0.96081353  0.69414019  1
  C  C43  1  0.17683171  0.21479239  0.69416426  1
  C  C44  1  0.03532746  0.81812853  0.69673730  1
  C  C45  1  0.79527526  0.81753675  0.19443675  1
  C  C46  1  0.02018481  0.20421816  0.19426943  1
  C  C47  1  0.18488045  0.97845068  0.19480559  1
  C  C48  1  0.87467805  0.37355183  0.63924963  1
  C  C49  1  0.49904329  0.11522645  0.64008623  1
  C  C50  1  0.62456788  0.49579275  0.64142163  1
  C  C51  1  0.87765857  0.49523267  0.13992843  1
  C  C52  1  0.62451829  0.12269773  0.13855650  1
  C  C53  1  0.50287337  0.37787757  0.13997816  1
  C  C54  1  0.46888231  0.30061845  0.02436707  1
  C  C55  1  0.83510294  0.52741942  0.02411952  1
  C  C56  1  0.69617331  0.15943153  0.02635790  1
  C  C57  1  0.47077547  0.16282506  0.52492467  1
  C  C58  1  0.69778505  0.53097169  0.52543704  1
  C  C59  1  0.84129919  0.30651862  0.52723520  1
  C  C60  1  0.54174554  0.70880481  0.97473156  1
  C  C61  1  0.16275757  0.45463890  0.97417584  1
  C  C62  1  0.29445484  0.83385741  0.97518462  1
  C  C63  1  0.54915073  0.83988932  0.47448787  1
  C  C64  1  0.29229352  0.45726651  0.47502754  1
  C  C65  1  0.16372693  0.70493776  0.47529270  1
  C  C66  1  0.11285696  0.62679463  0.35935843  1
  C  C67  1  0.51456289  0.88980749  0.35918647  1
  C  C68  1  0.37147710  0.48714259  0.35900497  1
  C  C69  1  0.12681059  0.50141195  0.85966277  1
  C  C70  1  0.37116241  0.87140175  0.85993394  1
  C  C71  1  0.50191102  0.62759048  0.86023100  1
  C  C72  1  0.02030937  0.83716436  0.41119101  1
  C  C73  1  0.81884477  0.98048642  0.41009374  1
  C  C74  1  0.16132285  0.18326495  0.41121478  1
  C  C75  1  0.02602247  0.18742637  0.90971766  1
  C  C76  1  0.15941306  0.97155043  0.90913220  1
  C  C77  1  0.81528198  0.84054008  0.90883042  1
  C  C78  1  0.97220561  0.17592441  0.58780978  1
  C  C79  1  0.19405584  0.02612382  0.58713412  1
  C  C80  1  0.82879457  0.80405171  0.58753162  1
  C  C81  1  0.97050790  0.80245846  0.08665439  1
  C  C82  1  0.82388971  0.02677131  0.08833341  1
  C  C83  1  0.19479292  0.17366891  0.08680654  1
  C  C84  1  0.69131836  0.17763066  0.74386980  1
  C  C85  1  0.48544874  0.31561571  0.74555203  1
  C  C86  1  0.83644181  0.52255420  0.74580475  1
  C  C87  1  0.69720303  0.52170122  0.24490453  1
  C  C88  1  0.82173946  0.30199882  0.24392363  1
  C  C89  1  0.48153418  0.17567712  0.24345449  1
  C  C90  1  0.64114362  0.49677796  0.92306419  1
  C  C91  1  0.85190282  0.35730511  0.92400852  1
  C  C92  1  0.50597587  0.14402142  0.92434189  1
  C  C93  1  0.65214948  0.15517701  0.42683871  1
  C  C94  1  0.50269563  0.35272910  0.42514228  1
  C  C95  1  0.84914008  0.49457913  0.42706434  1
  C  C96  1  0.37462221  0.51881514  0.07475547  1
  C  C97  1  0.14710814  0.63288424  0.07516778  1
  C  C98  1  0.49308759  0.86329355  0.07675460  1
  C  C99  1  0.36522780  0.85003474  0.57481271  1
  C  C100  1  0.48195317  0.62501634  0.57555206  1
  C  C101  1  0.13631025  0.50722769  0.57714303  1
  C  C102  1  0.31661461  0.84344077  0.25523641  1
  C  C103  1  0.52766065  0.68542751  0.25507077  1
  C  C104  1  0.15570279  0.47150957  0.25461205  1
  C  C105  1  0.30853651  0.48466927  0.76042576  1
  C  C106  1  0.16813061  0.69082601  0.75927584  1
  C  C107  1  0.51410907  0.83140140  0.76010289  1
