# generated using pymatgen
data_Cu15(NiC26)4
_symmetry_space_group_name_H-M   'P 1'
_cell_length_a   9.09858620
_cell_length_b   9.11823124
_cell_length_c   22.36412330
_cell_angle_alpha   89.88839262
_cell_angle_beta   89.90880534
_cell_angle_gamma   120.04505381
_symmetry_Int_Tables_number   1
_chemical_formula_structural   Cu15(NiC26)4
_chemical_formula_sum   'Cu15 Ni4 C104'
_cell_volume   1606.07915939
_cell_formula_units_Z   1
loop_
 _symmetry_equiv_pos_site_id
 _symmetry_equiv_pos_as_xyz
  1  'x, y, z'
loop_
 _atom_site_type_symbol
 _atom_site_label
 _atom_site_symmetry_multiplicity
 _atom_site_fract_x
 _atom_site_fract_y
 _atom_site_fract_z
 _atom_site_occupancy
  C  C0  1  0.63983060  0.02130183  0.24135486  1
  C  C1  1  0.37878568  0.35520539  0.24344581  1
  C  C2  1  0.98285214  0.62448696  0.24082036  1
  C  C3  1  0.63901039  0.62068721  0.74392859  1
  C  C4  1  0.97858246  0.35555528  0.74591035  1
  C  C5  1  0.38234778  0.02525080  0.74690564  1
  C  C6  1  0.31285609  0.33767076  0.58829810  1
  C  C7  1  0.66408240  0.97486408  0.58817774  1
  C  C8  1  0.31342222  0.97389597  0.08528696  1
  C  C9  1  0.96747160  0.68523913  0.91252190  1
  C  C10  1  0.71906467  0.03342935  0.91003220  1
  C  C11  1  0.31408178  0.27835401  0.91010211  1
  C  C12  1  0.96562137  0.28074211  0.41185434  1
  C  C13  1  0.31471799  0.03550754  0.40948324  1
  C  C14  1  0.71703886  0.68452908  0.41187881  1
  C  C15  1  0.00086742  0.99256776  0.49490105  1
  C  C16  1  0.99244408  0.00050799  0.99306307  1
  C  C17  1  0.66169191  0.32792767  0.82527482  1
  C  C18  1  0.66180062  0.32922818  0.32479688  1
  C  C19  1  0.33431231  0.65707647  0.16091066  1
  C  C20  1  0.32344886  0.66739993  0.66672758  1
  C  C21  1  0.99851565  0.99970915  0.64684074  1
  C  C22  1  0.00064101  0.99784708  0.14316279  1
  C  C23  1  0.66740458  0.33277570  0.98162024  1
  C  C24  1  0.66638809  0.33379775  0.48092769  1
  C  C25  1  0.33282879  0.66393413  0.02136258  1
  C  C26  1  0.33096012  0.66597109  0.52069908  1
  C  C27  1  0.33277287  0.66914900  0.31265866  1
  C  C28  1  0.33654364  0.66599888  0.81312631  1
  Ni  Ni29  1  0.00491164  0.00208641  0.35114703  1
  Ni  Ni30  1  0.00190102  0.00589261  0.85102134  1
  Ni  Ni31  1  0.66147645  0.32801718  0.68060194  1
  Ni  Ni32  1  0.66128246  0.32824233  0.17504992  1
  Cu  Cu33  1  0.29382946  0.00233911  0.25265918  1
  Cu  Cu34  1  0.29337892  0.29283512  0.75284717  1
  Cu  Cu35  1  0.70698633  0.00129439  0.75322995  1
  Cu  Cu36  1  0.95873852  0.33591626  0.58631140  1
  Cu  Cu37  1  0.37143819  0.03771344  0.58496685  1
  Cu  Cu38  1  0.67037109  0.62663862  0.58487720  1
  Cu  Cu39  1  0.95625056  0.62104374  0.08659462  1
  Cu  Cu40  1  0.66773072  0.04015301  0.08537341  1
  Cu  Cu41  1  0.37631147  0.33801194  0.08638612  1
  Cu  Cu42  1  0.62354427  0.66323238  0.91767612  1
  Cu  Cu43  1  0.04024548  0.37837446  0.91708617  1
  Cu  Cu44  1  0.33571614  0.95871909  0.91757969  1
  Cu  Cu45  1  0.62393762  0.95952445  0.41701942  1
  Cu  Cu46  1  0.33667290  0.37732665  0.41672722  1
  Cu  Cu47  1  0.03949642  0.66237592  0.41668581  1
  C  C48  1  0.70983475  0.71264958  0.25308713  1
  C  C49  1  0.00312446  0.28994871  0.25268370  1
  C  C50  1  0.00268477  0.71224141  0.75283616  1
  C  C51  1  0.21155311  0.02770128  0.31247838  1
  C  C52  1  0.80756126  0.79059295  0.31061298  1
  C  C53  1  0.97603901  0.18980581  0.31042450  1
  C  C54  1  0.21404946  0.17996256  0.81161413  1
  C  C55  1  0.97774285  0.78763955  0.80961114  1
  C  C56  1  0.81582278  0.02459877  0.81203089  1
  C  C57  1  0.80207293  0.96854903  0.69290700  1
  C  C58  1  0.16660789  0.19460480  0.69273882  1
  C  C59  1  0.02813014  0.83292793  0.69711850  1
  C  C60  1  0.80154000  0.83257870  0.19814368  1
  C  C61  1  0.02812564  0.19581263  0.19815033  1
  C  C62  1  0.16572302  0.96997381  0.19397381  1
  C  C63  1  0.88509414  0.36727277  0.64622234  1
  C  C64  1  0.48738973  0.10495038  0.64322693  1
  C  C65  1  0.61877869  0.50834902  0.64272385  1
  C  C66  1  0.88382134  0.51755667  0.14713747  1
  C  C67  1  0.61877053  0.10606416  0.14426850  1
  C  C68  1  0.47705548  0.36736863  0.14733660  1
  C  C69  1  0.46857800  0.30068376  0.02802959  1
  C  C70  1  0.83489436  0.52749098  0.02702986  1
  C  C71  1  0.69428366  0.16375920  0.02626308  1
  C  C72  1  0.46769145  0.16568061  0.52599211  1
  C  C73  1  0.69356483  0.52963349  0.52498176  1
  C  C74  1  0.83294125  0.30269139  0.52687330  1
  C  C75  1  0.51831677  0.68570962  0.97235406  1
  C  C76  1  0.16474560  0.48610683  0.97212185  1
  C  C77  1  0.31724176  0.84027761  0.97509973  1
  C  C78  1  0.52470434  0.83869809  0.47449810  1
  C  C79  1  0.32049632  0.47983964  0.47422955  1
  C  C80  1  0.16620868  0.68227868  0.47178411  1
  C  C81  1  0.13389602  0.63142458  0.35736980  1
  C  C82  1  0.49598259  0.86242212  0.35854164  1
  C  C83  1  0.36693645  0.50259978  0.35789658  1
  C  C84  1  0.13240112  0.50154051  0.85698154  1
  C  C85  1  0.36613742  0.86318276  0.85833801  1
  C  C86  1  0.49788297  0.63159439  0.85766955  1
  C  C87  1  0.01831848  0.82565267  0.41582343  1
  C  C88  1  0.80832599  0.97919416  0.41415869  1
  C  C89  1  0.17008163  0.19398451  0.41698282  1
  C  C90  1  0.02168757  0.19479674  0.91754068  1
  C  C91  1  0.16952491  0.97628828  0.91639139  1
  C  C92  1  0.80840491  0.82650593  0.91533935  1
  C  C93  1  0.97443398  0.16016928  0.58922134  1
  C  C94  1  0.18646327  0.02903385  0.58926157  1
  C  C95  1  0.83704938  0.81896928  0.58883193  1
  C  C96  1  0.97865228  0.81588560  0.09116563  1
  C  C97  1  0.83881477  0.02295553  0.09213315  1
  C  C98  1  0.18710370  0.15837267  0.09123132  1
  C  C99  1  0.68087026  0.16261978  0.74709437  1
  C  C100  1  0.48417795  0.32674433  0.74593129  1
  C  C101  1  0.85226749  0.53489025  0.74498275  1
  C  C102  1  0.68393498  0.53458640  0.24740468  1
  C  C103  1  0.85457941  0.32219240  0.24647777  1
  C  C104  1  0.48506023  0.16147017  0.24762827  1
  C  C105  1  0.62877544  0.48527479  0.92340267  1
  C  C106  1  0.85466663  0.37008711  0.92256675  1
  C  C107  1  0.51308042  0.14472097  0.92254902  1
  C  C108  1  0.63076093  0.14374031  0.42231361  1
  C  C109  1  0.51377216  0.36825225  0.42176187  1
  C  C110  1  0.85584413  0.48432962  0.42221935  1
  C  C111  1  0.34468690  0.49654311  0.07452426  1
  C  C112  1  0.15277985  0.66187415  0.07577807  1
  C  C113  1  0.50008201  0.85237624  0.07376908  1
  C  C114  1  0.35035488  0.85023255  0.57302392  1
  C  C115  1  0.50518807  0.65539170  0.57381869  1
  C  C116  1  0.15482757  0.49144928  0.57500680  1
  C  C117  1  0.30179684  0.81871804  0.25485178  1
  C  C118  1  0.52800943  0.70040269  0.25476788  1
  C  C119  1  0.17612978  0.46893641  0.25484072  1
  C  C120  1  0.29509492  0.47937288  0.75431191  1
  C  C121  1  0.17423528  0.70610198  0.75353163  1
  C  C122  1  0.51653131  0.82017449  0.75406777  1
