# generated using pymatgen
data_CuNiC12
_symmetry_space_group_name_H-M   'P 1'
_cell_length_a   7.21049190
_cell_length_b   7.21049100
_cell_length_c   7.39305681
_cell_angle_alpha   57.75184467
_cell_angle_beta   57.75184755
_cell_angle_gamma   58.03140815
_symmetry_Int_Tables_number   1
_chemical_formula_structural   CuNiC12
_chemical_formula_sum   'Cu1 Ni1 C12'
_cell_volume   258.34236144
_cell_formula_units_Z   1
loop_
 _symmetry_equiv_pos_site_id
 _symmetry_equiv_pos_as_xyz
  1  'x, y, z'
loop_
 _atom_site_type_symbol
 _atom_site_label
 _atom_site_symmetry_multiplicity
 _atom_site_fract_x
 _atom_site_fract_y
 _atom_site_fract_z
 _atom_site_occupancy
  Ni  Ni0  1  0.00000000  0.00000000  0.50000000  1
  C  C1  1  0.50000100  0.99999900  0.50000100  1
  C  C2  1  0.99999900  0.50000000  0.50000100  1
  C  C3  1  0.50000000  0.50000000  0.00000000  1
  C  C4  1  0.00000000  0.00000000  0.00000000  1
  Cu  Cu5  1  0.50000000  0.50000100  0.49999900  1
  C  C6  1  0.76263300  0.26327600  0.73979000  1
  C  C7  1  0.24926000  0.24926100  0.71857900  1
  C  C8  1  0.23736600  0.73672500  0.26020900  1
  C  C9  1  0.73672300  0.23736700  0.26021000  1
  C  C10  1  0.25456700  0.25456800  0.27621000  1
  C  C11  1  0.74543300  0.74543300  0.72379000  1
  C  C12  1  0.26327700  0.76263400  0.73979000  1
  C  C13  1  0.75074000  0.75074000  0.28142100  1
