# generated using pymatgen
data_Cu2Ni2C9
_symmetry_space_group_name_H-M   'P 1'
_cell_length_a   3.39030300
_cell_length_b   3.39028914
_cell_length_c   46.32557900
_cell_angle_alpha   89.99881116
_cell_angle_beta   90.00000742
_cell_angle_gamma   119.99978089
_symmetry_Int_Tables_number   1
_chemical_formula_structural   Cu2Ni2C9
_chemical_formula_sum   'Cu2 Ni2 C9'
_cell_volume   461.13458814
_cell_formula_units_Z   1
loop_
 _symmetry_equiv_pos_site_id
 _symmetry_equiv_pos_as_xyz
  1  'x, y, z'
loop_
 _atom_site_type_symbol
 _atom_site_label
 _atom_site_symmetry_multiplicity
 _atom_site_fract_x
 _atom_site_fract_y
 _atom_site_fract_z
 _atom_site_occupancy
  C  C0  1  0.99997000  0.99994100  0.55906600  1
  C  C1  1  0.33332300  0.66664700  0.32239000  1
  C  C2  1  0.33334300  0.66668700  0.70443500  1
  C  C3  1  0.33333100  0.66666300  0.24142700  1
  C  C4  1  0.33336200  0.66672500  0.62313000  1
  C  C5  1  0.33335500  0.66670900  0.09383000  1
  C  C6  1  0.66665500  0.33331200  0.28193100  1
  C  C7  1  0.66668400  0.33337100  0.66396800  1
  C  C8  1  0.33331700  0.66663000  0.46090900  1
  Ni  Ni9  1  0.66669400  0.33338800  0.05821300  1
  Ni  Ni10  1  0.66667500  0.33335000  0.12946400  1
  Cu  Cu11  1  0.66665000  0.33330000  0.42854500  1
  Cu  Cu12  1  0.66664000  0.33327900  0.49352300  1
