# generated using pymatgen
data_Cu5Ni3C34
_symmetry_space_group_name_H-M   'P 1'
_cell_length_a   9.02795141
_cell_length_b   9.01619132
_cell_length_c   21.98773579
_cell_angle_alpha   89.55740075
_cell_angle_beta   90.04684178
_cell_angle_gamma   120.05410803
_symmetry_Int_Tables_number   1
_chemical_formula_structural   Cu5Ni3C34
_chemical_formula_sum   'Cu15 Ni9 C102'
_cell_volume   1549.06901954
_cell_formula_units_Z   3
loop_
 _symmetry_equiv_pos_site_id
 _symmetry_equiv_pos_as_xyz
  1  'x, y, z'
loop_
 _atom_site_type_symbol
 _atom_site_label
 _atom_site_symmetry_multiplicity
 _atom_site_fract_x
 _atom_site_fract_y
 _atom_site_fract_z
 _atom_site_occupancy
  C  C0  1  0.61986214  0.99861223  0.25078954  1
  C  C1  1  0.37043577  0.36679709  0.25499783  1
  C  C2  1  0.00653685  0.63350428  0.24754613  1
  C  C3  1  0.63568567  0.62036404  0.74496374  1
  C  C4  1  0.99509078  0.36374621  0.73611749  1
  C  C5  1  0.35892097  0.00681023  0.73997594  1
  C  C6  1  0.29496230  0.34172414  0.58106385  1
  C  C7  1  0.04433568  0.70668295  0.58176645  1
  C  C8  1  0.66509450  0.95929230  0.57812810  1
  C  C9  1  0.29525079  0.95109405  0.08289212  1
  C  C10  1  0.65975094  0.70269925  0.08093503  1
  C  C11  1  0.04186042  0.33616112  0.08133326  1
  C  C12  1  0.96865228  0.67541077  0.91477287  1
  C  C13  1  0.70519551  0.02518496  0.91843922  1
  C  C14  1  0.32175832  0.29262295  0.91351739  1
  C  C15  1  0.97716931  0.30298800  0.41938026  1
  C  C16  1  0.32929686  0.02845425  0.41749647  1
  C  C17  1  0.70145380  0.67968173  0.41921135  1
  C  C18  1  0.00071785  0.00223246  0.50137121  1
  C  C19  1  0.99872508  0.99800889  0.99960105  1
  C  C20  1  0.66474618  0.34055193  0.82816698  1
  C  C21  1  0.65918009  0.32612992  0.33191905  1
  C  C22  1  0.33255256  0.67302722  0.16381364  1
  C  C23  1  0.32876996  0.66087913  0.65699517  1
  C  C24  1  0.66652491  0.33151754  0.98070601  1
  C  C25  1  0.66852554  0.33706287  0.48034449  1
  C  C26  1  0.32352453  0.65783260  0.81400071  1
  Ni  Ni27  1  0.02045357  0.00903993  0.35828279  1
  Ni  Ni28  1  0.01327579  0.99377984  0.85479404  1
  Ni  Ni29  1  0.02022729  0.00701897  0.64162096  1
  Ni  Ni30  1  0.01153479  0.99130460  0.14018771  1
  Ni  Ni31  1  0.66286445  0.34635129  0.67976745  1
  Ni  Ni32  1  0.64398682  0.31429607  0.17634815  1
  Ni  Ni33  1  0.33388233  0.66345896  0.02080039  1
  Ni  Ni34  1  0.33775516  0.67106771  0.51754185  1
  Ni  Ni35  1  0.33148215  0.68708932  0.32560174  1
  Cu  Cu36  1  0.29153126  0.99918148  0.24958944  1
  Cu  Cu37  1  0.28837465  0.28497982  0.74920024  1
  Cu  Cu38  1  0.99652999  0.71096980  0.74901381  1
  Cu  Cu39  1  0.95818162  0.33253398  0.58704440  1
  Cu  Cu40  1  0.37937406  0.04178974  0.58615738  1
  Cu  Cu41  1  0.66689151  0.63381579  0.58492516  1
  Cu  Cu42  1  0.95443971  0.61802645  0.08835919  1
  Cu  Cu43  1  0.66797612  0.03379572  0.08672679  1
  Cu  Cu44  1  0.37138399  0.33588850  0.08527507  1
  Cu  Cu45  1  0.62739920  0.67115503  0.91843114  1
  Cu  Cu46  1  0.03993877  0.36787571  0.92019803  1
  Cu  Cu47  1  0.33265634  0.95268894  0.91959841  1
  Cu  Cu48  1  0.63225202  0.96161088  0.41517112  1
  Cu  Cu49  1  0.33485445  0.38734636  0.41496200  1
  Cu  Cu50  1  0.04512088  0.66908629  0.41657432  1
  C  C51  1  0.71152954  0.71140810  0.24945664  1
  C  C52  1  0.00021191  0.28855388  0.24911127  1
  C  C53  1  0.70711975  0.99589430  0.75206704  1
  C  C54  1  0.20567507  0.03505048  0.30946133  1
  C  C55  1  0.81039484  0.79909571  0.30478552  1
  C  C56  1  0.98231431  0.18659345  0.30514514  1
  C  C57  1  0.20169873  0.17545683  0.81147313  1
  C  C58  1  0.96729979  0.79138291  0.81123503  1
  C  C59  1  0.80443497  0.00915155  0.80786237  1
  C  C60  1  0.78415864  0.97320606  0.69654615  1
  C  C61  1  0.16428524  0.20934604  0.69013757  1
  C  C62  1  0.03968834  0.83624200  0.69000986  1
  C  C63  1  0.79487227  0.81331576  0.19322367  1
  C  C64  1  0.01101620  0.20097833  0.19360484  1
  C  C65  1  0.17077107  0.96323897  0.18912756  1
  C  C66  1  0.86494360  0.36085787  0.64589508  1
  C  C67  1  0.49673342  0.12943542  0.64626384  1
  C  C68  1  0.62771195  0.51558735  0.64571527  1
  C  C69  1  0.85892987  0.49570978  0.14762202  1
  C  C70  1  0.62996782  0.11645802  0.14614967  1
  C  C71  1  0.48927516  0.37369326  0.14561347  1
  C  C72  1  0.47086799  0.30511249  0.02648400  1
  C  C73  1  0.83361348  0.52321733  0.02699999  1
  C  C74  1  0.69743693  0.16297918  0.02674535  1
  C  C75  1  0.47575835  0.16470941  0.52558161  1
  C  C76  1  0.69417955  0.53213320  0.52652118  1
  C  C77  1  0.83584143  0.30968498  0.52664965  1
  C  C78  1  0.54182550  0.70326070  0.97745317  1
  C  C79  1  0.16108053  0.45420736  0.97808148  1
  C  C80  1  0.29923248  0.83345895  0.97874470  1
  C  C81  1  0.54907112  0.83839845  0.47416720  1
  C  C82  1  0.29804061  0.46560226  0.47542633  1
  C  C83  1  0.16901727  0.70933038  0.47486111  1
  C  C84  1  0.11395009  0.62208909  0.35468229  1
  C  C85  1  0.51253072  0.89040598  0.35430929  1
  C  C86  1  0.37021831  0.50694100  0.35328932  1
  C  C87  1  0.13355620  0.49538074  0.85960850  1
  C  C88  1  0.36251918  0.86204779  0.85853374  1
  C  C89  1  0.50205103  0.63875793  0.85827968  1
  C  C90  1  0.01490396  0.83350366  0.41104519  1
  C  C91  1  0.82480221  0.98868440  0.40645627  1
  C  C92  1  0.16866617  0.19230295  0.41192329  1
  C  C93  1  0.01042234  0.17717507  0.91006811  1
  C  C94  1  0.16783454  0.97996174  0.91495302  1
  C  C95  1  0.81853393  0.83682412  0.91158422  1
  C  C96  1  0.96586823  0.15471770  0.58842139  1
  C  C97  1  0.19486863  0.03513657  0.58436551  1
  C  C98  1  0.84323856  0.81898321  0.58827407  1
  C  C99  1  0.96306724  0.80418322  0.08627676  1
  C  C100  1  0.84452161  0.02488336  0.09058594  1
  C  C101  1  0.18558786  0.15958276  0.08629374  1
  C  C102  1  0.68417185  0.14753294  0.75082971  1
  C  C103  1  0.48117145  0.30796509  0.74655651  1
  C  C104  1  0.83234786  0.51438654  0.74600922  1
  C  C105  1  0.69852427  0.53878455  0.24949401  1
  C  C106  1  0.84585919  0.31003274  0.24927861  1
  C  C107  1  0.48670624  0.17619462  0.24537872  1
  C  C108  1  0.63904938  0.49264487  0.92138902  1
  C  C109  1  0.85381337  0.36236069  0.92123314  1
  C  C110  1  0.50918682  0.14340701  0.92178215  1
  C  C111  1  0.65030875  0.15410699  0.42216730  1
  C  C112  1  0.50695987  0.36387371  0.42073901  1
  C  C113  1  0.85188292  0.49769095  0.42255291  1
  C  C114  1  0.35329977  0.50517808  0.07931819  1
  C  C115  1  0.14286740  0.63812259  0.08274178  1
  C  C116  1  0.49659502  0.84787948  0.08003532  1
  C  C117  1  0.35890841  0.85306192  0.57977554  1
  C  C118  1  0.49540291  0.64838556  0.57785344  1
  C  C119  1  0.14555789  0.50331576  0.58026728  1
  C  C120  1  0.31051232  0.82334182  0.25478440  1
  C  C121  1  0.53586190  0.68936508  0.24969428  1
  C  C122  1  0.15901482  0.46084385  0.24958525  1
  C  C123  1  0.31431275  0.48447089  0.75547205  1
  C  C124  1  0.17554106  0.69411372  0.75505228  1
  C  C125  1  0.52905873  0.83540416  0.75442038  1
