# generated using pymatgen
data_Cu(NiC6)11
_symmetry_space_group_name_H-M   'P 1'
_cell_length_a   17.94778830
_cell_length_b   9.02107316
_cell_length_c   22.55998091
_cell_angle_alpha   90.10505019
_cell_angle_beta   89.78571787
_cell_angle_gamma   120.13265209
_symmetry_Int_Tables_number   1
_chemical_formula_structural   Cu(NiC6)11
_chemical_formula_sum   'Cu3 Ni33 C198'
_cell_volume   3159.02741043
_cell_formula_units_Z   3
loop_
 _symmetry_equiv_pos_site_id
 _symmetry_equiv_pos_as_xyz
  1  'x, y, z'
loop_
 _atom_site_type_symbol
 _atom_site_label
 _atom_site_symmetry_multiplicity
 _atom_site_fract_x
 _atom_site_fract_y
 _atom_site_fract_z
 _atom_site_occupancy
  C  C0  1  0.31592319  0.99233775  0.25188565  1
  C  C1  1  0.81699360  0.99303289  0.25210341  1
  C  C2  1  0.81968893  0.64062709  0.74819330  1
  C  C3  1  0.18240420  0.98887979  0.75047659  1
  C  C4  1  0.68189789  0.00161869  0.74907191  1
  C  C5  1  0.01753643  0.70724632  0.58523396  1
  C  C6  1  0.83620445  0.96421783  0.58510149  1
  C  C7  1  0.64766449  0.96983783  0.08571769  1
  C  C8  1  0.33541402  0.70605983  0.08617786  1
  C  C9  1  0.83724727  0.70721908  0.08747336  1
  C  C10  1  0.01793828  0.32688069  0.08653301  1
  C  C11  1  0.51476064  0.32400808  0.08705587  1
  C  C12  1  0.98689554  0.66378997  0.91456865  1
  C  C13  1  0.34743779  0.02958277  0.91497586  1
  C  C14  1  0.48505813  0.30954052  0.41559980  1
  C  C15  1  0.98650680  0.31053049  0.41532377  1
  C  C16  1  0.34616645  0.66265304  0.41596976  1
  C  C17  1  0.84670731  0.66401617  0.41565644  1
  C  C18  1  0.00864512  0.00896094  0.50512136  1
  C  C19  1  0.50436725  0.99996746  0.50356864  1
  C  C20  1  0.00610170  0.00911432  0.00450287  1
  C  C21  1  0.50171696  0.99847804  0.00076483  1
  C  C22  1  0.33629291  0.34731298  0.83365834  1
  C  C23  1  0.83565508  0.32782234  0.83374852  1
  C  C24  1  0.33161805  0.33682453  0.33344435  1
  C  C25  1  0.83193695  0.33709550  0.33340252  1
  C  C26  1  0.16329663  0.65947384  0.17269797  1
  C  C27  1  0.66381561  0.65261733  0.17498850  1
  C  C28  1  0.17029855  0.66412845  0.67087347  1
  C  C29  1  0.65977466  0.65375132  0.66425390  1
  C  C30  1  0.99577639  0.99600404  0.35470610  1
  C  C31  1  0.49509566  0.99587318  0.35444169  1
  C  C32  1  0.99509184  0.99904841  0.85627414  1
  C  C33  1  0.49903779  0.99504920  0.85455473  1
  C  C34  1  0.49685406  0.99929912  0.64519498  1
  C  C35  1  0.33836190  0.33472427  0.68567380  1
  C  C36  1  0.83759515  0.33834741  0.68744110  1
  C  C37  1  0.33810417  0.34371269  0.18768575  1
  C  C38  1  0.84024203  0.34865215  0.18799065  1
  C  C39  1  0.33074097  0.33917751  0.97906043  1
  C  C40  1  0.83259546  0.32768012  0.97873749  1
  C  C41  1  0.33010155  0.32829715  0.48045001  1
  C  C42  1  0.83196988  0.32831505  0.48003097  1
  C  C43  1  0.16681848  0.66892139  0.02001837  1
  C  C44  1  0.66661153  0.66668042  0.01958881  1
  C  C45  1  0.16919912  0.66846384  0.52188578  1
  C  C46  1  0.66253510  0.66212939  0.52059307  1
  C  C47  1  0.66335207  0.66363547  0.81199989  1
  C  C48  1  0.99795007  0.98959832  0.64503481  1
  C  C49  1  0.99747231  0.00403723  0.14668917  1
  C  C50  1  0.49253882  0.00550787  0.14721817  1
  C  C51  1  0.16530072  0.64647258  0.31610064  1
  C  C52  1  0.66575939  0.64690563  0.31620553  1
  C  C53  1  0.16780607  0.67578429  0.81660829  1
  Ni  Ni54  1  0.35150497  0.70905525  0.24793797  1
  Ni  Ni55  1  0.85230435  0.71190199  0.24777746  1
  Ni  Ni56  1  0.00601698  0.29699616  0.24786418  1
  Ni  Ni57  1  0.50554855  0.29847837  0.24812787  1
  Ni  Ni58  1  0.64276376  0.28888083  0.74954329  1
  Ni  Ni59  1  0.00474898  0.71333987  0.74906491  1
  Ni  Ni60  1  0.49640345  0.70798183  0.74914471  1
  Ni  Ni61  1  0.35074790  0.99208587  0.75172664  1
  Ni  Ni62  1  0.85829078  0.00376873  0.74676483  1
  Ni  Ni63  1  0.47915060  0.33142747  0.58159274  1
  Ni  Ni64  1  0.98178002  0.32832616  0.58361684  1
  Ni  Ni65  1  0.18524157  0.04314132  0.58586019  1
  Ni  Ni66  1  0.68633508  0.04257984  0.58469967  1
  Ni  Ni67  1  0.33317580  0.62116351  0.58377304  1
  Ni  Ni68  1  0.83217972  0.62346743  0.58355657  1
  Ni  Ni69  1  0.47954742  0.63112032  0.08379672  1
  Ni  Ni70  1  0.98125369  0.63476898  0.08244554  1
  Ni  Ni71  1  0.33215434  0.04450858  0.08364442  1
  Ni  Ni72  1  0.83386828  0.04379288  0.08554623  1
  Ni  Ni73  1  0.18449042  0.32365789  0.08550567  1
  Ni  Ni74  1  0.68652672  0.32856750  0.08492518  1
  Ni  Ni75  1  0.30734151  0.66241097  0.91305700  1
  Ni  Ni76  1  0.80985181  0.66271875  0.91589740  1
  Ni  Ni77  1  0.02647133  0.38300866  0.91409460  1
  Ni  Ni78  1  0.52046550  0.37389530  0.91708826  1
  Ni  Ni79  1  0.16719348  0.95801291  0.91443831  1
  Ni  Ni80  1  0.66602268  0.95697646  0.91617464  1
  Ni  Ni81  1  0.30473643  0.95251410  0.41242266  1
  Ni  Ni82  1  0.80445439  0.95029564  0.41342969  1
  Ni  Ni83  1  0.16687523  0.37770147  0.41554364  1
  Ni  Ni84  1  0.66709702  0.37658657  0.41523744  1
  Ni  Ni85  1  0.02691272  0.67078393  0.41487196  1
  Ni  Ni86  1  0.52535302  0.66983564  0.41330359  1
  Cu  Cu87  1  0.14246830  -0.00132933  0.24858048  1
  Cu  Cu88  1  0.64356069  0.99866287  0.24841039  1
  Cu  Cu89  1  0.14280093  0.29087343  0.74934228  1
  C  C90  1  0.10251855  0.02545566  0.30289455  1
  C  C91  1  0.60195955  0.02464759  0.30186674  1
  C  C92  1  0.41467924  0.80106304  0.30745148  1
  C  C93  1  0.91470234  0.80094466  0.30757647  1
  C  C94  1  0.48652113  0.16690336  0.30642172  1
  C  C95  1  0.98601183  0.16665648  0.30665445  1
  C  C96  1  0.10251119  0.17730353  0.80301453  1
  C  C97  1  0.59891110  0.16379585  0.80703736  1
  C  C98  1  0.48537530  0.80257745  0.80791374  1
  C  C99  1  0.98507658  0.80489907  0.80744724  1
  C  C100  1  0.41435114  0.02955884  0.80949414  1
  C  C101  1  0.91721235  0.02966982  0.80615361  1
  C  C102  1  0.40280539  0.97397659  0.69418788  1
  C  C103  1  0.89798055  0.96117349  0.68951748  1
  C  C104  1  0.09068660  0.20846710  0.69569492  1
  C  C105  1  0.58349926  0.19695244  0.69201711  1
  C  C106  1  0.01899359  0.83191885  0.69096824  1
  C  C107  1  0.51797124  0.83671004  0.69309959  1
  C  C108  1  0.39793614  0.82770322  0.19004594  1
  C  C109  1  0.89828641  0.83002670  0.19004686  1
  C  C110  1  0.01447263  0.20436579  0.18900112  1
  C  C111  1  0.51606896  0.20790781  0.18886709  1
  C  C112  1  0.09111247  0.97597623  0.19552232  1
  C  C113  1  0.59355836  0.97739202  0.19398347  1
  C  C114  1  0.43262891  0.36254117  0.63982845  1
  C  C115  1  0.93174591  0.36531140  0.63938893  1
  C  C116  1  0.24743396  0.13441050  0.64357962  1
  C  C117  1  0.74913603  0.13215883  0.64274797  1
  C  C118  1  0.31947476  0.49685642  0.64070638  1
  C  C119  1  0.81820190  0.50275551  0.64220138  1
  C  C120  1  0.43494000  0.49847152  0.14052844  1
  C  C121  1  0.93346786  0.49813279  0.13927264  1
  C  C122  1  0.31824985  0.13508467  0.14274788  1
  C  C123  1  0.81296068  0.12992361  0.14276827  1
  C  C124  1  0.25298017  0.36596833  0.14048889  1
  C  C125  1  0.75298180  0.36818705  0.14057968  1
  C  C126  1  0.23487825  0.30421810  0.02717890  1
  C  C127  1  0.73489804  0.30097114  0.02712914  1
  C  C128  1  0.41627061  0.53417251  0.02769910  1
  C  C129  1  0.91792543  0.53716608  0.02527612  1
  C  C130  1  0.34956186  0.16795701  0.02563806  1
  C  C131  1  0.84802878  0.16945553  0.02831062  1
  C  C132  1  0.23638655  0.16649595  0.52808845  1
  C  C133  1  0.73656474  0.16564433  0.52714488  1
  C  C134  1  0.34725729  0.53250367  0.52413380  1
  C  C135  1  0.84832954  0.53023397  0.52582873  1
  C  C136  1  0.42059442  0.30625044  0.52316755  1
  C  C137  1  0.91915919  0.30005626  0.52559711  1
  C  C138  1  0.26695245  0.69981968  0.97461951  1
  C  C139  1  0.76668695  0.69531377  0.97521767  1
  C  C140  1  0.08157105  0.46557381  0.97609078  1
  C  C141  1  0.58119064  0.46809950  0.97569754  1
  C  C142  1  0.14854531  0.82888828  0.97226115  1
  C  C143  1  0.65318452  0.83733782  0.97522239  1
  C  C144  1  0.26544506  0.82884038  0.47131557  1
  C  C145  1  0.76740461  0.83220057  0.47375345  1
  C  C146  1  0.14769951  0.46590900  0.47369827  1
  C  C147  1  0.64802888  0.46556262  0.47348165  1
  C  C148  1  0.08174236  0.69761804  0.47632862  1
  C  C149  1  0.58363006  0.69800995  0.47373550  1
  C  C150  1  0.06699921  0.62501605  0.35907373  1
  C  C151  1  0.56704358  0.62525349  0.35837031  1
  C  C152  1  0.25150078  0.87030268  0.35296651  1
  C  C153  1  0.75117568  0.86911470  0.35393544  1
  C  C154  1  0.19228968  0.50240141  0.35947252  1
  C  C155  1  0.69242236  0.50206868  0.35950612  1
  C  C156  1  0.06589376  0.50937389  0.85881387  1
  C  C157  1  0.57002262  0.50048117  0.86044113  1
  C  C158  1  0.18898058  0.88341299  0.85652598  1
  C  C159  1  0.68082609  0.86629945  0.85769460  1
  C  C160  1  0.24841799  0.63242983  0.85700679  1
  C  C161  1  0.75239978  0.63954516  0.85730988  1
  C  C162  1  0.01013965  0.83487485  0.40909882  1
  C  C163  1  0.51060945  0.83624882  0.40891164  1
  C  C164  1  0.40420003  0.97389346  0.40928602  1
  C  C165  1  0.90422835  0.97381740  0.40935341  1
  C  C166  1  0.07997536  0.18811609  0.40872326  1
  C  C167  1  0.57976135  0.18802659  0.40872551  1
  C  C168  1  0.01405210  0.18982492  0.90842247  1
  C  C169  1  0.50977606  0.18456521  0.91141406  1
  C  C170  1  0.07976380  0.97198742  0.90904406  1
  C  C171  1  0.58053985  0.97410838  0.91129048  1
  C  C172  1  0.40327319  0.83958830  0.91051973  1
  C  C173  1  0.90665286  0.83399944  0.91092115  1
  C  C174  1  0.48713286  0.16159029  0.58873580  1
  C  C175  1  0.98455452  0.15415683  0.59108901  1
  C  C176  1  0.08994437  0.01855586  0.58988194  1
  C  C177  1  0.59260260  0.02432011  0.58915760  1
  C  C178  1  0.41816512  0.81023896  0.59037833  1
  C  C179  1  0.91898814  0.81028253  0.58710499  1
  C  C180  1  0.49067485  0.81902969  0.09119874  1
  C  C181  1  0.98513179  0.81462936  0.09107290  1
  C  C182  1  0.41805341  0.02486101  0.08700273  1
  C  C183  1  0.91804503  0.02375080  0.08710608  1
  C  C184  1  0.08931830  0.16060104  0.09020447  1
  C  C185  1  0.59249489  0.15811830  0.09004208  1
  C  C186  1  0.34078043  0.16588754  0.74409581  1
  C  C187  1  0.84199342  0.16729926  0.74445965  1
  C  C188  1  0.22925693  0.29901942  0.74551704  1
  C  C189  1  0.73900935  0.30843689  0.74434344  1
  C  C190  1  0.41197833  0.51728988  0.74469770  1
  C  C191  1  0.91272608  0.52585744  0.74441915  1
  C  C192  1  0.34437594  0.51852702  0.24383717  1
  C  C193  1  0.84440162  0.51957636  0.24378058  1
  C  C194  1  0.41096706  0.29620271  0.24453459  1
  C  C195  1  0.91109958  0.29648098  0.24356336  1
  C  C196  1  0.23133233  0.15702945  0.24530510  1
  C  C197  1  0.73210481  0.15749163  0.24561057  1
  C  C198  1  0.32193285  0.49848690  0.92369869  1
  C  C199  1  0.82527230  0.50042662  0.92209420  1
  C  C200  1  0.42523979  0.35181718  0.92259346  1
  C  C201  1  0.92989810  0.36266816  0.92496477  1
  C  C202  1  0.25322830  0.14518301  0.92489790  1
  C  C203  1  0.75253926  0.14509467  0.92324099  1
  C  C204  1  0.32638881  0.15065257  0.42202219  1
  C  C205  1  0.82640496  0.14972134  0.42234389  1
  C  C206  1  0.25278332  0.35907373  0.42449712  1
  C  C207  1  0.75331293  0.35975892  0.42507353  1
  C  C208  1  0.42776153  0.50113012  0.42320807  1
  C  C209  1  0.92820093  0.50063985  0.42402239  1
  C  C210  1  0.18066192  0.50233139  0.07724302  1
  C  C211  1  0.67971975  0.50341336  0.07740741  1
  C  C212  1  0.07149462  0.63280867  0.07785987  1
  C  C213  1  0.57325993  0.64102030  0.07784603  1
  C  C214  1  0.24852938  0.85065258  0.07727813  1
  C  C215  1  0.74654357  0.85405597  0.07740349  1
  C  C216  1  0.17754300  0.85479075  0.57687449  1
  C  C217  1  0.68414406  0.85960573  0.57716195  1
  C  C218  1  0.24770999  0.63989223  0.57674495  1
  C  C219  1  0.74826964  0.64715318  0.57774869  1
  C  C220  1  0.07167072  0.50958205  0.57822965  1
  C  C221  1  0.57297677  0.50556715  0.57791595  1
  C  C222  1  0.15540137  0.84960111  0.25444099  1
  C  C223  1  0.65575346  0.84985705  0.25414923  1
  C  C224  1  0.25982834  0.70208171  0.25550639  1
  C  C225  1  0.75999097  0.70236191  0.25538874  1
  C  C226  1  0.08624440  0.48834074  0.25588861  1
  C  C227  1  0.58659625  0.48854007  0.25592299  1
  C  C228  1  0.15373256  0.46038247  0.75607967  1
  C  C229  1  0.65815160  0.48367120  0.75560075  1
  C  C230  1  0.08851945  0.69333208  0.75653041  1
  C  C231  1  0.58521102  0.69626082  0.75638157  1
  C  C232  1  0.25575721  0.82572072  0.75513735  1
  C  C233  1  0.76138040  0.83232626  0.75650296  1
