# generated using pymatgen
data_Cu2Ni2C5
_symmetry_space_group_name_H-M   'P 1'
_cell_length_a   3.05084800
_cell_length_b   3.05084725
_cell_length_c   14.05851100
_cell_angle_alpha   90.00000000
_cell_angle_beta   90.00000000
_cell_angle_gamma   120.00000818
_symmetry_Int_Tables_number   1
_chemical_formula_structural   Cu2Ni2C5
_chemical_formula_sum   'Cu2 Ni2 C5'
_cell_volume   113.32114523
_cell_formula_units_Z   1
loop_
 _symmetry_equiv_pos_site_id
 _symmetry_equiv_pos_as_xyz
  1  'x, y, z'
loop_
 _atom_site_type_symbol
 _atom_site_label
 _atom_site_symmetry_multiplicity
 _atom_site_fract_x
 _atom_site_fract_y
 _atom_site_fract_z
 _atom_site_occupancy
  C  C0  1  0.33333300  0.66666700  0.62412500  1
  Ni  Ni1  1  0.00000000  0.00000000  0.45023100  1
  Ni  Ni2  1  0.00000000  0.00000000  0.02236200  1
  Cu  Cu3  1  0.66666600  0.33333200  0.79726100  1
  Cu  Cu4  1  0.33333400  0.66666700  0.24019500  1
  C  C5  1  0.33333400  0.66666700  0.38880600  1
  C  C6  1  0.66666600  0.33333200  0.95379200  1
  C  C7  1  0.66666600  0.33333200  0.56045300  1
  C  C8  1  0.33333400  0.66666700  0.09298200  1
