# generated using pymatgen
data_Cu(NiC9)2
_symmetry_space_group_name_H-M   'P 1'
_cell_length_a   9.25659776
_cell_length_b   9.24061123
_cell_length_c   22.65194153
_cell_angle_alpha   89.91892672
_cell_angle_beta   90.21305480
_cell_angle_gamma   120.07351955
_symmetry_Int_Tables_number   1
_chemical_formula_structural   Cu(NiC9)2
_chemical_formula_sum   'Cu6 Ni12 C108'
_cell_volume   1676.72900810
_cell_formula_units_Z   6
loop_
 _symmetry_equiv_pos_site_id
 _symmetry_equiv_pos_as_xyz
  1  'x, y, z'
loop_
 _atom_site_type_symbol
 _atom_site_label
 _atom_site_symmetry_multiplicity
 _atom_site_fract_x
 _atom_site_fract_y
 _atom_site_fract_z
 _atom_site_occupancy
  C  C0  1  0.63744234  0.01863185  0.24138807  1
  C  C1  1  0.38276778  0.36245577  0.24220496  1
  C  C2  1  0.98042229  0.61910035  0.24222511  1
  C  C3  1  0.63537796  0.61930446  0.74452568  1
  C  C4  1  0.98004866  0.36600565  0.74806677  1
  C  C5  1  0.38405374  0.01389144  0.74283297  1
  C  C6  1  0.31236745  0.33474758  0.58594055  1
  C  C7  1  0.03028051  0.69844220  0.58436948  1
  C  C8  1  0.66149809  0.97087751  0.59000124  1
  C  C9  1  0.30924295  0.97120584  0.08351742  1
  C  C10  1  0.66199899  0.69061263  0.08351541  1
  C  C11  1  0.02899981  0.33796275  0.08329496  1
  C  C12  1  0.96630274  0.66447054  0.91699489  1
  C  C13  1  0.69914546  0.03530178  0.91696169  1
  C  C14  1  0.33428850  0.30083353  0.91812944  1
  C  C15  1  0.96903615  0.28943006  0.41166797  1
  C  C16  1  0.31506995  0.03237061  0.41397516  1
  C  C17  1  0.71440507  0.67886184  0.41090350  1
  C  C18  1  0.00592862  0.99813777  0.49367406  1
  C  C19  1  0.00090017  0.00106786  0.99878292  1
  C  C20  1  0.67077363  0.33350867  0.82727863  1
  C  C21  1  0.66773098  0.33684223  0.32652294  1
  C  C22  1  0.33439884  0.66748998  0.16169290  1
  C  C23  1  0.33897478  0.67509690  0.66851172  1
  C  C24  1  0.99386902  0.99531905  0.85156554  1
  C  C25  1  0.99780573  0.99296056  0.64805161  1
  C  C26  1  0.00040768  0.99985583  0.14791163  1
  C  C27  1  0.66718193  0.33361843  0.98297023  1
  C  C28  1  0.66344976  0.33825543  0.48177952  1
  C  C29  1  0.33319000  0.66679127  0.01800352  1
  C  C30  1  0.33163836  0.66644695  0.51802713  1
  C  C31  1  0.32988630  0.66194932  0.31567977  1
  C  C32  1  0.33402899  0.67056044  0.81461876  1
  C  C33  1  0.00772966  0.00032668  0.35035693  1
  C  C34  1  0.66606903  0.33227108  0.68235868  1
  C  C35  1  0.66674574  0.33326867  0.17121383  1
  Ni  Ni36  1  0.99803291  0.69879819  0.74960272  1
  Ni  Ni37  1  0.70205890  0.00172908  0.74890426  1
  Ni  Ni38  1  0.37402147  0.04002286  0.58556585  1
  Ni  Ni39  1  0.66508120  0.62680226  0.58605183  1
  Ni  Ni40  1  0.96231254  0.62710393  0.08658115  1
  Ni  Ni41  1  0.66548825  0.03828507  0.08653720  1
  Ni  Ni42  1  0.37332369  0.33478570  0.08629011  1
  Ni  Ni43  1  0.62782297  0.66529646  0.91648333  1
  Ni  Ni44  1  0.03739089  0.37076398  0.91613847  1
  Ni  Ni45  1  0.33388170  0.96415002  0.91667479  1
  Ni  Ni46  1  0.33093805  0.36733585  0.41640990  1
  Ni  Ni47  1  0.03449112  0.66601476  0.41602021  1
  Cu  Cu48  1  0.29676182  0.00054205  0.25288853  1
  Cu  Cu49  1  0.70625448  0.70798810  0.25352582  1
  Cu  Cu50  1  0.99978182  0.29255902  0.25342785  1
  Cu  Cu51  1  0.29233896  0.29434733  0.75025416  1
  Cu  Cu52  1  0.96070063  0.33413183  0.58428474  1
  Cu  Cu53  1  0.62697518  0.96162709  0.41641722  1
  C  C54  1  0.21417699  0.02070584  0.30845131  1
  C  C55  1  0.81005850  0.79348532  0.30894834  1
  C  C56  1  0.98043854  0.18853614  0.30875768  1
  C  C57  1  0.20084587  0.18643763  0.80516310  1
  C  C58  1  0.98041478  0.79698757  0.80744451  1
  C  C59  1  0.81826657  0.02228692  0.80726283  1
  C  C60  1  0.79629855  0.97680521  0.69108011  1
  C  C61  1  0.18399292  0.20919566  0.69427599  1
  C  C62  1  0.02938895  0.82119533  0.69167170  1
  C  C63  1  0.79365843  0.81729308  0.19749888  1
  C  C64  1  0.02412500  0.20705950  0.19756406  1
  C  C65  1  0.18440361  0.97545647  0.19734290  1
  C  C66  1  0.88867954  0.36781907  0.63932607  1
  C  C67  1  0.48967162  0.11594128  0.64341823  1
  C  C68  1  0.62804938  0.51131185  0.64350480  1
  C  C69  1  0.88711847  0.51482967  0.14523419  1
  C  C70  1  0.62825750  0.11327209  0.14506615  1
  C  C71  1  0.48578771  0.37233512  0.14507314  1
  C  C72  1  0.45768041  0.30049981  0.02793642  1
  C  C73  1  0.84375786  0.54298857  0.02793311  1
  C  C74  1  0.69969138  0.15699617  0.02804671  1
  C  C75  1  0.46390380  0.15542364  0.52627604  1
  C  C76  1  0.69759117  0.54074199  0.52688506  1
  C  C77  1  0.85073012  0.30690636  0.52843623  1
  C  C78  1  0.54145479  0.69627361  0.97439045  1
  C  C79  1  0.15423202  0.45849983  0.97445563  1
  C  C80  1  0.30256010  0.84614450  0.97464015  1
  C  C81  1  0.53811967  0.85196531  0.47146306  1
  C  C82  1  0.31150367  0.46390868  0.47402979  1
  C  C83  1  0.15273328  0.69170659  0.47394090  1
  C  C84  1  0.13064050  0.63971357  0.35881976  1
  C  C85  1  0.51433334  0.87566028  0.36142497  1
  C  C86  1  0.36468072  0.49171767  0.35900460  1
  C  C87  1  0.12628020  0.48892222  0.85837158  1
  C  C88  1  0.36357202  0.87422479  0.85914037  1
  C  C89  1  0.51032820  0.63597666  0.85849477  1
  C  C90  1  0.01264041  0.82937229  0.41275503  1
  C  C91  1  0.79959344  0.97809530  0.41317530  1
  C  C92  1  0.16379201  0.18520195  0.41310296  1
  C  C93  1  0.02097170  0.18620419  0.91247077  1
  C  C94  1  0.16870918  0.98438532  0.91194607  1
  C  C95  1  0.81365604  0.83315130  0.91297720  1
  C  C96  1  0.98049160  0.17657098  0.58784021  1
  C  C97  1  0.18941687  0.02790314  0.58742849  1
  C  C98  1  0.83413488  0.81505057  0.58738807  1
  C  C99  1  0.97976479  0.81419986  0.09115483  1
  C  C100  1  0.83467335  0.02056361  0.09126066  1
  C  C101  1  0.18602629  0.16548976  0.09102473  1
  C  C102  1  0.68404330  0.16675157  0.74742085  1
  C  C103  1  0.46438976  0.31031922  0.74882663  1
  C  C104  1  0.83063699  0.51785228  0.74680130  1
  C  C105  1  0.68353330  0.53179682  0.24950524  1
  C  C106  1  0.84761379  0.31654359  0.24903065  1
  C  C107  1  0.47213984  0.15476115  0.24830078  1
  C  C108  1  0.64575279  0.49863882  0.92160576  1
  C  C109  1  0.85330351  0.35411289  0.92133815  1
  C  C110  1  0.50240283  0.14755596  0.92137575  1
  C  C111  1  0.64095158  0.13559745  0.42115279  1
  C  C112  1  0.50184513  0.35346764  0.42020677  1
  C  C113  1  0.85425559  0.49030543  0.41969132  1
  C  C114  1  0.34761581  0.49730240  0.07875442  1
  C  C115  1  0.15016314  0.65283227  0.07903988  1
  C  C116  1  0.50302523  0.84994240  0.07897917  1
  C  C117  1  0.34491777  0.84874800  0.57811071  1
  C  C118  1  0.50221659  0.65312501  0.57764490  1
  C  C119  1  0.13926768  0.48999752  0.57662074  1
  C  C120  1  0.30979680  0.83646403  0.25438991  1
  C  C121  1  0.53036770  0.69746244  0.25443706  1
  C  C122  1  0.16566519  0.47012186  0.25459811  1
  C  C123  1  0.30423589  0.46825973  0.75324143  1
  C  C124  1  0.16916367  0.68586719  0.75221157  1
  C  C125  1  0.52028514  0.82620501  0.75184450  1
