# generated using pymatgen
data_CuNiC18
_symmetry_space_group_name_H-M   'P 1'
_cell_length_a   9.31142186
_cell_length_b   9.24753241
_cell_length_c   23.00361816
_cell_angle_alpha   90.57231929
_cell_angle_beta   89.72186500
_cell_angle_gamma   119.92322754
_symmetry_Int_Tables_number   1
_chemical_formula_structural   CuNiC18
_chemical_formula_sum   'Cu6 Ni6 C108'
_cell_volume   1716.65265841
_cell_formula_units_Z   6
loop_
 _symmetry_equiv_pos_site_id
 _symmetry_equiv_pos_as_xyz
  1  'x, y, z'
loop_
 _atom_site_type_symbol
 _atom_site_label
 _atom_site_symmetry_multiplicity
 _atom_site_fract_x
 _atom_site_fract_y
 _atom_site_fract_z
 _atom_site_occupancy
  C  C0  1  0.63797765  0.01161509  0.26385778  1
  C  C1  1  0.34593623  0.34810903  0.25722245  1
  C  C2  1  0.65368921  0.65351955  0.73028323  1
  C  C3  1  0.97818969  0.35911380  0.73974179  1
  C  C4  1  0.01630195  0.68187466  0.59552005  1
  C  C5  1  0.68029450  0.97013436  0.58358671  1
  C  C6  1  0.31929939  0.97355420  0.10202647  1
  C  C7  1  0.01631344  0.32027549  0.08366851  1
  C  C8  1  0.97182987  0.64528685  0.89363797  1
  C  C9  1  0.71134877  0.04625300  0.90624329  1
  C  C10  1  0.95323465  0.28958954  0.42265354  1
  C  C11  1  0.34815170  0.03089987  0.41233233  1
  C  C12  1  0.96787145  0.99115573  0.50634441  1
  C  C13  1  0.98402859  0.01795308  0.99924816  1
  C  C14  1  0.66864002  0.32162872  0.81850868  1
  C  C15  1  0.67851880  0.33552447  0.33594625  1
  C  C16  1  0.32400376  0.67534394  0.17712183  1
  C  C17  1  0.33301848  0.66575315  0.66418817  1
  Ni  Ni18  1  0.00158043  0.01129971  0.84332107  1
  Ni  Ni19  1  0.99507729  0.00110083  0.15610556  1
  Ni  Ni20  1  0.67442030  0.32996037  0.98340615  1
  Ni  Ni21  1  0.33736504  0.65945440  0.01914714  1
  Ni  Ni22  1  0.35084439  0.66280334  0.52006043  1
  Ni  Ni23  1  0.32145925  0.66765559  0.80850716  1
  Cu  Cu24  1  0.99238010  0.00549062  0.34743124  1
  Cu  Cu25  1  0.98664899  0.99104557  0.64756368  1
  Cu  Cu26  1  0.67914336  0.34184226  0.68159103  1
  Cu  Cu27  1  0.66971945  0.31613293  0.19163750  1
  Cu  Cu28  1  0.67733714  0.33447344  0.48787846  1
  Cu  Cu29  1  0.33083476  0.68529466  0.31536199  1
  C  C30  1  0.29944309  0.00107494  0.24973030  1
  C  C31  1  0.00784077  0.31083383  0.24982694  1
  C  C32  1  0.99390100  0.69732447  0.74813165  1
  C  C33  1  0.69700564  0.00225282  0.74771122  1
  C  C34  1  0.96566992  0.33135416  0.58287329  1
  C  C35  1  0.67155030  0.62774256  0.58619727  1
  C  C36  1  0.66496182  0.02822076  0.08501117  1
  C  C37  1  0.03280839  0.36174825  0.92024647  1
  C  C38  1  0.63803100  0.97302801  0.41592654  1
  C  C39  1  0.69572580  0.69638977  0.25251139  1
  C  C40  1  0.30218002  0.29338663  0.74613072  1
  C  C41  1  0.37210144  0.04550581  0.58120702  1
  C  C42  1  0.96252645  0.63239800  0.08500959  1
  C  C43  1  0.37063647  0.33213943  0.08766495  1
  C  C44  1  0.63703790  0.66935102  0.91443987  1
  C  C45  1  0.32834384  0.96370385  0.92049784  1
  C  C46  1  0.33299335  0.36307604  0.41088059  1
  C  C47  1  0.03714135  0.66991375  0.41668953  1
  C  C48  1  0.19495861  0.02074113  0.30374551  1
  C  C49  1  0.80146314  0.78058514  0.30351777  1
  C  C50  1  0.97148195  0.17265646  0.30135725  1
  C  C51  1  0.23077137  0.20731974  0.80216513  1
  C  C52  1  0.98799075  0.78204743  0.81103772  1
  C  C53  1  0.80161712  0.03390456  0.80939394  1
  C  C54  1  0.80706372  0.98736551  0.69431589  1
  C  C55  1  0.19319355  0.20376524  0.69733980  1
  C  C56  1  0.00917457  0.81656414  0.69412894  1
  C  C57  1  0.76881429  0.79849371  0.19976359  1
  C  C58  1  0.04029189  0.23785813  0.18875539  1
  C  C59  1  0.20337363  0.97722945  0.18818781  1
  C  C60  1  0.86884871  0.35330242  0.63938883  1
  C  C61  1  0.48019912  0.13571479  0.63066697  1
  C  C62  1  0.65388588  0.52592166  0.64546552  1
  C  C63  1  0.86287726  0.52934926  0.13383971  1
  C  C64  1  0.65251361  0.13825745  0.14025078  1
  C  C65  1  0.46394653  0.34328394  0.14045673  1
  C  C66  1  0.46273843  0.33455393  0.03463777  1
  C  C67  1  0.87798011  0.55877129  0.02867258  1
  C  C68  1  0.68005984  0.13188418  0.02519574  1
  C  C69  1  0.44843131  0.13298741  0.52540735  1
  C  C70  1  0.68101861  0.51977205  0.53045018  1
  C  C71  1  0.85077724  0.30437082  0.52371943  1
  C  C72  1  0.54969629  0.68547438  0.96670474  1
  C  C73  1  0.12163432  0.44729725  0.98300016  1
  C  C74  1  0.31907063  0.87146414  0.97459312  1
  C  C75  1  0.55150095  0.87205864  0.47498564  1
  C  C76  1  0.30525047  0.44506678  0.46254071  1
  C  C77  1  0.13418815  0.69304910  0.47023763  1
  C  C78  1  0.12508363  0.64458128  0.36640663  1
  C  C79  1  0.51609172  0.87305037  0.35977371  1
  C  C80  1  0.34947935  0.45906744  0.35826218  1
  C  C81  1  0.13502213  0.48382520  0.86647613  1
  C  C82  1  0.35445652  0.87970631  0.86995344  1
  C  C83  1  0.54613017  0.65954139  0.86159671  1
  C  C84  1  0.02468920  0.82201101  0.40817560  1
  C  C85  1  0.82752900  0.00042872  0.40888994  1
  C  C86  1  0.17902940  0.19181357  0.40756743  1
  C  C87  1  0.00227553  0.17109757  0.91776156  1
  C  C88  1  0.17214333  0.96688120  0.91605932  1
  C  C89  1  0.80552664  0.82106220  0.91492000  1
  C  C90  1  0.97911319  0.16246796  0.58733377  1
  C  C91  1  0.20495140  0.02352438  0.58606935  1
  C  C92  1  0.84674258  0.81033865  0.58557662  1
  C  C93  1  0.99629184  0.80606307  0.08760514  1
  C  C94  1  0.83597049  0.01880151  0.08713119  1
  C  C95  1  0.20711676  0.17304550  0.08596762  1
  C  C96  1  0.67550165  0.16554415  0.74093475  1
  C  C97  1  0.46898906  0.31615106  0.74149824  1
  C  C98  1  0.81968925  0.51513955  0.74661107  1
  C  C99  1  0.67379955  0.52761025  0.24565958  1
  C  C100  1  0.83660765  0.32244309  0.24670499  1
  C  C101  1  0.48381781  0.17714658  0.24824508  1
  C  C102  1  0.65689969  0.52044990  0.91920326  1
  C  C103  1  0.84566166  0.34763009  0.91639722  1
  C  C104  1  0.47348433  0.13515829  0.92279637  1
  C  C105  1  0.65159211  0.16089110  0.41700222  1
  C  C106  1  0.47714945  0.34001485  0.41778248  1
  C  C107  1  0.87118647  0.51616178  0.41956921  1
  C  C108  1  0.33801989  0.47498473  0.08735140  1
  C  C109  1  0.12661214  0.63697887  0.08612748  1
  C  C110  1  0.48844799  0.84965278  0.08605312  1
  C  C111  1  0.35534441  0.87440567  0.57941297  1
  C  C112  1  0.52027239  0.67101408  0.58420749  1
  C  C113  1  0.14016799  0.50869212  0.57852425  1
  C  C114  1  0.33903011  0.84673257  0.25633426  1
  C  C115  1  0.52821419  0.67874309  0.25931671  1
  C  C116  1  0.17840995  0.48725444  0.26116032  1
  C  C117  1  0.31657675  0.46328854  0.74911882  1
  C  C118  1  0.14639916  0.65486797  0.74587718  1
  C  C119  1  0.52501420  0.82234465  0.74983342  1
