# generated using pymatgen
data_CuNi2C13
_symmetry_space_group_name_H-M   'P 1'
_cell_length_a   5.72064374
_cell_length_b   6.20586279
_cell_length_c   7.88586247
_cell_angle_alpha   103.74383510
_cell_angle_beta   89.99999843
_cell_angle_gamma   117.44561717
_symmetry_Int_Tables_number   1
_chemical_formula_structural   CuNi2C13
_chemical_formula_sum   'Cu1 Ni2 C13'
_cell_volume   239.38155937
_cell_formula_units_Z   1
loop_
 _symmetry_equiv_pos_site_id
 _symmetry_equiv_pos_as_xyz
  1  'x, y, z'
loop_
 _atom_site_type_symbol
 _atom_site_label
 _atom_site_symmetry_multiplicity
 _atom_site_fract_x
 _atom_site_fract_y
 _atom_site_fract_z
 _atom_site_occupancy
  C  C0  1  0.71292559  0.42585018  0.30007633  1
  C  C1  1  0.28707441  0.57414982  0.69992367  1
  C  C2  1  0.00000000  0.00000000  0.00000000  1
  C  C3  1  0.50000000  0.00000000  0.50000000  1
  Ni  Ni4  1  0.36532364  0.73064827  0.15242731  1
  Ni  Ni5  1  0.63467636  0.26935173  0.84757269  1
  Cu  Cu6  1  0.00000000  0.00000000  0.50000000  1
  C  C7  1  0.75463644  0.01292945  0.68860790  1
  C  C8  1  0.71004022  0.42008044  0.64339963  1
  C  C9  1  0.25829301  0.01292945  0.68860790  1
  C  C10  1  0.74170699  0.98707055  0.31139210  1
  C  C11  1  0.28995978  0.57991956  0.35660037  1
  C  C12  1  0.24536356  0.98707055  0.31139210  1
  C  C13  1  0.50000000  0.00000000  0.00000000  1
  C  C14  1  0.00000000  0.50000000  0.00000000  1
  C  C15  1  0.50000000  0.50000000  0.00000000  1
