# generated using pymatgen
data_Cu2(NiC7)5
_symmetry_space_group_name_H-M   'P 1'
_cell_length_a   9.07416619
_cell_length_b   9.06550499
_cell_length_c   22.08065756
_cell_angle_alpha   90.57949697
_cell_angle_beta   88.74970147
_cell_angle_gamma   120.33057351
_symmetry_Int_Tables_number   1
_chemical_formula_structural   Cu2(NiC7)5
_chemical_formula_sum   'Cu6 Ni15 C105'
_cell_volume   1567.40556883
_cell_formula_units_Z   3
loop_
 _symmetry_equiv_pos_site_id
 _symmetry_equiv_pos_as_xyz
  1  'x, y, z'
loop_
 _atom_site_type_symbol
 _atom_site_label
 _atom_site_symmetry_multiplicity
 _atom_site_fract_x
 _atom_site_fract_y
 _atom_site_fract_z
 _atom_site_occupancy
  C  C0  1  0.64538084  0.00514252  0.25156322  1
  C  C1  1  0.35395528  0.36003260  0.24872903  1
  C  C2  1  0.99949613  0.64231388  0.24960456  1
  C  C3  1  0.63557024  0.63498104  0.74709820  1
  C  C4  1  0.99334605  0.36037781  0.74878995  1
  C  C5  1  0.36897566  0.00966505  0.74890932  1
  C  C6  1  0.29605194  0.33733042  0.58727916  1
  C  C7  1  0.04327609  0.70642282  0.58376510  1
  C  C8  1  0.66371684  0.95517282  0.58391515  1
  C  C9  1  0.28478098  0.96316630  0.08075885  1
  C  C10  1  0.67106171  0.69365592  0.08728248  1
  C  C11  1  0.04626186  0.33684143  0.08717139  1
  C  C12  1  0.97359247  0.66839757  0.91620541  1
  C  C13  1  0.70574898  0.04375076  0.90778936  1
  C  C14  1  0.32108201  0.28274701  0.91828555  1
  C  C15  1  0.95953685  0.29482401  0.41285057  1
  C  C16  1  0.32864434  0.02536365  0.41726878  1
  C  C17  1  0.70937508  0.67647535  0.41938207  1
  C  C18  1  0.99078686  0.98951687  0.50181420  1
  C  C19  1  0.02091378  0.00816228  0.99980122  1
  C  C20  1  0.66694636  0.32605988  0.82941953  1
  C  C21  1  0.67082486  0.33213615  0.33368701  1
  C  C22  1  0.32543832  0.65736494  0.16812709  1
  C  C23  1  0.33566235  0.66755904  0.66484226  1
  C  C24  1  0.99588074  0.99643202  0.34483817  1
  C  C25  1  0.00784308  0.00489779  0.84359453  1
  C  C26  1  0.00567261  0.00023893  0.15629797  1
  C  C27  1  0.66703233  0.33099674  0.97942975  1
  C  C28  1  0.31486501  0.65327604  0.01950952  1
  C  C29  1  0.33546667  0.67477928  0.52277497  1
  Ni  Ni30  1  0.30993338  0.00605845  0.24920503  1
  Ni  Ni31  1  0.68852902  0.69656305  0.25177232  1
  Ni  Ni32  1  0.99923226  0.31034560  0.25043374  1
  Ni  Ni33  1  0.30031059  0.30035297  0.74716859  1
  Ni  Ni34  1  0.99261180  0.70362345  0.74652522  1
  Ni  Ni35  1  0.70218674  0.99970119  0.74826767  1
  Ni  Ni36  1  0.95135906  0.32325716  0.58696872  1
  Ni  Ni37  1  0.38212083  0.05847003  0.58613954  1
  Ni  Ni38  1  0.67455184  0.61806925  0.58481484  1
  Ni  Ni39  1  0.95293535  0.62473960  0.08520397  1
  Ni  Ni40  1  0.37754316  0.33378031  0.08501978  1
  Ni  Ni41  1  0.04319563  0.37232382  0.91284917  1
  Ni  Ni42  1  0.33242191  0.95393004  0.91447267  1
  Ni  Ni43  1  0.62525969  0.96366336  0.41752225  1
  Ni  Ni44  1  0.03618542  0.66249612  0.41884949  1
  Cu  Cu45  1  0.99971931  0.00037612  0.64791331  1
  Cu  Cu46  1  0.66731214  0.33542014  0.68493929  1
  Cu  Cu47  1  0.66715987  0.35118040  0.18919354  1
  Cu  Cu48  1  0.68533002  0.32865385  0.48775057  1
  Cu  Cu49  1  0.32751820  0.68390035  0.31245111  1
  Cu  Cu50  1  0.31441389  0.67135794  0.80584925  1
  C  C51  1  0.66812398  0.03956342  0.08482371  1
  C  C52  1  0.62244217  0.66761339  0.91444599  1
  C  C53  1  0.33594789  0.37455398  0.41611055  1
  C  C54  1  0.23991452  0.06008204  0.30902847  1
  C  C55  1  0.81380610  0.76389192  0.30927061  1
  C  C56  1  0.95123602  0.18688071  0.30937632  1
  C  C57  1  0.24242870  0.18796845  0.80900341  1
  C  C58  1  0.94383862  0.76524406  0.80923855  1
  C  C59  1  0.81425275  0.04497536  0.80909254  1
  C  C60  1  0.79575537  0.95597023  0.69067766  1
  C  C61  1  0.16290815  0.20725266  0.69110191  1
  C  C62  1  0.03845124  0.84053797  0.69011761  1
  C  C63  1  0.75909205  0.81971697  0.19225878  1
  C  C64  1  0.04822709  0.23610148  0.19064934  1
  C  C65  1  0.18588832  0.94777438  0.19143554  1
  C  C66  1  0.86040363  0.36296103  0.64381912  1
  C  C67  1  0.50526868  0.14590806  0.64382447  1
  C  C68  1  0.64190047  0.49855236  0.64364497  1
  C  C69  1  0.85446865  0.49373266  0.14346424  1
  C  C70  1  0.64269179  0.12330381  0.13862577  1
  C  C71  1  0.49994534  0.35702228  0.14365414  1
  C  C72  1  0.44739102  0.29195937  0.02226321  1
  C  C73  1  0.84996239  0.54926335  0.02253738  1
  C  C74  1  0.69501569  0.13666275  0.02762107  1
  C  C75  1  0.47136126  0.17923471  0.52401149  1
  C  C76  1  0.70935819  0.52956626  0.52276530  1
  C  C77  1  0.83609414  0.28410818  0.52450735  1
  C  C78  1  0.54919762  0.69124783  0.97258530  1
  C  C79  1  0.15131986  0.43474817  0.97531508  1
  C  C80  1  0.31011099  0.85381296  0.97827249  1
  C  C81  1  0.55557352  0.84302929  0.47702248  1
  C  C82  1  0.30849716  0.44775454  0.47244661  1
  C  C83  1  0.14812112  0.69743800  0.47870711  1
  C  C84  1  0.12874442  0.62766923  0.35794914  1
  C  C85  1  0.49713725  0.87153322  0.35830425  1
  C  C86  1  0.35879360  0.48130975  0.36181793  1
  C  C87  1  0.14339630  0.50337107  0.85408888  1
  C  C88  1  0.36234241  0.85709078  0.85419612  1
  C  C89  1  0.51847741  0.64757384  0.86147751  1
  C  C90  1  0.01790439  0.83202619  0.41229809  1
  C  C91  1  0.81940043  0.99649346  0.41154303  1
  C  C92  1  0.18269121  0.20105987  0.41263382  1
  C  C93  1  0.01112127  0.17794730  0.91026778  1
  C  C94  1  0.15856148  0.96594469  0.91214213  1
  C  C95  1  0.79682163  0.82251249  0.91168089  1
  C  C96  1  0.96446538  0.14753787  0.59197822  1
  C  C97  1  0.19000566  0.04122383  0.59044265  1
  C  C98  1  0.85003434  0.81047780  0.58956529  1
  C  C99  1  0.96733862  0.81189949  0.08908563  1
  C  C100  1  0.82250583  0.02325388  0.08851295  1
  C  C101  1  0.18327829  0.16941976  0.08869130  1
  C  C102  1  0.67864881  0.16795663  0.73980628  1
  C  C103  1  0.49244029  0.32360168  0.73861097  1
  C  C104  1  0.82686881  0.50956024  0.73934241  1
  C  C105  1  0.66867972  0.50559192  0.24415001  1
  C  C106  1  0.82665327  0.32703625  0.24196604  1
  C  C107  1  0.50294087  0.17253280  0.23833408  1
  C  C108  1  0.63793535  0.51178776  0.91599035  1
  C  C109  1  0.85923054  0.36678050  0.91344554  1
  C  C110  1  0.50611957  0.14418440  0.91219778  1
  C  C111  1  0.63178365  0.15274385  0.42427113  1
  C  C112  1  0.49392460  0.36174188  0.41821246  1
  C  C113  1  0.84331760  0.48150805  0.42331680  1
  C  C114  1  0.37572854  0.51511297  0.08562929  1
  C  C115  1  0.14253366  0.64346437  0.08925530  1
  C  C116  1  0.51299951  0.86656968  0.08199673  1
  C  C117  1  0.35931388  0.86769634  0.58563501  1
  C  C118  1  0.50373786  0.63553793  0.58238391  1
  C  C119  1  0.14194874  0.49143815  0.58319776  1
  C  C120  1  0.32742162  0.83431678  0.25751600  1
  C  C121  1  0.49742575  0.67363078  0.26376470  1
  C  C122  1  0.17448605  0.50007552  0.25937336  1
  C  C123  1  0.31670353  0.49246764  0.75457972  1
  C  C124  1  0.17019210  0.69031850  0.75038943  1
  C  C125  1  0.50993485  0.82122412  0.75414634  1
