# generated using pymatgen
data_Cu2NiC10
_symmetry_space_group_name_H-M   'P 1'
_cell_length_a   5.11602362
_cell_length_b   5.17640379
_cell_length_c   5.92581500
_cell_angle_alpha   90.00000000
_cell_angle_beta   90.00000000
_cell_angle_gamma   92.45337236
_symmetry_Int_Tables_number   1
_chemical_formula_structural   Cu2NiC10
_chemical_formula_sum   'Cu2 Ni1 C10'
_cell_volume   156.78716767
_cell_formula_units_Z   1
loop_
 _symmetry_equiv_pos_site_id
 _symmetry_equiv_pos_as_xyz
  1  'x, y, z'
loop_
 _atom_site_type_symbol
 _atom_site_label
 _atom_site_symmetry_multiplicity
 _atom_site_fract_x
 _atom_site_fract_y
 _atom_site_fract_z
 _atom_site_occupancy
  Ni  Ni0  1  0.50000000  0.75000000  0.10499400  1
  C  C1  1  0.50000000  0.75000000  0.63421000  1
  C  C2  1  0.50000000  0.25000000  0.36309500  1
  Cu  Cu3  1  0.00000000  0.25000000  0.85003300  1
  Cu  Cu4  1  0.00000000  0.75000000  0.13966200  1
  C  C5  1  0.75601400  0.59286200  0.88427800  1
  C  C6  1  0.24398600  0.90713800  0.88427800  1
  C  C7  1  0.76175200  0.07425700  0.12733600  1
  C  C8  1  0.28309300  0.90138300  0.35855800  1
  C  C9  1  0.73666200  0.09614100  0.63591500  1
  C  C10  1  0.23824800  0.42574300  0.12733600  1
  C  C11  1  0.26333800  0.40385900  0.63591500  1
  C  C12  1  0.71690700  0.59861700  0.35855800  1
