# generated using pymatgen
data_Cu6NiC12
_symmetry_space_group_name_H-M   'P 1'
_cell_length_a   5.15803731
_cell_length_b   5.06483628
_cell_length_c   8.97168963
_cell_angle_alpha   90.33489095
_cell_angle_beta   87.58889731
_cell_angle_gamma   99.75099181
_symmetry_Int_Tables_number   1
_chemical_formula_structural   Cu6NiC12
_chemical_formula_sum   'Cu6 Ni1 C12'
_cell_volume   230.79115072
_cell_formula_units_Z   1
loop_
 _symmetry_equiv_pos_site_id
 _symmetry_equiv_pos_as_xyz
  1  'x, y, z'
loop_
 _atom_site_type_symbol
 _atom_site_label
 _atom_site_symmetry_multiplicity
 _atom_site_fract_x
 _atom_site_fract_y
 _atom_site_fract_z
 _atom_site_occupancy
  Ni  Ni0  1  0.00625790  0.50995284  0.32716474  1
  Cu  Cu1  1  0.96738096  0.00401547  0.00861070  1
  Cu  Cu2  1  0.05291063  0.02744837  0.33294343  1
  Cu  Cu3  1  0.01133630  0.98304081  0.65567810  1
  Cu  Cu4  1  0.54406505  0.40091544  0.13668255  1
  Cu  Cu5  1  0.45098468  0.53515528  0.83272577  1
  Cu  Cu6  1  0.44338550  0.55925740  0.51536727  1
  C  C7  1  0.17054277  0.78329003  0.49172537  1
  C  C8  1  0.30840028  0.25998131  0.98792672  1
  C  C9  1  0.33639572  0.35222189  0.32572716  1
  C  C10  1  0.29753397  0.30128263  0.66662354  1
  C  C11  1  0.67371315  0.69363098  0.00037124  1
  C  C12  1  0.67408504  0.72383881  0.66605222  1
  C  C13  1  0.83938709  0.22023799  0.17458427  1
  C  C14  1  0.14161657  0.78069734  0.15822850  1
  C  C15  1  0.16595256  0.78639969  0.82883029  1
  C  C16  1  0.71796421  0.71615213  0.34029137  1
  C  C17  1  0.84203255  0.16272303  0.83306010  1
  C  C18  1  0.85605106  0.22753356  0.49597966  1
