# generated using pymatgen
data_CuNi5C51
_symmetry_space_group_name_H-M   'P 1'
_cell_length_a   8.81039387
_cell_length_b   8.82078702
_cell_length_c   22.44673673
_cell_angle_alpha   89.94885819
_cell_angle_beta   90.00000000
_cell_angle_gamma   119.96103121
_symmetry_Int_Tables_number   1
_chemical_formula_structural   CuNi5C51
_chemical_formula_sum   'Cu2 Ni10 C102'
_cell_volume   1511.32086047
_cell_formula_units_Z   2
loop_
 _symmetry_equiv_pos_site_id
 _symmetry_equiv_pos_as_xyz
  1  'x, y, z'
loop_
 _atom_site_type_symbol
 _atom_site_label
 _atom_site_symmetry_multiplicity
 _atom_site_fract_x
 _atom_site_fract_y
 _atom_site_fract_z
 _atom_site_occupancy
  C  C0  1  0.30314922  0.33469357  0.58132248  1
  C  C1  1  0.66979485  0.97164282  0.58895291  1
  C  C2  1  0.30184897  0.97164282  0.08895291  1
  C  C3  1  0.03154534  0.33469357  0.08132248  1
  C  C4  1  0.96496960  0.66378218  0.91177079  1
  C  C5  1  0.69881158  0.66378218  0.41177079  1
  C  C6  1  0.01770178  0.00831341  0.49607441  1
  C  C7  1  0.99061163  0.00831341  0.99607441  1
  C  C8  1  0.67296973  0.32416888  0.82816217  1
  C  C9  1  0.65120015  0.32416888  0.32816217  1
  C  C10  1  0.35076613  0.67443669  0.16621328  1
  C  C11  1  0.32366956  0.67443669  0.66621328  1
  Ni  Ni12  1  0.01285343  0.00644100  0.34855880  1
  Ni  Ni13  1  0.99358757  0.00644100  0.84855880  1
  Ni  Ni14  1  0.99292729  0.98679079  0.65547309  1
  Ni  Ni15  1  0.99386350  0.98679079  0.15547309  1
  Ni  Ni16  1  0.67623668  0.33595364  0.68879221  1
  Ni  Ni17  1  0.65971796  0.33595364  0.18879221  1
  Ni  Ni18  1  0.66771758  0.32962389  0.97979632  1
  Ni  Ni19  1  0.66190731  0.32962389  0.47979632  1
  Ni  Ni20  1  0.33737335  0.66124116  0.01560605  1
  Ni  Ni21  1  0.32386681  0.66124116  0.51560605  1
  Cu  Cu22  1  0.33623870  0.66467655  0.31099993  1
  Cu  Cu23  1  0.32843685  0.66467655  0.81099993  1
  C  C24  1  0.29589090  0.00509202  0.24921053  1
  C  C25  1  0.71635301  0.70734096  0.25255661  1
  C  C26  1  0.99098795  0.70734096  0.75255661  1
  C  C27  1  0.70920113  0.00509202  0.74921053  1
  C  C28  1  0.03990706  0.36787359  0.91962956  1
  C  C29  1  0.32796553  0.36787359  0.41962956  1
  C  C30  1  0.99584772  0.28984916  0.24952814  1
  C  C31  1  0.29400144  0.28984916  0.74952814  1
  C  C32  1  0.95929990  0.33494970  0.58291677  1
  C  C33  1  0.37334212  0.04095744  0.58321419  1
  C  C34  1  0.66991115  0.62754476  0.58228069  1
  C  C35  1  0.95763460  0.62754476  0.08228069  1
  C  C36  1  0.66761633  0.04095744  0.08321419  1
  C  C37  1  0.37565080  0.33494970  0.08291677  1
  C  C38  1  0.62548319  0.66703262  0.91768850  1
  C  C39  1  0.33449177  0.96021068  0.91800726  1
  C  C40  1  0.62571791  0.96021068  0.41800726  1
  C  C41  1  0.04154843  0.66703262  0.41768850  1
  C  C42  1  0.20719351  0.02654193  0.30327446  1
  C  C43  1  0.81126920  0.78947027  0.31076611  1
  C  C44  1  0.97454449  0.18560713  0.30250102  1
  C  C45  1  0.21106265  0.18560713  0.80250102  1
  C  C46  1  0.97820107  0.78947027  0.81076611  1
  C  C47  1  0.81934843  0.02654193  0.80327446  1
  C  C48  1  0.77178555  0.96353967  0.69063097  1
  C  C49  1  0.18950205  0.22416230  0.69453413  1
  C  C50  1  0.03842072  0.82135987  0.69739129  1
  C  C51  1  0.78293915  0.82135987  0.19739129  1
  C  C52  1  0.03466025  0.22416230  0.19453413  1
  C  C53  1  0.19175413  0.96353967  0.19063097  1
  C  C54  1  0.87705989  0.35678020  0.63652998  1
  C  C55  1  0.48420581  0.12210656  0.63609298  1
  C  C56  1  0.63915247  0.51359471  0.63427472  1
  C  C57  1  0.87444323  0.51359471  0.13427472  1
  C  C58  1  0.63790175  0.12210656  0.13609298  1
  C  C59  1  0.47972131  0.35678020  0.13652998  1
  C  C60  1  0.45552135  0.30566434  0.02948239  1
  C  C61  1  0.85764411  0.54861562  0.02693122  1
  C  C62  1  0.69565681  0.15009977  0.02939503  1
  C  C63  1  0.45444396  0.15009977  0.52939503  1
  C  C64  1  0.69097251  0.54861562  0.52693122  1
  C  C65  1  0.85014399  0.30566434  0.52948239  1
  C  C66  1  0.54486686  0.69360063  0.97038462  1
  C  C67  1  0.14481324  0.45447247  0.97620765  1
  C  C68  1  0.30741526  0.85216425  0.97170998  1
  C  C69  1  0.54474799  0.85216425  0.47170998  1
  C  C70  1  0.30965823  0.45447247  0.47620765  1
  C  C71  1  0.14873277  0.69360063  0.47038462  1
  C  C72  1  0.13134523  0.64648119  0.36344808  1
  C  C73  1  0.50976023  0.86785324  0.36439867  1
  C  C74  1  0.35218694  0.49818100  0.36499017  1
  C  C75  1  0.14599307  0.49818100  0.86499017  1
  C  C76  1  0.35809201  0.86785324  0.86439867  1
  C  C77  1  0.51513496  0.64648119  0.86344808  1
  C  C78  1  0.01651342  0.81996605  0.41120266  1
  C  C79  1  0.79669161  0.97050682  0.41005517  1
  C  C80  1  0.16620500  0.19025595  0.41049640  1
  C  C81  1  0.02405095  0.19025595  0.91049640  1
  C  C82  1  0.17381521  0.97050682  0.91005517  1
  C  C83  1  0.80345263  0.81996605  0.91120266  1
  C  C84  1  0.98142975  0.17600289  0.58807565  1
  C  C85  1  0.19783070  0.02601303  0.58927570  1
  C  C86  1  0.82434367  0.80649164  0.58776618  1
  C  C87  1  0.98214797  0.80649164  0.08776618  1
  C  C88  1  0.82818233  0.02601303  0.08927570  1
  C  C89  1  0.19457315  0.17600289  0.08807565  1
  C  C90  1  0.67094091  0.15475036  0.74373247  1
  C  C91  1  0.47144015  0.31977793  0.74291419  1
  C  C92  1  0.83761716  0.52233781  0.74577814  1
  C  C93  1  0.68472166  0.52233781  0.24577814  1
  C  C94  1  0.84833877  0.31977793  0.24291419  1
  C  C95  1  0.48381045  0.15475036  0.24373247  1
  C  C96  1  0.63967505  0.50660333  0.92093553  1
  C  C97  1  0.86341718  0.36690476  0.91949534  1
  C  C98  1  0.49201129  0.13299968  0.92104952  1
  C  C99  1  0.64098939  0.13299968  0.42104952  1
  C  C100  1  0.50348858  0.36690476  0.41949534  1
  C  C101  1  0.86692928  0.50660333  0.42093553  1
  C  C102  1  0.35140408  0.49081051  0.07781492  1
  C  C103  1  0.13938344  0.64847734  0.07798174  1
  C  C104  1  0.50681380  0.86458132  0.07639100  1
  C  C105  1  0.35776652  0.86458132  0.57639100  1
  C  C106  1  0.50909291  0.64847734  0.57798174  1
  C  C107  1  0.13940543  0.49081051  0.57781492  1
  C  C108  1  0.31100138  0.82961005  0.26124517  1
  C  C109  1  0.51941654  0.68529555  0.26124529  1
  C  C110  1  0.16157152  0.47373728  0.25817976  1
  C  C111  1  0.31216476  0.47373728  0.75817976  1
  C  C112  1  0.16587801  0.68529555  0.76124529  1
  C  C113  1  0.51860767  0.82961005  0.76124517  1
