# generated using pymatgen
data_Cu9(NiC7)2
_symmetry_space_group_name_H-M   'P 1'
_cell_length_a   9.80683700
_cell_length_b   9.93411200
_cell_length_c   12.37384032
_cell_angle_alpha   52.14482408
_cell_angle_beta   90.00000000
_cell_angle_gamma   90.00000000
_symmetry_Int_Tables_number   1
_chemical_formula_structural   Cu9(NiC7)2
_chemical_formula_sum   'Cu36 Ni8 C56'
_cell_volume   951.80960565
_cell_formula_units_Z   4
loop_
 _symmetry_equiv_pos_site_id
 _symmetry_equiv_pos_as_xyz
  1  'x, y, z'
loop_
 _atom_site_type_symbol
 _atom_site_label
 _atom_site_symmetry_multiplicity
 _atom_site_fract_x
 _atom_site_fract_y
 _atom_site_fract_z
 _atom_site_occupancy
  C  C0  1  0.26495000  0.79205700  0.81051500  1
  C  C1  1  0.76495000  0.20794300  0.68948500  1
  C  C2  1  0.73505000  0.20794300  0.18948500  1
  C  C3  1  0.23505000  0.79205700  0.31051500  1
  C  C4  1  0.04329600  0.48617800  0.12918300  1
  C  C5  1  0.54329600  0.51382200  0.37081700  1
  C  C6  1  0.95670400  0.51382200  0.87081700  1
  C  C7  1  0.45670400  0.48617800  0.62918300  1
  Ni  Ni8  1  0.31936000  0.66491900  0.12765700  1
  Ni  Ni9  1  0.81936000  0.33508100  0.37234300  1
  Ni  Ni10  1  0.68064000  0.33508100  0.87234300  1
  Ni  Ni11  1  0.18064000  0.66491900  0.62765700  1
  Ni  Ni12  1  0.95844800  0.84791100  0.85419000  1
  Ni  Ni13  1  0.45844800  0.15208900  0.64581000  1
  Ni  Ni14  1  0.04155200  0.15208900  0.14581000  1
  Ni  Ni15  1  0.54155200  0.84791100  0.35419000  1
  Cu  Cu16  1  0.35201300  0.17102800  0.10183900  1
  Cu  Cu17  1  0.85201300  0.82897200  0.39816100  1
  Cu  Cu18  1  0.64798700  0.82897200  0.89816100  1
  Cu  Cu19  1  0.14798700  0.17102800  0.60183900  1
  Cu  Cu20  1  0.41529800  0.31791400  0.95802800  1
  Cu  Cu21  1  0.91529800  0.68208600  0.54197200  1
  Cu  Cu22  1  0.58470200  0.68208600  0.04197200  1
  Cu  Cu23  1  0.08470200  0.31791400  0.45802800  1
  Cu  Cu24  1  0.22308400  0.17037700  0.33092500  1
  Cu  Cu25  1  0.72308400  0.82962300  0.16907500  1
  Cu  Cu26  1  0.77691600  0.82962300  0.66907500  1
  Cu  Cu27  1  0.27691600  0.17037700  0.83092500  1
  Cu  Cu28  1  0.26885500  0.99980300  0.49357800  1
  Cu  Cu29  1  0.76885500  0.00019700  0.00642200  1
  Cu  Cu30  1  0.73114500  0.00019700  0.50642200  1
  Cu  Cu31  1  0.23114500  0.99980300  0.99357800  1
  Cu  Cu32  1  0.47253500  0.58521600  0.81326700  1
  Cu  Cu33  1  0.97253500  0.41478400  0.68673300  1
  Cu  Cu34  1  0.52746500  0.41478400  0.18673300  1
  Cu  Cu35  1  0.02746500  0.58521600  0.31326700  1
  Cu  Cu36  1  0.47894100  0.33143400  0.11326500  1
  Cu  Cu37  1  0.97894100  0.66856600  0.38673500  1
  Cu  Cu38  1  0.52105900  0.66856600  0.88673500  1
  Cu  Cu39  1  0.02105900  0.33143400  0.61326500  1
  Cu  Cu40  1  0.36012100  0.18323700  0.41146700  1
  Cu  Cu41  1  0.86012100  0.81676300  0.08853300  1
  Cu  Cu42  1  0.63987900  0.81676300  0.58853300  1
  Cu  Cu43  1  0.13987900  0.18323700  0.91146700  1
  Cu  Cu44  1  0.36341900  0.05982300  0.35792600  1
  Cu  Cu45  1  0.86341900  0.94017700  0.14207400  1
  Cu  Cu46  1  0.63658100  0.94017700  0.64207400  1
  Cu  Cu47  1  0.13658100  0.05982300  0.85792600  1
  Cu  Cu48  1  0.29570600  0.46563900  0.47195400  1
  Cu  Cu49  1  0.79570600  0.53436100  0.02804600  1
  Cu  Cu50  1  0.70429400  0.53436100  0.52804600  1
  Cu  Cu51  1  0.20429400  0.46563900  0.97195400  1
  C  C52  1  0.30429200  0.10548000  0.39853500  1
  C  C53  1  0.80429200  0.89452000  0.10146500  1
  C  C54  1  0.69570800  0.89452000  0.60146500  1
  C  C55  1  0.19570800  0.10548000  0.89853500  1
  C  C56  1  0.36172600  0.29562200  0.03511800  1
  C  C57  1  0.86172600  0.70437800  0.46488200  1
  C  C58  1  0.63827400  0.70437800  0.96488200  1
  C  C59  1  0.13827400  0.29562200  0.53511800  1
  C  C60  1  0.47344500  0.27546600  0.48626100  1
  C  C61  1  0.97344500  0.72453400  0.01373900  1
  C  C62  1  0.52655500  0.72453400  0.51373900  1
  C  C63  1  0.02655500  0.27546600  0.98626100  1
  C  C64  1  0.44771600  0.66683400  0.83070400  1
  C  C65  1  0.94771600  0.33316600  0.66929600  1
  C  C66  1  0.55228400  0.33316600  0.16929600  1
  C  C67  1  0.05228400  0.66683400  0.33070400  1
  C  C68  1  0.28586000  0.51883300  0.69239100  1
  C  C69  1  0.78586000  0.48116700  0.80760900  1
  C  C70  1  0.71414000  0.48116700  0.30760900  1
  C  C71  1  0.21414000  0.51883300  0.19239100  1
  C  C72  1  0.33163800  0.76485300  0.97220500  1
  C  C73  1  0.83163800  0.23514700  0.52779500  1
  C  C74  1  0.66836200  0.23514700  0.02779500  1
  C  C75  1  0.16836200  0.76485300  0.47220500  1
  C  C76  1  0.40046600  0.92977900  0.28890400  1
  C  C77  1  0.90046600  0.07022100  0.21109600  1
  C  C78  1  0.59953400  0.07022100  0.71109600  1
  C  C79  1  0.09953400  0.92977900  0.78890400  1
  C  C80  1  0.28170100  0.79420000  0.15377100  1
  C  C81  1  0.78170100  0.20580000  0.34622900  1
  C  C82  1  0.71829900  0.20580000  0.84622900  1
  C  C83  1  0.21829900  0.79420000  0.65377100  1
  C  C84  1  0.35867400  0.56142300  0.43961800  1
  C  C85  1  0.85867400  0.43857700  0.06038200  1
  C  C86  1  0.64132600  0.43857700  0.56038200  1
  C  C87  1  0.14132600  0.56142300  0.93961800  1
  C  C88  1  0.46200700  0.58284700  0.19338600  1
  C  C89  1  0.96200700  0.41715300  0.30661400  1
  C  C90  1  0.53799300  0.41715300  0.80661400  1
  C  C91  1  0.03799300  0.58284700  0.69338600  1
  C  C92  1  0.35574500  0.01510700  0.68017200  1
  C  C93  1  0.85574500  0.98489300  0.81982800  1
  C  C94  1  0.64425500  0.98489300  0.31982800  1
  C  C95  1  0.14425500  0.01510700  0.18017200  1
  C  C96  1  0.40648700  0.25090000  0.69842800  1
  C  C97  1  0.90648700  0.74910000  0.80157200  1
  C  C98  1  0.59351300  0.74910000  0.30157200  1
  C  C99  1  0.09351300  0.25090000  0.19842800  1
