# generated using pymatgen
data_CuNiC8
_symmetry_space_group_name_H-M   'P 1'
_cell_length_a   5.88549810
_cell_length_b   6.01862177
_cell_length_c   7.49579993
_cell_angle_alpha   87.85498870
_cell_angle_beta   128.67811323
_cell_angle_gamma   129.34849651
_symmetry_Int_Tables_number   1
_chemical_formula_structural   CuNiC8
_chemical_formula_sum   'Cu1 Ni1 C8'
_cell_volume   128.90844669
_cell_formula_units_Z   1
loop_
 _symmetry_equiv_pos_site_id
 _symmetry_equiv_pos_as_xyz
  1  'x, y, z'
loop_
 _atom_site_type_symbol
 _atom_site_label
 _atom_site_symmetry_multiplicity
 _atom_site_fract_x
 _atom_site_fract_y
 _atom_site_fract_z
 _atom_site_occupancy
  C  C0  1  0.06734600  0.55601400  0.24364600  1
  C  C1  1  0.92175300  0.40151200  0.75222400  1
  Ni  Ni2  1  0.99432800  0.97977800  0.49823900  1
  Cu  Cu3  1  0.99470300  0.97954300  0.99841400  1
  C  C4  1  0.23718900  0.02203600  0.35209200  1
  C  C5  1  0.75167500  0.93916500  0.64433700  1
  C  C6  1  0.25406000  0.44221400  0.14196800  1
  C  C7  1  0.43754300  0.74702500  0.83709100  1
  C  C8  1  0.55496600  0.21631200  0.16190200  1
  C  C9  1  0.73612700  0.51889200  0.85376000  1
