# generated using pymatgen
data_CuNi3C37
_symmetry_space_group_name_H-M   'P 1'
_cell_length_a   9.24428271
_cell_length_b   9.23769290
_cell_length_c   22.78382584
_cell_angle_alpha   90.01991238
_cell_angle_beta   89.95215059
_cell_angle_gamma   120.01966512
_symmetry_Int_Tables_number   1
_chemical_formula_structural   CuNi3C37
_chemical_formula_sum   'Cu3 Ni9 C111'
_cell_volume   1684.64259155
_cell_formula_units_Z   3
loop_
 _symmetry_equiv_pos_site_id
 _symmetry_equiv_pos_as_xyz
  1  'x, y, z'
loop_
 _atom_site_type_symbol
 _atom_site_label
 _atom_site_symmetry_multiplicity
 _atom_site_fract_x
 _atom_site_fract_y
 _atom_site_fract_z
 _atom_site_occupancy
  C  C0  1  0.37206636  0.36545943  0.24838816  1
  C  C1  1  0.64125033  0.63617147  0.74998138  1
  C  C2  1  0.99459628  0.36042351  0.74968978  1
  C  C3  1  0.36433147  0.00440012  0.74957193  1
  C  C4  1  0.29932164  0.33330856  0.58224655  1
  C  C5  1  0.03380848  0.70032115  0.58198943  1
  C  C6  1  0.66651694  0.96600267  0.58199023  1
  C  C7  1  0.30984614  0.97160877  0.08353549  1
  C  C8  1  0.66196964  0.69243145  0.08361642  1
  C  C9  1  0.02937257  0.33799265  0.08267540  1
  C  C10  1  0.96043855  0.66635273  0.91852498  1
  C  C11  1  0.70723241  0.03641679  0.91890089  1
  C  C12  1  0.96510703  0.29496888  0.41385807  1
  C  C13  1  0.33058960  0.03699262  0.41421792  1
  C  C14  1  0.70449489  0.66820690  0.41352785  1
  C  C15  1  0.00033918  0.00030205  0.49853984  1
  C  C16  1  0.01350416  0.01296811  0.99770236  1
  C  C17  1  0.65604103  0.33252922  0.83647136  1
  C  C18  1  0.67813628  0.33313587  0.32773457  1
  C  C19  1  0.33264819  0.67697626  0.16798041  1
  C  C20  1  0.33322626  0.66681456  0.66410772  1
  Ni  Ni21  1  0.99799515  0.99851773  0.35013664  1
  Ni  Ni22  1  0.00576957  0.00532119  0.85356985  1
  Ni  Ni23  1  0.00031210  0.00040026  0.64865616  1
  Ni  Ni24  1  0.66711406  0.33359139  0.68515693  1
  Ni  Ni25  1  0.67220532  0.33294032  0.18780532  1
  Ni  Ni26  1  0.66053794  0.33283925  0.98029189  1
  Ni  Ni27  1  0.66649520  0.33334972  0.47887421  1
  Ni  Ni28  1  0.33316029  0.66441962  0.01917163  1
  Ni  Ni29  1  0.33329964  0.66674252  0.51789510  1
  Cu  Cu30  1  0.99810042  0.99813433  0.15002459  1
  Cu  Cu31  1  0.33354909  0.67026507  0.31001163  1
  Cu  Cu32  1  0.33332853  0.66503199  0.81549498  1
  C  C33  1  0.29132139  0.99483942  0.25045378  1
  C  C34  1  0.70282085  0.70702838  0.25098576  1
  C  C35  1  0.00265156  0.29670312  0.25125379  1
  C  C36  1  0.29551419  0.29988115  0.74941944  1
  C  C37  1  0.00422867  0.70508333  0.75159354  1
  C  C38  1  0.70024239  0.99526133  0.75132188  1
  C  C39  1  0.96102947  0.33214266  0.58285784  1
  C  C40  1  0.37129961  0.03885288  0.58301901  1
  C  C41  1  0.66767256  0.62883661  0.58292809  1
  C  C42  1  0.95926664  0.63165382  0.08268518  1
  C  C43  1  0.67176601  0.04155221  0.08276633  1
  C  C44  1  0.36883949  0.32774074  0.08650440  1
  C  C45  1  0.62445474  0.66379472  0.91631624  1
  C  C46  1  0.04022982  0.37353035  0.91724982  1
  C  C47  1  0.33437909  0.95908166  0.91682901  1
  C  C48  1  0.62306968  0.95616914  0.41548338  1
  C  C49  1  0.33326672  0.37670136  0.41440720  1
  C  C50  1  0.04379450  0.66606850  0.41523490  1
  C  C51  1  0.20563516  0.02313193  0.30905358  1
  C  C52  1  0.81125202  0.79232805  0.31031496  1
  C  C53  1  0.98303526  0.18912779  0.31064060  1
  C  C54  1  0.20139782  0.17046302  0.80320172  1
  C  C55  1  0.96915685  0.79204728  0.80792760  1
  C  C56  1  0.82193341  0.02821061  0.80752504  1
  C  C57  1  0.78626978  0.96291438  0.69310539  1
  C  C58  1  0.17995102  0.21903296  0.69039881  1
  C  C59  1  0.03818162  0.82424497  0.69346204  1
  C  C60  1  0.80602431  0.82872666  0.19368876  1
  C  C61  1  0.02650763  0.19288920  0.19488905  1
  C  C62  1  0.16832947  0.97459903  0.19329791  1
  C  C63  1  0.87251456  0.35825565  0.64143044  1
  C  C64  1  0.48594617  0.12786727  0.64150201  1
  C  C65  1  0.64205502  0.51406551  0.64139500  1
  C  C66  1  0.86537362  0.50320268  0.13640157  1
  C  C67  1  0.63303897  0.13293161  0.13638830  1
  C  C68  1  0.48641099  0.36460956  0.14372603  1
  C  C69  1  0.45959589  0.29282454  0.03015856  1
  C  C70  1  0.84446862  0.55093209  0.02318948  1
  C  C71  1  0.70868862  0.15694182  0.02315562  1
  C  C72  1  0.46109480  0.15549668  0.52509099  1
  C  C73  1  0.69455510  0.53903079  0.52500083  1
  C  C74  1  0.84429474  0.30561101  0.52504167  1
  C  C75  1  0.53842233  0.69050457  0.97481160  1
  C  C76  1  0.14618555  0.46166364  0.97658939  1
  C  C77  1  0.31078531  0.84756727  0.97546212  1
  C  C78  1  0.54183560  0.84821032  0.47607382  1
  C  C79  1  0.30649971  0.46082758  0.47430992  1
  C  C80  1  0.15253769  0.69436209  0.47575244  1
  C  C81  1  0.14788898  0.64362063  0.36007781  1
  C  C82  1  0.49740786  0.85040700  0.36035518  1
  C  C83  1  0.35544559  0.49771745  0.35747813  1
  C  C84  1  0.14469449  0.49418166  0.85959944  1
  C  C85  1  0.35144125  0.85478839  0.85918917  1
  C  C86  1  0.50732277  0.64997750  0.85819688  1
  C  C87  1  0.02203624  0.83141129  0.41195766  1
  C  C88  1  0.81032129  0.97846469  0.41259622  1
  C  C89  1  0.16844221  0.18856872  0.41269428  1
  C  C90  1  0.01017332  0.18424144  0.91262177  1
  C  C91  1  0.16339529  0.96841126  0.91173358  1
  C  C92  1  0.80869495  0.83300618  0.91171052  1
  C  C93  1  0.97648768  0.16290347  0.58719897  1
  C  C94  1  0.18610950  0.02196944  0.58748754  1
  C  C95  1  0.83640923  0.81373101  0.58763528  1
  C  C96  1  0.97541766  0.81841345  0.09188384  1
  C  C97  1  0.84180923  0.02512839  0.09288670  1
  C  C98  1  0.18031804  0.15779564  0.09214679  1
  C  C99  1  0.67795442  0.16013230  0.74609582  1
  C  C100  1  0.48271556  0.32279205  0.74586947  1
  C  C101  1  0.83981460  0.51794145  0.74591299  1
  C  C102  1  0.67318511  0.51866607  0.24582244  1
  C  C103  1  0.84127001  0.31897807  0.24518630  1
  C  C104  1  0.47112942  0.16455031  0.24448970  1
  C  C105  1  0.64651222  0.49938845  0.91810682  1
  C  C106  1  0.85957460  0.36675999  0.91760211  1
  C  C107  1  0.50936867  0.13708144  0.91850107  1
  C  C108  1  0.63531170  0.13955299  0.41772625  1
  C  C109  1  0.50403720  0.36372765  0.41804338  1
  C  C110  1  0.86023926  0.49523032  0.41791982  1
  C  C111  1  0.34500471  0.49159223  0.07905311  1
  C  C112  1  0.14838706  0.65723344  0.07933552  1
  C  C113  1  0.50862867  0.85222649  0.07866634  1
  C  C114  1  0.35281335  0.85297739  0.58025507  1
  C  C115  1  0.50005780  0.64674706  0.58007409  1
  C  C116  1  0.14689585  0.49935555  0.57990581  1
  C  C117  1  0.30564420  0.82483804  0.25636597  1
  C  C118  1  0.51620763  0.69138454  0.25555773  1
  C  C119  1  0.18079592  0.47724118  0.25528942  1
  C  C120  1  0.31225418  0.48572622  0.75781802  1
  C  C121  1  0.17309145  0.68622215  0.75811198  1
  C  C122  1  0.51272811  0.82597089  0.75753947  1
