# generated using pymatgen
data_Cu2NiC10
_symmetry_space_group_name_H-M   'P 1'
_cell_length_a   6.56075000
_cell_length_b   6.26700860
_cell_length_c   6.26701640
_cell_angle_alpha   58.07094079
_cell_angle_beta   58.43704923
_cell_angle_gamma   58.43700541
_symmetry_Int_Tables_number   1
_chemical_formula_structural   Cu2NiC10
_chemical_formula_sum   'Cu2 Ni1 C10'
_cell_volume   175.16922842
_cell_formula_units_Z   1
loop_
 _symmetry_equiv_pos_site_id
 _symmetry_equiv_pos_as_xyz
  1  'x, y, z'
loop_
 _atom_site_type_symbol
 _atom_site_label
 _atom_site_symmetry_multiplicity
 _atom_site_fract_x
 _atom_site_fract_y
 _atom_site_fract_z
 _atom_site_occupancy
  Ni  Ni0  1  0.11845000  0.13154800  0.13155300  1
  Cu  Cu1  1  0.50197700  0.99405400  0.50199300  1
  Cu  Cu2  1  0.50196600  0.50201400  0.99405400  1
  C  C3  1  0.99024200  0.50342800  0.50344600  1
  C  C4  1  0.50288300  0.50342800  0.50344600  1
  C  C5  1  0.27368200  0.25501700  0.25500200  1
  C  C6  1  0.26341300  0.24770600  0.72546700  1
  C  C7  1  0.26340200  0.72546500  0.24773000  1
  C  C8  1  0.71629900  0.25501700  0.25500200  1
  C  C9  1  0.30743900  0.74098600  0.74096400  1
  C  C10  1  0.73211800  0.74516300  0.29060200  1
  C  C11  1  0.73210200  0.29060400  0.74519300  1
  C  C12  1  0.71061100  0.74098600  0.74096400  1
