# generated using pymatgen
data_Cu7(NiC14)5
_symmetry_space_group_name_H-M   'P 1'
_cell_length_a   18.15707587
_cell_length_b   9.08989071
_cell_length_c   22.16885042
_cell_angle_alpha   89.96794564
_cell_angle_beta   89.94536322
_cell_angle_gamma   120.14728922
_symmetry_Int_Tables_number   1
_chemical_formula_structural   Cu7(NiC14)5
_chemical_formula_sum   'Cu21 Ni15 C210'
_cell_volume   3163.96285525
_cell_formula_units_Z   3
loop_
 _symmetry_equiv_pos_site_id
 _symmetry_equiv_pos_as_xyz
  1  'x, y, z'
loop_
 _atom_site_type_symbol
 _atom_site_label
 _atom_site_symmetry_multiplicity
 _atom_site_fract_x
 _atom_site_fract_y
 _atom_site_fract_z
 _atom_site_occupancy
  C  C0  1  0.81335246  0.00635973  0.24908691  1
  C  C1  1  0.68932533  0.36153404  0.24570365  1
  C  C2  1  0.49975564  0.63686709  0.24586956  1
  C  C3  1  0.31074839  0.61764525  0.74946512  1
  C  C4  1  -0.00000355  0.36453343  0.74328010  1
  C  C5  1  0.18241661  0.00237037  0.74350764  1
  C  C6  1  0.15282499  0.33023748  0.57585567  1
  C  C7  1  0.66950108  0.36531966  0.58427917  1
  C  C8  1  0.01372003  0.69040787  0.57221498  1
  C  C9  1  0.51996493  0.68295631  0.59217611  1
  C  C10  1  0.32425731  0.97831577  0.58476339  1
  C  C11  1  0.82738474  0.96526376  0.59254759  1
  C  C12  1  0.16399269  0.96714844  0.07853972  1
  C  C13  1  0.65922495  0.98179378  0.06997994  1
  C  C14  1  0.32232949  0.68664886  0.08698861  1
  C  C15  1  0.82642002  0.67309947  0.07990037  1
  C  C16  1  0.01889317  0.35724810  0.08724030  1
  C  C17  1  0.51310444  0.33510102  0.06831761  1
  C  C18  1  0.48378152  0.66740183  0.91872051  1
  C  C19  1  0.97730902  0.66140684  0.91299184  1
  C  C20  1  0.35436883  0.04386370  0.92088400  1
  C  C21  1  0.85099192  0.04466796  0.91090462  1
  C  C22  1  0.16657546  0.29056929  0.91332767  1
  C  C23  1  0.66252789  0.28965396  0.92412550  1
  C  C24  1  0.47814297  0.30033168  0.42568786  1
  C  C25  1  0.98475880  0.30268050  0.42352287  1
  C  C26  1  0.16038421  0.03166963  0.42850742  1
  C  C27  1  0.67048922  0.04835334  0.41974854  1
  C  C28  1  0.34766818  0.65629289  0.41784272  1
  C  C29  1  0.85522302  0.66315860  0.42396568  1
  C  C30  1  0.00266861  0.98695726  0.49863371  1
  C  C31  1  0.50506909  0.01103399  0.49962620  1
  C  C32  1  0.00387891  0.99864432  0.99322829  1
  C  C33  1  0.50253937  0.01780727  0.99218803  1
  C  C34  1  0.33934057  0.33346038  0.82898634  1
  C  C35  1  0.82649951  0.33195219  0.82440302  1
  C  C36  1  0.31747077  0.32052527  0.33030585  1
  C  C37  1  0.84170102  0.34573973  0.33080454  1
  C  C38  1  0.16841285  0.67198242  0.16128519  1
  C  C39  1  0.66784366  0.66173318  0.16370197  1
  C  C40  1  0.16161498  0.67243871  0.66678929  1
  C  C41  1  0.67180508  0.66768856  0.66296157  1
  C  C42  1  0.00620588  0.98228717  0.65134409  1
  C  C43  1  0.51033532  0.02704031  0.64535205  1
  C  C44  1  0.00960165  0.99494916  0.14478137  1
  C  C45  1  0.50539651  0.00983933  0.14668788  1
  C  C46  1  0.15959326  0.64318296  0.31968488  1
  C  C47  1  0.66078955  0.67737526  0.82036133  1
  C  C48  1  0.00873025  0.00590993  0.35448529  1
  C  C49  1  0.50562708  0.00558264  0.33655723  1
  C  C50  1  0.00703267  0.98874851  0.82488719  1
  C  C51  1  0.50813520  0.01115617  0.85363232  1
  C  C52  1  0.32744717  0.31370644  0.67835904  1
  C  C53  1  0.83034040  0.34955466  0.67995744  1
  C  C54  1  0.31621585  0.30843026  0.17175201  1
  C  C55  1  0.82840133  0.33934488  0.17785873  1
  C  C56  1  0.33126944  0.30630654  0.98977122  1
  C  C57  1  0.82415787  0.33628115  0.98876181  1
  C  C58  1  0.32416209  0.31583927  0.49200158  1
  C  C59  1  0.83329196  0.35515584  0.49583824  1
  C  C60  1  0.16561338  0.66594364  0.02335024  1
  C  C61  1  0.65916742  0.64887535  0.00884027  1
  C  C62  1  0.15788764  0.66726261  0.51036061  1
  C  C63  1  0.66661512  0.67213296  0.52581548  1
  C  C64  1  0.66505155  0.68115961  0.31430460  1
  C  C65  1  0.15688864  0.64850366  0.80833491  1
  Ni  Ni66  1  0.65126584  0.00321005  0.25100158  1
  Ni  Ni67  1  0.15178360  0.29628396  0.74972182  1
  Ni  Ni68  1  0.99413360  0.68427500  0.75390534  1
  Ni  Ni69  1  0.47647274  0.33326157  0.58217367  1
  Ni  Ni70  1  0.18174193  0.02102521  0.58405501  1
  Ni  Ni71  1  0.69055260  0.04964800  0.58314942  1
  Ni  Ni72  1  0.83703191  0.64431164  0.58258733  1
  Ni  Ni73  1  0.97568439  0.61892126  0.08224678  1
  Ni  Ni74  1  0.33730807  0.03357709  0.08446600  1
  Ni  Ni75  1  0.18730740  0.33473660  0.08103854  1
  Ni  Ni76  1  0.68248245  0.34179583  0.08560966  1
  Ni  Ni77  1  0.51384089  0.36680582  0.91681887  1
  Ni  Ni78  1  0.66924380  0.96734174  0.92279497  1
  Ni  Ni79  1  0.16876607  0.37133069  0.42265361  1
  Ni  Ni80  1  0.01395736  0.66198683  0.41655809  1
  Cu  Cu81  1  0.14923609  0.99469228  0.25125402  1
  Cu  Cu82  1  0.34984866  0.70205274  0.25190325  1
  Cu  Cu83  1  0.85546876  0.71522283  0.25192053  1
  Cu  Cu84  1  0.00414520  0.29223038  0.25192846  1
  Cu  Cu85  1  0.49858364  0.29513411  0.25096931  1
  Cu  Cu86  1  0.64730578  0.30436070  0.75229563  1
  Cu  Cu87  1  0.50447532  0.71594289  0.75221626  1
  Cu  Cu88  1  0.35823803  0.99905725  0.75175417  1
  Cu  Cu89  1  0.84784453  0.98848404  0.75284090  1
  Cu  Cu90  1  0.98265223  0.32602489  0.58490265  1
  Cu  Cu91  1  0.33944627  0.64387078  0.58564148  1
  Cu  Cu92  1  0.48168000  0.63730212  0.08852934  1
  Cu  Cu93  1  0.83888546  0.03346572  0.08709242  1
  Cu  Cu94  1  0.31158344  0.66472323  0.91543696  1
  Cu  Cu95  1  0.81232880  0.67277627  0.91524535  1
  Cu  Cu96  1  0.01726879  0.36718184  0.91800432  1
  Cu  Cu97  1  0.16654382  0.95715787  0.91589224  1
  Cu  Cu98  1  0.31538598  0.95517194  0.41136618  1
  Cu  Cu99  1  0.81269163  0.96171540  0.41472494  1
  Cu  Cu100  1  0.66252870  0.37488622  0.41193412  1
  Cu  Cu101  1  0.51737589  0.66850168  0.41534851  1
  C  C102  1  0.10712842  0.00596681  0.30627729  1
  C  C103  1  0.61295947  0.03343902  0.31340463  1
  C  C104  1  0.39874897  0.78835096  0.30812611  1
  C  C105  1  0.89911390  0.80567440  0.30724022  1
  C  C106  1  0.48820511  0.20121576  0.30811619  1
  C  C107  1  0.99715661  0.19328815  0.30683461  1
  C  C108  1  0.11169996  0.19345956  0.81314360  1
  C  C109  1  0.60477569  0.20921196  0.80730340  1
  C  C110  1  0.49722450  0.80009075  0.80734135  1
  C  C111  1  0.98099711  0.76076912  0.81672590  1
  C  C112  1  0.40258351  0.00003681  0.80736192  1
  C  C113  1  0.89868275  0.00477296  0.80860261  1
  C  C114  1  0.40607506  0.98947783  0.69751410  1
  C  C115  1  0.89259876  0.97596027  0.69838400  1
  C  C116  1  0.08473455  0.18281248  0.69417380  1
  C  C117  1  0.59220008  0.20684576  0.69753490  1
  C  C118  1  0.00394677  0.82152850  0.69847557  1
  C  C119  1  0.51264978  0.81872663  0.69698816  1
  C  C120  1  0.39598523  0.80660321  0.19800629  1
  C  C121  1  0.90230362  0.81985315  0.19748426  1
  C  C122  1  0.01197615  0.20560893  0.19667683  1
  C  C123  1  0.50283730  0.19438267  0.19893519  1
  C  C124  1  0.09515854  0.98352180  0.19654722  1
  C  C125  1  0.58307900  0.98489918  0.19561382  1
  C  C126  1  0.43294245  0.38012944  0.63629707  1
  C  C127  1  0.94100261  0.34184576  0.63927265  1
  C  C128  1  0.24032035  0.10013559  0.64340083  1
  C  C129  1  0.75590178  0.13446676  0.63771036  1
  C  C130  1  0.32771020  0.54171232  0.64002463  1
  C  C131  1  0.81187397  0.50735698  0.63525844  1
  C  C132  1  0.44025002  0.54023024  0.14336209  1
  C  C133  1  0.93369965  0.48711405  0.13738669  1
  C  C134  1  0.32030433  0.12287179  0.14087640  1
  C  C135  1  0.82711729  0.11048851  0.14179335  1
  C  C136  1  0.25051444  0.39400093  0.13824636  1
  C  C137  1  0.73868336  0.37610417  0.14589833  1
  C  C138  1  0.22132323  0.27689391  0.02218102  1
  C  C139  1  0.71477226  0.28259535  0.02641087  1
  C  C140  1  0.43268831  0.55556791  0.03304831  1
  C  C141  1  0.91659789  0.56076567  0.02105059  1
  C  C142  1  0.36752083  0.15189726  0.02311876  1
  C  C143  1  0.85288904  0.13809529  0.03240149  1
  C  C144  1  0.21599282  0.14248891  0.52404571  1
  C  C145  1  0.71990917  0.16298829  0.52013309  1
  C  C146  1  0.35397413  0.56859701  0.53054391  1
  C  C147  1  0.86592018  0.58523522  0.52053808  1
  C  C148  1  0.41874305  0.27757437  0.51993365  1
  C  C149  1  0.93391802  0.31298930  0.52890103  1
  C  C150  1  0.27126508  0.68437869  0.97046804  1
  C  C151  1  0.77420529  0.68208334  0.97330274  1
  C  C152  1  0.06921014  0.45346006  0.97165624  1
  C  C153  1  0.56885714  0.43836785  0.97781398  1
  C  C154  1  0.16425689  0.86507749  0.97159752  1
  C  C155  1  0.65873870  0.85351727  0.98208003  1
  C  C156  1  0.28024937  0.86647155  0.46933959  1
  C  C157  1  0.76803952  0.85400034  0.46735425  1
  C  C158  1  0.16058169  0.46647143  0.48176989  1
  C  C159  1  0.65876525  0.46249347  0.46693128  1
  C  C160  1  0.07019772  0.70361142  0.47699355  1
  C  C161  1  0.57081090  0.68707441  0.46813594  1
  C  C162  1  0.07738237  0.64916115  0.36064499  1
  C  C163  1  0.55694137  0.65402726  0.35813066  1
  C  C164  1  0.25972837  0.85333757  0.35998665  1
  C  C165  1  0.76525517  0.88165715  0.35752671  1
  C  C166  1  0.17613954  0.49832556  0.36245463  1
  C  C167  1  0.66554618  0.47010158  0.35611321  1
  C  C168  1  0.05866654  0.46193933  0.86169909  1
  C  C169  1  0.57707829  0.50645684  0.86168186  1
  C  C170  1  0.16957095  0.86777584  0.86098865  1
  C  C171  1  0.67698224  0.85535051  0.86316599  1
  C  C172  1  0.26233202  0.65286694  0.86024911  1
  C  C173  1  0.75716177  0.66396854  0.86354541  1
  C  C174  1  0.00237459  0.82688153  0.40768637  1
  C  C175  1  0.50641141  0.82199905  0.41426538  1
  C  C176  1  0.40259985  0.97602476  0.40628089  1
  C  C177  1  0.89951062  0.98181078  0.41324332  1
  C  C178  1  0.08192597  0.18734789  0.41579950  1
  C  C179  1  0.58270709  0.20143797  0.41289511  1
  C  C180  1  0.00547487  0.19205233  0.91671392  1
  C  C181  1  0.50212644  0.17834233  0.90856897  1
  C  C182  1  0.08903874  0.97537073  0.91731057  1
  C  C183  1  0.58271051  0.97874321  0.91561956  1
  C  C184  1  0.39961763  0.81751283  0.91336488  1
  C  C185  1  0.89752077  0.82780926  0.91227638  1
  C  C186  1  0.48552836  0.15632784  0.59566792  1
  C  C187  1  0.98896918  0.16789172  0.58651630  1
  C  C188  1  0.08597712  0.00366844  0.59245017  1
  C  C189  1  0.59213327  0.03268922  0.59654859  1
  C  C190  1  0.42005168  0.81795552  0.59099785  1
  C  C191  1  0.92035998  0.83668938  0.59545664  1
  C  C192  1  0.48741248  0.81056199  0.08983542  1
  C  C193  1  0.98595593  0.81545088  0.09716024  1
  C  C194  1  0.41996258  0.00489128  0.09772817  1
  C  C195  1  0.91896482  0.01938989  0.09223504  1
  C  C196  1  0.09081316  0.15400098  0.09556571  1
  C  C197  1  0.58505834  0.16664538  0.09527261  1
  C  C198  1  0.34855064  0.15067444  0.75023875  1
  C  C199  1  0.83956924  0.14092571  0.75066983  1
  C  C200  1  0.24747568  0.31839229  0.74349463  1
  C  C201  1  0.73009192  0.31635922  0.74724343  1
  C  C202  1  0.42746032  0.54703335  0.74878134  1
  C  C203  1  0.91725347  0.49065392  0.74403015  1
  C  C204  1  0.34584855  0.53541316  0.25015034  1
  C  C205  1  0.84635194  0.54456716  0.25118454  1
  C  C206  1  0.42901671  0.33204141  0.24596707  1
  C  C207  1  0.92740300  0.30751397  0.24875557  1
  C  C208  1  0.23298480  0.14905000  0.24664110  1
  C  C209  1  0.74713041  0.16889252  0.24312325  1
  C  C210  1  0.31914738  0.50891054  0.91790639  1
  C  C211  1  0.81795793  0.51533378  0.91144202  1
  C  C212  1  0.42399224  0.36768888  0.91548024  1
  C  C213  1  0.93203430  0.35461314  0.92083339  1
  C  C214  1  0.24508217  0.13011647  0.91456686  1
  C  C215  1  0.75657268  0.15353855  0.92030277  1
  C  C216  1  0.32122084  0.12379081  0.40869499  1
  C  C217  1  0.82046435  0.13165907  0.41821579  1
  C  C218  1  0.25619186  0.36047048  0.41932789  1
  C  C219  1  0.73925112  0.35604339  0.41089884  1
  C  C220  1  0.43218948  0.51205417  0.41884533  1
  C  C221  1  0.92459461  0.48144438  0.41476466  1
  C  C222  1  0.16289518  0.48219566  0.07442241  1
  C  C223  1  0.67000442  0.50705119  0.07882669  1
  C  C224  1  0.07427195  0.66683691  0.07666803  1
  C  C225  1  0.56942024  0.66593027  0.08650241  1
  C  C226  1  0.25458732  0.84442298  0.07808695  1
  C  C227  1  0.76491672  0.85969198  0.08183716  1
  C  C228  1  0.17103084  0.83164990  0.57760073  1
  C  C229  1  0.66489364  0.85087533  0.57751475  1
  C  C230  1  0.26587102  0.67004968  0.58025664  1
  C  C231  1  0.75577988  0.67326718  0.57597450  1
  C  C232  1  0.07002403  0.47742383  0.58299297  1
  C  C233  1  0.57530134  0.48403594  0.57658462  1
  C  C234  1  0.15501263  0.83758397  0.25034966  1
  C  C235  1  0.65329585  0.82319493  0.24894296  1
  C  C236  1  0.26367972  0.68421923  0.25343483  1
  C  C237  1  0.76811517  0.69667984  0.24851075  1
  C  C238  1  0.08340163  0.46628545  0.25430580  1
  C  C239  1  0.58244132  0.45945242  0.24968751  1
  C  C240  1  0.15857652  0.48342632  0.74787241  1
  C  C241  1  0.65289473  0.47291195  0.75112650  1
  C  C242  1  0.08763377  0.69569780  0.75001425  1
  C  C243  1  0.58357735  0.70081666  0.75506083  1
  C  C244  1  0.27259492  0.84167734  0.74834577  1
  C  C245  1  0.76206102  0.82943124  0.75586529  1
