# generated using pymatgen
data_Cu2NiC12
_symmetry_space_group_name_H-M   'P 1'
_cell_length_a   3.86595923
_cell_length_b   5.68556304
_cell_length_c   10.16596700
_cell_angle_alpha   90.00000000
_cell_angle_beta   90.00000000
_cell_angle_gamma   109.54889315
_symmetry_Int_Tables_number   1
_chemical_formula_structural   Cu2NiC12
_chemical_formula_sum   'Cu2 Ni1 C12'
_cell_volume   210.56907079
_cell_formula_units_Z   1
loop_
 _symmetry_equiv_pos_site_id
 _symmetry_equiv_pos_as_xyz
  1  'x, y, z'
loop_
 _atom_site_type_symbol
 _atom_site_label
 _atom_site_symmetry_multiplicity
 _atom_site_fract_x
 _atom_site_fract_y
 _atom_site_fract_z
 _atom_site_occupancy
  Ni  Ni0  1  0.59380800  0.58728900  0.25000000  1
  Cu  Cu1  1  0.03338700  0.55337400  0.53918100  1
  Cu  Cu2  1  0.03338700  0.55337400  0.96081900  1
  C  C3  1  0.24985200  0.99000300  0.25000000  1
  C  C4  1  0.75482400  0.01795800  0.75000000  1
  C  C5  1  0.86437300  0.23815400  0.61597100  1
  C  C6  1  0.10488700  0.73330300  0.37654600  1
  C  C7  1  0.10488700  0.73330300  0.12345400  1
  C  C8  1  0.75451600  0.00614000  0.25000000  1
  C  C9  1  0.22173800  0.95226300  0.75000000  1
  C  C10  1  0.86437300  0.23815400  0.88402900  1
  C  C11  1  0.60268100  0.71502600  0.88556100  1
  C  C12  1  0.40194600  0.30206800  0.12961600  1
  C  C13  1  0.40194600  0.30206800  0.37038400  1
  C  C14  1  0.60268100  0.71502600  0.61443900  1
