# generated using pymatgen
data_Cu5(NiC)7
_symmetry_space_group_name_H-M   'P 1'
_cell_length_a   5.17637089
_cell_length_b   7.92105563
_cell_length_c   5.83195121
_cell_angle_alpha   96.94414915
_cell_angle_beta   82.29550339
_cell_angle_gamma   95.66132915
_symmetry_Int_Tables_number   1
_chemical_formula_structural   Cu5(NiC)7
_chemical_formula_sum   'Cu5 Ni7 C7'
_cell_volume   234.39914138
_cell_formula_units_Z   1
loop_
 _symmetry_equiv_pos_site_id
 _symmetry_equiv_pos_as_xyz
  1  'x, y, z'
loop_
 _atom_site_type_symbol
 _atom_site_label
 _atom_site_symmetry_multiplicity
 _atom_site_fract_x
 _atom_site_fract_y
 _atom_site_fract_z
 _atom_site_occupancy
  C  C0  1  0.51269095  0.49261324  0.46469113  1
  C  C1  1  0.47821409  0.00468243  0.47428622  1
  C  C2  1  0.47792197  0.69902467  0.11424774  1
  C  C3  1  0.51276693  0.34151746  0.86398415  1
  C  C4  1  0.98576362  0.69266635  0.67030441  1
  C  C5  1  0.99320895  0.24442006  0.51552453  1
  C  C6  1  0.01810121  0.99244763  0.01748393  1
  Ni  Ni7  1  0.79844551  0.45951300  0.65462989  1
  Ni  Ni8  1  0.80720640  0.78424476  0.95725858  1
  Ni  Ni9  1  0.80616575  0.07763481  0.29656911  1
  Ni  Ni10  1  0.60435167  0.47947513  0.12486931  1
  Ni  Ni11  1  0.37139962  0.25926955  0.56772086  1
  Ni  Ni12  1  0.32133191  0.90600001  0.19958882  1
  Ni  Ni13  1  0.18715044  0.91453546  0.69940093  1
  Cu  Cu14  1  0.72570398  0.11782245  0.77721265  1
  Cu  Cu15  1  0.65932124  0.74372347  0.46546199  1
  Cu  Cu16  1  0.30893288  0.58012776  0.81055882  1
  Cu  Cu17  1  0.19207898  0.59343162  0.37547621  1
  Cu  Cu18  1  0.21146492  0.22518614  0.04596872  1
