# generated using pymatgen
data_Cu2NiC16
_symmetry_space_group_name_H-M   'P 1'
_cell_length_a   5.13691400
_cell_length_b   6.80214300
_cell_length_c   6.80214300
_cell_angle_alpha   90.00000000
_cell_angle_beta   90.00000000
_cell_angle_gamma   90.00000000
_symmetry_Int_Tables_number   1
_chemical_formula_structural   Cu2NiC16
_chemical_formula_sum   'Cu2 Ni1 C16'
_cell_volume   237.68064128
_cell_formula_units_Z   1
loop_
 _symmetry_equiv_pos_site_id
 _symmetry_equiv_pos_as_xyz
  1  'x, y, z'
loop_
 _atom_site_type_symbol
 _atom_site_label
 _atom_site_symmetry_multiplicity
 _atom_site_fract_x
 _atom_site_fract_y
 _atom_site_fract_z
 _atom_site_occupancy
  C  C0  1  0.50000000  0.96647400  0.46647400  1
  C  C1  1  0.50000000  0.96647400  0.03352600  1
  C  C2  1  0.50000000  0.53352600  0.46647400  1
  C  C3  1  0.50000000  0.53352600  0.03352600  1
  Ni  Ni4  1  0.50000000  0.25000000  0.75000000  1
  Cu  Cu5  1  0.05295800  0.25000000  0.25000000  1
  Cu  Cu6  1  0.94704200  0.75000000  0.75000000  1
  C  C7  1  0.00000000  0.75000000  0.25000000  1
  C  C8  1  0.00000000  0.25000000  0.75000000  1
  C  C9  1  0.70885000  0.25000000  0.25000000  1
  C  C10  1  0.29115000  0.75000000  0.75000000  1
  C  C11  1  0.20645000  0.25000000  0.56200400  1
  C  C12  1  0.20645000  0.25000000  0.93799600  1
  C  C13  1  0.17872600  0.54765100  0.25000000  1
  C  C14  1  0.17872600  0.95234900  0.25000000  1
  C  C15  1  0.79355000  0.06200400  0.75000000  1
  C  C16  1  0.82127400  0.75000000  0.04765100  1
  C  C17  1  0.79355000  0.43799600  0.75000000  1
  C  C18  1  0.82127400  0.75000000  0.45234900  1
