# generated using pymatgen
data_Cu3Ni2C65
_symmetry_space_group_name_H-M   'P 1'
_cell_length_a   17.82182673
_cell_length_b   8.91139507
_cell_length_c   23.06519173
_cell_angle_alpha   89.99888470
_cell_angle_beta   89.83869522
_cell_angle_gamma   120.16496604
_symmetry_Int_Tables_number   1
_chemical_formula_structural   Cu3Ni2C65
_chemical_formula_sum   'Cu9 Ni6 C195'
_cell_volume   3167.07948432
_cell_formula_units_Z   3
loop_
 _symmetry_equiv_pos_site_id
 _symmetry_equiv_pos_as_xyz
  1  'x, y, z'
loop_
 _atom_site_type_symbol
 _atom_site_label
 _atom_site_symmetry_multiplicity
 _atom_site_fract_x
 _atom_site_fract_y
 _atom_site_fract_z
 _atom_site_occupancy
  Ni  Ni0  1  0.99614529  0.98630948  0.49860483  1
  Ni  Ni1  1  0.50100901  0.99950397  0.99894484  1
  Ni  Ni2  1  0.33420520  0.32357438  0.83800121  1
  Ni  Ni3  1  0.83299669  0.33702643  0.83722978  1
  Ni  Ni4  1  0.32920018  0.32464870  0.33618832  1
  Ni  Ni5  1  0.83573322  0.34101977  0.34173910  1
  Cu  Cu6  1  0.00537823  0.00109668  0.35341697  1
  Cu  Cu7  1  0.50246948  0.02161957  0.85231934  1
  Cu  Cu8  1  0.99903014  0.00505616  0.64772050  1
  Cu  Cu9  1  0.49403550  0.98300125  0.14636306  1
  Cu  Cu10  1  0.34048694  0.33872760  0.97729962  1
  Cu  Cu11  1  0.83571124  0.33028727  0.97650113  1
  Cu  Cu12  1  0.33373022  0.33813040  0.48012286  1
  Cu  Cu13  1  0.83104034  0.34460907  0.47843989  1
  Cu  Cu14  1  0.67005953  0.66130946  0.31422389  1
  C  C15  1  0.49447376  0.99257081  0.36120389  1
  C  C16  1  0.00574361  0.00859168  0.86273116  1
  C  C17  1  0.49839461  0.00424937  0.64299644  1
  C  C18  1  0.00280685  0.01367263  0.14771246  1
  C  C19  1  0.32753205  0.33628421  0.69044477  1
  C  C20  1  0.82459343  0.32736333  0.68277512  1
  C  C21  1  0.33902870  0.34723395  0.19027003  1
  C  C22  1  0.83240166  0.31800151  0.18705640  1
  C  C23  1  0.16259323  0.66566033  0.01832509  1
  C  C24  1  0.66674471  0.66304943  0.02354014  1
  C  C25  1  0.17020697  0.67507481  0.51990235  1
  C  C26  1  0.67243899  0.66258301  0.52487610  1
  C  C27  1  0.16307411  0.67783727  0.30701453  1
  C  C28  1  0.16581944  0.67139522  0.80783696  1
  C  C29  1  0.66490536  0.64692627  0.81300103  1
  C  C30  1  0.14429074  0.00503928  0.24898170  1
  C  C31  1  0.35620413  0.71752110  0.25143948  1
  C  C32  1  0.00009661  0.28729892  0.25387845  1
  C  C33  1  0.13943735  0.28445954  0.75040656  1
  C  C34  1  0.64329119  0.28347771  0.74959884  1
  C  C35  1  0.35789537  0.00320297  0.74970509  1
  C  C36  1  0.68669672  0.04083689  0.57988589  1
  C  C37  1  0.33233753  0.62121414  0.58181039  1
  C  C38  1  0.83977801  0.63045429  0.58179634  1
  C  C39  1  0.47799533  0.62620715  0.08071716  1
  C  C40  1  0.83448979  0.04074573  0.07994198  1
  C  C41  1  0.81008322  0.66297334  0.91779632  1
  C  C42  1  0.02193735  0.38345531  0.91476362  1
  C  C43  1  0.52119589  0.37350512  0.91847773  1
  C  C44  1  0.17061126  0.95934095  0.91507886  1
  C  C45  1  0.30673048  0.95855307  0.41528537  1
  C  C46  1  0.66851020  0.37954866  0.41560111  1
  C  C47  1  0.02019600  0.66555221  0.41651507  1
  C  C48  1  0.64350668  0.99825337  0.25047764  1
  C  C49  1  0.85536465  0.70996158  0.24892279  1
  C  C50  1  0.50159101  0.28852590  0.25001086  1
  C  C51  1  0.99838002  0.70987453  0.75021569  1
  C  C52  1  0.50119067  0.71360655  0.74995129  1
  C  C53  1  0.85546781  0.00165030  0.75133786  1
  C  C54  1  0.47669728  0.33449319  0.58319469  1
  C  C55  1  0.97821646  0.33403129  0.58256220  1
  C  C56  1  0.18875478  0.04494220  0.58325775  1
  C  C57  1  0.97738419  0.62320772  0.08350894  1
  C  C58  1  0.33281867  0.04331373  0.08290250  1
  C  C59  1  0.19022292  0.33532688  0.08340794  1
  C  C60  1  0.68887009  0.33217507  0.08323871  1
  C  C61  1  0.30981439  0.66691591  0.91635604  1
  C  C62  1  0.66498169  0.95000887  0.91652003  1
  C  C63  1  0.81083132  0.95464858  0.41679733  1
  C  C64  1  0.16661123  0.38060224  0.41675965  1
  C  C65  1  0.52334059  0.66580407  0.41612489  1
  C  C66  1  0.10470982  0.04242021  0.30538368  1
  C  C67  1  0.60668540  0.03468470  0.30243060  1
  C  C68  1  0.42167842  0.80771416  0.30695882  1
  C  C69  1  0.90849739  0.78074095  0.30093746  1
  C  C70  1  0.48467354  0.17723708  0.30216699  1
  C  C71  1  0.97489718  0.16034920  0.30748434  1
  C  C72  1  0.09585619  0.15953419  0.80708828  1
  C  C73  1  0.60679761  0.17130570  0.80717977  1
  C  C74  1  0.48179936  0.78114085  0.80239980  1
  C  C75  1  0.98379959  0.78704722  0.80251467  1
  C  C76  1  0.41404031  0.03698646  0.80695013  1
  C  C77  1  0.91052364  0.02910331  0.80261995  1
  C  C78  1  0.40275013  0.97234259  0.69260366  1
  C  C79  1  0.89170170  0.96928888  0.69867327  1
  C  C80  1  0.08594677  0.20205298  0.69294383  1
  C  C81  1  0.58356119  0.19386869  0.69286261  1
  C  C82  1  0.01332137  0.81458410  0.69808157  1
  C  C83  1  0.51368078  0.81773985  0.69755073  1
  C  C84  1  0.39849682  0.82912228  0.19425120  1
  C  C85  1  0.89796959  0.81929387  0.19630374  1
  C  C86  1  0.01144989  0.19230786  0.19428850  1
  C  C87  1  0.51430021  0.21226308  0.19754871  1
  C  C88  1  0.08261241  0.97379516  0.19182185  1
  C  C89  1  0.59382763  0.97787715  0.19770219  1
  C  C90  1  0.43646135  0.36035626  0.63545200  1
  C  C91  1  0.93784369  0.36185016  0.63619801  1
  C  C92  1  0.24397687  0.12608419  0.63602875  1
  C  C93  1  0.74992971  0.13304375  0.63969869  1
  C  C94  1  0.32002494  0.49561130  0.63942486  1
  C  C95  1  0.82003829  0.50031500  0.63984288  1
  C  C96  1  0.42891703  0.49703070  0.13902172  1
  C  C97  1  0.93658106  0.51131530  0.13590830  1
  C  C98  1  0.31710295  0.12043265  0.13543098  1
  C  C99  1  0.82025513  0.14180740  0.13922159  1
  C  C100  1  0.24382088  0.36132761  0.13608136  1
  C  C101  1  0.74458771  0.36033210  0.13611940  1
  C  C102  1  0.22587761  0.30093315  0.03143320  1
  C  C103  1  0.72901146  0.30599037  0.03170698  1
  C  C104  1  0.41480376  0.53224640  0.02743348  1
  C  C105  1  0.92535246  0.54742227  0.03151994  1
  C  C106  1  0.34505917  0.14795063  0.03084152  1
  C  C107  1  0.85243841  0.17107404  0.02822020  1
  C  C108  1  0.22930219  0.15078950  0.53142991  1
  C  C109  1  0.73222815  0.16314801  0.52670003  1
  C  C110  1  0.34895428  0.53183996  0.52707032  1
  C  C111  1  0.85268230  0.54266624  0.52641571  1
  C  C112  1  0.42388836  0.30165157  0.53112703  1
  C  C113  1  0.92445333  0.30305707  0.53142709  1
  C  C114  1  0.26637756  0.69186891  0.97032167  1
  C  C115  1  0.76450319  0.69874354  0.97339614  1
  C  C116  1  0.08487937  0.47453717  0.97384046  1
  C  C117  1  0.58566729  0.48030092  0.97296378  1
  C  C118  1  0.15430100  0.82978880  0.97341023  1
  C  C119  1  0.65382012  0.84481991  0.96969190  1
  C  C120  1  0.26547987  0.83456207  0.47384471  1
  C  C121  1  0.76561048  0.84087952  0.46965826  1
  C  C122  1  0.15499923  0.46433291  0.47044740  1
  C  C123  1  0.65097600  0.47473386  0.47230271  1
  C  C124  1  0.08577017  0.68960544  0.47355176  1
  C  C125  1  0.57519630  0.69497321  0.46862560  1
  C  C126  1  0.07310174  0.64459657  0.36040699  1
  C  C127  1  0.56285324  0.64314059  0.36333957  1
  C  C128  1  0.24952601  0.85814330  0.35948626  1
  C  C129  1  0.75713384  0.87296945  0.36470191  1
  C  C130  1  0.18070402  0.48576058  0.36478774  1
  C  C131  1  0.67886733  0.49769179  0.35953206  1
  C  C132  1  0.07428733  0.50617702  0.86030995  1
  C  C133  1  0.57087134  0.49966318  0.85990349  1
  C  C134  1  0.18046505  0.85705466  0.86012028  1
  C  C135  1  0.67901570  0.87026207  0.86369062  1
  C  C136  1  0.25633785  0.64309812  0.86455481  1
  C  C137  1  0.74881677  0.64267158  0.85981062  1
  C  C138  1  0.01419926  0.84082286  0.41234423  1
  C  C139  1  0.51540005  0.82636063  0.40848491  1
  C  C140  1  0.40348207  0.97273111  0.40594842  1
  C  C141  1  0.89578705  0.96503510  0.41303101  1
  C  C142  1  0.08768148  0.20764428  0.41382132  1
  C  C143  1  0.57999670  0.18783482  0.40222821  1
  C  C144  1  0.01519890  0.19415395  0.90716998  1
  C  C145  1  0.51519409  0.18745321  0.91473351  1
  C  C146  1  0.07969675  0.96159919  0.90733320  1
  C  C147  1  0.58599655  0.96269335  0.91136688  1
  C  C148  1  0.39621454  0.82127974  0.91271476  1
  C  C149  1  0.90310293  0.83587001  0.90143930  1
  C  C150  1  0.48835464  0.18119946  0.59103249  1
  C  C151  1  0.98898409  0.18105461  0.59091232  1
  C  C152  1  0.10211069  0.02304678  0.59085028  1
  C  C153  1  0.59311952  0.01795549  0.59848728  1
  C  C154  1  0.41609134  0.81036255  0.59705546  1
  C  C155  1  0.91874604  0.82223157  0.59301933  1
  C  C156  1  0.49246182  0.81851509  0.09022059  1
  C  C157  1  0.98936186  0.79661807  0.09360349  1
  C  C158  1  0.41040934  0.02599458  0.08967846  1
  C  C159  1  0.91684091  0.01619534  0.09764068  1
  C  C160  1  0.10129829  0.18049191  0.09300220  1
  C  C161  1  0.60179199  0.18231966  0.09207954  1
  C  C162  1  0.34476242  0.17134327  0.73551744  1
  C  C163  1  0.84834399  0.16178933  0.74397527  1
  C  C164  1  0.23925123  0.30904161  0.74208866  1
  C  C165  1  0.74343612  0.31461775  0.73996385  1
  C  C166  1  0.42308784  0.53135577  0.74080864  1
  C  C167  1  0.92268359  0.53068705  0.74334206  1
  C  C168  1  0.34664451  0.51970369  0.24152691  1
  C  C169  1  0.84432942  0.53268343  0.23819461  1
  C  C170  1  0.41935060  0.30193545  0.24361166  1
  C  C171  1  0.91514057  0.31609208  0.23703363  1
  C  C172  1  0.24221944  0.16978589  0.23508675  1
  C  C173  1  0.73405041  0.16431431  0.24234908  1
  C  C174  1  0.31437821  0.50822260  0.92327431  1
  C  C175  1  0.81856102  0.49368047  0.92282700  1
  C  C176  1  0.42876144  0.36414896  0.92020726  1
  C  C177  1  0.92804684  0.36045456  0.92132502  1
  C  C178  1  0.25035931  0.14814994  0.92399887  1
  C  C179  1  0.74266070  0.12450552  0.92227028  1
  C  C180  1  0.32271762  0.15074514  0.42331553  1
  C  C181  1  0.81941075  0.12476861  0.42381873  1
  C  C182  1  0.24412573  0.36051848  0.42382462  1
  C  C183  1  0.74920608  0.35063525  0.42006223  1
  C  C184  1  0.43484121  0.51440722  0.42168382  1
  C  C185  1  0.92937163  0.48827099  0.42067544  1
  C  C186  1  0.18012774  0.49041943  0.07616991  1
  C  C187  1  0.68249834  0.49198801  0.07761859  1
  C  C188  1  0.06560708  0.63915298  0.07606497  1
  C  C189  1  0.57275287  0.63975037  0.07213999  1
  C  C190  1  0.25452951  0.86480236  0.07431838  1
  C  C191  1  0.74805379  0.85328918  0.07370050  1
  C  C192  1  0.18141670  0.87124226  0.57691139  1
  C  C193  1  0.67465381  0.84706043  0.57025745  1
  C  C194  1  0.24590394  0.63844635  0.57239793  1
  C  C195  1  0.74899138  0.64162629  0.57385021  1
  C  C196  1  0.06588079  0.49123400  0.57555178  1
  C  C197  1  0.56396741  0.49069843  0.57560910  1
  C  C198  1  0.15510161  0.83531067  0.25600491  1
  C  C199  1  0.65764420  0.85259775  0.25873100  1
  C  C200  1  0.26031295  0.68114739  0.26469411  1
  C  C201  1  0.76964592  0.69346257  0.25482937  1
  C  C202  1  0.08391549  0.47661229  0.25895408  1
  C  C203  1  0.57430313  0.46433747  0.25870750  1
  C  C204  1  0.15734050  0.47899870  0.76402342  1
  C  C205  1  0.65602783  0.48027892  0.75846617  1
  C  C206  1  0.07732643  0.69222583  0.75788413  1
  C  C207  1  0.57816227  0.69390457  0.75747727  1
  C  C208  1  0.26068312  0.83401130  0.76040512  1
  C  C209  1  0.76668439  0.85082006  0.76035745  1
