# generated using pymatgen
data_Cu6NiC12
_symmetry_space_group_name_H-M   'P 1'
_cell_length_a   8.29251302
_cell_length_b   5.86361334
_cell_length_c   5.72060716
_cell_angle_alpha   63.79577001
_cell_angle_beta   63.57655715
_cell_angle_gamma   62.24381135
_symmetry_Int_Tables_number   1
_chemical_formula_structural   Cu6NiC12
_chemical_formula_sum   'Cu6 Ni1 C12'
_cell_volume   210.58076537
_cell_formula_units_Z   1
loop_
 _symmetry_equiv_pos_site_id
 _symmetry_equiv_pos_as_xyz
  1  'x, y, z'
loop_
 _atom_site_type_symbol
 _atom_site_label
 _atom_site_symmetry_multiplicity
 _atom_site_fract_x
 _atom_site_fract_y
 _atom_site_fract_z
 _atom_site_occupancy
  Ni  Ni0  1  0.50495319  0.50146146  0.97618967  1
  Cu  Cu1  1  0.88649329  0.69266070  0.69226934  1
  Cu  Cu2  1  0.29276383  0.64003606  0.61857280  1
  Cu  Cu3  1  0.67516390  0.33516564  0.35692782  1
  Cu  Cu4  1  0.12543894  0.31690733  0.32597403  1
  Cu  Cu5  1  0.48921788  0.99302160  0.99366570  1
  Cu  Cu6  1  0.00682572  0.99140533  0.99281904  1
  C  C7  1  0.32441917  0.36406724  0.96065790  1
  C  C8  1  0.67631645  0.02977258  0.65212896  1
  C  C9  1  0.41916522  0.42576183  0.40173121  1
  C  C10  1  0.03174134  0.78018902  0.78068659  1
  C  C11  1  0.31132770  0.96193327  0.35259704  1
  C  C12  1  0.67245854  0.63510836  0.03057931  1
  C  C13  1  0.01436763  0.30998678  0.69558630  1
  C  C14  1  0.00657531  0.69058090  0.31085504  1
  C  C15  1  0.62006439  0.56130544  0.58468098  1
  C  C16  1  0.31160546  0.87316326  0.91435299  1
  C  C17  1  0.95970986  0.22542832  0.23942788  1
  C  C18  1  0.70710718  0.13633188  0.08458440  1
