# generated using pymatgen
data_Cu6Ni4C
_symmetry_space_group_name_H-M   'P 1'
_cell_length_a   11.10161800
_cell_length_b   11.10161800
_cell_length_c   11.12924700
_cell_angle_alpha   90.00000000
_cell_angle_beta   90.00000000
_cell_angle_gamma   90.00000000
_symmetry_Int_Tables_number   1
_chemical_formula_structural   Cu6Ni4C
_chemical_formula_sum   'Cu24 Ni16 C4'
_cell_volume   1371.63431011
_cell_formula_units_Z   4
loop_
 _symmetry_equiv_pos_site_id
 _symmetry_equiv_pos_as_xyz
  1  'x, y, z'
loop_
 _atom_site_type_symbol
 _atom_site_label
 _atom_site_symmetry_multiplicity
 _atom_site_fract_x
 _atom_site_fract_y
 _atom_site_fract_z
 _atom_site_occupancy
  C  C0  1  0.75000000  0.25000000  0.75000000  1
  C  C1  1  0.25000000  0.25000000  0.25000000  1
  C  C2  1  0.75000000  0.75000000  0.25000000  1
  C  C3  1  0.25000000  0.75000000  0.75000000  1
  Ni  Ni4  1  0.85479200  0.14520800  0.25000000  1
  Ni  Ni5  1  0.35479200  0.35479200  0.75000000  1
  Ni  Ni6  1  0.64520800  0.64520800  0.75000000  1
  Ni  Ni7  1  0.14520800  0.85479200  0.25000000  1
  Ni  Ni8  1  0.64520800  0.35479200  0.25000000  1
  Ni  Ni9  1  0.14520800  0.14520800  0.75000000  1
  Ni  Ni10  1  0.85479200  0.85479200  0.75000000  1
  Ni  Ni11  1  0.35479200  0.64520800  0.25000000  1
  Ni  Ni12  1  0.16026500  0.66026500  0.17093800  1
  Ni  Ni13  1  0.83973500  0.33973500  0.17093800  1
  Ni  Ni14  1  0.16026500  0.33973500  0.67093800  1
  Ni  Ni15  1  0.83973500  0.66026500  0.67093800  1
  Ni  Ni16  1  0.66026500  0.16026500  0.32906200  1
  Ni  Ni17  1  0.33973500  0.16026500  0.82906200  1
  Ni  Ni18  1  0.66026500  0.83973500  0.82906200  1
  Ni  Ni19  1  0.33973500  0.83973500  0.32906200  1
  Cu  Cu20  1  0.41917900  0.69540600  0.88634700  1
  Cu  Cu21  1  0.58082100  0.30459400  0.88634700  1
  Cu  Cu22  1  0.19540600  0.08082100  0.38634700  1
  Cu  Cu23  1  0.80459400  0.91917900  0.38634700  1
  Cu  Cu24  1  0.69540600  0.41917900  0.61365300  1
  Cu  Cu25  1  0.08082100  0.19540600  0.11365300  1
  Cu  Cu26  1  0.91917900  0.80459400  0.11365300  1
  Cu  Cu27  1  0.30459400  0.58082100  0.61365300  1
  Cu  Cu28  1  0.08082100  0.80459400  0.61365300  1
  Cu  Cu29  1  0.91917900  0.19540600  0.61365300  1
  Cu  Cu30  1  0.30459400  0.41917900  0.11365300  1
  Cu  Cu31  1  0.69540600  0.58082100  0.11365300  1
  Cu  Cu32  1  0.80459400  0.08082100  0.88634700  1
  Cu  Cu33  1  0.41917900  0.30459400  0.38634700  1
  Cu  Cu34  1  0.58082100  0.69540600  0.38634700  1
  Cu  Cu35  1  0.19540600  0.91917900  0.88634700  1
  Cu  Cu36  1  0.11826700  0.61826700  0.86321000  1
  Cu  Cu37  1  0.88173300  0.38173300  0.86321000  1
  Cu  Cu38  1  0.11826700  0.38173300  0.36321000  1
  Cu  Cu39  1  0.88173300  0.61826700  0.36321000  1
  Cu  Cu40  1  0.38173300  0.88173300  0.63679000  1
  Cu  Cu41  1  0.61826700  0.88173300  0.13679000  1
  Cu  Cu42  1  0.38173300  0.11826700  0.13679000  1
  Cu  Cu43  1  0.61826700  0.11826700  0.63679000  1
