# generated using pymatgen
data_Cu3NiC30
_symmetry_space_group_name_H-M   'P 1'
_cell_length_a   8.74529055
_cell_length_b   8.76340391
_cell_length_c   22.63998765
_cell_angle_alpha   89.82674456
_cell_angle_beta   89.84601952
_cell_angle_gamma   120.02494893
_symmetry_Int_Tables_number   1
_chemical_formula_structural   Cu3NiC30
_chemical_formula_sum   'Cu9 Ni3 C90'
_cell_volume   1502.23388784
_cell_formula_units_Z   3
loop_
 _symmetry_equiv_pos_site_id
 _symmetry_equiv_pos_as_xyz
  1  'x, y, z'
loop_
 _atom_site_type_symbol
 _atom_site_label
 _atom_site_symmetry_multiplicity
 _atom_site_fract_x
 _atom_site_fract_y
 _atom_site_fract_z
 _atom_site_occupancy
  Ni  Ni0  1  0.99130213  0.99899058  0.35328399  1
  Ni  Ni1  1  0.67487819  0.33505037  0.68615499  1
  Ni  Ni2  1  0.65986257  0.33448365  0.18567425  1
  Cu  Cu3  1  0.00126285  0.00070764  0.85839489  1
  Cu  Cu4  1  0.99894194  0.00438521  0.64602660  1
  Cu  Cu5  1  0.00563520  0.00509017  0.14673059  1
  Cu  Cu6  1  0.66047118  0.33182327  0.97901116  1
  Cu  Cu7  1  0.67061149  0.32661263  0.47898763  1
  Cu  Cu8  1  0.33366038  0.66176111  0.01987936  1
  Cu  Cu9  1  0.33294859  0.66559044  0.51920067  1
  Cu  Cu10  1  0.33850950  0.67246432  0.31122641  1
  Cu  Cu11  1  0.33276699  0.66659061  0.81698687  1
  C  C12  1  0.95745268  0.33608099  0.58479073  1
  C  C13  1  0.37906708  0.33507275  0.08493486  1
  C  C14  1  0.62281574  0.66514125  0.91671119  1
  C  C15  1  0.04023540  0.37678211  0.91720130  1
  C  C16  1  0.33524101  0.95614429  0.91742529  1
  C  C17  1  0.62686309  0.95565891  0.41636746  1
  C  C18  1  0.29213269  0.00416544  0.25176238  1
  C  C19  1  0.71294834  0.70738196  0.25075632  1
  C  C20  1  0.99594774  0.29104665  0.25141920  1
  C  C21  1  0.29482780  0.29272019  0.75028526  1
  C  C22  1  0.99867709  0.70800857  0.75015099  1
  C  C23  1  0.70744392  0.00090318  0.75072495  1
  C  C24  1  0.37665757  0.04269792  0.58476574  1
  C  C25  1  0.66594724  0.62152671  0.58414565  1
  C  C26  1  0.95684211  0.62281333  0.08449426  1
  C  C27  1  0.66557218  0.04263337  0.08457431  1
  C  C28  1  0.33192936  0.37214470  0.41659758  1
  C  C29  1  0.04224524  0.67018715  0.41614598  1
  C  C30  1  0.20809333  0.02793711  0.30392454  1
  C  C31  1  0.81933993  0.78949261  0.30294878  1
  C  C32  1  0.97143651  0.18309969  0.30354504  1
  C  C33  1  0.21045992  0.17854916  0.80298062  1
  C  C34  1  0.96915719  0.79169506  0.80276795  1
  C  C35  1  0.82170435  0.03092681  0.80289407  1
  C  C36  1  0.78424739  0.96169714  0.69684572  1
  C  C37  1  0.17886012  0.21483595  0.69676859  1
  C  C38  1  0.03671034  0.82421997  0.69591483  1
  C  C39  1  0.78618584  0.82273880  0.19581467  1
  C  C40  1  0.03758190  0.21834085  0.19683350  1
  C  C41  1  0.17846776  0.96205455  0.19698103  1
  C  C42  1  0.87739032  0.36830626  0.63879277  1
  C  C43  1  0.48391538  0.11992068  0.63683859  1
  C  C44  1  0.63333294  0.51359380  0.63663123  1
  C  C45  1  0.88108590  0.51431679  0.13679213  1
  C  C46  1  0.63591043  0.11972629  0.13682977  1
  C  C47  1  0.49122177  0.36702433  0.13878101  1
  C  C48  1  0.45390069  0.29726095  0.02771734  1
  C  C49  1  0.84990614  0.54946924  0.02969959  1
  C  C50  1  0.70286581  0.15183282  0.02973147  1
  C  C51  1  0.44818413  0.15234826  0.52995051  1
  C  C52  1  0.69937584  0.54754864  0.52917863  1
  C  C53  1  0.84494623  0.29880838  0.52785691  1
  C  C54  1  0.54581025  0.70534055  0.97137103  1
  C  C55  1  0.15746453  0.45526096  0.97146926  1
  C  C56  1  0.29710647  0.83892671  0.97238207  1
  C  C57  1  0.54058446  0.84067872  0.47315196  1
  C  C58  1  0.30055131  0.45191765  0.47059205  1
  C  C59  1  0.15092396  0.69807427  0.47044664  1
  C  C60  1  0.11864168  0.62804001  0.36386097  1
  C  C61  1  0.50183245  0.87435373  0.36236578  1
  C  C62  1  0.37032037  0.48887275  0.36385270  1
  C  C63  1  0.11711921  0.48886828  0.86009551  1
  C  C64  1  0.37034900  0.88033933  0.86029828  1
  C  C65  1  0.51042898  0.62932035  0.86007877  1
  C  C66  1  0.02598732  0.82485250  0.40883821  1
  C  C67  1  0.80574856  0.97504749  0.40869596  1
  C  C68  1  0.17865172  0.20006693  0.40921883  1
  C  C69  1  0.02449441  0.19579240  0.90816534  1
  C  C70  1  0.17048272  0.97357315  0.90859406  1
  C  C71  1  0.80462406  0.83029280  0.90809034  1
  C  C72  1  0.97883594  0.16978798  0.59064227  1
  C  C73  1  0.19618185  0.02141624  0.59055373  1
  C  C74  1  0.82641795  0.80071953  0.59014001  1
  C  C75  1  0.97514310  0.80175683  0.09048058  1
  C  C76  1  0.82494565  0.02131381  0.09044926  1
  C  C77  1  0.19054615  0.16842225  0.09057061  1
  C  C78  1  0.68985675  0.15524864  0.74243209  1
  C  C79  1  0.46668408  0.30916062  0.74135094  1
  C  C80  1  0.84292998  0.53664268  0.74248112  1
  C  C81  1  0.69167230  0.53432389  0.24208563  1
  C  C82  1  0.84400625  0.31224191  0.24132205  1
  C  C83  1  0.46661721  0.15467906  0.24240825  1
  C  C84  1  0.64403312  0.50371839  0.92398772  1
  C  C85  1  0.85783841  0.35722570  0.92564994  1
  C  C86  1  0.49857497  0.13797181  0.92404638  1
  C  C87  1  0.63542298  0.13647928  0.42413412  1
  C  C88  1  0.49710275  0.36323624  0.42532939  1
  C  C89  1  0.86587008  0.50783496  0.42397442  1
  C  C90  1  0.35578776  0.49751297  0.07559008  1
  C  C91  1  0.13582687  0.64546467  0.07592824  1
  C  C92  1  0.50750207  0.86582750  0.07590688  1
  C  C93  1  0.35627934  0.86549021  0.57603148  1
  C  C94  1  0.50909932  0.64338776  0.57600224  1
  C  C95  1  0.14400077  0.49919585  0.57434925  1
  C  C96  1  0.30462386  0.83765415  0.25645650  1
  C  C97  1  0.53259911  0.69215091  0.25604985  1
  C  C98  1  0.16258628  0.47082605  0.25777651  1
  C  C99  1  0.30627055  0.46744469  0.75693736  1
  C  C100  1  0.16174867  0.69537225  0.75651218  1
  C  C101  1  0.53189697  0.83747100  0.75702300  1
