# generated using pymatgen
data_Cu8NiC16
_symmetry_space_group_name_H-M   'P 1'
_cell_length_a   9.75712401
_cell_length_b   9.91446704
_cell_length_c   3.18319900
_cell_angle_alpha   90.00000000
_cell_angle_beta   90.00000000
_cell_angle_gamma   82.92705904
_symmetry_Int_Tables_number   1
_chemical_formula_structural   Cu8NiC16
_chemical_formula_sum   'Cu8 Ni1 C16'
_cell_volume   305.58881540
_cell_formula_units_Z   1
loop_
 _symmetry_equiv_pos_site_id
 _symmetry_equiv_pos_as_xyz
  1  'x, y, z'
loop_
 _atom_site_type_symbol
 _atom_site_label
 _atom_site_symmetry_multiplicity
 _atom_site_fract_x
 _atom_site_fract_y
 _atom_site_fract_z
 _atom_site_occupancy
  Ni  Ni0  1  0.75253700  0.00089000  0.50000000  1
  Cu  Cu1  1  0.06085200  0.01467400  0.00000000  1
  Cu  Cu2  1  0.01557500  0.52887800  0.00000000  1
  Cu  Cu3  1  0.22641200  0.25999000  0.50000000  1
  Cu  Cu4  1  0.22558400  0.73141700  0.50000000  1
  Cu  Cu5  1  0.50697000  0.46555200  0.00000000  1
  Cu  Cu6  1  0.46932000  0.97132200  0.00000000  1
  Cu  Cu7  1  0.79671100  0.34049500  0.50000000  1
  Cu  Cu8  1  0.71434700  0.64980400  0.50000000  1
  C  C9  1  0.11463900  0.42380200  0.50000000  1
  C  C10  1  0.12165900  0.92003400  0.50000000  1
  C  C11  1  0.15013700  0.16955600  0.00000000  1
  C  C12  1  0.14890700  0.66618400  0.00000000  1
  C  C13  1  0.60116000  0.36895900  0.50000000  1
  C  C14  1  0.61054900  0.61308600  0.00000000  1
  C  C15  1  0.87579000  0.38695300  0.00000000  1
  C  C16  1  0.90988000  0.61685900  0.50000000  1
  C  C17  1  0.35562600  0.32807100  0.00000000  1
  C  C18  1  0.35028500  0.81935300  0.00000000  1
  C  C19  1  0.38360600  0.08743100  0.50000000  1
  C  C20  1  0.38317100  0.56638400  0.50000000  1
  C  C21  1  0.60420800  0.87878100  0.50000000  1
  C  C22  1  0.64101400  0.08218900  0.00000000  1
  C  C23  1  0.87205200  0.93230400  0.00000000  1
  C  C24  1  0.87984500  0.14230900  0.50000000  1
