# generated using pymatgen
data_Cu3Ni3C31
_symmetry_space_group_name_H-M   'P 1'
_cell_length_a   8.78554567
_cell_length_b   8.77440041
_cell_length_c   22.63895630
_cell_angle_alpha   90.12711770
_cell_angle_beta   89.78013439
_cell_angle_gamma   120.02787292
_symmetry_Int_Tables_number   1
_chemical_formula_structural   Cu3Ni3C31
_chemical_formula_sum   'Cu9 Ni9 C93'
_cell_volume   1510.94255056
_cell_formula_units_Z   3
loop_
 _symmetry_equiv_pos_site_id
 _symmetry_equiv_pos_as_xyz
  1  'x, y, z'
loop_
 _atom_site_type_symbol
 _atom_site_label
 _atom_site_symmetry_multiplicity
 _atom_site_fract_x
 _atom_site_fract_y
 _atom_site_fract_z
 _atom_site_occupancy
  C  C0  1  0.66094023  0.68593619  0.08214243  1
  C  C1  1  0.33358855  0.29875419  0.91730946  1
  C  C2  1  0.33340953  0.03443584  0.41752869  1
  C  C3  1  0.99469257  0.00027073  0.49997503  1
  C  C4  1  0.00515697  0.99679395  0.99965609  1
  C  C5  1  0.67993713  0.33408539  0.83190882  1
  C  C6  1  0.67968831  0.34460791  0.33158014  1
  C  C7  1  0.31262218  0.65676823  0.16420386  1
  C  C8  1  0.33459270  0.67622949  0.66382372  1
  C  C9  1  0.99582199  0.00122581  0.34765997  1
  C  C10  1  0.99394243  0.99357931  0.84735058  1
  C  C11  1  0.67210032  0.33832282  0.98472560  1
  C  C12  1  0.66611867  0.33361845  0.48434605  1
  C  C13  1  0.31974252  0.66079533  0.02097064  1
  C  C14  1  0.33425826  0.67170761  0.52088688  1
  C  C15  1  0.00709611  0.00086360  0.65147313  1
  C  C16  1  0.01127029  0.00375115  0.15190839  1
  C  C17  1  0.66089528  0.32663882  0.68583930  1
  C  C18  1  0.66804936  0.33778323  0.18594408  1
  C  C19  1  0.33286274  0.66268851  0.31256431  1
  C  C20  1  0.33332401  0.67062197  0.81226066  1
  Ni  Ni21  1  0.29775763  0.00160925  0.25377260  1
  Ni  Ni22  1  0.70890983  0.70929712  0.25074589  1
  Ni  Ni23  1  0.99700210  0.29085718  0.25131989  1
  Ni  Ni24  1  0.29386361  0.29429155  0.75335060  1
  Ni  Ni25  1  0.99671005  0.70369798  0.75099346  1
  Ni  Ni26  1  0.71107316  0.00086011  0.75072903  1
  Ni  Ni27  1  0.37001938  0.03728615  0.58092864  1
  Ni  Ni28  1  0.96168397  0.62788736  0.08331915  1
  Ni  Ni29  1  0.37063671  0.33103292  0.08049868  1
  Cu  Cu30  1  0.96075062  0.33295901  0.58244763  1
  Cu  Cu31  1  0.66690882  0.62773060  0.58259001  1
  Cu  Cu32  1  0.66684125  0.04005801  0.08234245  1
  Cu  Cu33  1  0.62833802  0.66992197  0.91851926  1
  Cu  Cu34  1  0.03768004  0.37253559  0.91715357  1
  Cu  Cu35  1  0.33454059  0.95983136  0.91817462  1
  Cu  Cu36  1  0.62845292  0.95860763  0.41815777  1
  Cu  Cu37  1  0.33355761  0.37541923  0.41866766  1
  Cu  Cu38  1  0.03788531  0.66377593  0.41794666  1
  C  C39  1  0.22001313  0.02870941  0.30991058  1
  C  C40  1  0.82056398  0.79561657  0.30373347  1
  C  C41  1  0.97253733  0.18412757  0.30570174  1
  C  C42  1  0.21594443  0.18971839  0.80940407  1
  C  C43  1  0.96895145  0.78448347  0.80537998  1
  C  C44  1  0.81838668  0.02743824  0.80501557  1
  C  C45  1  0.78662622  0.96851181  0.69245370  1
  C  C46  1  0.18288446  0.21696672  0.69638145  1
  C  C47  1  0.03192237  0.81165193  0.69296590  1
  C  C48  1  0.78130226  0.81228244  0.19098089  1
  C  C49  1  0.02995112  0.21632622  0.19299613  1
  C  C50  1  0.18654307  0.96620344  0.19682653  1
  C  C51  1  0.88467220  0.36316366  0.63800411  1
  C  C52  1  0.48321349  0.12452917  0.63761709  1
  C  C53  1  0.64337824  0.52519458  0.63836373  1
  C  C54  1  0.88147498  0.51709557  0.14072166  1
  C  C55  1  0.63887810  0.11520043  0.13789587  1
  C  C56  1  0.48893902  0.36329568  0.13631016  1
  C  C57  1  0.44867710  0.29974795  0.02440371  1
  C  C58  1  0.84033722  0.54703394  0.03032893  1
  C  C59  1  0.69507182  0.15053585  0.03083945  1
  C  C60  1  0.44977314  0.14704772  0.52515512  1
  C  C61  1  0.69731638  0.54560323  0.53118059  1
  C  C62  1  0.85034363  0.30667233  0.53100545  1
  C  C63  1  0.54299341  0.69081732  0.97146277  1
  C  C64  1  0.15463247  0.45955157  0.96758172  1
  C  C65  1  0.31300081  0.84962603  0.96869882  1
  C  C66  1  0.54014531  0.84800609  0.46928573  1
  C  C67  1  0.31184689  0.46407183  0.46934467  1
  C  C68  1  0.15460776  0.69290649  0.46820886  1
  C  C69  1  0.11497021  0.63322640  0.36192982  1
  C  C70  1  0.51237066  0.88179017  0.36332271  1
  C  C71  1  0.36342904  0.48066825  0.36241178  1
  C  C72  1  0.11575768  0.48114069  0.86155269  1
  C  C73  1  0.36372199  0.88396515  0.86177354  1
  C  C74  1  0.50985303  0.63330245  0.86477563  1
  C  C75  1  0.02744004  0.82705832  0.41141470  1
  C  C76  1  0.80140239  0.97491326  0.41048763  1
  C  C77  1  0.17589470  0.19720944  0.41271290  1
  C  C78  1  0.02743553  0.19897107  0.91064344  1
  C  C79  1  0.17650191  0.97961586  0.91236769  1
  C  C80  1  0.80104552  0.82687182  0.91078496  1
  C  C81  1  0.96988048  0.16618607  0.58849539  1
  C  C82  1  0.18495908  0.02684010  0.58800489  1
  C  C83  1  0.82915234  0.80752399  0.58810017  1
  C  C84  1  0.96614568  0.81112921  0.09024543  1
  C  C85  1  0.82772635  0.02052824  0.08799606  1
  C  C86  1  0.18489220  0.16467391  0.08839490  1
  C  C87  1  0.69042431  0.16657572  0.74417966  1
  C  C88  1  0.47927024  0.31459773  0.74540206  1
  C  C89  1  0.83178636  0.51756028  0.74281438  1
  C  C90  1  0.68655511  0.52224518  0.24546181  1
  C  C91  1  0.83139576  0.31026914  0.24431605  1
  C  C92  1  0.48229979  0.16681782  0.24491066  1
  C  C93  1  0.64054326  0.50667608  0.92143798  1
  C  C94  1  0.86275440  0.35323831  0.92328892  1
  C  C95  1  0.49229828  0.13906965  0.92182164  1
  C  C96  1  0.64222060  0.13484018  0.42274313  1
  C  C97  1  0.49150496  0.35408017  0.42216864  1
  C  C98  1  0.86256455  0.50774359  0.42404708  1
  C  C99  1  0.35923502  0.49991848  0.07692604  1
  C  C100  1  0.14576970  0.65688251  0.07806600  1
  C  C101  1  0.51465712  0.86129372  0.07664028  1
  C  C102  1  0.34684523  0.85344522  0.57824404  1
  C  C103  1  0.51082290  0.64554933  0.57739020  1
  C  C104  1  0.13789420  0.48438086  0.57698098  1
  C  C105  1  0.31838335  0.83533882  0.25661285  1
  C  C106  1  0.52121457  0.68744194  0.25448543  1
  C  C107  1  0.16329135  0.47946128  0.25445692  1
  C  C108  1  0.31628874  0.48205816  0.75609088  1
  C  C109  1  0.16287521  0.68216436  0.75469370  1
  C  C110  1  0.52220895  0.83543091  0.75419949  1
