# generated using pymatgen
data_CuNi2C17
_symmetry_space_group_name_H-M   'P 1'
_cell_length_a   9.07474051
_cell_length_b   9.05526023
_cell_length_c   22.47096490
_cell_angle_alpha   90.60759077
_cell_angle_beta   89.78445514
_cell_angle_gamma   120.12967143
_symmetry_Int_Tables_number   1
_chemical_formula_structural   CuNi2C17
_chemical_formula_sum   'Cu6 Ni12 C102'
_cell_volume   1596.95772362
_cell_formula_units_Z   6
loop_
 _symmetry_equiv_pos_site_id
 _symmetry_equiv_pos_as_xyz
  1  'x, y, z'
loop_
 _atom_site_type_symbol
 _atom_site_label
 _atom_site_symmetry_multiplicity
 _atom_site_fract_x
 _atom_site_fract_y
 _atom_site_fract_z
 _atom_site_occupancy
  C  C0  1  0.99371645  0.36212086  0.75505995  1
  C  C1  1  0.39190249  0.01235007  0.74865807  1
  C  C2  1  0.32196393  0.34021772  0.58453660  1
  C  C3  1  0.03005088  0.70276121  0.57673120  1
  C  C4  1  0.65516752  0.96912535  0.58828113  1
  C  C5  1  0.32185776  0.97964241  0.08613402  1
  C  C6  1  0.65226640  0.67743463  0.08677936  1
  C  C7  1  0.02666157  0.34394299  0.08701802  1
  C  C8  1  0.33555331  0.29695928  0.92292744  1
  C  C9  1  0.96151220  0.28808536  0.41514547  1
  C  C10  1  0.32184424  0.03179198  0.41476209  1
  C  C11  1  0.71380169  0.67979793  0.41473088  1
  C  C12  1  0.00146306  0.99651688  0.49594159  1
  C  C13  1  0.99254938  0.98744025  0.99483596  1
  C  C14  1  0.66449305  0.32622959  0.83594606  1
  C  C15  1  0.66934583  0.33259740  0.32735077  1
  C  C16  1  0.33560888  0.66580614  0.16905514  1
  C  C17  1  0.36513089  0.67082460  0.67001729  1
  C  C18  1  0.00069937  0.99917642  0.35129367  1
  C  C19  1  0.65525786  0.33392748  0.68751995  1
  C  C20  1  0.66537052  0.33247094  0.18078742  1
  C  C21  1  0.00917679  0.02367855  0.85619628  1
  C  C22  1  0.99626261  0.00000731  0.64993355  1
  C  C23  1  0.00315437  0.00231256  0.14032574  1
  C  C24  1  0.67352579  0.31627351  0.98287405  1
  C  C25  1  0.64840526  0.34027122  0.47694598  1
  C  C26  1  0.31778696  0.66758182  0.01736584  1
  C  C27  1  0.34459055  0.68052162  0.51616491  1
  C  C28  1  0.33099093  0.66607903  0.32012474  1
  C  C29  1  0.34082650  0.67230972  0.81608613  1
  Ni  Ni30  1  0.28690622  0.29675136  0.75260300  1
  Ni  Ni31  1  0.71034125  0.98815583  0.75383379  1
  Ni  Ni32  1  0.36836570  0.03470319  0.58398325  1
  Ni  Ni33  1  0.66452782  0.63410975  0.58209803  1
  Ni  Ni34  1  0.95721820  0.62220801  0.08150406  1
  Ni  Ni35  1  0.66034628  0.02819457  0.08256304  1
  Ni  Ni36  1  0.37530375  0.34039145  0.07940638  1
  Ni  Ni37  1  0.03723300  0.38423286  0.91463964  1
  Ni  Ni38  1  0.33401517  0.95999326  0.91537684  1
  Ni  Ni39  1  0.61768284  0.96397122  0.41716551  1
  Ni  Ni40  1  0.33712947  0.38658779  0.41909093  1
  Ni  Ni41  1  0.03864599  0.65271636  0.41966556  1
  Cu  Cu42  1  0.29443534  0.98747463  0.24984147  1
  Cu  Cu43  1  0.69227696  0.70567587  0.25000175  1
  Cu  Cu44  1  0.01223665  0.30547165  0.25030931  1
  Cu  Cu45  1  0.01073160  0.72194118  0.75151595  1
  Cu  Cu46  1  0.96581090  0.33208204  0.58323910  1
  Cu  Cu47  1  0.62523655  0.66817605  0.91545527  1
  C  C48  1  0.21604168  -0.00124230  0.30598015  1
  C  C49  1  0.78092058  0.78594754  0.30620263  1
  C  C50  1  0.00201723  0.21663981  0.30606974  1
  C  C51  1  0.17942590  0.17821066  0.81065591  1
  C  C52  1  0.99722854  0.81031112  0.80421118  1
  C  C53  1  0.83338391  -0.00339657  0.80858782  1
  C  C54  1  0.80506418  0.97100307  0.69086570  1
  C  C55  1  0.16236450  0.18855759  0.69325641  1
  C  C56  1  0.02154452  0.81698734  0.69496330  1
  C  C57  1  0.79063508  0.81112618  0.19717558  1
  C  C58  1  0.02030312  0.20608830  0.19706403  1
  C  C59  1  0.18806726  0.97997785  0.19686110  1
  C  C60  1  0.89524467  0.36020508  0.63832476  1
  C  C61  1  0.48444814  0.08851266  0.64246094  1
  C  C62  1  0.61154318  0.50949132  0.63681157  1
  C  C63  1  0.91017019  0.50302739  0.13775576  1
  C  C64  1  0.59030232  0.08438341  0.13742824  1
  C  C65  1  0.49632217  0.40381806  0.13599532  1
  C  C66  1  0.45678987  0.28920205  0.02202218  1
  C  C67  1  0.82055053  0.52883718  0.02611598  1
  C  C68  1  0.70978114  0.16784497  0.02677561  1
  C  C69  1  0.47107064  0.17034329  0.52712143  1
  C  C70  1  0.69809829  0.53843560  0.52255044  1
  C  C71  1  0.85842170  0.30957842  0.53052024  1
  C  C72  1  0.54669335  0.68808927  0.97008419  1
  C  C73  1  0.16380530  0.47363163  0.97146925  1
  C  C74  1  0.31675685  0.84124475  0.97219031  1
  C  C75  1  0.52111841  0.84673980  0.47561703  1
  C  C76  1  0.32181980  0.48072076  0.47875175  1
  C  C77  1  0.15409873  0.66968190  0.47757958  1
  C  C78  1  0.13874591  0.62917710  0.36050561  1
  C  C79  1  0.48964342  0.86239317  0.35974294  1
  C  C80  1  0.36799545  0.51117800  0.36096151  1
  C  C81  1  0.13951715  0.49833939  0.85540213  1
  C  C82  1  0.35593021  0.86025050  0.85580890  1
  C  C83  1  0.51284989  0.64949742  0.86257210  1
  C  C84  1  0.01995861  0.82021214  0.41821514  1
  C  C85  1  0.80265050  0.98187770  0.41735893  1
  C  C86  1  0.17609631  0.19729131  0.41794442  1
  C  C87  1  0.02165597  0.19136725  0.91071070  1
  C  C88  1  0.16414160  0.98254677  0.90973836  1
  C  C89  1  0.79792672  0.81798930  0.91005398  1
  C  C90  1  0.97626073  0.17098700  0.58634872  1
  C  C91  1  0.18134079  0.02559144  0.58990558  1
  C  C92  1  0.84292208  0.82263087  0.58813736  1
  C  C93  1  0.97380407  0.81543720  0.09295647  1
  C  C94  1  0.84162251  0.02311835  0.09357262  1
  C  C95  1  0.18250629  0.15942480  0.09336009  1
  C  C96  1  0.70601357  0.16400405  0.75466735  1
  C  C97  1  0.46243242  0.29713923  0.75606699  1
  C  C98  1  0.86692676  0.54591226  0.74897289  1
  C  C99  1  0.67207803  0.53434952  0.24786680  1
  C  C100  1  0.86171095  0.32557132  0.24782995  1
  C  C101  1  0.46575876  0.13825803  0.24788695  1
  C  C102  1  0.63041684  0.50723287  0.91573193  1
  C  C103  1  0.84857963  0.36277060  0.92268284  1
  C  C104  1  0.50264846  0.15269356  0.92177369  1
  C  C105  1  0.62743425  0.14890456  0.42338656  1
  C  C106  1  0.51450044  0.37456170  0.42123731  1
  C  C107  1  0.85173381  0.47640845  0.42381209  1
  C  C108  1  0.32963423  0.49138370  0.06665037  1
  C  C109  1  0.15753914  0.67199116  0.06833878  1
  C  C110  1  0.51264716  0.83325951  0.06564044  1
  C  C111  1  0.32820000  0.83703803  0.57227958  1
  C  C112  1  0.50232635  0.66757038  0.57405302  1
  C  C113  1  0.14244153  0.48027538  0.57813355  1
  C  C114  1  0.30033647  0.82473054  0.24930456  1
  C  C115  1  0.52252057  0.69735070  0.24992991  1
  C  C116  1  0.17445357  0.47521594  0.25024733  1
  C  C117  1  0.29010841  0.47957793  0.75468028  1
  C  C118  1  0.17326301  0.71526114  0.75135144  1
  C  C119  1  0.51594891  0.82080572  0.75755556  1
