# generated using pymatgen
data_Cu6Ni2C9
_symmetry_space_group_name_H-M   'P 1'
_cell_length_a   6.28643663
_cell_length_b   6.28643663
_cell_length_c   4.84069400
_cell_angle_alpha   90.00000000
_cell_angle_beta   90.00000000
_cell_angle_gamma   120.00000661
_symmetry_Int_Tables_number   1
_chemical_formula_structural   Cu6Ni2C9
_chemical_formula_sum   'Cu6 Ni2 C9'
_cell_volume   165.67131389
_cell_formula_units_Z   1
loop_
 _symmetry_equiv_pos_site_id
 _symmetry_equiv_pos_as_xyz
  1  'x, y, z'
loop_
 _atom_site_type_symbol
 _atom_site_label
 _atom_site_symmetry_multiplicity
 _atom_site_fract_x
 _atom_site_fract_y
 _atom_site_fract_z
 _atom_site_occupancy
  C  C0  1  0.00000000  0.00000000  0.00000000  1
  C  C1  1  0.33333300  0.66666700  0.84677000  1
  C  C2  1  0.66666700  0.33333300  0.15323000  1
  C  C3  1  0.51066600  0.75533300  0.55747300  1
  C  C4  1  0.24466700  0.75533300  0.55747300  1
  C  C5  1  0.24466700  0.48933400  0.55747300  1
  C  C6  1  0.75533300  0.24466700  0.44252700  1
  C  C7  1  0.48933400  0.24466700  0.44252700  1
  C  C8  1  0.75533300  0.51066600  0.44252700  1
  Ni  Ni9  1  0.33333300  0.66666700  0.63487500  1
  Ni  Ni10  1  0.66666700  0.33333300  0.36512500  1
  Cu  Cu11  1  0.30497100  0.15248500  0.76726800  1
  Cu  Cu12  1  0.84751500  0.15248500  0.76726800  1
  Cu  Cu13  1  0.84751500  0.69502900  0.76726800  1
  Cu  Cu14  1  0.15248500  0.84751500  0.23273200  1
  Cu  Cu15  1  0.69502900  0.84751500  0.23273200  1
  Cu  Cu16  1  0.15248500  0.30497100  0.23273200  1
