# generated using pymatgen
data_CuNiC4
_symmetry_space_group_name_H-M   'P 1'
_cell_length_a   7.61099557
_cell_length_b   7.61099557
_cell_length_c   9.00518380
_cell_angle_alpha   54.11146333
_cell_angle_beta   54.11146333
_cell_angle_gamma   61.58429573
_symmetry_Int_Tables_number   1
_chemical_formula_structural   CuNiC4
_chemical_formula_sum   'Cu4 Ni4 C16'
_cell_volume   335.36670558
_cell_formula_units_Z   4
loop_
 _symmetry_equiv_pos_site_id
 _symmetry_equiv_pos_as_xyz
  1  'x, y, z'
loop_
 _atom_site_type_symbol
 _atom_site_label
 _atom_site_symmetry_multiplicity
 _atom_site_fract_x
 _atom_site_fract_y
 _atom_site_fract_z
 _atom_site_occupancy
  C  C0  1  0.64856600  0.35143400  0.75000000  1
  C  C1  1  0.35143400  0.64856600  0.25000000  1
  Ni  Ni2  1  0.28520600  0.78257600  0.63473300  1
  Ni  Ni3  1  0.21742400  0.71479400  0.86526700  1
  Ni  Ni4  1  0.71479400  0.21742400  0.36526700  1
  Ni  Ni5  1  0.78257600  0.28520600  0.13473300  1
  Cu  Cu6  1  0.21389700  0.17019200  0.80453600  1
  Cu  Cu7  1  0.82980800  0.78610300  0.69546400  1
  Cu  Cu8  1  0.78610300  0.82980800  0.19546400  1
  Cu  Cu9  1  0.17019200  0.21389700  0.30453600  1
  C  C10  1  0.32411600  0.67588400  0.75000000  1
  C  C11  1  0.67588400  0.32411600  0.25000000  1
  C  C12  1  0.09912800  0.27690100  0.48705800  1
  C  C13  1  0.72309900  0.90087200  0.01294200  1
  C  C14  1  0.90087200  0.72309900  0.51294200  1
  C  C15  1  0.27690100  0.09912800  0.98705800  1
  C  C16  1  0.25519300  0.93315900  0.39976800  1
  C  C17  1  0.06684100  0.74480700  0.10023200  1
  C  C18  1  0.74480700  0.06684100  0.60023200  1
  C  C19  1  0.93315900  0.25519300  0.89976800  1
  C  C20  1  0.40401200  0.31039900  0.12191800  1
  C  C21  1  0.68960100  0.59598800  0.37808200  1
  C  C22  1  0.59598800  0.68960100  0.87808200  1
  C  C23  1  0.31039900  0.40401200  0.62191800  1
