# generated using pymatgen
data_Cu4NiC12
_symmetry_space_group_name_H-M   'P 1'
_cell_length_a   6.22542681
_cell_length_b   6.22854429
_cell_length_c   8.81400897
_cell_angle_alpha   115.41109876
_cell_angle_beta   115.66305308
_cell_angle_gamma   90.23514757
_symmetry_Int_Tables_number   1
_chemical_formula_structural   Cu4NiC12
_chemical_formula_sum   'Cu4 Ni1 C12'
_cell_volume   270.57135338
_cell_formula_units_Z   1
loop_
 _symmetry_equiv_pos_site_id
 _symmetry_equiv_pos_as_xyz
  1  'x, y, z'
loop_
 _atom_site_type_symbol
 _atom_site_label
 _atom_site_symmetry_multiplicity
 _atom_site_fract_x
 _atom_site_fract_y
 _atom_site_fract_z
 _atom_site_occupancy
  C  C0  1  0.07936099  0.05028366  0.02789594  1
  C  C1  1  0.65556060  0.11114043  0.15695249  1
  C  C2  1  0.44715557  0.42211906  0.46992748  1
  C  C3  1  0.38611002  0.84813583  0.34391693  1
  Ni  Ni4  1  0.58365490  0.91557762  0.74989085  1
  Cu  Cu5  1  0.93402150  0.44670411  0.87090590  1
  Cu  Cu6  1  0.03026681  0.03057462  0.59918807  1
  Cu  Cu7  1  0.05171607  0.56600041  0.62793766  1
  Cu  Cu8  1  0.46997076  0.46822232  0.89977789  1
  C  C9  1  0.22771207  0.77934981  0.56403488  1
  C  C10  1  0.68689707  0.69954205  0.88869156  1
  C  C11  1  0.72132903  0.27060476  0.93515813  1
  C  C12  1  0.79907353  0.81367961  0.61069807  1
  C  C13  1  0.26135309  0.27266884  0.92585640  1
  C  C14  1  0.80116087  0.24060685  0.56205447  1
  C  C15  1  0.22457619  0.23837207  0.57145553  1
  C  C16  1  0.25976792  0.69661697  0.93660476  1
