# generated using pymatgen
data_Cu4Ni12C47
_symmetry_space_group_name_H-M   'P 1'
_cell_length_a   9.38226567
_cell_length_b   9.38226532
_cell_length_c   22.81180993
_cell_angle_alpha   90.00000000
_cell_angle_beta   90.00000000
_cell_angle_gamma   120.00000121
_symmetry_Int_Tables_number   1
_chemical_formula_structural   Cu4Ni12C47
_chemical_formula_sum   'Cu8 Ni24 C94'
_cell_volume   1739.02492661
_cell_formula_units_Z   2
loop_
 _symmetry_equiv_pos_site_id
 _symmetry_equiv_pos_as_xyz
  1  'x, y, z'
loop_
 _atom_site_type_symbol
 _atom_site_label
 _atom_site_symmetry_multiplicity
 _atom_site_fract_x
 _atom_site_fract_y
 _atom_site_fract_z
 _atom_site_occupancy
  Ni  Ni0  1  0.64887200  0.00821954  0.24542666  1
  Ni  Ni1  1  0.35934754  0.35112800  0.24542666  1
  Ni  Ni2  1  0.99178046  0.64065246  0.24542666  1
  Ni  Ni3  1  0.64887200  0.64065246  0.74542666  1
  Ni  Ni4  1  0.99178046  0.35112800  0.74542666  1
  Ni  Ni5  1  0.35934754  0.00821954  0.74542666  1
  Ni  Ni6  1  0.29456904  0.33992207  0.57815269  1
  Ni  Ni7  1  0.04535403  0.70543096  0.57815269  1
  Ni  Ni8  1  0.66007793  0.95464597  0.57815269  1
  Ni  Ni9  1  0.29456904  0.95464597  0.07815269  1
  Ni  Ni10  1  0.66007793  0.70543096  0.07815269  1
  Ni  Ni11  1  0.04535403  0.33992207  0.07815269  1
  Ni  Ni12  1  0.98452054  0.69449107  0.91544649  1
  Ni  Ni13  1  0.70996954  0.01547946  0.91544649  1
  Ni  Ni14  1  0.30550893  0.29003046  0.91544649  1
  Ni  Ni15  1  0.98452054  0.29003046  0.41544649  1
  Ni  Ni16  1  0.30550893  0.01547946  0.41544649  1
  Ni  Ni17  1  0.70996954  0.69449107  0.41544649  1
  Ni  Ni18  1  0.00000000  0.00000000  0.49370561  1
  Ni  Ni19  1  0.00000000  0.00000000  0.99370561  1
  Ni  Ni20  1  0.66666700  0.33333300  0.82941628  1
  Ni  Ni21  1  0.66666700  0.33333300  0.32941628  1
  Ni  Ni22  1  0.33333300  0.66666700  0.16166840  1
  Ni  Ni23  1  0.33333300  0.66666700  0.66166840  1
  Cu  Cu24  1  0.00000000  0.00000000  0.34671223  1
  Cu  Cu25  1  0.00000000  0.00000000  0.84671223  1
  Cu  Cu26  1  0.00000000  0.00000000  0.65040202  1
  Cu  Cu27  1  0.00000000  0.00000000  0.15040202  1
  Cu  Cu28  1  0.66666700  0.33333300  0.68308529  1
  Cu  Cu29  1  0.66666700  0.33333300  0.18308529  1
  Cu  Cu30  1  0.33333300  0.66666700  0.01436944  1
  Cu  Cu31  1  0.33333300  0.66666700  0.51436944  1
  C  C32  1  0.66666700  0.33333300  0.97809919  1
  C  C33  1  0.66666700  0.33333300  0.47809919  1
  C  C34  1  0.33333300  0.66666700  0.32339473  1
  C  C35  1  0.33333300  0.66666700  0.82339473  1
  C  C36  1  0.63021821  0.65991447  0.92068898  1
  C  C37  1  0.02969527  0.36978179  0.92068898  1
  C  C38  1  0.34008553  0.97030473  0.92068898  1
  C  C39  1  0.63021821  0.97030473  0.42068898  1
  C  C40  1  0.34008553  0.36978179  0.42068898  1
  C  C41  1  0.02969527  0.65991447  0.42068898  1
  C  C42  1  0.30681194  0.98656458  0.25277331  1
  C  C43  1  0.67975264  0.69318806  0.25277331  1
  C  C44  1  0.01343542  0.32024736  0.25277331  1
  C  C45  1  0.30681194  0.32024736  0.75277331  1
  C  C46  1  0.01343542  0.69318806  0.75277331  1
  C  C47  1  0.67975264  0.98656458  0.75277331  1
  C  C48  1  0.95550386  0.33099950  0.58194371  1
  C  C49  1  0.37549663  0.04449614  0.58194371  1
  C  C50  1  0.66900050  0.62450337  0.58194371  1
  C  C51  1  0.95550386  0.62450337  0.08194371  1
  C  C52  1  0.66900050  0.04449614  0.08194371  1
  C  C53  1  0.37549663  0.33099950  0.08194371  1
  C  C54  1  0.22552672  0.01308341  0.30623119  1
  C  C55  1  0.78755669  0.77447328  0.30623119  1
  C  C56  1  0.98691659  0.21244331  0.30623119  1
  C  C57  1  0.22552672  0.21244331  0.80623119  1
  C  C58  1  0.98691659  0.77447328  0.80623119  1
  C  C59  1  0.78755669  0.01308341  0.80623119  1
  C  C60  1  0.75203956  0.95362230  0.69674087  1
  C  C61  1  0.20158274  0.24796044  0.69674087  1
  C  C62  1  0.04637770  0.79841726  0.69674087  1
  C  C63  1  0.75203956  0.79841726  0.19674087  1
  C  C64  1  0.04637770  0.24796044  0.19674087  1
  C  C65  1  0.20158274  0.95362230  0.19674087  1
  C  C66  1  0.87910134  0.34254124  0.63894336  1
  C  C67  1  0.46344090  0.12089866  0.63894336  1
  C  C68  1  0.65745876  0.53655910  0.63894336  1
  C  C69  1  0.87910134  0.53655910  0.13894336  1
  C  C70  1  0.65745876  0.12089866  0.13894336  1
  C  C71  1  0.46344090  0.34254124  0.13894336  1
  C  C72  1  0.48713413  0.32891413  0.02827215  1
  C  C73  1  0.84178100  0.51286587  0.02827215  1
  C  C74  1  0.67108587  0.15821900  0.02827215  1
  C  C75  1  0.48713413  0.15821900  0.52827215  1
  C  C76  1  0.67108587  0.51286587  0.52827215  1
  C  C77  1  0.84178100  0.32891413  0.52827215  1
  C  C78  1  0.56225565  0.69586976  0.97899835  1
  C  C79  1  0.13361311  0.43774435  0.97899835  1
  C  C80  1  0.30413024  0.86638689  0.97899835  1
  C  C81  1  0.56225565  0.86638689  0.47899835  1
  C  C82  1  0.30413024  0.43774435  0.47899835  1
  C  C83  1  0.13361311  0.69586976  0.47899835  1
  C  C84  1  0.13917197  0.63528044  0.36480996  1
  C  C85  1  0.49610747  0.86082803  0.36480996  1
  C  C86  1  0.36471956  0.50389253  0.36480996  1
  C  C87  1  0.13917197  0.50389253  0.86480996  1
  C  C88  1  0.36471956  0.86082803  0.86480996  1
  C  C89  1  0.49610747  0.63528044  0.86480996  1
  C  C90  1  0.99182947  0.80589770  0.40841888  1
  C  C91  1  0.81406823  0.00817053  0.40841888  1
  C  C92  1  0.19410230  0.18593177  0.40841888  1
  C  C93  1  0.99182947  0.18593177  0.90841888  1
  C  C94  1  0.19410230  0.00817053  0.90841888  1
  C  C95  1  0.81406823  0.80589770  0.90841888  1
  C  C96  1  0.95844573  0.16741102  0.57637284  1
  C  C97  1  0.20896529  0.04155427  0.57637284  1
  C  C98  1  0.83258898  0.79103471  0.57637284  1
  C  C99  1  0.95844573  0.79103471  0.07637284  1
  C  C100  1  0.83258898  0.04155427  0.07637284  1
  C  C101  1  0.20896529  0.16741102  0.07637284  1
  C  C102  1  0.64899556  0.13354633  0.74882451  1
  C  C103  1  0.48455177  0.35100444  0.74882451  1
  C  C104  1  0.86645367  0.51544823  0.74882451  1
  C  C105  1  0.64899556  0.51544823  0.24882451  1
  C  C106  1  0.86645367  0.35100444  0.24882451  1
  C  C107  1  0.48455177  0.13354633  0.24882451  1
  C  C108  1  0.62824998  0.47875863  0.92394011  1
  C  C109  1  0.85050965  0.37175002  0.92394011  1
  C  C110  1  0.52124137  0.14949035  0.92394011  1
  C  C111  1  0.62824998  0.14949035  0.42394011  1
  C  C112  1  0.52124137  0.37175002  0.42394011  1
  C  C113  1  0.85050965  0.47875863  0.42394011  1
  C  C114  1  0.35441733  0.48358280  0.07892300  1
  C  C115  1  0.12916447  0.64558267  0.07892300  1
  C  C116  1  0.51641720  0.87083553  0.07892300  1
  C  C117  1  0.35441733  0.87083553  0.57892300  1
  C  C118  1  0.51641720  0.64558267  0.57892300  1
  C  C119  1  0.12916447  0.48358280  0.57892300  1
  C  C120  1  0.31911566  0.82366447  0.26147521  1
  C  C121  1  0.50454781  0.68088434  0.26147521  1
  C  C122  1  0.17633553  0.49545219  0.26147521  1
  C  C123  1  0.31911566  0.49545219  0.76147521  1
  C  C124  1  0.17633553  0.68088434  0.76147521  1
  C  C125  1  0.50454781  0.82366447  0.76147521  1
