# generated using pymatgen
data_Cu2Ni5C32
_symmetry_space_group_name_H-M   'P 1'
_cell_length_a   9.13686650
_cell_length_b   9.13572411
_cell_length_c   23.06251062
_cell_angle_alpha   89.81328492
_cell_angle_beta   89.99329506
_cell_angle_gamma   119.93874557
_symmetry_Int_Tables_number   1
_chemical_formula_structural   Cu2Ni5C32
_chemical_formula_sum   'Cu6 Ni15 C96'
_cell_volume   1668.17657652
_cell_formula_units_Z   3
loop_
 _symmetry_equiv_pos_site_id
 _symmetry_equiv_pos_as_xyz
  1  'x, y, z'
loop_
 _atom_site_type_symbol
 _atom_site_label
 _atom_site_symmetry_multiplicity
 _atom_site_fract_x
 _atom_site_fract_y
 _atom_site_fract_z
 _atom_site_occupancy
  Ni  Ni0  1  0.36307762  0.35621649  0.24919454  1
  Ni  Ni1  1  0.00429064  0.64101399  0.24534985  1
  Ni  Ni2  1  0.63738626  0.64477733  0.74726202  1
  Ni  Ni3  1  0.99340093  0.35460405  0.75499838  1
  Ni  Ni4  1  0.31898456  0.34522818  0.58396523  1
  Ni  Ni5  1  0.66751128  0.96293854  0.58688594  1
  Ni  Ni6  1  0.29858853  0.96538903  0.08504421  1
  Ni  Ni7  1  0.69758780  0.03047266  0.91679035  1
  Ni  Ni8  1  0.69676981  0.66564571  0.41955430  1
  Ni  Ni9  1  0.00351511  0.98734708  0.50012486  1
  Ni  Ni10  1  0.99983096  0.99950489  0.00047016  1
  Ni  Ni11  1  0.65310116  0.32374483  0.83810809  1
  Ni  Ni12  1  0.65610912  0.29731080  0.32932002  1
  Ni  Ni13  1  0.34687355  0.67483991  0.16502523  1
  Ni  Ni14  1  0.34089673  0.68897927  0.66789751  1
  Cu  Cu15  1  0.00905118  0.01004818  0.34527494  1
  Cu  Cu16  1  0.99545491  0.98593230  0.65161397  1
  Cu  Cu17  1  0.66310818  0.33022617  0.68492235  1
  Cu  Cu18  1  0.67129048  0.33474952  0.48101781  1
  Cu  Cu19  1  0.32548472  0.66723814  0.51387056  1
  Cu  Cu20  1  0.33568170  0.67376738  0.82381981  1
  C  C21  1  0.00052312  0.99846746  0.84841796  1
  C  C22  1  0.00007098  0.99722087  0.15538896  1
  C  C23  1  0.65869735  0.31660559  0.17711216  1
  C  C24  1  0.67115371  0.34540311  0.98982190  1
  C  C25  1  0.32865164  0.65081108  0.01344653  1
  C  C26  1  0.33718726  0.69429495  0.31564741  1
  C  C27  1  0.30502090  0.00239714  0.24426398  1
  C  C28  1  0.70558487  0.00058785  0.75410715  1
  C  C29  1  0.66377675  0.63843022  0.58181968  1
  C  C30  1  0.69776234  0.69665239  0.24851832  1
  C  C31  1  0.99881498  0.30234170  0.24633555  1
  C  C32  1  0.29460378  0.29645279  0.75240249  1
  C  C33  1  0.00036234  0.70138882  0.75431617  1
  C  C34  1  0.97124284  0.33225433  0.58566231  1
  C  C35  1  0.36671434  0.03388784  0.58246782  1
  C  C36  1  0.96325718  0.62933230  0.08451037  1
  C  C37  1  0.66734231  0.03566291  0.08116391  1
  C  C38  1  0.37172619  0.33484322  0.08365164  1
  C  C39  1  0.63621378  0.66444517  0.91927919  1
  C  C40  1  0.02630848  0.36147198  0.91893970  1
  C  C41  1  0.33468971  0.97443602  0.92236594  1
  C  C42  1  0.63113373  0.96190764  0.41461406  1
  C  C43  1  0.33376927  0.37430070  0.41311174  1
  C  C44  1  0.03177781  0.66563871  0.41114457  1
  C  C45  1  0.22691966  0.03953898  0.29712893  1
  C  C46  1  0.79374571  0.76826517  0.30297090  1
  C  C47  1  0.96901471  0.20495997  0.30015205  1
  C  C48  1  0.20337988  0.18874877  0.80244492  1
  C  C49  1  0.98797852  0.79240001  0.80521516  1
  C  C50  1  0.81613259  0.01660864  0.80817271  1
  C  C51  1  0.78590380  0.98421597  0.69716892  1
  C  C52  1  0.20838012  0.22264132  0.69676668  1
  C  C53  1  0.02182095  0.79369099  0.70005205  1
  C  C54  1  0.78461397  0.80910889  0.19854161  1
  C  C55  1  0.02403657  0.21505532  0.19617918  1
  C  C56  1  0.19011830  0.96750205  0.18956184  1
  C  C57  1  0.89341557  0.34487851  0.64019531  1
  C  C58  1  0.46802897  0.11342892  0.63488255  1
  C  C59  1  0.64856970  0.53644770  0.63751024  1
  C  C60  1  0.88482803  0.53150518  0.13876569  1
  C  C61  1  0.63728984  0.11885929  0.13176864  1
  C  C62  1  0.46984048  0.36080973  0.13839086  1
  C  C63  1  0.45820388  0.30688689  0.03375242  1
  C  C64  1  0.85961727  0.54443560  0.03307999  1
  C  C65  1  0.69118276  0.13618351  0.02710671  1
  C  C66  1  0.45159788  0.13333369  0.53022532  1
  C  C67  1  0.67113829  0.54824739  0.52641566  1
  C  C68  1  0.86413568  0.31267909  0.53534591  1
  C  C69  1  0.54255657  0.69184617  0.96736586  1
  C  C70  1  0.13771797  0.45443752  0.96813057  1
  C  C71  1  0.30998038  0.86817251  0.97508235  1
  C  C72  1  0.55564286  0.87269197  0.47001149  1
  C  C73  1  0.32384246  0.45228631  0.46814339  1
  C  C74  1  0.12570376  0.67735927  0.46389103  1
  C  C75  1  0.11844778  0.65615561  0.35783306  1
  C  C76  1  0.52507598  0.86794189  0.36438793  1
  C  C77  1  0.34462763  0.47946383  0.36179872  1
  C  C78  1  0.09544911  0.45175071  0.86327294  1
  C  C79  1  0.36608007  0.89684575  0.87087609  1
  C  C80  1  0.54459196  0.63835830  0.86354065  1
  C  C81  1  0.00684771  0.81532675  0.41039230  1
  C  C82  1  0.79723059  0.96839936  0.41089871  1
  C  C83  1  0.18522794  0.20286081  0.41158862  1
  C  C84  1  0.00708428  0.18807108  0.91669648  1
  C  C85  1  0.18283867  0.99250952  0.91433821  1
  C  C86  1  0.80433952  0.82508242  0.91592409  1
  C  C87  1  0.99197447  0.17967829  0.58616250  1
  C  C88  1  0.20092255  0.02643372  0.58531426  1
  C  C89  1  0.81802745  0.82013653  0.58116782  1
  C  C90  1  0.98470178  0.80392228  0.08776866  1
  C  C91  1  0.81746918  0.01559981  0.08952066  1
  C  C92  1  0.20243814  0.17600322  0.08816991  1
  C  C93  1  0.69609787  0.16563669  0.75368430  1
  C  C94  1  0.47084416  0.32748070  0.75252514  1
  C  C95  1  0.83856684  0.53412101  0.75276302  1
  C  C96  1  0.68598065  0.52703816  0.24149680  1
  C  C97  1  0.85419852  0.33405359  0.23870889  1
  C  C98  1  0.48268283  0.16355855  0.23719445  1
  C  C99  1  0.65695706  0.51501457  0.92847601  1
  C  C100  1  0.85229622  0.33885105  0.92576650  1
  C  C101  1  0.49325853  0.14372021  0.92792140  1
  C  C102  1  0.65226761  0.13297042  0.41436874  1
  C  C103  1  0.49404339  0.36615266  0.41296422  1
  C  C104  1  0.86004372  0.51215078  0.41187489  1
  C  C105  1  0.35158730  0.48603569  0.07559046  1
  C  C106  1  0.13844077  0.65193815  0.07901545  1
  C  C107  1  0.50675983  0.86627455  0.07672229  1
  C  C108  1  0.34743987  0.86297477  0.58014782  1
  C  C109  1  0.49991815  0.65408956  0.58227660  1
  C  C110  1  0.14257123  0.48265972  0.58169222  1
  C  C111  1  0.31231134  0.83504309  0.25212050  1
  C  C112  1  0.52151826  0.66793974  0.25278858  1
  C  C113  1  0.15908183  0.47200291  0.25100519  1
  C  C114  1  0.30388546  0.46507674  0.75631078  1
  C  C115  1  0.14201922  0.66566728  0.75791916  1
  C  C116  1  0.53080355  0.83660799  0.75690936  1
