# generated using pymatgen
data_Cu10Ni9C92
_symmetry_space_group_name_H-M   'P 1'
_cell_length_a   9.18750749
_cell_length_b   9.15257116
_cell_length_c   23.94039011
_cell_angle_alpha   89.80605797
_cell_angle_beta   90.02419369
_cell_angle_gamma   119.94297421
_symmetry_Int_Tables_number   1
_chemical_formula_structural   Cu10Ni9C92
_chemical_formula_sum   'Cu10 Ni9 C92'
_cell_volume   1744.41171165
_cell_formula_units_Z   1
loop_
 _symmetry_equiv_pos_site_id
 _symmetry_equiv_pos_as_xyz
  1  'x, y, z'
loop_
 _atom_site_type_symbol
 _atom_site_label
 _atom_site_symmetry_multiplicity
 _atom_site_fract_x
 _atom_site_fract_y
 _atom_site_fract_z
 _atom_site_occupancy
  Ni  Ni0  1  0.66692447  0.97092454  0.58828262  1
  Ni  Ni1  1  0.30363738  0.97067215  0.08812211  1
  Ni  Ni2  1  0.33144244  0.04527519  0.41237520  1
  Ni  Ni3  1  0.00896411  0.01222862  0.50200385  1
  Ni  Ni4  1  0.98770979  0.00216605  0.00248541  1
  Ni  Ni5  1  0.66941449  0.32340387  0.83021166  1
  Ni  Ni6  1  0.65848548  0.33492059  0.32983789  1
  Ni  Ni7  1  0.33231854  0.66023822  0.16285723  1
  Ni  Ni8  1  0.32472817  0.65704581  0.66221270  1
  Cu  Cu9  1  0.00099770  0.00372642  0.34792737  1
  Cu  Cu10  1  0.99575124  0.00157807  0.84921042  1
  Cu  Cu11  1  0.00136748  0.99861687  0.65578055  1
  Cu  Cu12  1  0.99870418  0.99782259  0.15562449  1
  Cu  Cu13  1  0.66563729  0.33242416  0.68553740  1
  Cu  Cu14  1  0.66457352  0.33067542  0.18545914  1
  Cu  Cu15  1  0.67236069  0.33810754  0.97978445  1
  Cu  Cu16  1  0.67026606  0.34818849  0.48026322  1
  Cu  Cu17  1  0.33253014  0.65855118  0.01793763  1
  Cu  Cu18  1  0.32524985  0.65052210  0.51798118  1
  C  C19  1  0.33335538  0.66183578  0.31545045  1
  C  C20  1  0.33891730  0.67204219  0.81524411  1
  C  C21  1  0.30458509  0.99416570  0.25377646  1
  C  C22  1  0.69479665  0.99798974  0.75162675  1
  C  C23  1  0.33319557  0.37249311  0.41430082  1
  C  C24  1  0.69084288  0.69884671  0.25385909  1
  C  C25  1  0.00764031  0.31057500  0.25305777  1
  C  C26  1  0.30127032  0.31001009  0.75403463  1
  C  C27  1  0.00926097  0.69918388  0.75436590  1
  C  C28  1  0.96067513  0.32952812  0.58397728  1
  C  C29  1  0.36854582  0.03519626  0.58138202  1
  C  C30  1  0.67000513  0.63801654  0.58415088  1
  C  C31  1  0.96653143  0.63529509  0.08330803  1
  C  C32  1  0.66668889  0.03573909  0.08263935  1
  C  C33  1  0.36848197  0.32945301  0.08348841  1
  C  C34  1  0.61989867  0.66522494  0.91374047  1
  C  C35  1  0.04619891  0.38002786  0.91352226  1
  C  C36  1  0.33356268  0.95442450  0.91471708  1
  C  C37  1  0.61860067  0.95175617  0.41517959  1
  C  C38  1  0.04858630  0.66660887  0.41340772  1
  C  C39  1  0.21733982  0.01221336  0.30543096  1
  C  C40  1  0.79273738  0.78140900  0.30300009  1
  C  C41  1  0.98301066  0.20597970  0.30226826  1
  C  C42  1  0.22029230  0.20374982  0.80282913  1
  C  C43  1  0.98904120  0.78302639  0.80308771  1
  C  C44  1  0.80437310  0.01413557  0.80103869  1
  C  C45  1  0.74760289  0.95302244  0.69629098  1
  C  C46  1  0.20092425  0.24791367  0.70281106  1
  C  C47  1  0.04961832  0.80034181  0.70298478  1
  C  C48  1  0.75341670  0.80047639  0.20268612  1
  C  C49  1  0.04459277  0.24574340  0.20217616  1
  C  C50  1  0.20217770  0.95354177  0.19929758  1
  C  C51  1  0.87794452  0.34532607  0.63433334  1
  C  C52  1  0.47473983  0.12258999  0.63019584  1
  C  C53  1  0.65306338  0.53885064  0.63441978  1
  C  C54  1  0.88566540  0.53741006  0.13389499  1
  C  C55  1  0.64622256  0.11764939  0.13277402  1
  C  C56  1  0.46696899  0.34721319  0.13404666  1
  C  C57  1  0.45084160  0.31048975  0.03269540  1
  C  C58  1  0.87036175  0.55346824  0.03220044  1
  C  C59  1  0.68387931  0.13462212  0.03143817  1
  C  C60  1  0.44616759  0.12947019  0.52842964  1
  C  C61  1  0.68447496  0.55669820  0.53285759  1
  C  C62  1  0.86033829  0.31119243  0.53285378  1
  C  C63  1  0.54259187  0.68253589  0.96464106  1
  C  C64  1  0.13812244  0.45772682  0.96485869  1
  C  C65  1  0.31811435  0.86276314  0.96677838  1
  C  C66  1  0.54397153  0.86211925  0.46736864  1
  C  C67  1  0.31894600  0.45627586  0.46630847  1
  C  C68  1  0.14661410  0.69035478  0.46398233  1
  C  C69  1  0.14706156  0.65522137  0.36316531  1
  C  C70  1  0.50452145  0.85034706  0.36565632  1
  C  C71  1  0.33859549  0.49000811  0.36189756  1
  C  C72  1  0.14853666  0.49040969  0.86357540  1
  C  C73  1  0.34223573  0.84820595  0.86528510  1
  C  C74  1  0.50742768  0.65626220  0.86367809  1
  C  C75  1  0.03422698  0.81966330  0.40657298  1
  C  C76  1  0.78552874  0.97221218  0.40749311  1
  C  C77  1  0.17939240  0.19362247  0.40954094  1
  C  C78  1  0.02945224  0.21221195  0.90826989  1
  C  C79  1  0.18363726  0.96977500  0.90702032  1
  C  C80  1  0.78648852  0.81454282  0.90725198  1
  C  C81  1  0.97117786  0.17033537  0.58742802  1
  C  C82  1  0.19779746  0.01331266  0.58667030  1
  C  C83  1  0.82189517  0.81188882  0.58683339  1
  C  C84  1  0.98939127  0.81022649  0.08604414  1
  C  C85  1  0.81471957  0.01177306  0.08715192  1
  C  C86  1  0.19985704  0.17021683  0.08728289  1
  C  C87  1  0.65776579  0.14269211  0.74847771  1
  C  C88  1  0.47294803  0.34143870  0.74810655  1
  C  C89  1  0.86620159  0.52852388  0.74862333  1
  C  C90  1  0.66370770  0.52802566  0.24822498  1
  C  C91  1  0.86814643  0.34308826  0.24729711  1
  C  C92  1  0.48423706  0.14188339  0.24924360  1
  C  C93  1  0.62494523  0.50718662  0.91160906  1
  C  C94  1  0.88194727  0.37251136  0.91157625  1
  C  C95  1  0.49049830  0.11776692  0.91208207  1
  C  C96  1  0.62067811  0.11562526  0.41334420  1
  C  C97  1  0.49480669  0.35933138  0.41032307  1
  C  C98  1  0.88440011  0.51132858  0.41287301  1
  C  C99  1  0.34529996  0.47853731  0.07993174  1
  C  C100  1  0.14163272  0.66008488  0.08019893  1
  C  C101  1  0.50657238  0.86750763  0.07918272  1
  C  C102  1  0.36043184  0.86689171  0.57916062  1
  C  C103  1  0.52015773  0.66314496  0.58131118  1
  C  C104  1  0.13144957  0.47905804  0.58117903  1
  C  C105  1  0.32152955  0.82672813  0.26754283  1
  C  C106  1  0.51462972  0.68131176  0.26412754  1
  C  C107  1  0.16820864  0.48597586  0.26318814  1
  C  C108  1  0.31640563  0.48579280  0.76502824  1
  C  C109  1  0.16711991  0.68024806  0.76534152  1
  C  C110  1  0.50884527  0.82930458  0.76743959  1
