# generated using pymatgen
data_Cu2NiC18
_symmetry_space_group_name_H-M   'P 1'
_cell_length_a   9.42503525
_cell_length_b   9.42503489
_cell_length_c   22.42275123
_cell_angle_alpha   90.00000000
_cell_angle_beta   90.00000000
_cell_angle_gamma   120.00000121
_symmetry_Int_Tables_number   1
_chemical_formula_structural   Cu2NiC18
_chemical_formula_sum   'Cu12 Ni6 C108'
_cell_volume   1724.98560389
_cell_formula_units_Z   6
loop_
 _symmetry_equiv_pos_site_id
 _symmetry_equiv_pos_as_xyz
  1  'x, y, z'
loop_
 _atom_site_type_symbol
 _atom_site_label
 _atom_site_symmetry_multiplicity
 _atom_site_fract_x
 _atom_site_fract_y
 _atom_site_fract_z
 _atom_site_occupancy
  C  C0  1  0.65114416  0.00599556  0.24285159  1
  C  C1  1  0.35485140  0.34885584  0.24285159  1
  C  C2  1  0.99400444  0.64514860  0.24285159  1
  C  C3  1  0.65114416  0.64514860  0.74285159  1
  C  C4  1  0.99400444  0.34885584  0.74285159  1
  C  C5  1  0.35485140  0.00599556  0.74285159  1
  C  C6  1  0.29253362  0.33896839  0.57716956  1
  C  C7  1  0.04643576  0.70746638  0.57716956  1
  C  C8  1  0.66103161  0.95356424  0.57716956  1
  C  C9  1  0.29253362  0.95356424  0.07716956  1
  C  C10  1  0.66103161  0.70746638  0.07716956  1
  C  C11  1  0.04643576  0.33896839  0.07716956  1
  C  C12  1  0.98794423  0.69449303  0.91378944  1
  C  C13  1  0.70654779  0.01205577  0.91378944  1
  C  C14  1  0.30550697  0.29345221  0.91378944  1
  C  C15  1  0.98794423  0.29345221  0.41378944  1
  C  C16  1  0.30550697  0.01205577  0.41378944  1
  C  C17  1  0.70654779  0.69449303  0.41378944  1
  C  C18  1  0.00000000  0.00000000  0.49377122  1
  C  C19  1  0.00000000  0.00000000  0.99377122  1
  C  C20  1  0.66666700  0.33333300  0.82926943  1
  C  C21  1  0.66666700  0.33333300  0.32926943  1
  C  C22  1  0.33333300  0.66666700  0.16296113  1
  C  C23  1  0.33333300  0.66666700  0.66296113  1
  C  C24  1  0.00000000  0.00000000  0.34579037  1
  C  C25  1  0.00000000  0.00000000  0.84579037  1
  C  C26  1  0.00000000  0.00000000  0.64880179  1
  C  C27  1  0.00000000  0.00000000  0.14880179  1
  C  C28  1  0.66666700  0.33333300  0.68304437  1
  C  C29  1  0.66666700  0.33333300  0.18304437  1
  C  C30  1  0.33333300  0.66666700  0.01379341  1
  C  C31  1  0.33333300  0.66666700  0.51379341  1
  C  C32  1  0.66666700  0.33333300  0.97787736  1
  C  C33  1  0.66666700  0.33333300  0.47787736  1
  C  C34  1  0.33333300  0.66666700  0.32312838  1
  C  C35  1  0.33333300  0.66666700  0.82312838  1
  Ni  Ni36  1  0.63375753  0.66083526  0.92158624  1
  Ni  Ni37  1  0.02707674  0.36624247  0.92158624  1
  Ni  Ni38  1  0.33916474  0.97292326  0.92158624  1
  Ni  Ni39  1  0.63375753  0.97292326  0.42158624  1
  Ni  Ni40  1  0.33916474  0.36624247  0.42158624  1
  Ni  Ni41  1  0.02707674  0.66083526  0.42158624  1
  Cu  Cu42  1  0.30772553  0.98657016  0.25218134  1
  Cu  Cu43  1  0.67884463  0.69227447  0.25218134  1
  Cu  Cu44  1  0.01342984  0.32115538  0.25218134  1
  Cu  Cu45  1  0.30772553  0.32115538  0.75218134  1
  Cu  Cu46  1  0.01342984  0.69227447  0.75218134  1
  Cu  Cu47  1  0.67884463  0.98657016  0.75218134  1
  Cu  Cu48  1  0.95778175  0.32780676  0.58281920  1
  Cu  Cu49  1  0.37002601  0.04221825  0.58281920  1
  Cu  Cu50  1  0.67219324  0.62997399  0.58281920  1
  Cu  Cu51  1  0.95778175  0.62997399  0.08281920  1
  Cu  Cu52  1  0.67219324  0.04221825  0.08281920  1
  Cu  Cu53  1  0.37002601  0.32780676  0.08281920  1
  C  C54  1  0.22575263  0.00851304  0.30750381  1
  C  C55  1  0.78276041  0.77424737  0.30750381  1
  C  C56  1  0.99148696  0.21723959  0.30750381  1
  C  C57  1  0.22575263  0.21723959  0.80750381  1
  C  C58  1  0.99148696  0.77424737  0.80750381  1
  C  C59  1  0.78276041  0.00851304  0.80750381  1
  C  C60  1  0.75577608  0.95937731  0.69548089  1
  C  C61  1  0.20360123  0.24422392  0.69548089  1
  C  C62  1  0.04062269  0.79639877  0.69548089  1
  C  C63  1  0.75577608  0.79639877  0.19548089  1
  C  C64  1  0.04062269  0.24422392  0.19548089  1
  C  C65  1  0.20360123  0.95937731  0.19548089  1
  C  C66  1  0.87801824  0.33135026  0.64166494  1
  C  C67  1  0.45333302  0.12198176  0.64166494  1
  C  C68  1  0.66864974  0.54666698  0.64166494  1
  C  C69  1  0.87801824  0.54666698  0.14166494  1
  C  C70  1  0.66864974  0.12198176  0.14166494  1
  C  C71  1  0.45333302  0.33135026  0.14166494  1
  C  C72  1  0.48472430  0.32893314  0.02887910  1
  C  C73  1  0.84420984  0.51527570  0.02887910  1
  C  C74  1  0.67106686  0.15579016  0.02887910  1
  C  C75  1  0.48472430  0.15579016  0.52887910  1
  C  C76  1  0.67106686  0.51527570  0.52887910  1
  C  C77  1  0.84420984  0.32893314  0.52887910  1
  C  C78  1  0.56691347  0.69609055  0.98161553  1
  C  C79  1  0.12917608  0.43308653  0.98161553  1
  C  C80  1  0.30390945  0.87082392  0.98161553  1
  C  C81  1  0.56691347  0.87082392  0.48161553  1
  C  C82  1  0.30390945  0.43308653  0.48161553  1
  C  C83  1  0.12917608  0.69609055  0.48161553  1
  C  C84  1  0.14143467  0.63835573  0.36605995  1
  C  C85  1  0.49692006  0.85856533  0.36605995  1
  C  C86  1  0.36164427  0.50307994  0.36605995  1
  C  C87  1  0.14143467  0.50307994  0.86605995  1
  C  C88  1  0.36164427  0.85856533  0.86605995  1
  C  C89  1  0.49692006  0.63835573  0.86605995  1
  C  C90  1  0.98916437  0.80589892  0.40903758  1
  C  C91  1  0.81673455  0.01083563  0.40903758  1
  C  C92  1  0.19410108  0.18326545  0.40903758  1
  C  C93  1  0.98916437  0.18326545  0.90903758  1
  C  C94  1  0.19410108  0.01083563  0.90903758  1
  C  C95  1  0.81673455  0.80589892  0.90903758  1
  C  C96  1  0.96245178  0.16697307  0.57515092  1
  C  C97  1  0.20452129  0.03754822  0.57515092  1
  C  C98  1  0.83302693  0.79547871  0.57515092  1
  C  C99  1  0.96245178  0.79547871  0.07515092  1
  C  C100  1  0.83302693  0.03754822  0.07515092  1
  C  C101  1  0.20452129  0.16697307  0.07515092  1
  C  C102  1  0.64720626  0.13284862  0.74956467  1
  C  C103  1  0.48564337  0.35279374  0.74956467  1
  C  C104  1  0.86715138  0.51435663  0.74956467  1
  C  C105  1  0.64720626  0.51435663  0.24956467  1
  C  C106  1  0.86715138  0.35279374  0.24956467  1
  C  C107  1  0.48564337  0.13284862  0.24956467  1
  C  C108  1  0.62794768  0.47890888  0.92204649  1
  C  C109  1  0.85096220  0.37205232  0.92204649  1
  C  C110  1  0.52109112  0.14903780  0.92204649  1
  C  C111  1  0.62794768  0.14903780  0.42204649  1
  C  C112  1  0.52109112  0.37205232  0.42204649  1
  C  C113  1  0.85096220  0.47890888  0.42204649  1
  C  C114  1  0.35121321  0.48126428  0.08103700  1
  C  C115  1  0.13005006  0.64878679  0.08103700  1
  C  C116  1  0.51873572  0.86994994  0.08103700  1
  C  C117  1  0.35121321  0.86994994  0.58103700  1
  C  C118  1  0.51873572  0.64878679  0.58103700  1
  C  C119  1  0.13005006  0.48126428  0.58103700  1
  C  C120  1  0.31853540  0.82361827  0.25874925  1
  C  C121  1  0.50508187  0.68146460  0.25874925  1
  C  C122  1  0.17638173  0.49491813  0.25874925  1
  C  C123  1  0.31853540  0.49491813  0.75874925  1
  C  C124  1  0.17638173  0.68146460  0.75874925  1
  C  C125  1  0.50508187  0.82361827  0.75874925  1
