# generated using pymatgen
data_Cu24Ni6C5
_symmetry_space_group_name_H-M   'P 1'
_cell_length_a   8.86039813
_cell_length_b   8.86039784
_cell_length_c   23.07076782
_cell_angle_alpha   90.00000000
_cell_angle_beta   90.00000000
_cell_angle_gamma   120.00000112
_symmetry_Int_Tables_number   1
_chemical_formula_structural   Cu24Ni6C5
_chemical_formula_sum   'Cu72 Ni18 C15'
_cell_volume   1568.55277217
_cell_formula_units_Z   3
loop_
 _symmetry_equiv_pos_site_id
 _symmetry_equiv_pos_as_xyz
  1  'x, y, z'
loop_
 _atom_site_type_symbol
 _atom_site_label
 _atom_site_symmetry_multiplicity
 _atom_site_fract_x
 _atom_site_fract_y
 _atom_site_fract_z
 _atom_site_occupancy
  C  C0  1  -0.00000000  0.00000000  0.99761211  1
  C  C1  1  0.66666700  0.33333300  0.83573766  1
  C  C2  1  0.66666700  0.33333300  0.33338886  1
  C  C3  1  -0.00000000  0.00000000  0.35372104  1
  C  C4  1  -0.00000000  0.00000000  0.85108071  1
  C  C5  1  0.66666700  0.33333300  0.98207018  1
  C  C6  1  -0.00000000  0.00000000  0.64777605  1
  C  C7  1  -0.00000000  0.00000000  0.14953720  1
  C  C8  1  0.66666700  0.33333300  0.68488085  1
  C  C9  1  0.66666700  0.33333300  0.18367466  1
  C  C10  1  0.66666700  0.33333300  0.48193962  1
  C  C11  1  0.33333300  0.66666700  0.01904283  1
  C  C12  1  0.33333300  0.66666700  0.51895511  1
  C  C13  1  0.33333300  0.66666700  0.31353624  1
  C  C14  1  0.33333300  0.66666700  0.81418037  1
  Ni  Ni15  1  0.29074187  0.00048772  0.25147514  1
  Ni  Ni16  1  0.70974584  0.70925813  0.25147514  1
  Ni  Ni17  1  0.99951228  0.29025416  0.25147514  1
  Ni  Ni18  1  0.29015293  0.29001597  0.75128064  1
  Ni  Ni19  1  0.99986304  0.70984707  0.75128064  1
  Ni  Ni20  1  0.70998403  0.00013696  0.75128064  1
  Ni  Ni21  1  0.95994506  0.33327544  0.58335496  1
  Ni  Ni22  1  0.37333138  0.04005494  0.58335496  1
  Ni  Ni23  1  0.66672456  0.62666862  0.58335496  1
  Ni  Ni24  1  0.95723321  0.62429485  0.08192314  1
  Ni  Ni25  1  0.66706265  0.04276679  0.08192314  1
  Ni  Ni26  1  0.37570515  0.33293735  0.08192314  1
  Ni  Ni27  1  0.62940384  0.66669124  0.91666856  1
  Ni  Ni28  1  0.03728640  0.37059616  0.91666856  1
  Ni  Ni29  1  0.33330876  0.96271360  0.91666856  1
  Ni  Ni30  1  0.62908138  0.95924048  0.41599777  1
  Ni  Ni31  1  0.33015810  0.37091862  0.41599777  1
  Ni  Ni32  1  0.04075952  0.66984190  0.41599777  1
  Cu  Cu33  1  0.21159769  0.03095042  0.30274721  1
  Cu  Cu34  1  0.81935274  0.78840231  0.30274721  1
  Cu  Cu35  1  0.96904958  0.18064726  0.30274721  1
  Cu  Cu36  1  0.21191158  0.18093133  0.80268023  1
  Cu  Cu37  1  0.96901975  0.78808842  0.80268023  1
  Cu  Cu38  1  0.81906867  0.03098025  0.80268023  1
  Cu  Cu39  1  0.78390599  0.97114103  0.69752208  1
  Cu  Cu40  1  0.18723505  0.21609401  0.69752208  1
  Cu  Cu41  1  0.02885897  0.81276495  0.69752208  1
  Cu  Cu42  1  0.78276750  0.81187421  0.19754541  1
  Cu  Cu43  1  0.02910671  0.21723250  0.19754541  1
  Cu  Cu44  1  0.18812579  0.97089329  0.19754541  1
  Cu  Cu45  1  0.88308359  0.36580026  0.63560985  1
  Cu  Cu46  1  0.48271767  0.11691641  0.63560985  1
  Cu  Cu47  1  0.63419974  0.51728233  0.63560985  1
  Cu  Cu48  1  0.88391252  0.52134526  0.13578105  1
  Cu  Cu49  1  0.63743374  0.11608748  0.13578105  1
  Cu  Cu50  1  0.47865474  0.36256626  0.13578105  1
  Cu  Cu51  1  0.45477943  0.30229722  0.03065191  1
  Cu  Cu52  1  0.84751879  0.54522057  0.03065191  1
  Cu  Cu53  1  0.69770278  0.15248121  0.03065191  1
  Cu  Cu54  1  0.45025621  0.14941867  0.53113272  1
  Cu  Cu55  1  0.69916346  0.54974379  0.53113272  1
  Cu  Cu56  1  0.85058133  0.30083654  0.53113272  1
  Cu  Cu57  1  0.55084055  0.69843708  0.96908875  1
  Cu  Cu58  1  0.14759553  0.44915945  0.96908875  1
  Cu  Cu59  1  0.30156292  0.85240447  0.96908875  1
  Cu  Cu60  1  0.54992846  0.85348995  0.46887454  1
  Cu  Cu61  1  0.30356049  0.45007154  0.46887454  1
  Cu  Cu62  1  0.14651005  0.69643951  0.46887454  1
  Cu  Cu63  1  0.11664966  0.63247845  0.36426442  1
  Cu  Cu64  1  0.51582779  0.88335034  0.36426442  1
  Cu  Cu65  1  0.36752155  0.48417221  0.36426442  1
  Cu  Cu66  1  0.11589521  0.48100668  0.86425953  1
  Cu  Cu67  1  0.36511048  0.88410479  0.86425953  1
  Cu  Cu68  1  0.51899332  0.63488953  0.86425953  1
  Cu  Cu69  1  0.02289061  0.82337688  0.40795600  1
  Cu  Cu70  1  0.80048627  0.97710939  0.40795600  1
  Cu  Cu71  1  0.17662312  0.19951373  0.40795600  1
  Cu  Cu72  1  0.02245080  0.19750868  0.90976245  1
  Cu  Cu73  1  0.17505789  0.97754920  0.90976245  1
  Cu  Cu74  1  0.80249132  0.82494211  0.90976245  1
  Cu  Cu75  1  0.97632358  0.17695034  0.59068643  1
  Cu  Cu76  1  0.20062676  0.02367642  0.59068643  1
  Cu  Cu77  1  0.82304966  0.79937324  0.59068643  1
  Cu  Cu78  1  0.97562668  0.80144373  0.08856787  1
  Cu  Cu79  1  0.82581705  0.02437332  0.08856787  1
  Cu  Cu80  1  0.19855627  0.17418295  0.08856787  1
  Cu  Cu81  1  0.69120168  0.15892312  0.74479969  1
  Cu  Cu82  1  0.46772244  0.30879832  0.74479969  1
  Cu  Cu83  1  0.84107688  0.53227756  0.74479969  1
  Cu  Cu84  1  0.69087409  0.53173016  0.24481454  1
  Cu  Cu85  1  0.84085707  0.30912591  0.24481454  1
  Cu  Cu86  1  0.46826984  0.15914293  0.24481454  1
  Cu  Cu87  1  0.64422229  0.50841332  0.92357877  1
  Cu  Cu88  1  0.86419203  0.35577771  0.92357877  1
  Cu  Cu89  1  0.49158668  0.13580797  0.92357877  1
  Cu  Cu90  1  0.64340086  0.13502266  0.42222693  1
  Cu  Cu91  1  0.49162280  0.35659914  0.42222693  1
  Cu  Cu92  1  0.86497734  0.50837720  0.42222693  1
  Cu  Cu93  1  0.35614964  0.48824484  0.07594347  1
  Cu  Cu94  1  0.13209420  0.64385036  0.07594347  1
  Cu  Cu95  1  0.51175516  0.86790580  0.07594347  1
  Cu  Cu96  1  0.35697003  0.86734867  0.57604985  1
  Cu  Cu97  1  0.51037763  0.64302997  0.57604985  1
  Cu  Cu98  1  0.13265133  0.48962237  0.57604985  1
  Cu  Cu99  1  0.31047875  0.84527615  0.25734858  1
  Cu  Cu100  1  0.53479640  0.68952125  0.25734858  1
  Cu  Cu101  1  0.15472385  0.46520360  0.25734858  1
  Cu  Cu102  1  0.31026042  0.46516620  0.75725168  1
  Cu  Cu103  1  0.15490479  0.68973958  0.75725168  1
  Cu  Cu104  1  0.53483380  0.84509521  0.75725168  1
