# generated using pymatgen
data_Cu2Ni4C9
_symmetry_space_group_name_H-M   'P 1'
_cell_length_a   6.51290900
_cell_length_b   8.32979400
_cell_length_c   14.08438600
_cell_angle_alpha   90.00000000
_cell_angle_beta   90.00000000
_cell_angle_gamma   90.00000000
_symmetry_Int_Tables_number   1
_chemical_formula_structural   Cu2Ni4C9
_chemical_formula_sum   'Cu8 Ni16 C36'
_cell_volume   764.09470530
_cell_formula_units_Z   4
loop_
 _symmetry_equiv_pos_site_id
 _symmetry_equiv_pos_as_xyz
  1  'x, y, z'
loop_
 _atom_site_type_symbol
 _atom_site_label
 _atom_site_symmetry_multiplicity
 _atom_site_fract_x
 _atom_site_fract_y
 _atom_site_fract_z
 _atom_site_occupancy
  Ni  Ni0  1  0.25000000  0.36505700  0.05038700  1
  Ni  Ni1  1  0.75000000  0.63494300  0.94961300  1
  Ni  Ni2  1  0.25000000  0.86505700  0.44961300  1
  Ni  Ni3  1  0.75000000  0.13494300  0.55038700  1
  Ni  Ni4  1  0.50723300  0.35297300  0.84514900  1
  Ni  Ni5  1  0.00723300  0.64702700  0.15485100  1
  Ni  Ni6  1  0.99276700  0.85297300  0.65485100  1
  Ni  Ni7  1  0.49276700  0.14702700  0.34514900  1
  Ni  Ni8  1  0.49276700  0.64702700  0.15485100  1
  Ni  Ni9  1  0.99276700  0.35297300  0.84514900  1
  Ni  Ni10  1  0.00723300  0.14702700  0.34514900  1
  Ni  Ni11  1  0.50723300  0.85297300  0.65485100  1
  Ni  Ni12  1  0.25000000  0.57358300  0.58675800  1
  Ni  Ni13  1  0.75000000  0.42641700  0.41324200  1
  Ni  Ni14  1  0.25000000  0.07358300  0.91324200  1
  Ni  Ni15  1  0.75000000  0.92641700  0.08675800  1
  Cu  Cu16  1  0.25000000  0.50042800  0.34352800  1
  Cu  Cu17  1  0.75000000  0.49957200  0.65647200  1
  Cu  Cu18  1  0.25000000  0.00042800  0.15647200  1
  Cu  Cu19  1  0.75000000  0.99957200  0.84352800  1
  Cu  Cu20  1  0.25000000  0.15577200  0.59044600  1
  Cu  Cu21  1  0.75000000  0.84422800  0.40955400  1
  Cu  Cu22  1  0.25000000  0.65577200  0.90955400  1
  Cu  Cu23  1  0.75000000  0.34422800  0.09044700  1
  C  C24  1  0.25000000  0.35396100  0.61585600  1
  C  C25  1  0.75000000  0.64603900  0.38414400  1
  C  C26  1  0.25000000  0.85396100  0.88414400  1
  C  C27  1  0.75000000  0.14603900  0.11585600  1
  C  C28  1  0.25000000  0.31065800  0.90837400  1
  C  C29  1  0.75000000  0.68934200  0.09162600  1
  C  C30  1  0.25000000  0.81065800  0.59162600  1
  C  C31  1  0.75000000  0.18934200  0.40837400  1
  C  C32  1  0.53332900  0.62007500  0.64793500  1
  C  C33  1  0.03332900  0.37992500  0.35206500  1
  C  C34  1  0.96667100  0.12007500  0.85206500  1
  C  C35  1  0.46667100  0.87992500  0.14793500  1
  C  C36  1  0.46667100  0.37992500  0.35206500  1
  C  C37  1  0.96667100  0.62007500  0.64793500  1
  C  C38  1  0.25000000  0.63033500  0.43908700  1
  C  C39  1  0.03332900  0.87992500  0.14793500  1
  C  C40  1  0.47499200  0.58169000  0.85805300  1
  C  C41  1  0.97499200  0.41831000  0.14194700  1
  C  C42  1  0.02500800  0.08169000  0.64194700  1
  C  C43  1  0.52500800  0.91831000  0.35805300  1
  C  C44  1  0.52500800  0.41831000  0.14194700  1
  C  C45  1  0.02500800  0.58169000  0.85805300  1
  C  C46  1  0.97499200  0.91831000  0.35805300  1
  C  C47  1  0.47499200  0.08169000  0.64194700  1
  C  C48  1  0.75000000  0.88514300  0.73863200  1
  C  C49  1  0.25000000  0.11485700  0.26136800  1
  C  C50  1  0.75000000  0.38514300  0.76136800  1
  C  C51  1  0.25000000  0.61485700  0.23863200  1
  C  C52  1  0.75000000  0.89961400  0.52867900  1
  C  C53  1  0.25000000  0.10038600  0.47132100  1
  C  C54  1  0.75000000  0.39961400  0.97132100  1
  C  C55  1  0.25000000  0.60038600  0.02867900  1
  C  C56  1  0.75000000  0.86966500  0.93908700  1
  C  C57  1  0.25000000  0.13033500  0.06091300  1
  C  C58  1  0.75000000  0.36966500  0.56091300  1
  C  C59  1  0.53332900  0.12007500  0.85206500  1
