# generated using pymatgen
data_Cu(NiC18)2
_symmetry_space_group_name_H-M   'P 1'
_cell_length_a   8.66938684
_cell_length_b   8.65318443
_cell_length_c   21.76174521
_cell_angle_alpha   90.04905915
_cell_angle_beta   89.95296505
_cell_angle_gamma   119.90370080
_symmetry_Int_Tables_number   1
_chemical_formula_structural   Cu(NiC18)2
_chemical_formula_sum   'Cu3 Ni6 C108'
_cell_volume   1415.17159175
_cell_formula_units_Z   3
loop_
 _symmetry_equiv_pos_site_id
 _symmetry_equiv_pos_as_xyz
  1  'x, y, z'
loop_
 _atom_site_type_symbol
 _atom_site_label
 _atom_site_symmetry_multiplicity
 _atom_site_fract_x
 _atom_site_fract_y
 _atom_site_fract_z
 _atom_site_occupancy
  C  C0  1  0.00061592  0.63596908  0.25175395  1
  C  C1  1  0.63234278  0.63685610  0.75115205  1
  C  C2  1  0.36513331  0.00067343  0.75300001  1
  C  C3  1  0.66526062  0.96625576  0.58377740  1
  C  C4  1  0.29903874  0.96766527  0.08465304  1
  C  C5  1  0.67118668  0.69970705  0.08255785  1
  C  C6  1  0.03219654  0.33474475  0.08506037  1
  C  C7  1  0.96954483  0.30031789  0.41515951  1
  C  C8  1  0.33724543  0.03443612  0.41717997  1
  C  C9  1  0.00090592  0.98783578  0.49973197  1
  C  C10  1  0.00054372  0.99590354  0.99686661  1
  C  C11  1  0.67893559  0.33503561  0.83864382  1
  C  C12  1  0.65462381  0.33471882  0.33323800  1
  C  C13  1  0.34504022  0.66819848  0.17208590  1
  C  C14  1  0.31227046  0.64769699  0.66729486  1
  C  C15  1  0.99309946  0.00177915  0.85707066  1
  C  C16  1  0.00586616  0.99896518  0.64621260  1
  C  C17  1  0.66943342  0.32578040  0.68587712  1
  C  C18  1  0.66909673  0.33318797  0.18949337  1
  C  C19  1  0.32770539  0.66666140  0.01643932  1
  C  C20  1  0.33219053  0.66796511  0.51991668  1
  Ni  Ni21  1  0.99668850  0.99577235  0.35158417  1
  Ni  Ni22  1  0.99852256  0.99640659  0.15012589  1
  Ni  Ni23  1  0.66839960  0.33786633  0.97824272  1
  Ni  Ni24  1  0.66337077  0.33923638  0.47914820  1
  Ni  Ni25  1  0.33921392  0.66645348  0.31309271  1
  Ni  Ni26  1  0.33232444  0.66679485  0.81522209  1
  Cu  Cu27  1  0.70678015  0.99857289  0.75049490  1
  Cu  Cu28  1  0.37543305  0.04823957  0.57899458  1
  Cu  Cu29  1  0.95225791  0.62521718  0.08246896  1
  C  C30  1  0.28685364  0.99856225  0.25226995  1
  C  C31  1  0.70918798  0.71875836  0.25061323  1
  C  C32  1  0.00595062  0.28589781  0.25124841  1
  C  C33  1  0.28422455  0.29312138  0.75202513  1
  C  C34  1  0.00297460  0.70862558  0.75259270  1
  C  C35  1  0.95476415  0.33574681  0.57951561  1
  C  C36  1  0.66697854  0.61688049  0.58192710  1
  C  C37  1  0.67168972  0.04986550  0.08219092  1
  C  C38  1  0.37877199  0.32883316  0.08260731  1
  C  C39  1  0.61886489  0.65778403  0.91541344  1
  C  C40  1  0.04004428  0.38107684  0.91495944  1
  C  C41  1  0.34113126  0.96467494  0.91483341  1
  C  C42  1  0.62651991  0.95459858  0.41420780  1
  C  C43  1  0.33764220  0.38022482  0.41373086  1
  C  C44  1  0.03891698  0.66598023  0.41383843  1
  C  C45  1  0.20034199  0.02562518  0.30998085  1
  C  C46  1  0.83635936  0.80372776  0.30509845  1
  C  C47  1  0.97822279  0.17350953  0.30908869  1
  C  C48  1  0.20399400  0.16681006  0.80719916  1
  C  C49  1  0.96802138  0.79773144  0.80793677  1
  C  C50  1  0.83779902  0.02999570  0.80882268  1
  C  C51  1  0.79387515  0.96087986  0.68915765  1
  C  C52  1  0.17030904  0.20354327  0.69377442  1
  C  C53  1  0.04087967  0.83087056  0.69465175  1
  C  C54  1  0.79074407  0.82381491  0.19037581  1
  C  C55  1  0.02724752  0.19951966  0.19214159  1
  C  C56  1  0.17011924  0.96557113  0.19389966  1
  C  C57  1  0.86759259  0.36417783  0.63798429  1
  C  C58  1  0.50007178  0.13245557  0.64162780  1
  C  C59  1  0.64073778  0.51200921  0.64253926  1
  C  C60  1  0.87012734  0.49785590  0.14477762  1
  C  C61  1  0.62918109  0.12942277  0.13982435  1
  C  C62  1  0.50039912  0.36656531  0.13978709  1
  C  C63  1  0.45870935  0.28779644  0.02645425  1
  C  C64  1  0.81897919  0.53007571  0.02587126  1
  C  C65  1  0.70388168  0.16838093  0.02616084  1
  C  C66  1  0.46967541  0.16341401  0.51852046  1
  C  C67  1  0.69611255  0.52898306  0.52603735  1
  C  C68  1  0.83848115  0.30449217  0.52223370  1
  C  C69  1  0.53301500  0.68859935  0.97435543  1
  C  C70  1  0.15394822  0.46501057  0.97527684  1
  C  C71  1  0.31060937  0.84404446  0.97375570  1
  C  C72  1  0.54496076  0.84571124  0.47458747  1
  C  C73  1  0.30105150  0.46496959  0.47130960  1
  C  C74  1  0.16523564  0.70231524  0.47024254  1
  C  C75  1  0.12254713  0.62861047  0.35673222  1
  C  C76  1  0.49563049  0.86340425  0.36102859  1
  C  C77  1  0.36117392  0.49623905  0.35768547  1
  C  C78  1  0.13737376  0.50024877  0.86011423  1
  C  C79  1  0.36375138  0.87268731  0.85776754  1
  C  C80  1  0.50801146  0.63914615  0.85773168  1
  C  C81  1  0.02627000  0.83720990  0.40840732  1
  C  C82  1  0.81459293  0.97755645  0.40767674  1
  C  C83  1  0.16833402  0.18979076  0.40939272  1
  C  C84  1  0.02993236  0.19642231  0.91208204  1
  C  C85  1  0.16992818  0.97739898  0.91209166  1
  C  C86  1  0.80649533  0.82847309  0.91246419  1
  C  C87  1  0.96636998  0.16408226  0.58690208  1
  C  C88  1  0.17886097  0.02419254  0.58779246  1
  C  C89  1  0.83057497  0.80825828  0.58672692  1
  C  C90  1  0.97944272  0.82464195  0.09173429  1
  C  C91  1  0.83858296  0.03059921  0.09087528  1
  C  C92  1  0.18929458  0.16737171  0.09195754  1
  C  C93  1  0.68521558  0.17615813  0.74694698  1
  C  C94  1  0.47393168  0.31596442  0.74469017  1
  C  C95  1  0.83105645  0.52803538  0.74490460  1
  C  C96  1  0.69266048  0.52886872  0.24528540  1
  C  C97  1  0.83565088  0.30780870  0.24693533  1
  C  C98  1  0.47342183  0.16598121  0.24561391  1
  C  C99  1  0.63362937  0.48957472  0.92189636  1
  C  C100  1  0.85598864  0.36051152  0.92266320  1
  C  C101  1  0.50897711  0.14549307  0.92400354  1
  C  C102  1  0.64868460  0.14542423  0.41990056  1
  C  C103  1  0.50367490  0.35817468  0.42030735  1
  C  C104  1  0.85590535  0.49618343  0.42348047  1
  C  C105  1  0.36147571  0.49953140  0.07753078  1
  C  C106  1  0.15330787  0.64651682  0.07773972  1
  C  C107  1  0.50590371  0.85888299  0.07743650  1
  C  C108  1  0.36135876  0.85059135  0.57614120  1
  C  C109  1  0.49977167  0.63952660  0.57667682  1
  C  C110  1  0.14099651  0.50094210  0.57587568  1
  C  C111  1  0.30266466  0.82725723  0.25806274  1
  C  C112  1  0.52340506  0.69783045  0.25818036  1
  C  C113  1  0.16816775  0.47824362  0.25598673  1
  C  C114  1  0.30482262  0.47892154  0.75847355  1
  C  C115  1  0.16973139  0.69157885  0.75899098  1
  C  C116  1  0.50999910  0.82300867  0.75779375  1
