# generated using pymatgen
data_Cu2Ni2C9
_symmetry_space_group_name_H-M   'P 1'
_cell_length_a   3.33998801
_cell_length_b   3.33997640
_cell_length_c   38.06006814
_cell_angle_alpha   90.00922670
_cell_angle_beta   89.99238310
_cell_angle_gamma   119.99756085
_symmetry_Int_Tables_number   1
_chemical_formula_structural   Cu2Ni2C9
_chemical_formula_sum   'Cu2 Ni2 C9'
_cell_volume   367.70468755
_cell_formula_units_Z   1
loop_
 _symmetry_equiv_pos_site_id
 _symmetry_equiv_pos_as_xyz
  1  'x, y, z'
loop_
 _atom_site_type_symbol
 _atom_site_label
 _atom_site_symmetry_multiplicity
 _atom_site_fract_x
 _atom_site_fract_y
 _atom_site_fract_z
 _atom_site_occupancy
  C  C0  1  0.65795900  0.25325400  0.88221600  1
  C  C1  1  0.33335800  0.66666500  0.70767600  1
  C  C2  1  0.33335300  0.66665400  0.60741700  1
  Ni  Ni3  1  0.33331600  0.66657600  0.09388800  1
  Ni  Ni4  1  0.66669500  0.33333800  0.28179900  1
  Cu  Cu5  1  0.33331700  0.66657700  0.46964200  1
  Cu  Cu6  1  0.66669500  0.33332900  0.65756400  1
  C  C7  1  0.33336700  0.66668000  0.32557500  1
  C  C8  1  0.66664500  0.33323200  0.05013400  1
  C  C9  1  0.66665700  0.33325600  0.13767600  1
  C  C10  1  0.33336100  0.66666800  0.23800900  1
  C  C11  1  0.66665000  0.33324300  0.42965000  1
  C  C12  1  0.66665200  0.33324800  0.50964100  1
