# generated using pymatgen
data_Cu8Ni3C4
_symmetry_space_group_name_H-M   'P 1'
_cell_length_a   6.82065349
_cell_length_b   6.82065349
_cell_length_c   17.86213367
_cell_angle_alpha   85.84357400
_cell_angle_beta   85.84357400
_cell_angle_gamma   66.03874446
_symmetry_Int_Tables_number   1
_chemical_formula_structural   Cu8Ni3C4
_chemical_formula_sum   'Cu16 Ni6 C8'
_cell_volume   756.51487870
_cell_formula_units_Z   2
loop_
 _symmetry_equiv_pos_site_id
 _symmetry_equiv_pos_as_xyz
  1  'x, y, z'
loop_
 _atom_site_type_symbol
 _atom_site_label
 _atom_site_symmetry_multiplicity
 _atom_site_fract_x
 _atom_site_fract_y
 _atom_site_fract_z
 _atom_site_occupancy
  C  C0  1  0.09816600  0.42810400  0.37612900  1
  C  C1  1  0.90183400  0.57189600  0.62387100  1
  C  C2  1  0.42810400  0.09816600  0.87612900  1
  C  C3  1  0.57189600  0.90183400  0.12387100  1
  C  C4  1  0.48582900  0.23281300  0.66405200  1
  C  C5  1  0.76718700  0.51417100  0.83594800  1
  C  C6  1  0.23281300  0.48582900  0.16405200  1
  C  C7  1  0.51417100  0.76718700  0.33594800  1
  Ni  Ni8  1  0.26783600  0.93476400  0.53243200  1
  Ni  Ni9  1  0.06523600  0.73216400  0.96756800  1
  Ni  Ni10  1  0.73216400  0.06523600  0.46756800  1
  Ni  Ni11  1  0.93476400  0.26783600  0.03243200  1
  Ni  Ni12  1  0.08340200  0.91659800  0.75000000  1
  Ni  Ni13  1  0.91659800  0.08340200  0.25000000  1
  Cu  Cu14  1  0.13111000  0.82871700  0.42698500  1
  Cu  Cu15  1  0.17128300  0.86889000  0.07301500  1
  Cu  Cu16  1  0.33787700  0.70136800  0.64970900  1
  Cu  Cu17  1  0.70136800  0.33787700  0.14970900  1
  Cu  Cu18  1  0.29863200  0.66212300  0.85029100  1
  Cu  Cu19  1  0.66212300  0.29863200  0.35029100  1
  Cu  Cu20  1  0.26623200  0.32868800  0.01569100  1
  Cu  Cu21  1  0.67131200  0.73376800  0.48430900  1
  Cu  Cu22  1  0.73376800  0.67131200  0.98430900  1
  Cu  Cu23  1  0.32868800  0.26623200  0.51569100  1
  Cu  Cu24  1  0.74684300  0.88734300  0.75268700  1
  Cu  Cu25  1  0.11265700  0.25315700  0.74731300  1
  Cu  Cu26  1  0.25315700  0.11265700  0.24731300  1
  Cu  Cu27  1  0.88734300  0.74684300  0.25268700  1
  Cu  Cu28  1  0.86889000  0.17128300  0.57301500  1
  Cu  Cu29  1  0.82871700  0.13111000  0.92698500  1
