# generated using pymatgen
data_Cu5(NiC)7
_symmetry_space_group_name_H-M   'P 1'
_cell_length_a   4.89461812
_cell_length_b   7.95214873
_cell_length_c   5.70069005
_cell_angle_alpha   96.01263671
_cell_angle_beta   93.66867253
_cell_angle_gamma   85.72506548
_symmetry_Int_Tables_number   1
_chemical_formula_structural   Cu5(NiC)7
_chemical_formula_sum   'Cu5 Ni7 C7'
_cell_volume   219.69851930
_cell_formula_units_Z   1
loop_
 _symmetry_equiv_pos_site_id
 _symmetry_equiv_pos_as_xyz
  1  'x, y, z'
loop_
 _atom_site_type_symbol
 _atom_site_label
 _atom_site_symmetry_multiplicity
 _atom_site_fract_x
 _atom_site_fract_y
 _atom_site_fract_z
 _atom_site_occupancy
  C  C0  1  0.01480300  0.38634000  0.88170900  1
  C  C1  1  0.52523100  0.65646100  0.16891800  1
  C  C2  1  0.50380700  0.00285800  0.51800700  1
  C  C3  1  0.50608600  0.33489000  0.83263400  1
  C  C4  1  0.05347200  0.70179800  0.63317900  1
  C  C5  1  0.94010000  0.28431900  0.35869300  1
  C  C6  1  0.96796900  0.99196300  0.98687400  1
  Ni  Ni7  1  0.76165200  0.08527600  0.26897900  1
  Ni  Ni8  1  0.73608600  0.11802600  0.77152300  1
  Ni  Ni9  1  0.71207100  0.77222800  0.44794300  1
  Ni  Ni10  1  0.74411600  0.43744200  0.12603200  1
  Ni  Ni11  1  0.27685500  0.56562300  0.88283800  1
  Ni  Ni12  1  0.24700000  0.23242100  0.56734000  1
  Ni  Ni13  1  0.21856600  0.90487700  0.72433900  1
  Cu  Cu14  1  0.78888000  0.45872000  0.61371500  1
  Cu  Cu15  1  0.79013300  0.76893100  0.94217600  1
  Cu  Cu16  1  0.27877700  0.88852800  0.21178200  1
  Cu  Cu17  1  0.19414100  0.21416000  0.07309100  1
  Cu  Cu18  1  0.24025700  0.57013800  0.37118100  1
