# generated using pymatgen
data_Cu2Ni2C9
_symmetry_space_group_name_H-M   'P 1'
_cell_length_a   3.18921400
_cell_length_b   3.18922287
_cell_length_c   43.82690002
_cell_angle_alpha   90.00314924
_cell_angle_beta   90.00025877
_cell_angle_gamma   119.99994675
_symmetry_Int_Tables_number   1
_chemical_formula_structural   Cu2Ni2C9
_chemical_formula_sum   'Cu2 Ni2 C9'
_cell_volume   386.04696978
_cell_formula_units_Z   1
loop_
 _symmetry_equiv_pos_site_id
 _symmetry_equiv_pos_as_xyz
  1  'x, y, z'
loop_
 _atom_site_type_symbol
 _atom_site_label
 _atom_site_symmetry_multiplicity
 _atom_site_fract_x
 _atom_site_fract_y
 _atom_site_fract_z
 _atom_site_occupancy
  C  C0  1  0.99999000  0.99998900  0.18412800  1
  Ni  Ni1  1  0.33331500  0.66663700  0.08615100  1
  Ni  Ni2  1  0.33327000  0.66653700  0.46975000  1
  Cu  Cu3  1  0.66669500  0.33338900  0.29014100  1
  Cu  Cu4  1  0.66671700  0.33343000  0.65769200  1
  C  C5  1  0.33338700  0.66677000  0.32600400  1
  C  C6  1  0.33340300  0.66679900  0.69356000  1
  C  C7  1  0.66663300  0.33327800  0.05061800  1
  C  C8  1  0.66658600  0.33317600  0.43405900  1
  C  C9  1  0.66666600  0.33333300  0.12228000  1
  C  C10  1  0.66663000  0.33325300  0.50547500  1
  C  C11  1  0.33334100  0.66668100  0.25406000  1
  C  C12  1  0.33336500  0.66673100  0.62186800  1
