# generated using pymatgen
data_Cu4Ni2C9
_symmetry_space_group_name_H-M   'P 1'
_cell_length_a   9.37691200
_cell_length_b   5.96789300
_cell_length_c   10.94131546
_cell_angle_alpha   80.10204404
_cell_angle_beta   90.00000000
_cell_angle_gamma   90.00000000
_symmetry_Int_Tables_number   1
_chemical_formula_structural   Cu4Ni2C9
_chemical_formula_sum   'Cu16 Ni8 C36'
_cell_volume   603.16695772
_cell_formula_units_Z   4
loop_
 _symmetry_equiv_pos_site_id
 _symmetry_equiv_pos_as_xyz
  1  'x, y, z'
loop_
 _atom_site_type_symbol
 _atom_site_label
 _atom_site_symmetry_multiplicity
 _atom_site_fract_x
 _atom_site_fract_y
 _atom_site_fract_z
 _atom_site_occupancy
  C  C0  1  0.32843000  0.48643800  0.76236100  1
  C  C1  1  0.82843000  0.01356200  0.73763900  1
  C  C2  1  0.67157000  0.51356200  0.23763900  1
  C  C3  1  0.17157000  0.98643800  0.26236100  1
  C  C4  1  0.55964800  0.58573500  0.89951600  1
  C  C5  1  0.05964800  0.91426500  0.60048400  1
  C  C6  1  0.44035200  0.41426500  0.10048400  1
  C  C7  1  0.94035200  0.08573500  0.39951600  1
  C  C8  1  0.56835100  0.31917800  0.88765900  1
  C  C9  1  0.06835100  0.18082200  0.61234100  1
  C  C10  1  0.43164900  0.68082200  0.11234100  1
  C  C11  1  0.93164900  0.81917800  0.38765900  1
  C  C12  1  0.56068400  0.35171100  0.64498000  1
  C  C13  1  0.06068400  0.14828900  0.85502000  1
  C  C14  1  0.43931600  0.64828900  0.35502000  1
  C  C15  1  0.93931600  0.85171100  0.14498000  1
  C  C16  1  0.42439000  0.30626400  0.56361200  1
  C  C17  1  0.92439000  0.19373600  0.93638800  1
  C  C18  1  0.29990600  0.11089000  0.92359200  1
  C  C19  1  0.57561000  0.69373600  0.43638800  1
  C  C20  1  0.48666300  0.84796800  0.68281000  1
  C  C21  1  0.98666300  0.65203200  0.81719000  1
  C  C22  1  0.51333700  0.15203200  0.31719000  1
  C  C23  1  0.01333700  0.34796800  0.18281000  1
  C  C24  1  0.34351900  0.87625600  0.61032700  1
  C  C25  1  0.84351900  0.62374400  0.88967300  1
  C  C26  1  0.65648100  0.12374400  0.38967300  1
  C  C27  1  0.15648100  0.37625600  0.11032700  1
  C  C28  1  0.31093100  0.03506300  0.79169400  1
  C  C29  1  0.81093100  0.46493700  0.70830600  1
  C  C30  1  0.68906900  0.96493700  0.20830600  1
  C  C31  1  0.18906900  0.53506300  0.29169400  1
  C  C32  1  0.20009400  0.61089000  0.42359200  1
  C  C33  1  0.70009400  0.88911000  0.07640800  1
  C  C34  1  0.79990600  0.38911000  0.57640800  1
  C  C35  1  0.07561000  0.80626400  0.06361200  1
  Ni  Ni36  1  0.18743500  0.59253600  0.92679600  1
  Ni  Ni37  1  0.68743500  0.90746400  0.57320400  1
  Ni  Ni38  1  0.81256500  0.40746400  0.07320400  1
  Ni  Ni39  1  0.31256500  0.09253600  0.42679600  1
  Ni  Ni40  1  0.13891600  0.53106300  0.61642200  1
  Ni  Ni41  1  0.63891600  0.96893700  0.88357800  1
  Ni  Ni42  1  0.86108400  0.46893700  0.38357800  1
  Ni  Ni43  1  0.36108400  0.03106300  0.11642200  1
  Cu  Cu44  1  0.51254800  0.46088200  0.86755000  1
  Cu  Cu45  1  0.01254800  0.03911800  0.63245000  1
  Cu  Cu46  1  0.48745200  0.53911800  0.13245000  1
  Cu  Cu47  1  0.98745200  0.96088200  0.36755000  1
  Cu  Cu48  1  0.45900900  0.38732100  0.62853500  1
  Cu  Cu49  1  0.95900900  0.11267900  0.87146500  1
  Cu  Cu50  1  0.54099100  0.61267900  0.37146500  1
  Cu  Cu51  1  0.04099100  0.88732100  0.12853500  1
  Cu  Cu52  1  0.38195100  0.83099700  0.69567900  1
  Cu  Cu53  1  0.88195100  0.66900300  0.80432100  1
  Cu  Cu54  1  0.61804900  0.16900300  0.30432100  1
  Cu  Cu55  1  0.11804900  0.33099700  0.19567900  1
  Cu  Cu56  1  0.26901900  0.15221400  0.83556900  1
  Cu  Cu57  1  0.76901900  0.34778600  0.66443100  1
  Cu  Cu58  1  0.73098100  0.84778600  0.16443100  1
  Cu  Cu59  1  0.23098100  0.65221400  0.33556900  1
