# generated using pymatgen
data_Cu2Ni2C9
_symmetry_space_group_name_H-M   'P 1'
_cell_length_a   3.39839003
_cell_length_b   3.39987644
_cell_length_c   45.53524152
_cell_angle_alpha   90.02128943
_cell_angle_beta   89.98811960
_cell_angle_gamma   119.99013403
_symmetry_Int_Tables_number   1
_chemical_formula_structural   Cu2Ni2C9
_chemical_formula_sum   'Cu2 Ni2 C9'
_cell_volume   455.67769226
_cell_formula_units_Z   1
loop_
 _symmetry_equiv_pos_site_id
 _symmetry_equiv_pos_as_xyz
  1  'x, y, z'
loop_
 _atom_site_type_symbol
 _atom_site_label
 _atom_site_symmetry_multiplicity
 _atom_site_fract_x
 _atom_site_fract_y
 _atom_site_fract_z
 _atom_site_occupancy
  C  C0  1  0.99987800  0.00083500  0.38498600  1
  C  C1  1  0.33337700  0.66694300  0.31668500  1
  C  C2  1  0.33337200  0.66705900  0.69902700  1
  C  C3  1  0.33342100  0.66657600  0.23417000  1
  C  C4  1  0.33336900  0.66645800  0.61624200  1
  C  C5  1  0.33327900  0.66666700  0.09386100  1
  C  C6  1  0.33344400  0.66626200  0.47693700  1
  C  C7  1  0.66666000  0.33333500  0.27525400  1
  C  C8  1  0.66661300  0.33334200  0.65764900  1
  Ni  Ni9  1  0.66658500  0.33304800  0.05764000  1
  Ni  Ni10  1  0.66655100  0.33351900  0.13004700  1
  Cu  Cu11  1  0.66671500  0.33313400  0.44372300  1
  Cu  Cu12  1  0.66673700  0.33282200  0.50967900  1
