# generated using pymatgen
data_CuNi2C15
_symmetry_space_group_name_H-M   'P 1'
_cell_length_a   8.87426455
_cell_length_b   8.87426425
_cell_length_c   23.01691461
_cell_angle_alpha   89.90526989
_cell_angle_beta   90.09473012
_cell_angle_gamma   119.86378632
_symmetry_Int_Tables_number   1
_chemical_formula_structural   CuNi2C15
_chemical_formula_sum   'Cu6 Ni12 C90'
_cell_volume   1571.94063945
_cell_formula_units_Z   6
loop_
 _symmetry_equiv_pos_site_id
 _symmetry_equiv_pos_as_xyz
  1  'x, y, z'
loop_
 _atom_site_type_symbol
 _atom_site_label
 _atom_site_symmetry_multiplicity
 _atom_site_fract_x
 _atom_site_fract_y
 _atom_site_fract_z
 _atom_site_occupancy
  C  C0  1  0.00393007  0.99658637  0.49971686  1
  C  C1  1  0.00341363  0.99606993  0.99971686  1
  C  C2  1  0.66706217  0.32237756  0.82928792  1
  C  C3  1  0.67762244  0.33293783  0.32928792  1
  C  C4  1  0.32437732  0.65518989  0.16476871  1
  C  C5  1  0.34481011  0.67562268  0.66476871  1
  C  C6  1  0.65620084  0.32070932  0.68602978  1
  C  C7  1  0.67929068  0.34379916  0.18602978  1
  C  C8  1  0.99512014  0.00725805  0.35763845  1
  C  C9  1  0.99274195  0.00487986  0.85763845  1
  C  C10  1  0.98628121  0.98757378  0.64212105  1
  C  C11  1  0.01242622  0.01371879  0.14212105  1
  C  C12  1  0.66416773  0.34653214  0.97706367  1
  C  C13  1  0.65346786  0.33583227  0.47706367  1
  C  C14  1  0.32116279  0.65651946  0.02016051  1
  C  C15  1  0.34348054  0.67883721  0.52016051  1
  C  C16  1  0.32328674  0.65645835  0.31422223  1
  C  C17  1  0.34354165  0.67671326  0.81422223  1
  Ni  Ni18  1  0.99105415  0.29050461  0.24923824  1
  Ni  Ni19  1  0.70949539  0.00894585  0.74923824  1
  Ni  Ni20  1  0.38099185  0.04766233  0.58659494  1
  Ni  Ni21  1  0.65738393  0.60749720  0.58686565  1
  Ni  Ni22  1  0.95233767  0.61900815  0.08659494  1
  Ni  Ni23  1  0.39250280  0.34261607  0.08686565  1
  Ni  Ni24  1  0.61841694  0.66949705  0.91800677  1
  Ni  Ni25  1  0.04351457  0.38368435  0.91462038  1
  Ni  Ni26  1  0.33580425  0.95716064  0.91748119  1
  Ni  Ni27  1  0.61631565  0.95648543  0.41462038  1
  Ni  Ni28  1  0.33050295  0.38158306  0.41800677  1
  Ni  Ni29  1  0.04283936  0.66419575  0.41748119  1
  Cu  Cu30  1  0.28855982  0.00086424  0.24972035  1
  Cu  Cu31  1  0.71243610  0.71350054  0.25013470  1
  Cu  Cu32  1  0.28649946  0.28756390  0.75013470  1
  Cu  Cu33  1  0.99913576  0.71144018  0.74972035  1
  Cu  Cu34  1  0.95562071  0.33588488  0.58473185  1
  Cu  Cu35  1  0.66411512  0.04437929  0.08473185  1
  C  C36  1  0.19839004  0.01579014  0.30196859  1
  C  C37  1  0.81929048  0.80061002  0.30331819  1
  C  C38  1  0.98637087  0.16850227  0.30550429  1
  C  C39  1  0.19938998  0.18070952  0.80331819  1
  C  C40  1  0.98420986  0.80160996  0.80196859  1
  C  C41  1  0.83149773  0.01362913  0.80550429  1
  C  C42  1  0.81223840  0.97767497  0.69387657  1
  C  C43  1  0.17891888  0.20218041  0.69805249  1
  C  C44  1  0.02779658  0.82246237  0.69640145  1
  C  C45  1  0.79781959  0.82108112  0.19805249  1
  C  C46  1  0.02232503  0.18776160  0.19387657  1
  C  C47  1  0.17753763  0.97220342  0.19640145  1
  C  C48  1  0.88052867  0.36061723  0.63688642  1
  C  C49  1  0.49514237  0.11605331  0.64285907  1
  C  C50  1  0.63916958  0.50642205  0.64458906  1
  C  C51  1  0.88394669  0.50485763  0.14285907  1
  C  C52  1  0.63938277  0.11947133  0.13688642  1
  C  C53  1  0.49357795  0.36083042  0.14458906  1
  C  C54  1  0.47048718  0.30447790  0.02648877  1
  C  C55  1  0.83421348  0.52813188  0.02671848  1
  C  C56  1  0.69671749  0.14977657  0.03115748  1
  C  C57  1  0.47186812  0.16578652  0.52671848  1
  C  C58  1  0.69552210  0.52951282  0.52648877  1
  C  C59  1  0.85022343  0.30328251  0.53115748  1
  C  C60  1  0.53357994  0.70247005  0.97448760  1
  C  C61  1  0.16491364  0.46688641  0.97235054  1
  C  C62  1  0.30198039  0.83283402  0.97305110  1
  C  C63  1  0.53311359  0.83508636  0.47235054  1
  C  C64  1  0.29752995  0.46642006  0.47448760  1
  C  C65  1  0.16716598  0.69801961  0.47305110  1
  C  C66  1  0.13704420  0.63570917  0.35935082  1
  C  C67  1  0.49837720  0.86239120  0.35744725  1
  C  C68  1  0.36145004  0.49940748  0.35932183  1
  C  C69  1  0.13760880  0.50162280  0.85744725  1
  C  C70  1  0.36429083  0.86295580  0.85935082  1
  C  C71  1  0.50059252  0.63854996  0.85932183  1
  C  C72  1  0.02450707  0.83515856  0.40447836  1
  C  C73  1  0.80797095  0.97024341  0.40765331  1
  C  C74  1  0.16452743  0.18609127  0.40792683  1
  C  C75  1  0.02975659  0.19202904  0.90765331  1
  C  C76  1  0.16484144  0.97549293  0.90447836  1
  C  C77  1  0.81390873  0.83547257  0.90792683  1
  C  C78  1  0.97757208  0.17524833  0.59043179  1
  C  C79  1  0.18378876  0.02778245  0.59300016  1
  C  C80  1  0.83345246  0.81197063  0.59083599  1
  C  C81  1  0.97221755  0.81621124  0.09300016  1
  C  C82  1  0.82475167  0.02242792  0.09043179  1
  C  C83  1  0.18802937  0.16654754  0.09083599  1
  C  C84  1  0.69727035  0.18073120  0.74878714  1
  C  C85  1  0.46022077  0.30909412  0.74752878  1
  C  C86  1  0.84521237  0.54152488  0.74446887  1
  C  C87  1  0.69090588  0.53977923  0.24752878  1
  C  C88  1  0.81926880  0.30272965  0.24878714  1
  C  C89  1  0.45847512  0.15478763  0.24446887  1
  C  C90  1  0.63924178  0.49715998  0.92186660  1
  C  C91  1  0.85100577  0.35382847  0.92476827  1
  C  C92  1  0.50842213  0.14501531  0.92531878  1
  C  C93  1  0.64617153  0.14899423  0.42476827  1
  C  C94  1  0.50284002  0.36075822  0.42186660  1
  C  C95  1  0.85498469  0.49157787  0.42531878  1
  C  C96  1  0.35702394  0.50523846  0.07461116  1
  C  C97  1  0.15302373  0.65832946  0.07332668  1
  C  C98  1  0.51294845  0.86626664  0.07719104  1
  C  C99  1  0.34167054  0.84697627  0.57332668  1
  C  C100  1  0.49476154  0.64297606  0.57461116  1
  C  C101  1  0.13373336  0.48705155  0.57719104  1
  C  C102  1  0.30170496  0.83901899  0.25414503  1
  C  C103  1  0.53901959  0.70435594  0.25550809  1
  C  C104  1  0.17616757  0.48014463  0.25591989  1
  C  C105  1  0.29564406  0.46098041  0.75550809  1
  C  C106  1  0.16098101  0.69829504  0.75414503  1
  C  C107  1  0.51985537  0.82383243  0.75591989  1
