# generated using pymatgen
data_Cu2NiC10
_symmetry_space_group_name_H-M   'P 1'
_cell_length_a   5.64700261
_cell_length_b   6.05756591
_cell_length_c   6.57319812
_cell_angle_alpha   80.52860130
_cell_angle_beta   116.39060436
_cell_angle_gamma   67.46272834
_symmetry_Int_Tables_number   1
_chemical_formula_structural   Cu2NiC10
_chemical_formula_sum   'Cu2 Ni1 C10'
_cell_volume   170.11142802
_cell_formula_units_Z   1
loop_
 _symmetry_equiv_pos_site_id
 _symmetry_equiv_pos_as_xyz
  1  'x, y, z'
loop_
 _atom_site_type_symbol
 _atom_site_label
 _atom_site_symmetry_multiplicity
 _atom_site_fract_x
 _atom_site_fract_y
 _atom_site_fract_z
 _atom_site_occupancy
  C  C0  1  -0.01920923  0.27744597  0.52200087  1
  C  C1  1  0.89055809  0.92493155  0.25898904  1
  C  C2  1  0.46993969  0.38077475  0.70254587  1
  C  C3  1  0.16113293  0.85820616  0.96796893  1
  Ni  Ni4  1  0.57556108  0.83615266  0.57462176  1
  Cu  Cu5  1  0.67529079  0.64319569  0.98024752  1
  Cu  Cu6  1  0.26975087  0.32975025  0.10328450  1
  C  C7  1  0.28253987  0.81169721  0.66566938  1
  C  C8  1  0.09174189  0.47892031  0.26929759  1
  C  C9  1  0.45828119  0.97104853  0.24051199  1
  C  C10  1  0.89196914  0.45289691  0.79637148  1
  C  C11  1  0.69468964  0.94136910  0.85582380  1
  C  C12  1  0.57025404  0.40611092  0.12219128  1
