# generated using pymatgen
data_CuNi5C33
_symmetry_space_group_name_H-M   'P 1'
_cell_length_a   8.83733400
_cell_length_b   8.83458631
_cell_length_c   22.19635450
_cell_angle_alpha   89.93267712
_cell_angle_beta   90.15336947
_cell_angle_gamma   119.94510320
_symmetry_Int_Tables_number   1
_chemical_formula_structural   CuNi5C33
_chemical_formula_sum   'Cu3 Ni15 C99'
_cell_volume   1501.61356724
_cell_formula_units_Z   3
loop_
 _symmetry_equiv_pos_site_id
 _symmetry_equiv_pos_as_xyz
  1  'x, y, z'
loop_
 _atom_site_type_symbol
 _atom_site_label
 _atom_site_symmetry_multiplicity
 _atom_site_fract_x
 _atom_site_fract_y
 _atom_site_fract_z
 _atom_site_occupancy
  C  C0  1  0.63732235  0.00343583  0.24879075  1
  C  C1  1  0.36694727  0.36319430  0.24780482  1
  C  C2  1  0.99556389  0.63197593  0.24828949  1
  C  C3  1  0.99957331  0.36455412  0.75002147  1
  C  C4  1  0.03301162  0.69781134  0.57969212  1
  C  C5  1  0.66222833  0.96557488  0.57981188  1
  C  C6  1  0.96607425  0.66632063  0.91910222  1
  C  C7  1  0.70066699  0.03395494  0.91788879  1
  C  C8  1  0.33187987  0.29888951  0.91970826  1
  C  C9  1  0.00559929  0.00595149  0.49318401  1
  C  C10  1  0.00233021  0.00057137  0.00210363  1
  C  C11  1  0.66055166  0.33181692  0.83358404  1
  C  C12  1  0.66837091  0.33341483  0.33338591  1
  C  C13  1  0.33242402  0.66454997  0.16063812  1
  C  C14  1  0.33964457  0.66516216  0.66363717  1
  C  C15  1  0.00270530  0.00289465  0.64467370  1
  C  C16  1  0.00411504  0.00011431  0.14185549  1
  C  C17  1  0.66285168  0.33426949  0.68753182  1
  C  C18  1  0.66860928  0.33250701  0.47520608  1
  C  C19  1  0.33159917  0.66779346  0.31414058  1
  C  C20  1  0.33422733  0.67340046  0.81218592  1
  Ni  Ni21  1  0.28868183  0.00686913  0.25132406  1
  Ni  Ni22  1  0.71662208  0.71142057  0.24992154  1
  Ni  Ni23  1  0.99341589  0.28073222  0.25064917  1
  Ni  Ni24  1  0.29002823  0.28561303  0.75295434  1
  Ni  Ni25  1  0.99728953  0.71711937  0.75289673  1
  Ni  Ni26  1  0.71427937  0.99716699  0.75213583  1
  Ni  Ni27  1  0.96603838  0.34107298  0.58138783  1
  Ni  Ni28  1  0.37733917  0.04141736  0.58067975  1
  Ni  Ni29  1  0.65429197  0.61871351  0.58041494  1
  Ni  Ni30  1  0.95200383  0.61242235  0.08203527  1
  Ni  Ni31  1  0.38784287  0.34383038  0.08141979  1
  Ni  Ni32  1  0.04034066  0.37361565  0.91922505  1
  Ni  Ni33  1  0.33339838  0.95766835  0.92118189  1
  Ni  Ni34  1  0.63057881  0.95279408  0.41797084  1
  Ni  Ni35  1  0.04776919  0.67861582  0.41802553  1
  C  C36  1  0.99397890  0.99335353  0.35365185  1
  C  C37  1  0.00740992  0.00548502  0.85212762  1
  C  C38  1  0.66804004  0.33917164  0.18473686  1
  C  C39  1  0.66563481  0.32911558  0.98443724  1
  C  C40  1  0.31849389  0.65692782  0.02335514  1
  C  C41  1  0.33456801  0.66824495  0.51809548  1
  Cu  Cu42  1  0.65954627  0.04304773  0.08275311  1
  Cu  Cu43  1  0.62230663  0.66728239  0.91902589  1
  Cu  Cu44  1  0.32550278  0.37403128  0.41808599  1
  C  C45  1  0.20113910  0.04614953  0.30892274  1
  C  C46  1  0.84205962  0.79563076  0.30827716  1
  C  C47  1  0.95613750  0.15592518  0.30902023  1
  C  C48  1  0.20465805  0.16961400  0.81338509  1
  C  C49  1  0.96612088  0.80254367  0.81312589  1
  C  C50  1  0.83961374  0.03814059  0.81162824  1
  C  C51  1  0.79914586  0.96825176  0.69105212  1
  C  C52  1  0.16220226  0.19972130  0.69426714  1
  C  C53  1  0.03159959  0.83112497  0.69157661  1
  C  C54  1  0.79934842  0.84004634  0.19176245  1
  C  C55  1  0.03774523  0.19865087  0.19189061  1
  C  C56  1  0.16076649  0.96029644  0.19231162  1
  C  C57  1  0.87717395  0.37341641  0.64242934  1
  C  C58  1  0.50395853  0.13159013  0.64027916  1
  C  C59  1  0.63235039  0.50057274  0.64104536  1
  C  C60  1  0.86744309  0.49780277  0.14372285  1
  C  C61  1  0.63204379  0.12663741  0.14035333  1
  C  C62  1  0.50024325  0.36741403  0.14343931  1
  C  C63  1  0.46789172  0.30043377  0.02083599  1
  C  C64  1  0.83161442  0.52920535  0.02089669  1
  C  C65  1  0.69783736  0.15865069  0.02455724  1
  C  C66  1  0.46860504  0.16957454  0.52430580  1
  C  C67  1  0.70508090  0.53349847  0.52531209  1
  C  C68  1  0.82864001  0.29627658  0.52617661  1
  C  C69  1  0.53963522  0.70718069  0.97327523  1
  C  C70  1  0.17702451  0.46405823  0.97432963  1
  C  C71  1  0.29363060  0.82156960  0.97597679  1
  C  C72  1  0.53661026  0.83382521  0.47786992  1
  C  C73  1  0.29977401  0.46477221  0.47349660  1
  C  C74  1  0.16646530  0.70087882  0.47786416  1
  C  C75  1  0.13271115  0.63698793  0.35800943  1
  C  C76  1  0.50504318  0.86414948  0.35794325  1
  C  C77  1  0.36000289  0.48990662  0.35998467  1
  C  C78  1  0.12597434  0.49719007  0.85861142  1
  C  C79  1  0.37291202  0.87086661  0.86110566  1
  C  C80  1  0.50369784  0.63318648  0.86203309  1
  C  C81  1  0.03250768  0.85219683  0.40946710  1
  C  C82  1  0.82262546  0.97580429  0.40975143  1
  C  C83  1  0.16423880  0.19405335  0.41061161  1
  C  C84  1  0.01935702  0.17718564  0.91083241  1
  C  C85  1  0.15621007  0.97403995  0.91151197  1
  C  C86  1  0.80704720  0.83272901  0.91120950  1
  C  C87  1  0.97186756  0.15996239  0.58849073  1
  C  C88  1  0.18246838  0.01646164  0.58875856  1
  C  C89  1  0.83250912  0.81175127  0.58950161  1
  C  C90  1  0.96958788  0.80730978  0.08802327  1
  C  C91  1  0.82730434  0.02826175  0.08829920  1
  C  C92  1  0.19138233  0.16803075  0.08819413  1
  C  C93  1  0.70050671  0.17429695  0.74518826  1
  C  C94  1  0.48147038  0.30641498  0.74549124  1
  C  C95  1  0.83218253  0.51844451  0.74626146  1
  C  C96  1  0.69134345  0.51440727  0.24306088  1
  C  C97  1  0.82189504  0.30596826  0.24215651  1
  C  C98  1  0.48596001  0.17450625  0.24173500  1
  C  C99  1  0.64046143  0.50129026  0.92196255  1
  C  C100  1  0.84469790  0.35480870  0.92502666  1
  C  C101  1  0.51014137  0.15367961  0.92510610  1
  C  C102  1  0.64021257  0.14356901  0.42202626  1
  C  C103  1  0.49456276  0.36216900  0.42285791  1
  C  C104  1  0.85520234  0.50044273  0.42267973  1
  C  C105  1  0.36809957  0.51845199  0.07455272  1
  C  C106  1  0.14907012  0.63935971  0.07664817  1
  C  C107  1  0.49738712  0.86018521  0.07529854  1
  C  C108  1  0.35819480  0.84853495  0.57658541  1
  C  C109  1  0.48768617  0.64636694  0.57528142  1
  C  C110  1  0.15391076  0.51542163  0.57459452  1
  C  C111  1  0.30924398  0.83053468  0.25650588  1
  C  C112  1  0.51884091  0.68651211  0.25657621  1
  C  C113  1  0.16879035  0.47744048  0.25660411  1
  C  C114  1  0.30323719  0.47683434  0.75834641  1
  C  C115  1  0.16866170  0.68955224  0.75741443  1
  C  C116  1  0.52116969  0.82535897  0.75725364  1
