# generated using pymatgen
data_Cu4NiC14
_symmetry_space_group_name_H-M   'P 1'
_cell_length_a   5.08708553
_cell_length_b   4.93126757
_cell_length_c   8.92051200
_cell_angle_alpha   90.00000000
_cell_angle_beta   90.00000000
_cell_angle_gamma   90.10293460
_symmetry_Int_Tables_number   1
_chemical_formula_structural   Cu4NiC14
_chemical_formula_sum   'Cu4 Ni1 C14'
_cell_volume   223.77763954
_cell_formula_units_Z   1
loop_
 _symmetry_equiv_pos_site_id
 _symmetry_equiv_pos_as_xyz
  1  'x, y, z'
loop_
 _atom_site_type_symbol
 _atom_site_label
 _atom_site_symmetry_multiplicity
 _atom_site_fract_x
 _atom_site_fract_y
 _atom_site_fract_z
 _atom_site_occupancy
  Ni  Ni0  1  0.00000000  0.50000000  0.00605200  1
  Cu  Cu1  1  0.00000000  0.00000000  0.67450300  1
  Cu  Cu2  1  0.50000000  0.50000000  0.18881000  1
  Cu  Cu3  1  0.50000000  0.50000000  0.81938300  1
  Cu  Cu4  1  0.00000000  0.00000000  0.33286000  1
  C  C5  1  0.50000000  0.50000000  0.50474500  1
  C  C6  1  0.00000000  0.00000000  0.99939900  1
  C  C7  1  0.69321300  0.74382600  0.68838600  1
  C  C8  1  0.30678700  0.25617400  0.68838600  1
  C  C9  1  0.69371100  0.74410500  0.31924700  1
  C  C10  1  0.18122100  0.74918500  0.17899100  1
  C  C11  1  0.81877900  0.25081500  0.17899100  1
  C  C12  1  0.81930100  0.25223700  0.82826500  1
  C  C13  1  0.33697600  0.31075700  0.00421300  1
  C  C14  1  0.16262000  0.80443200  0.50373700  1
  C  C15  1  0.83738000  0.19556800  0.50373700  1
  C  C16  1  0.66302400  0.68924300  0.00421300  1
  C  C17  1  0.30628900  0.25589500  0.31924700  1
  C  C18  1  0.18069900  0.74776300  0.82826500  1
