# generated using pymatgen
data_Cu2NiC6
_symmetry_space_group_name_H-M   'P 1'
_cell_length_a   6.37325158
_cell_length_b   6.14275831
_cell_length_c   6.37325156
_cell_angle_alpha   58.38026850
_cell_angle_beta   54.15078596
_cell_angle_gamma   58.38026814
_symmetry_Int_Tables_number   1
_chemical_formula_structural   Cu2NiC6
_chemical_formula_sum   'Cu2 Ni1 C6'
_cell_volume   163.46677538
_cell_formula_units_Z   1
loop_
 _symmetry_equiv_pos_site_id
 _symmetry_equiv_pos_as_xyz
  1  'x, y, z'
loop_
 _atom_site_type_symbol
 _atom_site_label
 _atom_site_symmetry_multiplicity
 _atom_site_fract_x
 _atom_site_fract_y
 _atom_site_fract_z
 _atom_site_occupancy
  Ni  Ni0  1  0.85685888  0.56211142  0.85685888  1
  Cu  Cu1  1  0.94585094  0.95021809  0.94585294  1
  Cu  Cu2  1  0.20489593  0.02429032  0.20489693  1
  C  C3  1  0.59294473  0.60983124  0.59294573  1
  C  C4  1  0.36375834  0.35902638  0.36376034  1
  C  C5  1  0.45275411  0.98733814  0.45275611  1
  C  C6  1  0.97347068  0.53638493  0.49740990  1
  C  C7  1  0.49741090  0.53638493  0.97346868  1
  C  C8  1  0.49747048  0.44483155  0.49747248  1
