# generated using pymatgen
data_Cu2Ni12C49
_symmetry_space_group_name_H-M   'P 1'
_cell_length_a   9.28399667
_cell_length_b   9.28399633
_cell_length_c   22.53100024
_cell_angle_alpha   90.00000000
_cell_angle_beta   90.00000000
_cell_angle_gamma   120.00000116
_symmetry_Int_Tables_number   1
_chemical_formula_structural   Cu2Ni12C49
_chemical_formula_sum   'Cu4 Ni24 C98'
_cell_volume   1681.82589545
_cell_formula_units_Z   2
loop_
 _symmetry_equiv_pos_site_id
 _symmetry_equiv_pos_as_xyz
  1  'x, y, z'
loop_
 _atom_site_type_symbol
 _atom_site_label
 _atom_site_symmetry_multiplicity
 _atom_site_fract_x
 _atom_site_fract_y
 _atom_site_fract_z
 _atom_site_occupancy
  Ni  Ni0  1  0.64740338  0.02505926  0.24341284  1
  Ni  Ni1  1  0.37765588  0.35259662  0.24341284  1
  Ni  Ni2  1  0.97494074  0.62234412  0.24341284  1
  Ni  Ni3  1  0.64740338  0.62234412  0.74341284  1
  Ni  Ni4  1  0.97494074  0.35259662  0.74341284  1
  Ni  Ni5  1  0.37765588  0.02505926  0.74341284  1
  Ni  Ni6  1  0.31542913  0.33586702  0.58780281  1
  Ni  Ni7  1  0.02043889  0.68457087  0.58780281  1
  Ni  Ni8  1  0.66413298  0.97956111  0.58780281  1
  Ni  Ni9  1  0.31542913  0.97956111  0.08780281  1
  Ni  Ni10  1  0.66413298  0.68457087  0.08780281  1
  Ni  Ni11  1  0.02043889  0.33586702  0.08780281  1
  Ni  Ni12  1  0.96283951  0.68233704  0.90777154  1
  Ni  Ni13  1  0.71949653  0.03716049  0.90777154  1
  Ni  Ni14  1  0.31766296  0.28050347  0.90777154  1
  Ni  Ni15  1  0.96283951  0.28050347  0.40777154  1
  Ni  Ni16  1  0.31766296  0.03716049  0.40777154  1
  Ni  Ni17  1  0.71949653  0.68233704  0.40777154  1
  Ni  Ni18  1  0.00000000  -0.00000000  0.49731558  1
  Ni  Ni19  1  0.00000000  -0.00000000  0.99731558  1
  Ni  Ni20  1  0.66666700  0.33333300  0.81943396  1
  Ni  Ni21  1  0.66666700  0.33333300  0.31943396  1
  Ni  Ni22  1  0.33333300  0.66666700  0.16852407  1
  Ni  Ni23  1  0.33333300  0.66666700  0.66852407  1
  Cu  Cu24  1  0.00000000  -0.00000000  0.35415837  1
  Cu  Cu25  1  0.00000000  -0.00000000  0.85415837  1
  Cu  Cu26  1  0.66666700  0.33333300  0.67781284  1
  Cu  Cu27  1  0.66666700  0.33333300  0.17781284  1
  C  C28  1  0.00000000  -0.00000000  0.65123015  1
  C  C29  1  0.00000000  -0.00000000  0.15123015  1
  C  C30  1  0.66666700  0.33333300  0.98064137  1
  C  C31  1  0.66666700  0.33333300  0.48064137  1
  C  C32  1  0.33333300  0.66666700  0.01822964  1
  C  C33  1  0.33333300  0.66666700  0.51822964  1
  C  C34  1  0.33333300  0.66666700  0.31059703  1
  C  C35  1  0.33333300  0.66666700  0.81059703  1
  C  C36  1  0.29580117  0.99373253  0.25397387  1
  C  C37  1  0.69793136  0.70419883  0.25397387  1
  C  C38  1  0.00626747  0.30206864  0.25397387  1
  C  C39  1  0.29580117  0.30206864  0.75397387  1
  C  C40  1  0.00626747  0.70419883  0.75397387  1
  C  C41  1  0.69793136  0.99373253  0.75397387  1
  C  C42  1  0.97023549  0.33224585  0.58370574  1
  C  C43  1  0.36201137  0.02976451  0.58370574  1
  C  C44  1  0.66775415  0.63798863  0.58370574  1
  C  C45  1  0.97023549  0.63798863  0.08370574  1
  C  C46  1  0.66775415  0.02976451  0.08370574  1
  C  C47  1  0.36201137  0.33224585  0.08370574  1
  C  C48  1  0.61470756  0.65137448  0.91723479  1
  C  C49  1  0.03666592  0.38529244  0.91723479  1
  C  C50  1  0.34862552  0.96333408  0.91723479  1
  C  C51  1  0.61470756  0.96333408  0.41723479  1
  C  C52  1  0.34862552  0.38529244  0.41723479  1
  C  C53  1  0.03666592  0.65137448  0.41723479  1
  C  C54  1  0.22115331  0.01774615  0.31434876  1
  C  C55  1  0.79659284  0.77884669  0.31434876  1
  C  C56  1  0.98225385  0.20340716  0.31434876  1
  C  C57  1  0.22115331  0.20340716  0.81434876  1
  C  C58  1  0.98225385  0.77884669  0.81434876  1
  C  C59  1  0.79659284  0.01774615  0.81434876  1
  C  C60  1  0.81051023  0.97881092  0.69561254  1
  C  C61  1  0.16830069  0.18948977  0.69561254  1
  C  C62  1  0.02118908  0.83169931  0.69561254  1
  C  C63  1  0.81051023  0.83169931  0.19561254  1
  C  C64  1  0.02118908  0.18948977  0.19561254  1
  C  C65  1  0.16830069  0.97881092  0.19561254  1
  C  C66  1  0.91711337  0.39032121  0.64191494  1
  C  C67  1  0.47320884  0.08288663  0.64191494  1
  C  C68  1  0.60967879  0.52679116  0.64191494  1
  C  C69  1  0.91711337  0.52679116  0.14191494  1
  C  C70  1  0.60967879  0.08288663  0.14191494  1
  C  C71  1  0.47320884  0.39032121  0.14191494  1
  C  C72  1  0.47228000  0.30755780  0.02826517  1
  C  C73  1  0.83527880  0.52772000  0.02826517  1
  C  C74  1  0.69244220  0.16472120  0.02826517  1
  C  C75  1  0.47228000  0.16472120  0.52826517  1
  C  C76  1  0.69244220  0.52772000  0.52826517  1
  C  C77  1  0.83527880  0.30755780  0.52826517  1
  C  C78  1  0.49934857  0.64484079  0.97365473  1
  C  C79  1  0.14549122  0.50065143  0.97365473  1
  C  C80  1  0.35515921  0.85450878  0.97365473  1
  C  C81  1  0.49934857  0.85450878  0.47365473  1
  C  C82  1  0.35515921  0.50065143  0.47365473  1
  C  C83  1  0.14549122  0.64484079  0.47365473  1
  C  C84  1  0.13694432  0.63678594  0.35777979  1
  C  C85  1  0.49984062  0.86305568  0.35777979  1
  C  C86  1  0.36321406  0.50015938  0.35777979  1
  C  C87  1  0.13694432  0.50015938  0.85777979  1
  C  C88  1  0.36321406  0.86305568  0.85777979  1
  C  C89  1  0.49984062  0.63678594  0.85777979  1
  C  C90  1  0.01884678  0.81354564  0.42296751  1
  C  C91  1  0.79469886  0.98115322  0.42296751  1
  C  C92  1  0.18645436  0.20530114  0.42296751  1
  C  C93  1  0.01884678  0.20530114  0.92296751  1
  C  C94  1  0.18645436  0.98115322  0.92296751  1
  C  C95  1  0.79469886  0.81354564  0.92296751  1
  C  C96  1  0.96953096  0.15422859  0.58854018  1
  C  C97  1  0.18469763  0.03046904  0.58854018  1
  C  C98  1  0.84577141  0.81530237  0.58854018  1
  C  C99  1  0.96953096  0.81530237  0.08854018  1
  C  C100  1  0.84577141  0.03046904  0.08854018  1
  C  C101  1  0.18469763  0.15422859  0.08854018  1
  C  C102  1  0.66711802  0.14692932  0.74527987  1
  C  C103  1  0.47981230  0.33288198  0.74527987  1
  C  C104  1  0.85307068  0.52018770  0.74527987  1
  C  C105  1  0.66711802  0.52018770  0.24527987  1
  C  C106  1  0.85307068  0.33288198  0.24527987  1
  C  C107  1  0.47981230  0.14692932  0.24527987  1
  C  C108  1  0.62402778  0.47745303  0.92119570  1
  C  C109  1  0.85342626  0.37597222  0.92119570  1
  C  C110  1  0.52254697  0.14657374  0.92119570  1
  C  C111  1  0.62402778  0.14657374  0.42119570  1
  C  C112  1  0.52254697  0.37597222  0.42119570  1
  C  C113  1  0.85342626  0.47745303  0.42119570  1
  C  C114  1  0.31319496  0.47931192  0.07167833  1
  C  C115  1  0.16611595  0.68680504  0.07167833  1
  C  C116  1  0.52068808  0.83388405  0.07167833  1
  C  C117  1  0.31319496  0.83388405  0.57167833  1
  C  C118  1  0.52068808  0.68680504  0.57167833  1
  C  C119  1  0.16611595  0.47931192  0.57167833  1
  C  C120  1  0.28743910  0.80892889  0.25221322  1
  C  C121  1  0.52148879  0.71256090  0.25221322  1
  C  C122  1  0.19107111  0.47851121  0.25221322  1
  C  C123  1  0.28743910  0.47851121  0.75221322  1
  C  C124  1  0.19107111  0.71256090  0.75221322  1
  C  C125  1  0.52148879  0.80892889  0.75221322  1
