# generated using pymatgen
data_Cu2NiC12
_symmetry_space_group_name_H-M   'P 1'
_cell_length_a   7.31194627
_cell_length_b   7.31194617
_cell_length_c   7.31194513
_cell_angle_alpha   56.77657730
_cell_angle_beta   56.77657968
_cell_angle_gamma   56.77657180
_symmetry_Int_Tables_number   1
_chemical_formula_structural   Cu2NiC12
_chemical_formula_sum   'Cu2 Ni1 C12'
_cell_volume   255.86115662
_cell_formula_units_Z   1
loop_
 _symmetry_equiv_pos_site_id
 _symmetry_equiv_pos_as_xyz
  1  'x, y, z'
loop_
 _atom_site_type_symbol
 _atom_site_label
 _atom_site_symmetry_multiplicity
 _atom_site_fract_x
 _atom_site_fract_y
 _atom_site_fract_z
 _atom_site_occupancy
  Ni  Ni0  1  0.00000000  0.00000000  0.00000000  1
  C  C1  1  0.50000000  0.50000000  0.00000000  1
  C  C2  1  0.00000000  0.50000000  0.50000000  1
  C  C3  1  0.50000000  0.50000000  0.50000000  1
  C  C4  1  0.50000000  0.00000000  0.50000000  1
  Cu  Cu5  1  0.14066200  0.14066200  0.14066200  1
  Cu  Cu6  1  0.85933800  0.85933800  0.85933800  1
  C  C7  1  0.25674900  0.73269900  0.25674900  1
  C  C8  1  0.73897200  0.73897200  0.73897200  1
  C  C9  1  0.26102800  0.26102800  0.26102800  1
  C  C10  1  0.74325100  0.74325100  0.26730100  1
  C  C11  1  0.26730100  0.74325100  0.74325100  1
  C  C12  1  0.25674900  0.25674900  0.73269900  1
  C  C13  1  0.73269900  0.25674900  0.25674900  1
  C  C14  1  0.74325100  0.26730100  0.74325100  1
