# generated using pymatgen
data_Cu5NiC33
_symmetry_space_group_name_H-M   'P 1'
_cell_length_a   9.10095484
_cell_length_b   9.09950076
_cell_length_c   22.94302670
_cell_angle_alpha   90.07880533
_cell_angle_beta   89.84179233
_cell_angle_gamma   119.99486808
_symmetry_Int_Tables_number   1
_chemical_formula_structural   Cu5NiC33
_chemical_formula_sum   'Cu15 Ni3 C99'
_cell_volume   1645.53327237
_cell_formula_units_Z   3
loop_
 _symmetry_equiv_pos_site_id
 _symmetry_equiv_pos_as_xyz
  1  'x, y, z'
loop_
 _atom_site_type_symbol
 _atom_site_label
 _atom_site_symmetry_multiplicity
 _atom_site_fract_x
 _atom_site_fract_y
 _atom_site_fract_z
 _atom_site_occupancy
  C  C0  1  0.35981451  0.34833236  0.24898799  1
  C  C1  1  0.00651459  0.64774465  0.24469616  1
  C  C2  1  0.63751885  0.64725027  0.74652911  1
  C  C3  1  0.99379153  0.35296395  0.75598309  1
  C  C4  1  0.32163672  0.34655188  0.58418368  1
  C  C5  1  0.66716376  0.96615450  0.58787247  1
  C  C6  1  0.30022624  0.96759789  0.08702133  1
  C  C7  1  0.69376075  0.02689554  0.91587452  1
  C  C8  1  0.69679434  0.66600026  0.42053047  1
  C  C9  1  0.00494354  0.98534074  0.50002401  1
  C  C10  1  0.99968299  0.99943959  0.00071197  1
  C  C11  1  0.64988080  0.32181536  0.83689846  1
  C  C12  1  0.65117237  0.28745828  0.32906879  1
  C  C13  1  0.35032266  0.67875000  0.16590960  1
  C  C14  1  0.34185442  0.69413173  0.66841580  1
  C  C15  1  0.00865952  0.01046043  0.34392875  1
  C  C16  1  0.99492107  0.98497411  0.65237075  1
  C  C17  1  0.66418915  0.33158911  0.68573962  1
  C  C18  1  0.67304726  0.33478801  0.47997684  1
  C  C19  1  0.32463034  0.66777121  0.51308164  1
  C  C20  1  0.33552906  0.67265526  0.82516856  1
  C  C21  1  0.00270922  0.99870027  0.85227101  1
  C  C22  1  0.99630396  0.99712591  0.15124421  1
  C  C23  1  0.66529376  0.32601682  0.17853922  1
  C  C24  1  0.67130443  0.34253540  0.98795911  1
  C  C25  1  0.32857004  0.65322872  0.01623301  1
  C  C26  1  0.33665041  0.68384947  0.31347175  1
  Ni  Ni27  1  0.30675711  0.00269472  0.24321244  1
  Ni  Ni28  1  0.70376378  0.00009773  0.75477504  1
  Ni  Ni29  1  0.66332787  0.64011320  0.58163758  1
  Cu  Cu30  1  0.69653768  0.69399037  0.24822281  1
  Cu  Cu31  1  0.99876526  0.30402845  0.24587904  1
  Cu  Cu32  1  0.29484470  0.29735242  0.75267038  1
  Cu  Cu33  1  0.00046531  0.70045445  0.75541306  1
  Cu  Cu34  1  0.97379323  0.33221336  0.58631447  1
  Cu  Cu35  1  0.36512855  0.03269791  0.58226420  1
  Cu  Cu36  1  0.96382223  0.63031089  0.08450573  1
  Cu  Cu37  1  0.66650100  0.03630584  0.08096432  1
  Cu  Cu38  1  0.37207134  0.33424316  0.08406663  1
  Cu  Cu39  1  0.63765399  0.66467918  0.91927756  1
  Cu  Cu40  1  0.02454175  0.35976948  0.91892031  1
  Cu  Cu41  1  0.33661190  0.97719243  0.92361576  1
  Cu  Cu42  1  0.63150794  0.96131977  0.41425588  1
  Cu  Cu43  1  0.33417650  0.37341831  0.41253355  1
  Cu  Cu44  1  0.03007568  0.66541588  0.40972068  1
  C  C45  1  0.23026301  0.04416789  0.29645194  1
  C  C46  1  0.79053368  0.76115183  0.30362035  1
  C  C47  1  0.96470852  0.20882343  0.30064547  1
  C  C48  1  0.19570967  0.18708258  0.80155674  1
  C  C49  1  0.99728248  0.80087460  0.80542380  1
  C  C50  1  0.81517505  0.00844234  0.80752501  1
  C  C51  1  0.78375755  0.98779130  0.69649175  1
  C  C52  1  0.21444238  0.22355866  0.69595080  1
  C  C53  1  0.01967794  0.78821230  0.70002784  1
  C  C54  1  0.78687448  0.81026069  0.19945617  1
  C  C55  1  0.02353455  0.21239883  0.19682100  1
  C  C56  1  0.18801890  0.96898115  0.18955038  1
  C  C57  1  0.89453056  0.34125830  0.64154684  1
  C  C58  1  0.46591707  0.11461365  0.63509877  1
  C  C59  1  0.65223432  0.53985608  0.63767668  1
  C  C60  1  0.88596742  0.53426436  0.13906658  1
  C  C61  1  0.63915509  0.12416350  0.13077812  1
  C  C62  1  0.46959024  0.35940630  0.13889224  1
  C  C63  1  0.46190714  0.30807231  0.03467991  1
  C  C64  1  0.85861593  0.54121510  0.03385000  1
  C  C65  1  0.69023226  0.13485235  0.02647265  1
  C  C66  1  0.45282268  0.13052450  0.52970961  1
  C  C67  1  0.66587794  0.54668596  0.52575386  1
  C  C68  1  0.86576489  0.31514233  0.53614173  1
  C  C69  1  0.53786520  0.69071701  0.96580991  1
  C  C70  1  0.13989535  0.45805101  0.96680468  1
  C  C71  1  0.31114149  0.86807373  0.97555074  1
  C  C72  1  0.55790220  0.87873805  0.47106322  1
  C  C73  1  0.32870652  0.45254271  0.46830852  1
  C  C74  1  0.11932498  0.67248933  0.46345850  1
  C  C75  1  0.12492139  0.66432731  0.35715043  1
  C  C76  1  0.52192130  0.85887765  0.36540724  1
  C  C77  1  0.33721496  0.47823783  0.36197353  1
  C  C78  1  0.08887726  0.44644972  0.86217480  1
  C  C79  1  0.37132633  0.90299854  0.87134814  1
  C  C80  1  0.54911455  0.63570226  0.86239479  1
  C  C81  1  0.00389896  0.81540593  0.41010266  1
  C  C82  1  0.79922454  0.96932196  0.41061069  1
  C  C83  1  0.18581122  0.20082335  0.41161397  1
  C  C84  1  0.00579656  0.18556968  0.91717586  1
  C  C85  1  0.18405497  0.99468449  0.91574658  1
  C  C86  1  0.80648107  0.82732566  0.91654128  1
  C  C87  1  0.99467978  0.17882628  0.58534192  1
  C  C88  1  0.19885965  0.02600200  0.58408738  1
  C  C89  1  0.81927332  0.82183594  0.57980444  1
  C  C90  1  0.98513999  0.80565851  0.08781743  1
  C  C91  1  0.81606434  0.01409529  0.08952253  1
  C  C92  1  0.20097961  0.17466477  0.08844364  1
  C  C93  1  0.69539071  0.16668981  0.75670321  1
  C  C94  1  0.47150090  0.32801037  0.75531352  1
  C  C95  1  0.83467965  0.53456387  0.75607931  1
  C  C96  1  0.68259277  0.52345976  0.23882315  1
  C  C97  1  0.85703538  0.33896241  0.23602157  1
  C  C98  1  0.48584420  0.16124903  0.23488782  1
  C  C99  1  0.66198915  0.51864744  0.93073944  1
  C  C100  1  0.84972921  0.33496438  0.92752472  1
  C  C101  1  0.49280787  0.14822791  0.93077338  1
  C  C102  1  0.65276404  0.13292268  0.41160156  1
  C  C103  1  0.49638420  0.36782731  0.40954089  1
  C  C104  1  0.85828071  0.50957046  0.40808400  1
  C  C105  1  0.35045041  0.48468278  0.07544666  1
  C  C106  1  0.14013090  0.65384943  0.07879490  1
  C  C107  1  0.50580650  0.86492176  0.07634685  1
  C  C108  1  0.34367306  0.86015768  0.58108343  1
  C  C109  1  0.49919081  0.65642543  0.58330755  1
  C  C110  1  0.14517722  0.48412759  0.58300017  1
  C  C111  1  0.31385601  0.83540147  0.25161668  1
  C  C112  1  0.51965829  0.66551317  0.25239603  1
  C  C113  1  0.16124312  0.47425592  0.25072001  1
  C  C114  1  0.30343619  0.46645754  0.75649281  1
  C  C115  1  0.14014253  0.66104257  0.75887553  1
  C  C116  1  0.52660175  0.83646360  0.75677737  1
