# generated using pymatgen
data_Cu3NiC14
_symmetry_space_group_name_H-M   'P 1'
_cell_length_a   8.46584403
_cell_length_b   8.46584379
_cell_length_c   22.05518831
_cell_angle_alpha   90.00000000
_cell_angle_beta   90.00000000
_cell_angle_gamma   120.00000099
_symmetry_Int_Tables_number   1
_chemical_formula_structural   Cu3NiC14
_chemical_formula_sum   'Cu18 Ni6 C84'
_cell_volume   1368.93211168
_cell_formula_units_Z   6
loop_
 _symmetry_equiv_pos_site_id
 _symmetry_equiv_pos_as_xyz
  1  'x, y, z'
loop_
 _atom_site_type_symbol
 _atom_site_label
 _atom_site_symmetry_multiplicity
 _atom_site_fract_x
 _atom_site_fract_y
 _atom_site_fract_z
 _atom_site_occupancy
  C  C0  1  -0.00000000  -0.00000000  0.49993640  1
  C  C1  1  -0.00000000  -0.00000000  0.99979532  1
  C  C2  1  0.66666700  0.33333300  0.83363616  1
  C  C3  1  0.66666700  0.33333300  0.33313889  1
  C  C4  1  0.33333300  0.66666700  0.16641104  1
  C  C5  1  0.33333300  0.66666700  0.66681400  1
  C  C6  1  -0.00000000  -0.00000000  0.64731679  1
  C  C7  1  -0.00000000  -0.00000000  0.14471892  1
  C  C8  1  0.66666700  0.33333300  0.68822646  1
  C  C9  1  0.66666700  0.33333300  0.47920995  1
  C  C10  1  0.33333300  0.66666700  0.51932070  1
  C  C11  1  0.33333300  0.66666700  0.31208968  1
  Ni  Ni12  1  -0.00000000  -0.00000000  0.35195945  1
  Ni  Ni13  1  -0.00000000  -0.00000000  0.85386882  1
  Ni  Ni14  1  0.66666700  0.33333300  0.18582190  1
  Ni  Ni15  1  0.66666700  0.33333300  0.97953522  1
  Ni  Ni16  1  0.33333300  0.66666700  0.01928232  1
  Ni  Ni17  1  0.33333300  0.66666700  0.81459983  1
  Cu  Cu18  1  0.28967115  0.00443579  0.24986159  1
  Cu  Cu19  1  0.71476463  0.71032885  0.24986159  1
  Cu  Cu20  1  0.99556421  0.28523537  0.24986159  1
  Cu  Cu21  1  0.28556940  0.28983581  0.75225935  1
  Cu  Cu22  1  0.00426641  0.71443060  0.75225935  1
  Cu  Cu23  1  0.71016419  0.99573359  0.75225935  1
  Cu  Cu24  1  0.95508020  0.33347609  0.58342518  1
  Cu  Cu25  1  0.37839688  0.04491980  0.58342518  1
  Cu  Cu26  1  0.66652391  0.62160312  0.58342518  1
  Cu  Cu27  1  0.95316352  0.61536070  0.08222480  1
  Cu  Cu28  1  0.66219818  0.04683648  0.08222480  1
  Cu  Cu29  1  0.38463930  0.33780182  0.08222480  1
  Cu  Cu30  1  0.62057460  0.66668116  0.91673106  1
  Cu  Cu31  1  0.04610556  0.37942540  0.91673106  1
  Cu  Cu32  1  0.33331884  0.95389444  0.91673106  1
  Cu  Cu33  1  0.62658463  0.95554440  0.41553418  1
  Cu  Cu34  1  0.32895876  0.37341537  0.41553418  1
  Cu  Cu35  1  0.04445560  0.67104124  0.41553418  1
  C  C36  1  0.20731191  0.03931960  0.30746487  1
  C  C37  1  0.83200769  0.79268809  0.30746487  1
  C  C38  1  0.96068040  0.16799231  0.30746487  1
  C  C39  1  0.20343626  0.16769965  0.80880256  1
  C  C40  1  0.96426338  0.79656374  0.80880256  1
  C  C41  1  0.83230035  0.03573662  0.80880256  1
  C  C42  1  0.79381302  0.96358094  0.69489699  1
  C  C43  1  0.16976792  0.20618698  0.69489699  1
  C  C44  1  0.03641906  0.83023208  0.69489699  1
  C  C45  1  0.79852610  0.82990867  0.19344356  1
  C  C46  1  0.03138257  0.20147390  0.19344356  1
  C  C47  1  0.17009133  0.96861743  0.19344356  1
  C  C48  1  0.86949972  0.36631981  0.64011792  1
  C  C49  1  0.49682109  0.13050028  0.64011792  1
  C  C50  1  0.63368019  0.50317891  0.64011792  1
  C  C51  1  0.87269005  0.49980515  0.14030605  1
  C  C52  1  0.62711610  0.12730995  0.14030605  1
  C  C53  1  0.50019485  0.37288390  0.14030605  1
  C  C54  1  0.46422892  0.29745873  0.02518946  1
  C  C55  1  0.83323080  0.53577108  0.02518946  1
  C  C56  1  0.70254127  0.16676920  0.02518946  1
  C  C57  1  0.46345036  0.16318411  0.52673189  1
  C  C58  1  0.69973476  0.53654964  0.52673189  1
  C  C59  1  0.83681589  0.30026524  0.52673189  1
  C  C60  1  0.53926362  0.70429733  0.97405999  1
  C  C61  1  0.16503271  0.46073638  0.97405999  1
  C  C62  1  0.29570267  0.83496729  0.97405999  1
  C  C63  1  0.54079864  0.83796339  0.47247576  1
  C  C64  1  0.29716375  0.45920136  0.47247576  1
  C  C65  1  0.16203661  0.70283625  0.47247576  1
  C  C66  1  0.13017340  0.63535028  0.35958631  1
  C  C67  1  0.50517588  0.86982660  0.35958631  1
  C  C68  1  0.36464972  0.49482412  0.35958631  1
  C  C69  1  0.12704492  0.49804947  0.85942746  1
  C  C70  1  0.37100354  0.87295508  0.85942746  1
  C  C71  1  0.50195053  0.62899646  0.85942746  1
  C  C72  1  0.02621986  0.84259643  0.40836395  1
  C  C73  1  0.81637657  0.97378014  0.40836395  1
  C  C74  1  0.15740357  0.18362343  0.40836395  1
  C  C75  1  0.02592752  0.18797674  0.90908365  1
  C  C76  1  0.16204922  0.97407248  0.90908365  1
  C  C77  1  0.81202326  0.83795078  0.90908365  1
  C  C78  1  0.97419291  0.16354267  0.59044789  1
  C  C79  1  0.18934976  0.02580709  0.59044789  1
  C  C80  1  0.83645733  0.81065024  0.59044789  1
  C  C81  1  0.97358394  0.80549820  0.08989375  1
  C  C82  1  0.83191426  0.02641606  0.08989375  1
  C  C83  1  0.19450180  0.16808574  0.08989375  1
  C  C84  1  0.69128889  0.16565131  0.74408748  1
  C  C85  1  0.47436342  0.30871111  0.74408748  1
  C  C86  1  0.83434869  0.52563658  0.74408748  1
  C  C87  1  0.69318329  0.51874119  0.24214171  1
  C  C88  1  0.82555890  0.30681671  0.24214171  1
  C  C89  1  0.48125881  0.17444110  0.24214171  1
  C  C90  1  0.64067502  0.49527277  0.92433026  1
  C  C91  1  0.85459876  0.35932498  0.92433026  1
  C  C92  1  0.50472723  0.14540124  0.92433026  1
  C  C93  1  0.64371858  0.14343296  0.42325664  1
  C  C94  1  0.49971538  0.35628142  0.42325664  1
  C  C95  1  0.85656704  0.50028462  0.42325664  1
  C  C96  1  0.36135567  0.50744154  0.07509750  1
  C  C97  1  0.14608487  0.63864433  0.07509750  1
  C  C98  1  0.49255846  0.85391513  0.07509750  1
  C  C99  1  0.35915613  0.85599451  0.57627159  1
  C  C100  1  0.49683738  0.64084387  0.57627159  1
  C  C101  1  0.14400549  0.50316262  0.57627159  1
  C  C102  1  0.30868197  0.83418252  0.25716543  1
  C  C103  1  0.52549955  0.69131803  0.25716543  1
  C  C104  1  0.16581748  0.47450045  0.25716543  1
  C  C105  1  0.30557987  0.48115853  0.75876056  1
  C  C106  1  0.17557766  0.69442013  0.75876056  1
  C  C107  1  0.51884147  0.82442234  0.75876056  1
