# generated using pymatgen
data_Cu6NiC12
_symmetry_space_group_name_H-M   'P 1'
_cell_length_a   7.51554037
_cell_length_b   5.97165057
_cell_length_c   5.97160284
_cell_angle_alpha   63.09661341
_cell_angle_beta   69.66122145
_cell_angle_gamma   69.65821627
_symmetry_Int_Tables_number   1
_chemical_formula_structural   Cu6NiC12
_chemical_formula_sum   'Cu6 Ni1 C12'
_cell_volume   218.21594042
_cell_formula_units_Z   1
loop_
 _symmetry_equiv_pos_site_id
 _symmetry_equiv_pos_as_xyz
  1  'x, y, z'
loop_
 _atom_site_type_symbol
 _atom_site_label
 _atom_site_symmetry_multiplicity
 _atom_site_fract_x
 _atom_site_fract_y
 _atom_site_fract_z
 _atom_site_occupancy
  Ni  Ni0  1  0.16667525  0.58313907  0.08350294  1
  Cu  Cu1  1  0.79743645  0.68730753  0.65149806  1
  Cu  Cu2  1  0.66667756  0.34809765  0.31855316  1
  Cu  Cu3  1  0.22159700  0.58861064  0.55423368  1
  Cu  Cu4  1  0.16665855  0.13560241  0.53108012  1
  Cu  Cu5  1  0.53590859  0.01514686  0.97937243  1
  Cu  Cu6  1  0.11173798  0.11244391  0.07807872  1
  C  C7  1  0.66669615  0.04318149  0.62347706  1
  C  C8  1  0.31265196  0.34054246  0.87905123  1
  C  C9  1  0.98892492  0.31346445  0.27394444  1
  C  C10  1  0.34439245  0.39269985  0.35323639  1
  C  C11  1  0.32479286  0.92605249  0.32427533  1
  C  C12  1  0.66662567  0.65236117  0.01429428  1
  C  C13  1  0.00852753  0.34235364  0.74068747  1
  C  C14  1  0.02071772  0.78758220  0.32612661  1
  C  C15  1  0.28853283  0.89433385  0.87422838  1
  C  C16  1  0.64116157  0.54941942  0.52858781  1
  C  C17  1  0.69214861  0.13801015  0.11727758  1
  C  C18  1  0.04480635  0.79250775  0.77230428  1
