# generated using pymatgen
data_Cu5(NiC)7
_symmetry_space_group_name_H-M   'P 1'
_cell_length_a   5.12159623
_cell_length_b   7.78037484
_cell_length_c   5.67485446
_cell_angle_alpha   92.79204095
_cell_angle_beta   82.70640771
_cell_angle_gamma   94.85970320
_symmetry_Int_Tables_number   1
_chemical_formula_structural   Cu5(NiC)7
_chemical_formula_sum   'Cu5 Ni7 C7'
_cell_volume   223.33033648
_cell_formula_units_Z   1
loop_
 _symmetry_equiv_pos_site_id
 _symmetry_equiv_pos_as_xyz
  1  'x, y, z'
loop_
 _atom_site_type_symbol
 _atom_site_label
 _atom_site_symmetry_multiplicity
 _atom_site_fract_x
 _atom_site_fract_y
 _atom_site_fract_z
 _atom_site_occupancy
  C  C0  1  0.46050826  0.81629959  0.88104581  1
  C  C1  1  0.49357966  0.01721791  0.47967443  1
  C  C2  1  0.65241995  0.61224534  0.28098175  1
  C  C3  1  0.50888949  0.35318807  0.79989241  1
  C  C4  1  0.97330080  0.69260838  0.66654159  1
  C  C5  1  0.05289035  0.32187830  0.36890136  1
  C  C6  1  0.97225210  0.00603573  0.01527977  1
  Ni  Ni7  1  0.77846971  0.47727095  0.56844684  1
  Ni  Ni8  1  0.78128329  0.77097020  0.01932245  1
  Ni  Ni9  1  0.81725317  0.10584053  0.30408928  1
  Ni  Ni10  1  0.66776521  0.79258058  0.53246046  1
  Ni  Ni11  1  0.67233536  0.42553351  0.07098107  1
  Ni  Ni12  1  0.35042721  0.24043427  0.53422443  1
  Ni  Ni13  1  0.17862729  0.91070048  0.71757937  1
  Cu  Cu14  1  0.65798383  0.08264320  0.82553451  1
  Cu  Cu15  1  0.26178827  0.58655938  0.82994868  1
  Cu  Cu16  1  0.29456313  0.91526096  0.18475196  1
  Cu  Cu17  1  0.23220083  0.58362092  0.35198861  1
  Cu  Cu18  1  0.19346109  0.23911367  0.00883421  1
