# generated using pymatgen
data_CuNiC4
_symmetry_space_group_name_H-M   'P 1'
_cell_length_a   4.06490114
_cell_length_b   3.52897761
_cell_length_c   6.61799041
_cell_angle_alpha   90.00000000
_cell_angle_beta   90.00000000
_cell_angle_gamma   90.00000000
_symmetry_Int_Tables_number   1
_chemical_formula_structural   CuNiC4
_chemical_formula_sum   'Cu1 Ni1 C4'
_cell_volume   94.93470917
_cell_formula_units_Z   1
loop_
 _symmetry_equiv_pos_site_id
 _symmetry_equiv_pos_as_xyz
  1  'x, y, z'
loop_
 _atom_site_type_symbol
 _atom_site_label
 _atom_site_symmetry_multiplicity
 _atom_site_fract_x
 _atom_site_fract_y
 _atom_site_fract_z
 _atom_site_occupancy
  Ni  Ni0  1  0.00000000  0.50000000  0.32878508  1
  Cu  Cu1  1  0.50000000  0.50000000  0.60761474  1
  C  C2  1  0.00000000  0.00000000  0.90557045  1
  C  C3  1  0.50000000  0.00000000  0.76197811  1
  C  C4  1  0.50000000  0.50000000  0.31339223  1
  C  C5  1  0.00000000  0.50000000  0.63615940  1
