# generated using pymatgen
data_Cu5Ni3C
_symmetry_space_group_name_H-M   'P 1'
_cell_length_a   10.52807841
_cell_length_b   10.52807841
_cell_length_c   10.52807903
_cell_angle_alpha   90.49387083
_cell_angle_beta   90.49387083
_cell_angle_gamma   90.49387283
_symmetry_Int_Tables_number   1
_chemical_formula_structural   Cu5Ni3C
_chemical_formula_sum   'Cu20 Ni12 C4'
_cell_volume   1166.80605627
_cell_formula_units_Z   4
loop_
 _symmetry_equiv_pos_site_id
 _symmetry_equiv_pos_as_xyz
  1  'x, y, z'
loop_
 _atom_site_type_symbol
 _atom_site_label
 _atom_site_symmetry_multiplicity
 _atom_site_fract_x
 _atom_site_fract_y
 _atom_site_fract_z
 _atom_site_occupancy
  C  C0  1  0.74364200  0.00000000  0.25635800  1
  C  C1  1  0.00000000  0.25635800  0.74364200  1
  C  C2  1  0.25635800  0.74364200  0.00000000  1
  C  C3  1  0.50000000  0.50000000  0.50000000  1
  Ni  Ni4  1  0.57352400  0.87804800  0.83854200  1
  Ni  Ni5  1  0.87804800  0.83854200  0.57352400  1
  Ni  Ni6  1  0.83854200  0.57352400  0.87804800  1
  Ni  Ni7  1  0.12195200  0.42647600  0.16145800  1
  Ni  Ni8  1  0.42647600  0.16145800  0.12195200  1
  Ni  Ni9  1  0.16145800  0.12195200  0.42647600  1
  Ni  Ni10  1  0.34289500  0.16561800  0.74710000  1
  Ni  Ni11  1  0.16561800  0.74710000  0.34289500  1
  Ni  Ni12  1  0.74710000  0.34289500  0.16561800  1
  Ni  Ni13  1  0.83438200  0.65710500  0.25290000  1
  Ni  Ni14  1  0.65710500  0.25290000  0.83438200  1
  Ni  Ni15  1  0.25290000  0.83438200  0.65710500  1
  Cu  Cu16  1  0.00000000  0.82646200  0.17353800  1
  Cu  Cu17  1  0.17353800  0.00000000  0.82646200  1
  Cu  Cu18  1  0.17253200  0.17253200  0.17253200  1
  Cu  Cu19  1  0.82746800  0.82746800  0.82746800  1
  Cu  Cu20  1  0.82646200  0.17353800  0.00000000  1
  Cu  Cu21  1  0.07715500  0.50000000  0.92284500  1
  Cu  Cu22  1  0.50000000  0.92284500  0.07715500  1
  Cu  Cu23  1  0.92284500  0.07715500  0.50000000  1
  Cu  Cu24  1  0.43079800  0.68684300  0.74976500  1
  Cu  Cu25  1  0.68684300  0.74976500  0.43079800  1
  Cu  Cu26  1  0.74976500  0.43079800  0.68684300  1
  Cu  Cu27  1  0.31315700  0.56920200  0.25023500  1
  Cu  Cu28  1  0.56920200  0.25023500  0.31315700  1
  Cu  Cu29  1  0.25023500  0.31315700  0.56920200  1
  Cu  Cu30  1  0.56962900  0.06995100  0.67339900  1
  Cu  Cu31  1  0.06995100  0.67339900  0.56962900  1
  Cu  Cu32  1  0.67339900  0.56962900  0.06995100  1
  Cu  Cu33  1  0.93004900  0.43037100  0.32660100  1
  Cu  Cu34  1  0.43037100  0.32660100  0.93004900  1
  Cu  Cu35  1  0.32660100  0.93004900  0.43037100  1
