# generated using pymatgen
data_Cu2Ni5C13
_symmetry_space_group_name_H-M   'P 1'
_cell_length_a   5.17271078
_cell_length_b   5.17262968
_cell_length_c   10.29243256
_cell_angle_alpha   83.94044747
_cell_angle_beta   96.07498622
_cell_angle_gamma   59.54575624
_symmetry_Int_Tables_number   1
_chemical_formula_structural   Cu2Ni5C13
_chemical_formula_sum   'Cu2 Ni5 C13'
_cell_volume   231.95508744
_cell_formula_units_Z   1
loop_
 _symmetry_equiv_pos_site_id
 _symmetry_equiv_pos_as_xyz
  1  'x, y, z'
loop_
 _atom_site_type_symbol
 _atom_site_label
 _atom_site_symmetry_multiplicity
 _atom_site_fract_x
 _atom_site_fract_y
 _atom_site_fract_z
 _atom_site_occupancy
  C  C0  1  0.93038800  0.93037800  0.74999700  1
  Ni  Ni1  1  0.07425400  0.07428700  0.24999800  1
  Ni  Ni2  1  0.01267300  0.50456200  0.99008000  1
  Ni  Ni3  1  0.50455600  0.01259600  0.50993200  1
  Ni  Ni4  1  0.41508200  0.41512100  0.25000600  1
  Ni  Ni5  1  0.58435500  0.58436100  0.74999300  1
  Cu  Cu6  1  0.25742600  0.25749200  0.74998400  1
  Cu  Cu7  1  0.74470000  0.74468200  0.24998700  1
  C  C8  1  0.96032700  0.24559900  0.85725800  1
  C  C9  1  0.24558100  0.96028900  0.64274900  1
  C  C10  1  0.15072100  0.35913200  0.35620700  1
  C  C11  1  0.35905200  0.15073300  0.14380400  1
  C  C12  1  0.29929000  0.53901300  0.85224000  1
  C  C13  1  0.53903600  0.29926100  0.64776200  1
  C  C14  1  0.44377300  0.71553900  0.34684500  1
  C  C15  1  0.71550800  0.44377900  0.15316800  1
  C  C16  1  0.63919600  0.84852200  0.85773100  1
  C  C17  1  0.84853500  0.63915100  0.64227300  1
  C  C18  1  0.76124100  0.04289300  0.35569700  1
  C  C19  1  0.04288400  0.76118900  0.14428800  1
