# generated using pymatgen
data_Cu7Ni6C61
_symmetry_space_group_name_H-M   'P 1'
_cell_length_a   17.90960247
_cell_length_b   8.92105063
_cell_length_c   23.02772414
_cell_angle_alpha   89.97135571
_cell_angle_beta   90.17710962
_cell_angle_gamma   119.88882877
_symmetry_Int_Tables_number   1
_chemical_formula_structural   Cu7Ni6C61
_chemical_formula_sum   'Cu21 Ni18 C183'
_cell_volume   3189.82336948
_cell_formula_units_Z   3
loop_
 _symmetry_equiv_pos_site_id
 _symmetry_equiv_pos_as_xyz
  1  'x, y, z'
loop_
 _atom_site_type_symbol
 _atom_site_label
 _atom_site_symmetry_multiplicity
 _atom_site_fract_x
 _atom_site_fract_y
 _atom_site_fract_z
 _atom_site_occupancy
  C  C0  1  0.69000108  0.38338447  0.25478721  1
  C  C1  1  0.99558154  0.65288723  0.25669699  1
  C  C2  1  0.99567042  0.35341587  0.75503392  1
  C  C3  1  0.49301035  0.35752435  0.74919938  1
  C  C4  1  0.19491910  0.01914531  0.75815816  1
  C  C5  1  0.68688443  0.00875392  0.75149633  1
  C  C6  1  0.99615357  0.99757318  0.48947416  1
  C  C7  1  0.51071084  0.00511105  0.49664450  1
  C  C8  1  0.01566470  0.02594607  0.99897264  1
  C  C9  1  0.50321414  0.98394022  0.99754516  1
  C  C10  1  0.33058653  0.33753265  0.82423592  1
  C  C11  1  0.82574924  0.31787514  0.83035319  1
  C  C12  1  0.33329370  0.33293355  0.33107677  1
  C  C13  1  0.83473934  0.33748031  0.34072499  1
  C  C14  1  0.17237145  0.66650529  0.16592828  1
  C  C15  1  0.66075775  0.66479021  0.17234203  1
  C  C16  1  0.18105550  0.66456458  0.67109591  1
  C  C17  1  0.67247325  0.66653408  0.66974498  1
  C  C18  1  0.33371791  0.34041174  0.68491424  1
  C  C19  1  0.83005017  0.33145501  0.68400246  1
  C  C20  1  0.83325168  0.33278149  0.18415282  1
  Ni  Ni21  1  0.14986067  0.00023778  0.25224388  1
  Ni  Ni22  1  0.85407826  0.72110515  0.24970263  1
  Ni  Ni23  1  0.49819284  0.28708923  0.24915311  1
  Ni  Ni24  1  0.14413777  0.29389663  0.75071355  1
  Ni  Ni25  1  0.64671050  0.29733332  0.75369093  1
  Ni  Ni26  1  0.50067398  0.70762952  0.75208425  1
  Ni  Ni27  1  0.35286978  0.98807023  0.75339719  1
  Ni  Ni28  1  0.85753238  0.99423140  0.75259540  1
  Ni  Ni29  1  0.47626329  0.62051371  0.08452610  1
  Ni  Ni30  1  0.18399747  0.33620500  0.08657374  1
  Ni  Ni31  1  0.01876505  0.37465776  0.91636473  1
  Ni  Ni32  1  0.16941740  0.96012684  0.91794231  1
  Ni  Ni33  1  0.66264697  0.96130245  0.91624407  1
  Ni  Ni34  1  0.81386924  0.95652178  0.41472942  1
  Ni  Ni35  1  0.16797575  0.37413589  0.41532747  1
  Ni  Ni36  1  0.66453308  0.37103129  0.41729041  1
  Ni  Ni37  1  0.02028650  0.66682349  0.41804976  1
  Ni  Ni38  1  0.51967272  0.66780018  0.41384143  1
  Cu  Cu39  1  0.00373506  0.99384611  0.35679506  1
  Cu  Cu40  1  0.50200276  0.00924164  0.35593897  1
  Cu  Cu41  1  0.00765120  0.01749668  0.85814038  1
  Cu  Cu42  1  0.50328996  0.99544122  0.85063128  1
  Cu  Cu43  1  0.99674491  0.00644318  0.64911372  1
  Cu  Cu44  1  0.50033896  0.00376172  0.65577479  1
  Cu  Cu45  1  0.00640103  0.99721138  0.15194853  1
  Cu  Cu46  1  0.49787157  0.99453592  0.14744045  1
  Cu  Cu47  1  0.33226560  0.33346639  0.18693111  1
  Cu  Cu48  1  0.32402009  0.33112191  0.98505820  1
  Cu  Cu49  1  0.83404945  0.32317898  0.97689778  1
  Cu  Cu50  1  0.33577238  0.34768206  0.47795622  1
  Cu  Cu51  1  0.83204104  0.32976654  0.47558723  1
  Cu  Cu52  1  0.16353634  0.65557000  0.01656917  1
  Cu  Cu53  1  0.65687780  0.66987000  0.01831116  1
  Cu  Cu54  1  0.16267708  0.65647971  0.51306287  1
  Cu  Cu55  1  0.66621826  0.67336016  0.50719449  1
  Cu  Cu56  1  0.16362204  0.66360835  0.31886259  1
  Cu  Cu57  1  0.66710969  0.65960432  0.31716596  1
  Cu  Cu58  1  0.16854186  0.66564908  0.81730563  1
  Cu  Cu59  1  0.67053279  0.67925907  0.81256743  1
  C  C60  1  0.64158264  0.99041885  0.24999970  1
  C  C61  1  0.35288836  0.71026313  0.25200062  1
  C  C62  1  0.00499801  0.29571751  0.25140682  1
  C  C63  1  0.00236299  0.71828831  0.75150437  1
  C  C64  1  0.48516172  0.33333657  0.58055501  1
  C  C65  1  0.98541662  0.33471936  0.58279789  1
  C  C66  1  0.18163557  0.02698793  0.58144180  1
  C  C67  1  0.67948549  0.02590993  0.58180441  1
  C  C68  1  0.33350698  0.64464601  0.58071224  1
  C  C69  1  0.83425819  0.64026792  0.58128530  1
  C  C70  1  0.98114987  0.63132665  0.08064497  1
  C  C71  1  0.33307753  0.03691503  0.08252781  1
  C  C72  1  0.83371052  0.02756389  0.08087787  1
  C  C73  1  0.68384022  0.33585953  0.07894682  1
  C  C74  1  0.31635303  0.66899767  0.91836503  1
  C  C75  1  0.80954172  0.66475730  0.91999616  1
  C  C76  1  0.51803086  0.37094549  0.91782780  1
  C  C77  1  0.31314835  0.96104382  0.41881049  1
  C  C78  1  0.10624308  0.03322555  0.30800791  1
  C  C79  1  0.59915588  0.01559347  0.30118359  1
  C  C80  1  0.40596538  0.79354528  0.30372758  1
  C  C81  1  0.92149987  0.81110705  0.30270012  1
  C  C82  1  0.47996454  0.15940888  0.30497412  1
  C  C83  1  0.99611511  0.19416216  0.30315252  1
  C  C84  1  0.10235929  0.16491808  0.80596413  1
  C  C85  1  0.60456821  0.17439810  0.80999365  1
  C  C86  1  0.48362040  0.78757422  0.80994186  1
  C  C87  1  0.99048305  0.79663557  0.80346767  1
  C  C88  1  0.41390113  0.02482886  0.81044478  1
  C  C89  1  0.91671956  0.01448612  0.80867998  1
  C  C90  1  0.39054760  0.94966217  0.69284730  1
  C  C91  1  0.89185208  0.95468061  0.69066050  1
  C  C92  1  0.08233179  0.21696322  0.69084939  1
  C  C93  1  0.58508061  0.22540899  0.69370071  1
  C  C94  1  0.01617914  0.82240523  0.69678079  1
  C  C95  1  0.52442420  0.83345840  0.69337565  1
  C  C96  1  0.39093247  0.81216359  0.19739538  1
  C  C97  1  0.89631747  0.83324603  0.18870293  1
  C  C98  1  0.01461436  0.21819956  0.19658054  1
  C  C99  1  0.52141747  0.20116426  0.19149259  1
  C  C100  1  0.08642426  0.93893503  0.19385988  1
  C  C101  1  0.59081946  0.96640601  0.19513758  1
  C  C102  1  0.44892957  0.35472319  0.63452628  1
  C  C103  1  0.95075535  0.35400376  0.63779740  1
  C  C104  1  0.22796614  0.09707861  0.63581538  1
  C  C105  1  0.72553949  0.09446603  0.63689090  1
  C  C106  1  0.31762335  0.54335918  0.63284136  1
  C  C107  1  0.82502356  0.54689223  0.63532629  1
  C  C108  1  0.43369883  0.50600517  0.14186231  1
  C  C109  1  0.94607018  0.53587643  0.13484771  1
  C  C110  1  0.32007731  0.11280073  0.13553875  1
  C  C111  1  0.81755801  0.10061302  0.13319845  1
  C  C112  1  0.24473978  0.36713176  0.14294140  1
  C  C113  1  0.72938722  0.36037871  0.13429455  1
  C  C114  1  0.21950673  0.29287035  0.02691459  1
  C  C115  1  0.73011703  0.31160800  0.02931977  1
  C  C116  1  0.42059268  0.53698879  0.02471367  1
  C  C117  1  0.92490911  0.53748774  0.02958003  1
  C  C118  1  0.34863928  0.14441339  0.02996230  1
  C  C119  1  0.84393890  0.13718840  0.02833165  1
  C  C120  1  0.22599162  0.14034607  0.53017005  1
  C  C121  1  0.72587126  0.14030690  0.53169337  1
  C  C122  1  0.34404358  0.55766706  0.52789102  1
  C  C123  1  0.84535783  0.55170180  0.52994204  1
  C  C124  1  0.42653556  0.30761360  0.52926165  1
  C  C125  1  0.93105567  0.31934494  0.53224111  1
  C  C126  1  0.27546404  0.68939326  0.97133507  1
  C  C127  1  0.76750998  0.68926591  0.97210941  1
  C  C128  1  0.07864722  0.45530322  0.97341909  1
  C  C129  1  0.57535295  0.44975096  0.97020794  1
  C  C130  1  0.15975483  0.84527403  0.97554774  1
  C  C131  1  0.64936884  0.84662167  0.97446276  1
  C  C132  1  0.27425331  0.85438872  0.47142181  1
  C  C133  1  0.77686205  0.84524857  0.47498165  1
  C  C134  1  0.15612045  0.45608153  0.47585444  1
  C  C135  1  0.64701063  0.45427206  0.47475527  1
  C  C136  1  0.08304657  0.70790145  0.47444675  1
  C  C137  1  0.57490366  0.71169958  0.47432376  1
  C  C138  1  0.05725500  0.63009432  0.35734336  1
  C  C139  1  0.56276290  0.63613219  0.35722660  1
  C  C140  1  0.26082943  0.88771387  0.36559750  1
  C  C141  1  0.75049191  0.87294996  0.35897351  1
  C  C142  1  0.19259926  0.50635991  0.35967729  1
  C  C143  1  0.68050391  0.47103307  0.35539086  1
  C  C144  1  0.06048149  0.48305981  0.85619673  1
  C  C145  1  0.55915342  0.47521849  0.86497795  1
  C  C146  1  0.18393299  0.88040215  0.85722527  1
  C  C147  1  0.68161930  0.88041373  0.85819054  1
  C  C148  1  0.26381752  0.64019396  0.86519014  1
  C  C149  1  0.75613085  0.63217989  0.86691052  1
  C  C150  1  0.01279021  0.83874785  0.41604540  1
  C  C151  1  0.49958008  0.82821247  0.40704437  1
  C  C152  1  0.39849964  0.97563563  0.41374535  1
  C  C153  1  0.90908507  0.98128470  0.40828225  1
  C  C154  1  0.08042540  0.19334229  0.40924574  1
  C  C155  1  0.57740993  0.17937868  0.41508675  1
  C  C156  1  0.00306168  0.17791031  0.91652085  1
  C  C157  1  0.50714264  0.19574593  0.91462386  1
  C  C158  1  0.07836973  0.96519567  0.91474530  1
  C  C159  1  0.57580932  0.97801876  0.91497863  1
  C  C160  1  0.40114090  0.82771029  0.91506792  1
  C  C161  1  0.89594681  0.81672029  0.91492696  1
  C  C162  1  0.49313934  0.17309352  0.58225444  1
  C  C163  1  0.99389618  0.17452354  0.58193626  1
  C  C164  1  0.09226286  0.00401880  0.58399570  1
  C  C165  1  0.59212876  0.01172026  0.58345014  1
  C  C166  1  0.41263418  0.81818257  0.58339779  1
  C  C167  1  0.91668136  0.81704497  0.58327382  1
  C  C168  1  0.48946864  0.82055253  0.09009282  1
  C  C169  1  0.98721073  0.80386680  0.08169468  1
  C  C170  1  0.41161776  0.01761284  0.08731434  1
  C  C171  1  0.91227173  0.01510069  0.08417282  1
  C  C172  1  0.08559844  0.16614535  0.09340823  1
  C  C173  1  0.59597188  0.17934087  0.08051880  1
  C  C174  1  0.34251028  0.15647080  0.74838447  1
  C  C175  1  0.85180908  0.16990860  0.75013858  1
  C  C176  1  0.23612834  0.31080317  0.74606406  1
  C  C177  1  0.73876628  0.31049922  0.74899867  1
  C  C178  1  0.42483978  0.51280525  0.74874980  1
  C  C179  1  0.92989991  0.54218733  0.74560592  1
  C  C180  1  0.34515240  0.53777297  0.24802510  1
  C  C181  1  0.84209586  0.52619648  0.24670040  1
  C  C182  1  0.41330960  0.30635617  0.24222829  1
  C  C183  1  0.93077286  0.32460973  0.24786939  1
  C  C184  1  0.24366331  0.17177336  0.24385932  1
  C  C185  1  0.72574906  0.14983332  0.24584157  1
  C  C186  1  0.32708339  0.51426616  0.92212248  1
  C  C187  1  0.81749853  0.50706385  0.92664573  1
  C  C188  1  0.43422928  0.36287399  0.92511642  1
  C  C189  1  0.92624474  0.37317557  0.92039357  1
  C  C190  1  0.25679703  0.15524603  0.92350270  1
  C  C191  1  0.74843468  0.15485445  0.92206273  1
  C  C192  1  0.32258743  0.13454498  0.42594280  1
  C  C193  1  0.82044799  0.14578137  0.42261099  1
  C  C194  1  0.25221102  0.34640377  0.42166283  1
  C  C195  1  0.75049134  0.35415536  0.42442296  1
  C  C196  1  0.42638638  0.48640331  0.42116581  1
  C  C197  1  0.92786022  0.49162930  0.42532236  1
  C  C198  1  0.17794752  0.51600639  0.07996473  1
  C  C199  1  0.67658307  0.49396172  0.07027595  1
  C  C200  1  0.06876883  0.65359991  0.07489387  1
  C  C201  1  0.57402285  0.64237436  0.08073782  1
  C  C202  1  0.25644992  0.86220966  0.07653628  1
  C  C203  1  0.75693791  0.85023863  0.07330719  1
  C  C204  1  0.17475845  0.85259067  0.57442237  1
  C  C205  1  0.67022389  0.85042548  0.57496559  1
  C  C206  1  0.25638492  0.66936398  0.57294243  1
  C  C207  1  0.75768765  0.66326586  0.57546203  1
  C  C208  1  0.07422670  0.49043252  0.57800361  1
  C  C209  1  0.57140366  0.48985539  0.57300592  1
  C  C210  1  0.15731935  0.82017506  0.25875915  1
  C  C211  1  0.64932326  0.83505807  0.25372430  1
  C  C212  1  0.26678002  0.69596964  0.25600140  1
  C  C213  1  0.75730732  0.69913829  0.25306626  1
  C  C214  1  0.08551197  0.47205644  0.25323081  1
  C  C215  1  0.58762753  0.47351055  0.25467076  1
  C  C216  1  0.14301913  0.47722528  0.75685558  1
  C  C217  1  0.64575069  0.47890197  0.76105523  1
  C  C218  1  0.08440364  0.71043775  0.75434015  1
  C  C219  1  0.59261176  0.70625450  0.75523434  1
  C  C220  1  0.25497982  0.81720767  0.75707550  1
  C  C221  1  0.76068223  0.82740872  0.75511094  1
