# generated using pymatgen
data_Cu2NiC15
_symmetry_space_group_name_H-M   'P 1'
_cell_length_a   8.80479162
_cell_length_b   8.81138180
_cell_length_c   22.90499082
_cell_angle_alpha   90.06087875
_cell_angle_beta   90.00390078
_cell_angle_gamma   119.97663190
_symmetry_Int_Tables_number   1
_chemical_formula_structural   Cu2NiC15
_chemical_formula_sum   'Cu12 Ni6 C90'
_cell_volume   1539.30869561
_cell_formula_units_Z   6
loop_
 _symmetry_equiv_pos_site_id
 _symmetry_equiv_pos_as_xyz
  1  'x, y, z'
loop_
 _atom_site_type_symbol
 _atom_site_label
 _atom_site_symmetry_multiplicity
 _atom_site_fract_x
 _atom_site_fract_y
 _atom_site_fract_z
 _atom_site_occupancy
  C  C0  1  0.99670614  -0.00000965  0.49383880  1
  C  C1  1  0.00060888  0.00022196  0.00106685  1
  C  C2  1  0.66760895  0.33355312  0.83176957  1
  C  C3  1  0.66631245  0.33296838  0.32686418  1
  C  C4  1  0.33335314  0.66358437  0.16485044  1
  C  C5  1  0.32976406  0.66393485  0.66705180  1
  C  C6  1  0.99690159  0.00055499  0.35489798  1
  C  C7  1  0.67227266  0.33559793  0.68712490  1
  C  C8  1  0.66354111  0.33485824  0.18528089  1
  C  C9  1  0.00057169  0.00029112  0.85718076  1
  C  C10  1  0.99960760  0.00183175  0.64477698  1
  C  C11  1  0.00205386  0.00246253  0.14640347  1
  C  C12  1  0.66200648  0.33172908  0.97819105  1
  C  C13  1  0.66947294  0.32964088  0.47803063  1
  C  C14  1  0.33326842  0.66419882  0.02010391  1
  C  C15  1  0.33551879  0.66718724  0.52032103  1
  C  C16  1  0.33628612  0.67049444  0.31077028  1
  C  C17  1  0.33276255  0.66612979  0.81309357  1
  Ni  Ni18  1  0.95603312  0.33542722  0.58459576  1
  Ni  Ni19  1  0.37774557  0.33450995  0.08460965  1
  Ni  Ni20  1  0.61859426  0.66515875  0.91634816  1
  Ni  Ni21  1  0.04541575  0.38174647  0.91634847  1
  Ni  Ni22  1  0.33545088  0.95260483  0.91676999  1
  Ni  Ni23  1  0.62417783  0.95531701  0.41660021  1
  Cu  Cu24  1  0.28808711  0.00043746  0.25158800  1
  Cu  Cu25  1  0.71278854  0.71075536  0.25121166  1
  Cu  Cu26  1  0.99893800  0.28868979  0.25135403  1
  Cu  Cu27  1  0.28629446  0.28710755  0.75042929  1
  Cu  Cu28  1  0.00116793  0.71428072  0.75035209  1
  Cu  Cu29  1  0.71207625  0.99800951  0.75051050  1
  Cu  Cu30  1  0.37938365  0.04599585  0.58357764  1
  Cu  Cu31  1  0.66651162  0.61989974  0.58369343  1
  Cu  Cu32  1  0.95511358  0.62185904  0.08388050  1
  Cu  Cu33  1  0.66624100  0.04464057  0.08378618  1
  Cu  Cu34  1  0.33565606  0.38185747  0.41676424  1
  Cu  Cu35  1  0.04748270  0.66615471  0.41679995  1
  C  C36  1  0.20334264  0.02197403  0.30566750  1
  C  C37  1  0.81886242  0.79754239  0.30544521  1
  C  C38  1  0.97764289  0.18098774  0.30523844  1
  C  C39  1  0.19052152  0.17460861  0.80431887  1
  C  C40  1  0.98516329  0.81078214  0.80442661  1
  C  C41  1  0.82548404  0.01631789  0.80437478  1
  C  C42  1  0.80442676  0.97393633  0.69525466  1
  C  C43  1  0.16981375  0.19448347  0.69510809  1
  C  C44  1  0.02556087  0.82852994  0.69512404  1
  C  C45  1  0.79836839  0.82725685  0.19563762  1
  C  C46  1  0.02711440  0.19779351  0.19559374  1
  C  C47  1  0.16987616  0.97178361  0.19584274  1
  C  C48  1  0.87608902  0.37031726  0.64173519  1
  C  C49  1  0.48738933  0.12065424  0.63810227  1
  C  C50  1  0.62992635  0.51156100  0.63835379  1
  C  C51  1  0.88186019  0.51369023  0.13820949  1
  C  C52  1  0.63668857  0.12163619  0.13818891  1
  C  C53  1  0.49145572  0.36855430  0.14168521  1
  C  C54  1  0.46930862  0.30331541  0.02623506  1
  C  C55  1  0.84086204  0.53542007  0.02863650  1
  C  C56  1  0.69856820  0.15978998  0.02847015  1
  C  C57  1  0.46367497  0.16236571  0.52854471  1
  C  C58  1  0.69441746  0.53484520  0.52858171  1
  C  C59  1  0.83150452  0.30409712  0.52637631  1
  C  C60  1  0.53141997  0.69966377  0.97339332  1
  C  C61  1  0.16829354  0.46939126  0.97320341  1
  C  C62  1  0.30057829  0.83319527  0.97393326  1
  C  C63  1  0.52041004  0.83663636  0.47341564  1
  C  C64  1  0.31407062  0.47459513  0.47145825  1
  C  C65  1  0.15878892  0.68146032  0.47139264  1
  C  C66  1  0.13094913  0.63285171  0.36197415  1
  C  C67  1  0.49624790  0.85891197  0.35954176  1
  C  C68  1  0.36128500  0.49715940  0.36214150  1
  C  C69  1  0.13717534  0.50177278  0.85819259  1
  C  C70  1  0.36440848  0.86205646  0.85824874  1
  C  C71  1  0.49807372  0.63447905  0.85819192  1
  C  C72  1  0.03179085  0.82849004  0.41343232  1
  C  C73  1  0.81456070  0.97793656  0.41480002  1
  C  C74  1  0.17684210  0.20112234  0.41320303  1
  C  C75  1  0.02634807  0.18940066  0.90668268  1
  C  C76  1  0.16456240  0.97592283  0.90672130  1
  C  C77  1  0.81152258  0.83725810  0.90681809  1
  C  C78  1  0.97668238  0.15907995  0.59160260  1
  C  C79  1  0.19163500  0.02181081  0.59077396  1
  C  C80  1  0.83282959  0.80582961  0.59121395  1
  C  C81  1  0.97184188  0.80703987  0.09107537  1
  C  C82  1  0.83064501  0.02061683  0.09091546  1
  C  C83  1  0.17999570  0.15786376  0.09158280  1
  C  C84  1  0.69239679  0.15906374  0.74648813  1
  C  C85  1  0.46595132  0.30506405  0.74598230  1
  C  C86  1  0.83748480  0.53470099  0.74732586  1
  C  C87  1  0.68676055  0.52785158  0.24505780  1
  C  C88  1  0.84326242  0.31538184  0.24348498  1
  C  C89  1  0.47262133  0.15328074  0.24409431  1
  C  C90  1  0.64254104  0.49568028  0.92502562  1
  C  C91  1  0.85382979  0.35957307  0.92536634  1
  C  C92  1  0.50817701  0.14491950  0.92436783  1
  C  C93  1  0.63023122  0.14575768  0.42450970  1
  C  C94  1  0.50688728  0.37409344  0.42546598  1
  C  C95  1  0.86305098  0.49871332  0.42523248  1
  C  C96  1  0.34829801  0.50266434  0.07482983  1
  C  C97  1  0.14317246  0.65253898  0.07414164  1
  C  C98  1  0.50471980  0.85953175  0.07417310  1
  C  C99  1  0.35205498  0.85955377  0.57277152  1
  C  C100  1  0.50855445  0.65039896  0.57338678  1
  C  C101  1  0.15269952  0.50077755  0.57296287  1
  C  C102  1  0.29688672  0.82453235  0.25650354  1
  C  C103  1  0.52509945  0.69588769  0.25708760  1
  C  C104  1  0.17212650  0.47244146  0.25679355  1
  C  C105  1  0.29646623  0.46837059  0.75487735  1
  C  C106  1  0.17126233  0.70169025  0.75525599  1
  C  C107  1  0.53080993  0.82706221  0.75491766  1
