# generated using pymatgen
data_Cu4NiC
_symmetry_space_group_name_H-M   'P 1'
_cell_length_a   4.89033288
_cell_length_b   4.89033327
_cell_length_c   6.94360500
_cell_angle_alpha   89.99988346
_cell_angle_beta   89.99986108
_cell_angle_gamma   65.94708505
_symmetry_Int_Tables_number   1
_chemical_formula_structural   Cu4NiC
_chemical_formula_sum   'Cu8 Ni2 C2'
_cell_volume   151.63981675
_cell_formula_units_Z   2
loop_
 _symmetry_equiv_pos_site_id
 _symmetry_equiv_pos_as_xyz
  1  'x, y, z'
loop_
 _atom_site_type_symbol
 _atom_site_label
 _atom_site_symmetry_multiplicity
 _atom_site_fract_x
 _atom_site_fract_y
 _atom_site_fract_z
 _atom_site_occupancy
  C  C0  1  0.00000000  0.00000000  0.00000000  1
  C  C1  1  0.99999900  0.00000100  0.50000000  1
  Ni  Ni2  1  0.35085600  0.35085600  0.25000000  1
  Ni  Ni3  1  0.64914400  0.64914400  0.75000000  1
  Cu  Cu4  1  0.31089600  0.77151000  0.75000000  1
  Cu  Cu5  1  0.68910400  0.22849000  0.25000000  1
  Cu  Cu6  1  0.22849000  0.68910400  0.25000000  1
  Cu  Cu7  1  0.77151000  0.31089600  0.75000000  1
  Cu  Cu8  1  0.74739200  0.74739200  0.92716900  1
  Cu  Cu9  1  0.25260800  0.25260700  0.42716900  1
  Cu  Cu10  1  0.25260800  0.25260800  0.07283100  1
  Cu  Cu11  1  0.74739300  0.74739300  0.57283100  1
