# generated using pymatgen
data_Cu7NiC66
_symmetry_space_group_name_H-M   'P 1'
_cell_length_a   16.88144185
_cell_length_b   8.43980429
_cell_length_c   21.75471314
_cell_angle_alpha   90.04116557
_cell_angle_beta   89.94922762
_cell_angle_gamma   119.97874651
_symmetry_Int_Tables_number   1
_chemical_formula_structural   Cu7NiC66
_chemical_formula_sum   'Cu21 Ni3 C198'
_cell_volume   2684.84169626
_cell_formula_units_Z   3
loop_
 _symmetry_equiv_pos_site_id
 _symmetry_equiv_pos_as_xyz
  1  'x, y, z'
loop_
 _atom_site_type_symbol
 _atom_site_label
 _atom_site_symmetry_multiplicity
 _atom_site_fract_x
 _atom_site_fract_y
 _atom_site_fract_z
 _atom_site_occupancy
  C  C0  1  0.68540273  0.36581227  0.24774714  1
  C  C1  1  0.99718645  0.62810050  0.24760169  1
  C  C2  1  0.99588680  0.36477749  0.74574293  1
  C  C3  1  0.49601224  0.36493690  0.74576349  1
  C  C4  1  0.18563054  0.00474502  0.74590359  1
  C  C5  1  0.68575447  0.00484613  0.74598053  1
  C  C6  1  0.99984624  0.99973931  0.50000998  1
  C  C7  1  0.49991577  0.99973523  0.49994933  1
  C  C8  1  0.99902960  0.99874542  0.00085708  1
  C  C9  1  0.50071062  0.00106454  0.00086163  1
  C  C10  1  0.33288550  0.34136736  0.83319759  1
  C  C11  1  0.83278472  0.34113914  0.83380645  1
  C  C12  1  0.33327254  0.33421608  0.33463115  1
  C  C13  1  0.83296687  0.32311056  0.33370186  1
  C  C14  1  0.16913962  0.66549487  0.16575271  1
  C  C15  1  0.66809643  0.67693345  0.16502410  1
  C  C16  1  0.17052534  0.66539174  0.66184587  1
  C  C17  1  0.67062460  0.66540631  0.66190896  1
  Ni  Ni18  1  0.33286172  0.33830682  0.68387829  1
  Ni  Ni19  1  0.83290447  0.33836001  0.68390823  1
  Ni  Ni20  1  0.83300269  0.32583081  0.18558850  1
  Cu  Cu21  1  0.00183142  0.00335613  0.35555486  1
  Cu  Cu22  1  0.49781070  0.99669978  0.35489387  1
  Cu  Cu23  1  0.99970184  -0.00063903  0.85567601  1
  Cu  Cu24  1  0.50014753  -0.00049319  0.85571411  1
  Cu  Cu25  1  0.99906899  0.99838960  0.64267326  1
  Cu  Cu26  1  0.49903990  0.99842176  0.64267253  1
  Cu  Cu27  1  0.99834108  0.00088042  0.14509363  1
  Cu  Cu28  1  0.50078757  0.99916935  0.14578755  1
  Cu  Cu29  1  0.33329851  0.33548369  0.18639572  1
  Cu  Cu30  1  0.33351021  0.33316211  0.98046966  1
  Cu  Cu31  1  0.83341168  0.33283703  0.98245696  1
  Cu  Cu32  1  0.33345766  0.33402534  0.48180992  1
  Cu  Cu33  1  0.83350067  0.33445269  0.48157233  1
  Cu  Cu34  1  0.16655531  0.66717320  0.02081682  1
  Cu  Cu35  1  0.66742669  0.66649273  0.02040367  1
  Cu  Cu36  1  0.16695373  0.66683217  0.51934306  1
  Cu  Cu37  1  0.66677788  0.66699577  0.51933963  1
  Cu  Cu38  1  0.16997380  0.66556900  0.31436761  1
  Cu  Cu39  1  0.66573779  0.67244964  0.31547914  1
  Cu  Cu40  1  0.16854386  0.66556730  0.81564358  1
  Cu  Cu41  1  0.66886668  0.66597090  0.81576081  1
  C  C42  1  0.14526502  0.00463310  0.24995718  1
  C  C43  1  0.64109776  0.99304451  0.25165252  1
  C  C44  1  0.35705328  0.71389579  0.24957072  1
  C  C45  1  0.85604693  0.72036862  0.25169933  1
  C  C46  1  0.00185060  0.28524137  0.25166017  1
  C  C47  1  0.49741032  0.28540080  0.25032488  1
  C  C48  1  0.14325910  0.28813354  0.75165135  1
  C  C49  1  0.64315791  0.28847809  0.75161451  1
  C  C50  1  0.99888950  0.71493629  0.75187330  1
  C  C51  1  0.49871663  0.71442569  0.75188718  1
  C  C52  1  0.35667293  0.99221404  0.75137580  1
  C  C53  1  0.85666573  0.99222445  0.75122127  1
  C  C54  1  0.47977422  0.33530347  0.58335434  1
  C  C55  1  0.97983495  0.33533085  0.58324147  1
  C  C56  1  0.18799039  0.04066844  0.58345779  1
  C  C57  1  0.68800176  0.04074524  0.58333366  1
  C  C58  1  0.33219814  0.62316309  0.58271593  1
  C  C59  1  0.83220148  0.62344170  0.58238032  1
  C  C60  1  0.47676056  0.62029457  0.08319380  1
  C  C61  1  0.97984368  0.62562894  0.08359640  1
  C  C62  1  0.33363172  0.04687412  0.08352983  1
  C  C63  1  0.83259378  0.04124814  0.08256558  1
  C  C64  1  0.18988610  0.33361001  0.08314080  1
  C  C65  1  0.68727806  0.33351314  0.08367855  1
  C  C66  1  0.31072098  0.66635301  0.91796347  1
  C  C67  1  0.81127026  0.66530733  0.91748763  1
  C  C68  1  0.02201763  0.37811592  0.91737365  1
  C  C69  1  0.52210219  0.37839723  0.91721743  1
  C  C70  1  0.16715342  0.95628609  0.91717692  1
  C  C71  1  0.66705080  0.95587578  0.91750530  1
  C  C72  1  0.31037042  0.95537812  0.41664195  1
  C  C73  1  0.81103242  0.95645996  0.41726128  1
  C  C74  1  0.16757377  0.37866139  0.41722706  1
  C  C75  1  0.66671499  0.37814039  0.41630701  1
  C  C76  1  0.02244165  0.66597698  0.41635890  1
  C  C77  1  0.52180650  0.66517100  0.41723099  1
  C  C78  1  0.10493819  0.03954407  0.30842929  1
  C  C79  1  0.59802597  0.03529060  0.30835758  1
  C  C80  1  0.41532078  0.79178338  0.30803618  1
  C  C81  1  0.91942274  0.80303070  0.30848317  1
  C  C82  1  0.47949250  0.16723925  0.30821449  1
  C  C83  1  0.98514759  0.16732841  0.30946372  1
  C  C84  1  0.10029521  0.16537360  0.80944189  1
  C  C85  1  0.60047435  0.16572916  0.80942743  1
  C  C86  1  0.48389781  0.80021423  0.81026146  1
  C  C87  1  0.98415332  0.80036088  0.81019574  1
  C  C88  1  0.41796300  0.03478662  0.80930009  1
  C  C89  1  0.91791902  0.03520298  0.80907721  1
  C  C90  1  0.39738838  0.95630992  0.69313775  1
  C  C91  1  0.89735547  0.95626364  0.69308761  1
  C  C92  1  0.07990994  0.20879173  0.69438065  1
  C  C93  1  0.57992659  0.20888637  0.69440023  1
  C  C94  1  0.02336902  0.84071127  0.69450907  1
  C  C95  1  0.52333853  0.84087575  0.69452113  1
  C  C96  1  0.39668878  0.83342122  0.19155804  1
  C  C97  1  0.89656000  0.83637287  0.19278404  1
  C  C98  1  0.02195230  0.20632198  0.19288965  1
  C  C99  1  0.52119461  0.20727906  0.19270266  1
  C  C100  1  0.08221424  0.95664227  0.19265200  1
  C  C101  1  0.58154435  0.95541732  0.19279426  1
  C  C102  1  0.44543629  0.37104803  0.64283763  1
  C  C103  1  0.94546042  0.37125652  0.64291877  1
  C  C104  1  0.24041418  0.10837648  0.64288383  1
  C  C105  1  0.74051066  0.10866973  0.64294259  1
  C  C106  1  0.31311327  0.51461246  0.64028503  1
  C  C107  1  0.81299136  0.51437048  0.64036178  1
  C  C108  1  0.43666109  0.50052744  0.14117958  1
  C  C109  1  0.94495978  0.51870440  0.14233192  1
  C  C110  1  0.31403454  0.12814112  0.14137411  1
  C  C111  1  0.81301460  0.11255037  0.13977704  1
  C  C112  1  0.24974424  0.37341114  0.14113436  1
  C  C113  1  0.74080087  0.37170529  0.14245820  1
  C  C114  1  0.23005791  0.29390035  0.02500953  1
  C  C115  1  0.72842882  0.29449597  0.02509388  1
  C  C116  1  0.41679273  0.54008136  0.02513522  1
  C  C117  1  0.91939148  0.54305838  0.02501842  1
  C  C118  1  0.35300816  0.16568566  0.02507774  1
  C  C119  1  0.85271646  0.16033628  0.02328686  1
  C  C120  1  0.22944684  0.16352350  0.52549699  1
  C  C121  1  0.72930986  0.16359576  0.52556066  1
  C  C122  1  0.35274905  0.54397763  0.52368236  1
  C  C123  1  0.85264175  0.54399401  0.52373481  1
  C  C124  1  0.41836827  0.29548896  0.52547972  1
  C  C125  1  0.91845816  0.29557034  0.52556166  1
  C  C126  1  0.26925980  0.70550182  0.97488884  1
  C  C127  1  0.76968507  0.70524494  0.97370804  1
  C  C128  1  0.08431388  0.46224315  0.97349180  1
  C  C129  1  0.58330078  0.46348129  0.97343310  1
  C  C130  1  0.14859428  0.83388695  0.97346654  1
  C  C131  1  0.64700954  0.83136556  0.97347723  1
  C  C132  1  0.26984070  0.83400468  0.47347669  1
  C  C133  1  0.76950803  0.83422586  0.47376382  1
  C  C134  1  0.14750098  0.46062759  0.47386461  1
  C  C135  1  0.64759726  0.46242662  0.47275409  1
  C  C136  1  0.08362203  0.70482858  0.47287671  1
  C  C137  1  0.58292242  0.70527346  0.47378530  1
  C  C138  1  0.06219429  0.62955238  0.35614663  1
  C  C139  1  0.56150096  0.62552025  0.35856974  1
  C  C140  1  0.25112055  0.87513679  0.35794704  1
  C  C141  1  0.75172318  0.87706205  0.35853100  1
  C  C142  1  0.18689566  0.49629382  0.35844531  1
  C  C143  1  0.68512214  0.49440132  0.35613730  1
  C  C144  1  0.06139682  0.49446901  0.85723387  1
  C  C145  1  0.56108205  0.49410619  0.85706676  1
  C  C146  1  0.18595354  0.87796461  0.85698638  1
  C  C147  1  0.68550796  0.87729529  0.85703967  1
  C  C148  1  0.25152350  0.62645860  0.85924590  1
  C  C149  1  0.75192804  0.62591882  0.85869020  1
  C  C150  1  0.01363455  0.83981727  0.40953733  1
  C  C151  1  0.51291564  0.83825199  0.41008850  1
  C  C152  1  0.40594204  0.97253436  0.40955157  1
  C  C153  1  0.90625685  0.97351146  0.41033461  1
  C  C154  1  0.08099824  0.18769534  0.41068191  1
  C  C155  1  0.57969004  0.18722005  0.40937376  1
  C  C156  1  0.01336805  0.18741299  0.91036550  1
  C  C157  1  0.51291417  0.18718190  0.91054782  1
  C  C158  1  0.08077119  0.97408227  0.91074126  1
  C  C159  1  0.58028262  0.97321058  0.91083211  1
  C  C160  1  0.40589147  0.83917096  0.91106204  1
  C  C161  1  0.90623659  0.83886969  0.91047357  1
  C  C162  1  0.48906762  0.16050287  0.58772650  1
  C  C163  1  0.98911966  0.16068297  0.58776670  1
  C  C164  1  0.09151471  0.02292769  0.58802921  1
  C  C165  1  0.59152155  0.02298286  0.58806563  1
  C  C166  1  0.41983414  0.81683080  0.58739131  1
  C  C167  1  0.91961794  0.81635109  0.58729653  1
  C  C168  1  0.48540533  0.81076706  0.08992191  1
  C  C169  1  0.99037779  0.81974144  0.08801125  1
  C  C170  1  0.41941224  0.02744724  0.09055169  1
  C  C171  1  0.92015305  0.02280658  0.08702928  1
  C  C172  1  0.09477667  0.16230429  0.09017621  1
  C  C173  1  0.59031749  0.15786795  0.08799970  1
  C  C174  1  0.34430839  0.15893642  0.74749891  1
  C  C175  1  0.84425802  0.15918407  0.74732044  1
  C  C176  1  0.23631056  0.30651593  0.74758206  1
  C  C177  1  0.73650548  0.30667244  0.74745991  1
  C  C178  1  0.41813165  0.52422158  0.74799161  1
  C  C179  1  0.91794587  0.52380684  0.74794049  1
  C  C180  1  0.34691023  0.52167071  0.24252768  1
  C  C181  1  0.84454259  0.52951315  0.24732437  1
  C  C182  1  0.41226590  0.30588120  0.24275929  1
  C  C183  1  0.92011551  0.31249071  0.24776207  1
  C  C184  1  0.24060988  0.17563884  0.24254060  1
  C  C185  1  0.73424784  0.16269152  0.24756557  1
  C  C186  1  0.31997837  0.49388838  0.92412318  1
  C  C187  1  0.82052313  0.49320294  0.92397418  1
  C  C188  1  0.42658371  0.36038740  0.92337777  1
  C  C189  1  0.92691989  0.36085983  0.92340956  1
  C  C190  1  0.25368408  0.14703159  0.92333264  1
  C  C191  1  0.75325480  0.14646555  0.92353719  1
  C  C192  1  0.32037027  0.14672008  0.42351346  1
  C  C193  1  0.82032528  0.14738027  0.42400818  1
  C  C194  1  0.25340178  0.35915172  0.42365017  1
  C  C195  1  0.75302152  0.35983047  0.42288055  1
  C  C196  1  0.42650591  0.49255769  0.42348890  1
  C  C197  1  0.92702548  0.49362408  0.42298431  1
  C  C198  1  0.18102507  0.50666311  0.07609105  1
  C  C199  1  0.67576909  0.50344894  0.07395781  1
  C  C200  1  0.07618498  0.64546418  0.07413954  1
  C  C201  1  0.57203870  0.63965424  0.07602329  1
  C  C202  1  0.24767974  0.85576402  0.07637277  1
  C  C203  1  0.74694187  0.84833162  0.07354601  1
  C  C204  1  0.17671969  0.84844791  0.57370085  1
  C  C205  1  0.67675012  0.84872254  0.57392644  1
  C  C206  1  0.24759516  0.64708945  0.57332809  1
  C  C207  1  0.74759713  0.64673513  0.57326735  1
  C  C208  1  0.07565366  0.50551335  0.57385119  1
  C  C209  1  0.57565765  0.50518146  0.57377142  1
  C  C210  1  0.15317068  0.82782838  0.25659604  1
  C  C211  1  0.64780661  0.81752665  0.25785731  1
  C  C212  1  0.26123576  0.69540572  0.25646925  1
  C  C213  1  0.75855780  0.69779054  0.25770988  1
  C  C214  1  0.08964185  0.48049955  0.25710660  1
  C  C215  1  0.58590147  0.47603125  0.25703274  1
  C  C216  1  0.14857536  0.47845105  0.75830662  1
  C  C217  1  0.64854534  0.47848288  0.75829886  1
  C  C218  1  0.08842006  0.69984108  0.75769045  1
  C  C219  1  0.58843683  0.69992569  0.75771346  1
  C  C220  1  0.25933130  0.81884694  0.75775450  1
  C  C221  1  0.75932227  0.81911309  0.75761075  1
