# generated using pymatgen
data_Cu4NiC8
_symmetry_space_group_name_H-M   'P 1'
_cell_length_a   5.28699381
_cell_length_b   5.93798033
_cell_length_c   5.75213389
_cell_angle_alpha   84.60381162
_cell_angle_beta   84.00682449
_cell_angle_gamma   72.86918063
_symmetry_Int_Tables_number   1
_chemical_formula_structural   Cu4NiC8
_chemical_formula_sum   'Cu4 Ni1 C8'
_cell_volume   171.24710110
_cell_formula_units_Z   1
loop_
 _symmetry_equiv_pos_site_id
 _symmetry_equiv_pos_as_xyz
  1  'x, y, z'
loop_
 _atom_site_type_symbol
 _atom_site_label
 _atom_site_symmetry_multiplicity
 _atom_site_fract_x
 _atom_site_fract_y
 _atom_site_fract_z
 _atom_site_occupancy
  Ni  Ni0  1  0.09136004  0.20640782  0.58521934  1
  Cu  Cu1  1  0.96726185  0.74164786  0.58253120  1
  Cu  Cu2  1  0.00392784  0.08156268  0.09250887  1
  Cu  Cu3  1  0.50111605  0.38696972  0.80795691  1
  Cu  Cu4  1  0.54098521  0.64837106  0.27954243  1
  C  C5  1  0.24124005  0.20531304  0.89388959  1
  C  C6  1  0.20527642  0.94120492  0.36671855  1
  C  C7  1  0.69319182  0.37175336  0.07276502  1
  C  C8  1  0.75842284  0.50153086  0.58061035  1
  C  C9  1  0.30586555  0.42752457  0.48592340  1
  C  C10  1  0.21592437  0.71628270  0.87638220  1
  C  C11  1  0.81123428  0.05570460  0.74154096  1
  C  C12  1  0.77530068  0.88239379  0.23440919  1
