# generated using pymatgen
data_Cu3Ni2C15
_symmetry_space_group_name_H-M   'P 1'
_cell_length_a   8.57334037
_cell_length_b   8.57334104
_cell_length_c   21.49018447
_cell_angle_alpha   90.02368036
_cell_angle_beta   89.97630560
_cell_angle_gamma   120.05663708
_symmetry_Int_Tables_number   1
_chemical_formula_structural   Cu3Ni2C15
_chemical_formula_sum   'Cu18 Ni12 C90'
_cell_volume   1367.17072795
_cell_formula_units_Z   6
loop_
 _symmetry_equiv_pos_site_id
 _symmetry_equiv_pos_as_xyz
  1  'x, y, z'
loop_
 _atom_site_type_symbol
 _atom_site_label
 _atom_site_symmetry_multiplicity
 _atom_site_fract_x
 _atom_site_fract_y
 _atom_site_fract_z
 _atom_site_occupancy
  C  C0  1  0.00028196  0.99983741  0.50000803  1
  C  C1  1  0.00016321  0.99971840  0.00000799  1
  C  C2  1  0.65139447  0.32483536  0.83332800  1
  C  C3  1  0.67516407  0.34860584  0.33332796  1
  C  C4  1  0.33374100  0.66652199  0.16664923  1
  C  C5  1  0.33347795  0.66625893  0.66664922  1
  C  C6  1  0.63484893  0.99820093  0.24986764  1
  C  C7  1  0.36594792  0.36456756  0.24994170  1
  C  C8  1  0.63543222  0.63405127  0.74994177  1
  C  C9  1  0.00179867  0.36515079  0.74986766  1
  C  C10  1  0.03033771  0.69879246  0.58329696  1
  C  C11  1  0.66485376  0.96756484  0.58324380  1
  C  C12  1  0.30120777  0.96966236  0.08329714  1
  C  C13  1  0.03243591  0.33514606  0.08324395  1
  C  C14  1  0.96745191  0.66513880  0.91708305  1
  C  C15  1  0.69789952  0.02976830  0.91660632  1
  C  C16  1  0.97023145  0.30210052  0.41660621  1
  C  C17  1  0.33486083  0.03254800  0.41708309  1
  Ni  Ni18  1  0.99436853  0.99250745  0.35221334  1
  Ni  Ni19  1  0.00749260  0.00563142  0.85221335  1
  Ni  Ni20  1  0.00646210  0.00590614  0.64784197  1
  Ni  Ni21  1  0.99409380  0.99353786  0.14784195  1
  Ni  Ni22  1  0.66014318  0.32830400  0.68549696  1
  Ni  Ni23  1  0.67169601  0.33985692  0.18549698  1
  Ni  Ni24  1  0.66117165  0.33414935  0.98120104  1
  Ni  Ni25  1  0.66585067  0.33882826  0.48120103  1
  Ni  Ni26  1  0.33866408  0.66671615  0.01878671  1
  Ni  Ni27  1  0.33328390  0.66133602  0.51878673  1
  Ni  Ni28  1  0.32851259  0.66493216  0.31458306  1
  Ni  Ni29  1  0.33506795  0.67148758  0.81458301  1
  Cu  Cu30  1  0.28553271  0.99548238  0.24999755  1
  Cu  Cu31  1  0.71462048  0.71062450  0.25015531  1
  Cu  Cu32  1  0.99991381  0.29153008  0.24993694  1
  Cu  Cu33  1  0.28937550  0.28537946  0.75015527  1
  Cu  Cu34  1  0.00451778  0.71446738  0.74999752  1
  Cu  Cu35  1  0.70846997  0.00008633  0.74993697  1
  Cu  Cu36  1  0.95828260  0.33340505  0.58331175  1
  Cu  Cu37  1  0.37666387  0.04746568  0.58267380  1
  Cu  Cu38  1  0.66233904  0.61941257  0.58386939  1
  Cu  Cu39  1  0.95253428  0.62333626  0.08267377  1
  Cu  Cu40  1  0.66659518  0.04171742  0.08331176  1
  Cu  Cu41  1  0.38058765  0.33766103  0.08386934  1
  Cu  Cu42  1  0.61902897  0.66262277  0.91610889  1
  Cu  Cu43  1  0.04748055  0.37634055  0.91682960  1
  Cu  Cu44  1  0.33340112  0.95805252  0.91713136  1
  Cu  Cu45  1  0.62365957  0.95251946  0.41682950  1
  Cu  Cu46  1  0.33737735  0.38097110  0.41610886  1
  Cu  Cu47  1  0.04194748  0.66659879  0.41713141  1
  C  C48  1  0.20504065  0.03649730  0.30789373  1
  C  C49  1  0.83023524  0.79583504  0.30775104  1
  C  C50  1  0.96244458  0.17030814  0.30799871  1
  C  C51  1  0.20416507  0.16976474  0.80775112  1
  C  C52  1  0.96350290  0.79495939  0.80789378  1
  C  C53  1  0.82969195  0.03755536  0.80799879  1
  C  C54  1  0.79242815  0.96235852  0.69193268  1
  C  C55  1  0.16591365  0.20488804  0.69317773  1
  C  C56  1  0.03277220  0.82788843  0.69127192  1
  C  C57  1  0.79511207  0.83408644  0.19317758  1
  C  C58  1  0.03764138  0.20757227  0.19193283  1
  C  C59  1  0.17211176  0.96722781  0.19127195  1
  C  C60  1  0.87417930  0.37126173  0.64145938  1
  C  C61  1  0.50208038  0.13060263  0.63917924  1
  C  C62  1  0.63355576  0.50673548  0.64306385  1
  C  C63  1  0.86939770  0.49791980  0.13917929  1
  C  C64  1  0.62873833  0.12582066  0.14145936  1
  C  C65  1  0.49326435  0.36644432  0.14306368  1
  C  C66  1  0.46359702  0.29525733  0.02751016  1
  C  C67  1  0.83989616  0.53957709  0.02355200  1
  C  C68  1  0.70470667  0.16371600  0.02530166  1
  C  C69  1  0.46042300  0.16010390  0.52355202  1
  C  C70  1  0.70474274  0.53640280  0.52751012  1
  C  C71  1  0.83628407  0.29529348  0.52530162  1
  C  C72  1  0.53637289  0.70488848  0.97248192  1
  C  C73  1  0.16115301  0.46203370  0.97542260  1
  C  C74  1  0.29482548  0.83750252  0.97563653  1
  C  C75  1  0.53796575  0.83884631  0.47542280  1
  C  C76  1  0.29511170  0.46362702  0.47248196  1
  C  C77  1  0.16249731  0.70517447  0.47563654  1
  C  C78  1  0.12849285  0.62769889  0.36061919  1
  C  C79  1  0.50205870  0.87151078  0.35875592  1
  C  C80  1  0.36702827  0.49375024  0.35692705  1
  C  C81  1  0.12848894  0.49794110  0.85875601  1
  C  C82  1  0.37230109  0.87150723  0.86061922  1
  C  C83  1  0.50625003  0.63297160  0.85692698  1
  C  C84  1  0.02813121  0.83842530  0.40936400  1
  C  C85  1  0.81520506  0.97959209  0.40981511  1
  C  C86  1  0.16576880  0.18877240  0.40949286  1
  C  C87  1  0.02040807  0.18479530  0.90981505  1
  C  C88  1  0.16157466  0.97186894  0.90936402  1
  C  C89  1  0.81122743  0.83423094  0.90949294  1
  C  C90  1  0.97204083  0.16121033  0.59075305  1
  C  C91  1  0.18565903  0.02121433  0.59028297  1
  C  C92  1  0.83404029  0.81163091  0.59028542  1
  C  C93  1  0.97878559  0.81434089  0.09028303  1
  C  C94  1  0.83878942  0.02795910  0.09075309  1
  C  C95  1  0.18836916  0.16595982  0.09028537  1
  C  C96  1  0.69441832  0.17242490  0.74243697  1
  C  C97  1  0.48119547  0.31217607  0.74269963  1
  C  C98  1  0.83295388  0.52230961  0.74347977  1
  C  C99  1  0.68782407  0.51880454  0.24269967  1
  C  C100  1  0.82757533  0.30558182  0.24243697  1
  C  C101  1  0.47769024  0.16704581  0.24347981  1
  C  C102  1  0.64511264  0.49750803  0.92361203  1
  C  C103  1  0.85558339  0.35598578  0.92319253  1
  C  C104  1  0.50583380  0.14472863  0.92447549  1
  C  C105  1  0.64401436  0.14441692  0.42319260  1
  C  C106  1  0.50249238  0.35488735  0.42361205  1
  C  C107  1  0.85527133  0.49416598  0.42447545  1
  C  C108  1  0.35466233  0.50248595  0.07628844  1
  C  C109  1  0.14456376  0.64400699  0.07646444  1
  C  C110  1  0.49453814  0.85571527  0.07589678  1
  C  C111  1  0.35599299  0.85543613  0.57646445  1
  C  C112  1  0.49751375  0.64533757  0.57628843  1
  C  C113  1  0.14428483  0.50546202  0.57589680  1
  C  C114  1  0.31214550  0.83042303  0.25723091  1
  C  C115  1  0.52240068  0.68985672  0.25699312  1
  C  C116  1  0.17189534  0.47811710  0.25713845  1
  C  C117  1  0.31014362  0.47759970  0.75699310  1
  C  C118  1  0.16957692  0.68785455  0.75723090  1
  C  C119  1  0.52188203  0.82810374  0.75713850  1
