# generated using pymatgen
data_CuNiC15
_symmetry_space_group_name_H-M   'P 1'
_cell_length_a   8.63861003
_cell_length_b   8.66417563
_cell_length_c   22.47012900
_cell_angle_alpha   89.72410075
_cell_angle_beta   89.67194932
_cell_angle_gamma   120.09503934
_symmetry_Int_Tables_number   1
_chemical_formula_structural   CuNiC15
_chemical_formula_sum   'Cu6 Ni6 C90'
_cell_volume   1455.01122570
_cell_formula_units_Z   6
loop_
 _symmetry_equiv_pos_site_id
 _symmetry_equiv_pos_as_xyz
  1  'x, y, z'
loop_
 _atom_site_type_symbol
 _atom_site_label
 _atom_site_symmetry_multiplicity
 _atom_site_fract_x
 _atom_site_fract_y
 _atom_site_fract_z
 _atom_site_occupancy
  Ni  Ni0  1  0.99049726  0.99955728  0.35589569  1
  Ni  Ni1  1  0.00220140  0.00141173  0.85287939  1
  Ni  Ni2  1  0.67817823  0.33703224  0.68627771  1
  Ni  Ni3  1  0.65758845  0.33523249  0.18471121  1
  Ni  Ni4  1  0.65717676  0.33047940  0.98091760  1
  Ni  Ni5  1  0.33126495  0.66516319  0.81393716  1
  C  C6  1  0.95784713  0.33732695  0.58626817  1
  C  C7  1  0.38606266  0.33434759  0.08299083  1
  C  C8  1  0.62856066  0.95731076  0.41578570  1
  Cu  Cu9  1  0.99671111  0.00387477  0.64733151  1
  Cu  Cu10  1  0.00661830  0.00665366  0.14467958  1
  Cu  Cu11  1  0.67130672  0.32171429  0.47871496  1
  Cu  Cu12  1  0.33469524  0.66138672  0.02069016  1
  Cu  Cu13  1  0.33482943  0.66641845  0.52109269  1
  Cu  Cu14  1  0.33825923  0.67097510  0.31352136  1
  C  C15  1  0.29083753  0.00292971  0.25166740  1
  C  C16  1  0.71439554  0.70608641  0.24958783  1
  C  C17  1  0.99420943  0.29313347  0.25047901  1
  C  C18  1  0.29751724  0.29522883  0.75212370  1
  C  C19  1  -0.00002800  0.70876562  0.75227192  1
  C  C20  1  0.70345788  0.99791754  0.75339019  1
  C  C21  1  0.37773970  0.04554587  0.58643452  1
  C  C22  1  0.66646177  0.61755074  0.58516678  1
  C  C23  1  0.95061581  0.61735884  0.08318266  1
  C  C24  1  0.66653927  0.04930839  0.08325834  1
  C  C25  1  0.62943016  0.66866792  0.91355996  1
  C  C26  1  0.03601433  0.37168930  0.91479877  1
  C  C27  1  0.33349549  0.95762295  0.91471425  1
  C  C28  1  0.33095026  0.36833746  0.41585333  1
  C  C29  1  0.04057769  0.67259186  0.41479521  1
  C  C30  1  0.20474930  0.03050743  0.30434889  1
  C  C31  1  0.82581673  0.79161072  0.30194312  1
  C  C32  1  0.96649901  0.18104595  0.30348082  1
  C  C33  1  0.21350754  0.17667981  0.80492512  1
  C  C34  1  0.96875025  0.79504622  0.80433607  1
  C  C35  1  0.82340899  0.03273375  0.80476336  1
  C  C36  1  0.77638973  0.95597070  0.69885838  1
  C  C37  1  0.18289503  0.21971435  0.69831924  1
  C  C38  1  0.03977504  0.82306924  0.69696491  1
  C  C39  1  0.78862399  0.82169010  0.19468108  1
  C  C40  1  0.03513785  0.21992099  0.19635588  1
  C  C41  1  0.17793015  0.96533436  0.19740075  1
  C  C42  1  0.87113715  0.37174658  0.64481530  1
  C  C43  1  0.48629442  0.12867206  0.63945278  1
  C  C44  1  0.63243512  0.50567210  0.63882338  1
  C  C45  1  0.87892071  0.50761634  0.13758748  1
  C  C46  1  0.63937593  0.12588368  0.13790722  1
  C  C47  1  0.50110376  0.37013454  0.14294752  1
  C  C48  1  0.46645810  0.29729192  0.02309869  1
  C  C49  1  0.84689812  0.53986877  0.02867552  1
  C  C50  1  0.70558631  0.15949952  0.02883720  1
  C  C51  1  0.44502141  0.15607179  0.53132520  1
  C  C52  1  0.69557792  0.54341744  0.52952480  1
  C  C53  1  0.84226810  0.29776112  0.52617140  1
  C  C54  1  0.55591682  0.71027540  0.96804209  1
  C  C55  1  0.15067102  0.44709993  0.96866151  1
  C  C56  1  0.29355480  0.84298128  0.97004188  1
  C  C57  1  0.54252047  0.83279665  0.47552312  1
  C  C58  1  0.29005625  0.44222663  0.46891120  1
  C  C59  1  0.14915827  0.70277997  0.46865946  1
  C  C60  1  0.11251971  0.62531111  0.36155306  1
  C  C61  1  0.50179141  0.87624512  0.35720782  1
  C  C62  1  0.36710636  0.48109691  0.36111061  1
  C  C63  1  0.11965405  0.48999156  0.86194610  1
  C  C64  1  0.36470383  0.87174323  0.86248117  1
  C  C65  1  0.50990531  0.63393189  0.86197517  1
  C  C66  1  0.03476722  0.83636679  0.40493227  1
  C  C67  1  0.82026701  0.97313689  0.40708724  1
  C  C68  1  0.17682510  0.19087680  0.40632384  1
  C  C69  1  0.02007261  0.19509479  0.90565739  1
  C  C70  1  0.17280003  0.97487450  0.90653890  1
  C  C71  1  0.80704893  0.83079688  0.90474617  1
  C  C72  1  0.97806811  0.16041332  0.59125097  1
  C  C73  1  0.19503776  0.01915567  0.59264564  1
  C  C74  1  0.83137848  0.79414241  0.59152874  1
  C  C75  1  0.96297795  0.79373123  0.09015689  1
  C  C76  1  0.82185774  0.02096467  0.08987262  1
  C  C77  1  0.18579617  0.15873137  0.08844760  1
  C  C78  1  0.68456648  0.15581266  0.74450727  1
  C  C79  1  0.47398868  0.31125099  0.74191747  1
  C  C80  1  0.83663240  0.53487173  0.74497699  1
  C  C81  1  0.70195423  0.53225726  0.24280225  1
  C  C82  1  0.83614374  0.31114059  0.24082838  1
  C  C83  1  0.46971349  0.15895946  0.24406359  1
  C  C84  1  0.64873042  0.51085801  0.92228848  1
  C  C85  1  0.85937265  0.35571270  0.92511167  1
  C  C86  1  0.49664282  0.13171556  0.92210889  1
  C  C87  1  0.63460174  0.14697210  0.41921358  1
  C  C88  1  0.49696555  0.36290371  0.42425126  1
  C  C89  1  0.85878610  0.51844302  0.42153258  1
  C  C90  1  0.36078080  0.50919610  0.07708888  1
  C  C91  1  0.13493639  0.64600422  0.07641497  1
  C  C92  1  0.50172011  0.87257944  0.07618358  1
  C  C93  1  0.36515372  0.87124152  0.57978835  1
  C  C94  1  0.50882712  0.63929754  0.58034434  1
  C  C95  1  0.15476277  0.51354229  0.57777849  1
  C  C96  1  0.30187293  0.83657882  0.25571285  1
  C  C97  1  0.53228335  0.68453354  0.25444995  1
  C  C98  1  0.15845252  0.47340390  0.25743482  1
  C  C99  1  0.31325943  0.47185172  0.76112826  1
  C  C100  1  0.16080907  0.69171394  0.76024240  1
  C  C101  1  0.52601583  0.83581521  0.76200756  1
