# generated using pymatgen
data_Cu8(NiC5)7
_symmetry_space_group_name_H-M   'P 1'
_cell_length_a   13.91439200
_cell_length_b   11.41959200
_cell_length_c   15.91966876
_cell_angle_alpha   47.74821003
_cell_angle_beta   90.00000000
_cell_angle_gamma   90.00000000
_symmetry_Int_Tables_number   1
_chemical_formula_structural   Cu8(NiC5)7
_chemical_formula_sum   'Cu16 Ni14 C70'
_cell_volume   1872.38969075
_cell_formula_units_Z   2
loop_
 _symmetry_equiv_pos_site_id
 _symmetry_equiv_pos_as_xyz
  1  'x, y, z'
loop_
 _atom_site_type_symbol
 _atom_site_label
 _atom_site_symmetry_multiplicity
 _atom_site_fract_x
 _atom_site_fract_y
 _atom_site_fract_z
 _atom_site_occupancy
  Ni  Ni0  1  0.50000000  0.50000000  0.50000000  1
  Ni  Ni1  1  0.00000000  0.50000000  0.00000000  1
  Ni  Ni2  1  0.23824200  0.46124500  0.75719100  1
  Ni  Ni3  1  0.73824200  0.53875500  0.74280900  1
  Ni  Ni4  1  0.76175800  0.53875500  0.24280900  1
  Ni  Ni5  1  0.26175800  0.46124500  0.25719100  1
  Ni  Ni6  1  0.29473600  0.02350900  0.22277400  1
  Ni  Ni7  1  0.79473600  0.97649100  0.27722600  1
  Ni  Ni8  1  0.70526400  0.97649100  0.77722600  1
  Ni  Ni9  1  0.20526400  0.02350900  0.72277400  1
  Ni  Ni10  1  0.14293400  0.59908400  0.44609900  1
  Ni  Ni11  1  0.64293400  0.40091600  0.05390100  1
  Ni  Ni12  1  0.85706600  0.40091600  0.55390100  1
  Ni  Ni13  1  0.35706600  0.59908400  0.94609900  1
  Cu  Cu14  1  0.02702100  0.03187400  0.08404300  1
  Cu  Cu15  1  0.52702100  0.96812600  0.41595700  1
  Cu  Cu16  1  0.97297900  0.96812600  0.91595700  1
  Cu  Cu17  1  0.47297900  0.03187400  0.58404300  1
  Cu  Cu18  1  0.03676500  0.81743300  0.09658300  1
  Cu  Cu19  1  0.53676500  0.18256700  0.40341700  1
  Cu  Cu20  1  0.96323500  0.18256700  0.90341700  1
  Cu  Cu21  1  0.46323500  0.81743300  0.59658300  1
  Cu  Cu22  1  0.58304100  0.98734700  0.07918800  1
  Cu  Cu23  1  0.08304100  0.01265300  0.42081200  1
  Cu  Cu24  1  0.41695900  0.01265300  0.92081200  1
  Cu  Cu25  1  0.91695900  0.98734700  0.57918800  1
  Cu  Cu26  1  0.48282100  0.18528600  0.93432900  1
  Cu  Cu27  1  0.98282100  0.81471400  0.56567100  1
  Cu  Cu28  1  0.51717900  0.81471400  0.06567100  1
  Cu  Cu29  1  0.01717900  0.18528600  0.43432900  1
  C  C30  1  0.63763300  0.50735900  0.50505800  1
  C  C31  1  0.13763300  0.49264100  0.99494200  1
  C  C32  1  0.36236700  0.49264100  0.49494200  1
  C  C33  1  0.86236700  0.50735900  0.00505800  1
  C  C34  1  0.49521800  0.34842500  0.66186800  1
  C  C35  1  0.99521900  0.65157500  0.83813200  1
  C  C36  1  0.50478200  0.65157500  0.33813200  1
  C  C37  1  0.00478200  0.34842500  0.16186800  1
  C  C38  1  0.50928900  0.33007300  0.49949000  1
  C  C39  1  0.00928900  0.66992700  0.00051000  1
  C  C40  1  0.49071100  0.66992700  0.50051000  1
  C  C41  1  0.99071100  0.33007300  0.99949000  1
  C  C42  1  0.15208600  0.42707700  0.67978300  1
  C  C43  1  0.65208600  0.57292300  0.82021700  1
  C  C44  1  0.84791400  0.57292300  0.32021700  1
  C  C45  1  0.34791400  0.42707700  0.17978300  1
  C  C46  1  0.32632900  0.30507100  0.78828000  1
  C  C47  1  0.82632900  0.69492900  0.71172000  1
  C  C48  1  0.67367100  0.69492900  0.21172000  1
  C  C49  1  0.17367100  0.30507100  0.28828000  1
  C  C50  1  0.30194000  0.62088200  0.61567900  1
  C  C51  1  0.80194000  0.37911800  0.88432100  1
  C  C52  1  0.69806000  0.37911800  0.38432100  1
  C  C53  1  0.19806000  0.62088200  0.11567900  1
  C  C54  1  0.17575900  0.29813100  0.89768800  1
  C  C55  1  0.67575900  0.70186900  0.60231200  1
  C  C56  1  0.82424100  0.70186900  0.10231200  1
  C  C57  1  0.32424100  0.29813100  0.39768800  1
  C  C58  1  0.32986500  0.49405200  0.83214300  1
  C  C59  1  0.82986500  0.50594800  0.66785700  1
  C  C60  1  0.67013500  0.50594800  0.16785700  1
  C  C61  1  0.17013500  0.49405200  0.33214300  1
  C  C62  1  0.15464800  0.61743000  0.72777900  1
  C  C63  1  0.65464800  0.38257000  0.77222100  1
  C  C64  1  0.84535200  0.38257000  0.27222100  1
  C  C65  1  0.34535200  0.61743000  0.22777900  1
  C  C66  1  0.42703700  0.96439100  0.24689300  1
  C  C67  1  0.92703700  0.03560900  0.25310700  1
  C  C68  1  0.57296300  0.03560900  0.75310700  1
  C  C69  1  0.07296300  0.96439100  0.74689300  1
  C  C70  1  0.28246400  0.99282900  0.11925600  1
  C  C71  1  0.78246400  0.00717100  0.38074400  1
  C  C72  1  0.71753600  0.00717100  0.88074400  1
  C  C73  1  0.21753600  0.99282900  0.61925600  1
  C  C74  1  0.16057300  0.07156700  0.20800100  1
  C  C75  1  0.66057300  0.92843300  0.29199900  1
  C  C76  1  0.83942700  0.92843300  0.79199900  1
  C  C77  1  0.33942700  0.07156700  0.70800100  1
  C  C78  1  0.30258100  0.03520400  0.33702500  1
  C  C79  1  0.80258100  0.96479600  0.16297500  1
  C  C80  1  0.69741900  0.96479600  0.66297500  1
  C  C81  1  0.19741900  0.03520400  0.83702500  1
  C  C82  1  0.32939300  0.24106000  0.10317000  1
  C  C83  1  0.82939300  0.75894000  0.39683000  1
  C  C84  1  0.67060700  0.75894000  0.89683000  1
  C  C85  1  0.17060700  0.24106000  0.60317000  1
  C  C86  1  0.26007700  0.79578200  0.34620400  1
  C  C87  1  0.76007700  0.20421800  0.15379600  1
  C  C88  1  0.73992300  0.20421800  0.65379600  1
  C  C89  1  0.23992300  0.79578200  0.84620400  1
  C  C90  1  0.00000000  0.50000000  0.50000000  1
  C  C91  1  0.50000000  0.50000000  0.00000000  1
  C  C92  1  0.09720700  0.73417700  0.47306800  1
  C  C93  1  0.59720700  0.26582300  0.02693200  1
  C  C94  1  0.90279300  0.26582300  0.52693200  1
  C  C95  1  0.40279300  0.73417700  0.97306800  1
  C  C96  1  0.08151600  0.74530900  0.29625300  1
  C  C97  1  0.58151600  0.25469100  0.20374700  1
  C  C98  1  0.91848400  0.25469100  0.70374700  1
  C  C99  1  0.41848400  0.74530900  0.79625300  1
