# generated using pymatgen
data_Cu(NiC4)2
_symmetry_space_group_name_H-M   'P 1'
_cell_length_a   7.46970728
_cell_length_b   7.46970739
_cell_length_c   7.47350745
_cell_angle_alpha   49.46825846
_cell_angle_beta   49.46825810
_cell_angle_gamma   49.48183610
_symmetry_Int_Tables_number   1
_chemical_formula_structural   Cu(NiC4)2
_chemical_formula_sum   'Cu1 Ni2 C8'
_cell_volume   221.44418044
_cell_formula_units_Z   1
loop_
 _symmetry_equiv_pos_site_id
 _symmetry_equiv_pos_as_xyz
  1  'x, y, z'
loop_
 _atom_site_type_symbol
 _atom_site_label
 _atom_site_symmetry_multiplicity
 _atom_site_fract_x
 _atom_site_fract_y
 _atom_site_fract_z
 _atom_site_occupancy
  Ni  Ni0  1  0.72150471  0.72150471  0.72011200  1
  Ni  Ni1  1  0.17308765  0.17308765  0.17183409  1
  Cu  Cu2  1  0.99613491  0.99613491  0.99565015  1
  C  C3  1  0.40336896  0.40336896  0.40219392  1
  C  C4  1  0.55067719  0.55067719  0.55072907  1
  C  C5  1  0.29133129  0.75589621  0.75747490  1
  C  C6  1  0.23091877  0.75923320  0.23009322  1
  C  C7  1  0.75589621  0.29133129  0.75747490  1
  C  C8  1  0.23088701  0.23088701  0.75798540  1
  C  C9  1  0.75923320  0.23091877  0.23009322  1
  C  C10  1  0.75675210  0.75675210  0.29354713  1
