# generated using pymatgen
data_Cu6NiC12
_symmetry_space_group_name_H-M   'P 1'
_cell_length_a   8.24067433
_cell_length_b   5.68415857
_cell_length_c   5.89856596
_cell_angle_alpha   67.54190855
_cell_angle_beta   64.96797430
_cell_angle_gamma   67.54803941
_symmetry_Int_Tables_number   1
_chemical_formula_structural   Cu6NiC12
_chemical_formula_sum   'Cu6 Ni1 C12'
_cell_volume   223.20968504
_cell_formula_units_Z   1
loop_
 _symmetry_equiv_pos_site_id
 _symmetry_equiv_pos_as_xyz
  1  'x, y, z'
loop_
 _atom_site_type_symbol
 _atom_site_label
 _atom_site_symmetry_multiplicity
 _atom_site_fract_x
 _atom_site_fract_y
 _atom_site_fract_z
 _atom_site_occupancy
  Ni  Ni0  1  0.50337372  0.97815379  0.50466341  1
  Cu  Cu1  1  0.85464993  0.68868038  0.68672786  1
  Cu  Cu2  1  0.68986280  0.35933410  0.33468545  1
  Cu  Cu3  1  0.27286349  0.60143612  0.65329706  1
  Cu  Cu4  1  0.13524982  0.29240719  0.31198493  1
  Cu  Cu5  1  0.49581611  0.98568563  0.00106917  1
  Cu  Cu6  1  0.00557758  0.02994686  0.97449128  1
  C  C7  1  0.67489555  0.03239924  0.64356214  1
  C  C8  1  0.31437252  0.33886215  0.97082622  1
  C  C9  1  0.95491605  0.24189327  0.20637521  1
  C  C10  1  0.02952911  0.80144943  0.78617888  1
  C  C11  1  0.43121826  0.38103538  0.44023598  1
  C  C12  1  0.33582799  0.93251395  0.36727952  1
  C  C13  1  0.67031436  0.64103846  0.02519330  1
  C  C14  1  0.01928676  0.32998501  0.67294947  1
  C  C15  1  0.31877510  0.89637529  0.85814102  1
  C  C16  1  0.65390968  0.60505224  0.55190111  1
  C  C17  1  0.69522964  0.07271947  0.14418253  1
  C  C18  1  0.01575852  0.71960205  0.29482846  1
