# generated using pymatgen
data_Cu3Ni6C61
_symmetry_space_group_name_H-M   'P 1'
_cell_length_a   17.00789263
_cell_length_b   8.47922260
_cell_length_c   22.01134867
_cell_angle_alpha   89.99899769
_cell_angle_beta   90.21707114
_cell_angle_gamma   120.14589043
_symmetry_Int_Tables_number   1
_chemical_formula_structural   Cu3Ni6C61
_chemical_formula_sum   'Cu9 Ni18 C183'
_cell_volume   2744.98103364
_cell_formula_units_Z   3
loop_
 _symmetry_equiv_pos_site_id
 _symmetry_equiv_pos_as_xyz
  1  'x, y, z'
loop_
 _atom_site_type_symbol
 _atom_site_label
 _atom_site_symmetry_multiplicity
 _atom_site_fract_x
 _atom_site_fract_y
 _atom_site_fract_z
 _atom_site_occupancy
  C  C0  1  0.99776137  0.98842918  0.49861206  1
  C  C1  1  0.50056500  0.00968168  0.99662289  1
  C  C2  1  0.33999249  0.33803082  0.83464169  1
  C  C3  1  0.83555397  0.34649081  0.83054212  1
  C  C4  1  0.33686932  0.32635948  0.33401049  1
  C  C5  1  0.83823365  0.33808060  0.33872328  1
  C  C6  1  0.49582691  0.00817578  0.35742097  1
  C  C7  1  0.99450779  0.98136861  0.85456039  1
  C  C8  1  0.50371639  0.99495321  0.63744484  1
  C  C9  1  0.99807438  0.00319188  0.14107033  1
  C  C10  1  0.66811847  0.66043145  0.02201085  1
  C  C11  1  0.16745791  0.67562159  0.52364198  1
  Ni  Ni12  1  0.00011350  0.99272073  0.35648947  1
  Ni  Ni13  1  0.50141518  0.01100068  0.85274486  1
  Ni  Ni14  1  0.99731075  0.99075299  0.64894945  1
  Ni  Ni15  1  0.50060405  0.00570451  0.15098171  1
  Ni  Ni16  1  0.33335809  0.33668449  0.68574073  1
  Ni  Ni17  1  0.83344168  0.33612362  0.68504175  1
  Ni  Ni18  1  0.33639346  0.32992683  0.18855086  1
  Ni  Ni19  1  0.83074027  0.32635831  0.18636118  1
  Ni  Ni20  1  0.33929860  0.33632656  0.97885465  1
  Ni  Ni21  1  0.83397727  0.33151547  0.97791388  1
  Ni  Ni22  1  0.33521484  0.33546320  0.47977135  1
  Ni  Ni23  1  0.83656087  0.34149861  0.48207703  1
  Ni  Ni24  1  0.16915517  0.66946007  0.01998156  1
  Ni  Ni25  1  0.67086655  0.67791715  0.52475909  1
  Ni  Ni26  1  0.16210139  0.67579400  0.31856367  1
  Ni  Ni27  1  0.66288967  0.66223984  0.31131241  1
  Ni  Ni28  1  0.16427176  0.66530833  0.80789995  1
  Ni  Ni29  1  0.66287401  0.64767347  0.81565820  1
  Cu  Cu30  1  0.50236394  0.30201231  0.24509259  1
  Cu  Cu31  1  0.99988186  0.69791451  0.74340190  1
  Cu  Cu32  1  0.70444322  0.05623736  0.58092270  1
  Cu  Cu33  1  0.32887416  0.59693630  0.58265052  1
  Cu  Cu34  1  0.82906679  0.06099223  0.08232444  1
  Cu  Cu35  1  0.80693414  0.64852919  0.91481983  1
  Cu  Cu36  1  0.51669682  0.36924882  0.91296300  1
  Cu  Cu37  1  0.30562332  0.96471116  0.41553756  1
  Cu  Cu38  1  0.01523063  0.65916886  0.41399211  1
  C  C39  1  0.14493641  -0.00036908  0.25126980  1
  C  C40  1  0.64751988  0.00178342  0.24899502  1
  C  C41  1  0.35115411  0.70598595  0.24768147  1
  C  C42  1  0.85488584  0.70698555  0.25143160  1
  C  C43  1  0.00127566  0.29363754  0.25350772  1
  C  C44  1  0.14770905  0.29243630  0.74891225  1
  C  C45  1  0.64427257  0.29143371  0.75166108  1
  C  C46  1  0.50136898  0.71047607  0.75346083  1
  C  C47  1  0.35470202  0.00194437  0.75137370  1
  C  C48  1  0.85057183  0.99540659  0.74813791  1
  C  C49  1  0.47726956  0.34275589  0.58278581  1
  C  C50  1  0.97362217  0.32086892  0.58556128  1
  C  C51  1  0.18870016  0.05614681  0.58566606  1
  C  C52  1  0.83416049  0.62470399  0.58258239  1
  C  C53  1  0.47151604  0.62314701  0.08538635  1
  C  C54  1  0.97903807  0.61185619  0.08273947  1
  C  C55  1  0.33170520  0.04272347  0.08261316  1
  C  C56  1  0.19746372  0.34448038  0.08174133  1
  C  C57  1  0.68849873  0.32177866  0.08547905  1
  C  C58  1  0.30748181  0.66360717  0.91636613  1
  C  C59  1  0.02724633  0.39038053  0.91743945  1
  C  C60  1  0.17106935  0.95331883  0.91871702  1
  C  C61  1  0.66569203  0.95469345  0.91337696  1
  C  C62  1  0.80834744  0.94928983  0.41405842  1
  C  C63  1  0.16586221  0.37718186  0.41326286  1
  C  C64  1  0.67180962  0.39439417  0.41819978  1
  C  C65  1  0.52611111  0.66207820  0.41712440  1
  C  C66  1  0.10274156  0.03470454  0.30394214  1
  C  C67  1  0.60521389  0.03284580  0.30344798  1
  C  C68  1  0.41231859  0.78496603  0.30299325  1
  C  C69  1  0.91627792  0.79329414  0.30338692  1
  C  C70  1  0.48341471  0.16492250  0.30611946  1
  C  C71  1  0.98372542  0.16925277  0.30482822  1
  C  C72  1  0.10517756  0.17786182  0.80433916  1
  C  C73  1  0.60169768  0.17223414  0.80538598  1
  C  C74  1  0.48345948  0.79779607  0.80615135  1
  C  C75  1  0.98148446  0.79579787  0.80619394  1
  C  C76  1  0.41444885  0.03828180  0.80512712  1
  C  C77  1  0.91239349  0.03220372  0.80431133  1
  C  C78  1  0.39463863  0.97134141  0.69636851  1
  C  C79  1  0.89604583  0.97071247  0.69532948  1
  C  C80  1  0.08936352  0.21190554  0.69519773  1
  C  C81  1  0.58571945  0.20453633  0.69739260  1
  C  C82  1  0.01686400  0.83917520  0.68989356  1
  C  C83  1  0.51279573  0.82163005  0.69775081  1
  C  C84  1  0.39691731  0.82197928  0.19420734  1
  C  C85  1  0.89736905  0.82064756  0.19481556  1
  C  C86  1  0.01298924  0.20296845  0.19668318  1
  C  C87  1  0.51698970  0.19734571  0.18936205  1
  C  C88  1  0.08728825  0.97098616  0.19560671  1
  C  C89  1  0.58967501  0.96654634  0.19443458  1
  C  C90  1  0.43704385  0.36828945  0.63867607  1
  C  C91  1  0.93646557  0.35984891  0.63949436  1
  C  C92  1  0.24529919  0.13147628  0.64035770  1
  C  C93  1  0.75719400  0.14601529  0.64308105  1
  C  C94  1  0.31795230  0.49130793  0.64455155  1
  C  C95  1  0.81973115  0.51572212  0.63766415  1
  C  C96  1  0.42986067  0.50753691  0.13878958  1
  C  C97  1  0.93845994  0.50919408  0.13868293  1
  C  C98  1  0.31470731  0.12377346  0.13697939  1
  C  C99  1  0.82044093  0.14590937  0.14449896  1
  C  C100  1  0.25065307  0.37053277  0.13728653  1
  C  C101  1  0.74535560  0.35939059  0.14010598  1
  C  C102  1  0.23533502  0.30493801  0.02798353  1
  C  C103  1  0.72985140  0.30117155  0.02989438  1
  C  C104  1  0.41556807  0.54363078  0.02974218  1
  C  C105  1  0.92120185  0.54196302  0.02888000  1
  C  C106  1  0.34864113  0.16048919  0.02873531  1
  C  C107  1  0.85005750  0.17947984  0.02245510  1
  C  C108  1  0.22981971  0.15778932  0.52976049  1
  C  C109  1  0.74200644  0.18265743  0.52205776  1
  C  C110  1  0.34848882  0.52011339  0.52219369  1
  C  C111  1  0.85629802  0.55088522  0.52850942  1
  C  C112  1  0.41887220  0.29903582  0.52896786  1
  C  C113  1  0.92022227  0.28964318  0.52949496  1
  C  C114  1  0.26832271  0.69994090  0.97169570  1
  C  C115  1  0.76616585  0.69361572  0.97620763  1
  C  C116  1  0.08205990  0.47213052  0.97337040  1
  C  C117  1  0.57881178  0.46233752  0.97546256  1
  C  C118  1  0.15278612  0.83895710  0.97337906  1
  C  C119  1  0.64891204  0.84351057  0.97001185  1
  C  C120  1  0.26562980  0.83768319  0.47610201  1
  C  C121  1  0.77022671  0.83401681  0.46841839  1
  C  C122  1  0.14849430  0.45311415  0.46925518  1
  C  C123  1  0.65350465  0.47058572  0.47241051  1
  C  C124  1  0.07949071  0.69333837  0.47487776  1
  C  C125  1  0.58071562  0.68916646  0.47148000  1
  C  C126  1  0.06035110  0.62030334  0.35556861  1
  C  C127  1  0.56713210  0.63663760  0.36162534  1
  C  C128  1  0.24963726  0.87021079  0.35514785  1
  C  C129  1  0.75170531  0.86274086  0.35898240  1
  C  C130  1  0.18263667  0.49305619  0.35937472  1
  C  C131  1  0.68327037  0.50110617  0.36267353  1
  C  C132  1  0.07038418  0.50301156  0.86354208  1
  C  C133  1  0.56301329  0.50174473  0.85615845  1
  C  C134  1  0.18701054  0.87389027  0.86438296  1
  C  C135  1  0.68297550  0.87355208  0.86006126  1
  C  C136  1  0.25077514  0.63447521  0.86200575  1
  C  C137  1  0.74928364  0.63091703  0.85589286  1
  C  C138  1  0.00946524  0.84427992  0.40774765  1
  C  C139  1  0.51861705  0.82908818  0.40847598  1
  C  C140  1  0.40531362  0.97321961  0.41018671  1
  C  C141  1  0.90098378  0.97389699  0.40546680  1
  C  C142  1  0.08210771  0.19620040  0.40554680  1
  C  C143  1  0.58916188  0.20606682  0.41010245  1
  C  C144  1  0.01982954  0.20932324  0.91023371  1
  C  C145  1  0.50933797  0.17113121  0.90786947  1
  C  C146  1  0.08935740  0.97386176  0.91068423  1
  C  C147  1  0.58250210  0.96846018  0.90662970  1
  C  C148  1  0.39984994  0.82234531  0.90883031  1
  C  C149  1  0.90685528  0.83897977  0.91088112  1
  C  C150  1  0.48566533  0.17593706  0.59204121  1
  C  C151  1  0.98510434  0.15895806  0.59407640  1
  C  C152  1  0.09792700  0.03889653  0.59098856  1
  C  C153  1  0.60042766  0.03367405  0.59271449  1
  C  C154  1  0.41594775  0.80653941  0.59226885  1
  C  C155  1  0.91429160  0.81366492  0.59004016  1
  C  C156  1  0.48276575  0.80769196  0.09333893  1
  C  C157  1  0.99172679  0.80168911  0.09212871  1
  C  C158  1  0.41243678  0.02015915  0.08974599  1
  C  C159  1  0.91829066  0.02785318  0.09214799  1
  C  C160  1  0.10433702  0.17771770  0.09071226  1
  C  C161  1  0.59741507  0.15577734  0.09100755  1
  C  C162  1  0.34475790  0.16621664  0.74279728  1
  C  C163  1  0.84506376  0.16200292  0.74466832  1
  C  C164  1  0.23729798  0.30225379  0.74396320  1
  C  C165  1  0.73390115  0.30768659  0.74457596  1
  C  C166  1  0.41988781  0.52578803  0.74610760  1
  C  C167  1  0.90774144  0.50385031  0.73855014  1
  C  C168  1  0.34132188  0.52309613  0.23985805  1
  C  C169  1  0.84668558  0.52567803  0.24099168  1
  C  C170  1  0.40947505  0.31076247  0.24056060  1
  C  C171  1  0.92037078  0.31412049  0.24496910  1
  C  C172  1  0.23406793  0.16677010  0.24101182  1
  C  C173  1  0.73742099  0.17340599  0.24322613  1
  C  C174  1  0.31260042  0.49526687  0.92565276  1
  C  C175  1  0.82228929  0.48029348  0.92666952  1
  C  C176  1  0.41897947  0.35420355  0.92509884  1
  C  C177  1  0.93608110  0.36836657  0.92280934  1
  C  C178  1  0.24910236  0.13763585  0.92788917  1
  C  C179  1  0.74636501  0.13726212  0.92238663  1
  C  C180  1  0.32169368  0.16439726  0.42652523  1
  C  C181  1  0.81611382  0.12910741  0.42060899  1
  C  C182  1  0.24568607  0.35483610  0.42112562  1
  C  C183  1  0.75068512  0.37059933  0.42315111  1
  C  C184  1  0.43371629  0.50282464  0.42161198  1
  C  C185  1  0.91761153  0.48013412  0.42648695  1
  C  C186  1  0.18339433  0.50054238  0.07271599  1
  C  C187  1  0.67678911  0.48512284  0.08064075  1
  C  C188  1  0.07033596  0.63626809  0.07399337  1
  C  C189  1  0.56192094  0.64198816  0.07793817  1
  C  C190  1  0.24971846  0.86048339  0.07276123  1
  C  C191  1  0.74274395  0.85607078  0.07602611  1
  C  C192  1  0.17668575  0.86833872  0.58103881  1
  C  C193  1  0.68243941  0.85096609  0.57148970  1
  C  C194  1  0.24150471  0.62499610  0.57506426  1
  C  C195  1  0.75152710  0.63563758  0.57216375  1
  C  C196  1  0.06557055  0.48248009  0.57749529  1
  C  C197  1  0.56832807  0.49745884  0.57360105  1
  C  C198  1  0.15279383  0.83680142  0.25656217  1
  C  C199  1  0.66022559  0.84587001  0.25885922  1
  C  C200  1  0.26317632  0.69111731  0.25729673  1
  C  C201  1  0.76724004  0.69343202  0.25925995  1
  C  C202  1  0.08542514  0.46873575  0.25798268  1
  C  C203  1  0.59023134  0.49107942  0.26157431  1
  C  C204  1  0.16034595  0.47471658  0.75973660  1
  C  C205  1  0.65093883  0.46976623  0.75731027  1
  C  C206  1  0.08802471  0.68766811  0.76204453  1
  C  C207  1  0.58469758  0.70226190  0.75968390  1
  C  C208  1  0.26586095  0.83980495  0.76202204  1
  C  C209  1  0.76257905  0.83282162  0.75852072  1
