# generated using pymatgen
data_CuNiC12
_symmetry_space_group_name_H-M   'P 1'
_cell_length_a   5.49711527
_cell_length_b   7.99849451
_cell_length_c   5.14958127
_cell_angle_alpha   90.00997731
_cell_angle_beta   89.96348507
_cell_angle_gamma   110.16024609
_symmetry_Int_Tables_number   1
_chemical_formula_structural   CuNiC12
_chemical_formula_sum   'Cu1 Ni1 C12'
_cell_volume   212.54785181
_cell_formula_units_Z   1
loop_
 _symmetry_equiv_pos_site_id
 _symmetry_equiv_pos_as_xyz
  1  'x, y, z'
loop_
 _atom_site_type_symbol
 _atom_site_label
 _atom_site_symmetry_multiplicity
 _atom_site_fract_x
 _atom_site_fract_y
 _atom_site_fract_z
 _atom_site_occupancy
  C  C0  1  0.12577200  0.25096100  0.50011200  1
  C  C1  1  0.68291200  0.36575300  0.00110700  1
  C  C2  1  0.31711900  0.63422100  0.99911800  1
  C  C3  1  0.87441200  0.74905300  0.49993300  1
  Ni  Ni4  1  0.49999500  0.99999500  0.99996500  1
  Cu  Cu5  1  0.99993100  0.00012500  0.99995200  1
  C  C6  1  0.24072200  0.99996100  0.25547900  1
  C  C7  1  0.24095500  0.99997100  0.74458800  1
  C  C8  1  0.75900400  0.00003800  0.25536400  1
  C  C9  1  0.75934900  0.00003200  0.74462600  1
  C  C10  1  0.17213000  0.34330600  0.00014600  1
  C  C11  1  0.70069900  0.40208000  0.49905400  1
  C  C12  1  0.29903700  0.59787500  0.50067800  1
  C  C13  1  0.82796100  0.65662900  0.99987800  1
