# generated using pymatgen
data_Cu2NiC8
_symmetry_space_group_name_H-M   'P 1'
_cell_length_a   3.95094320
_cell_length_b   3.95094320
_cell_length_c   10.19764425
_cell_angle_alpha   79.61612943
_cell_angle_beta   79.61612943
_cell_angle_gamma   89.84805981
_symmetry_Int_Tables_number   1
_chemical_formula_structural   Cu2NiC8
_chemical_formula_sum   'Cu2 Ni1 C8'
_cell_volume   153.94001568
_cell_formula_units_Z   1
loop_
 _symmetry_equiv_pos_site_id
 _symmetry_equiv_pos_as_xyz
  1  'x, y, z'
loop_
 _atom_site_type_symbol
 _atom_site_label
 _atom_site_symmetry_multiplicity
 _atom_site_fract_x
 _atom_site_fract_y
 _atom_site_fract_z
 _atom_site_occupancy
  C  C0  1  0.17490504  0.17490504  0.54358154  1
  C  C1  1  0.01618168  0.01618168  0.93205394  1
  Ni  Ni2  1  0.78148255  0.78148255  0.32483009  1
  Cu  Cu3  1  0.57992892  0.57992892  0.74963888  1
  Cu  Cu4  1  0.34109311  0.34109311  0.20141578  1
  C  C5  1  0.41823769  0.41823769  0.99231936  1
  C  C6  1  0.06526879  0.56960763  0.77705175  1
  C  C7  1  0.56960763  0.06526879  0.77705175  1
  C  C8  1  0.81099142  0.30961817  0.26558091  1
  C  C9  1  0.68268501  0.68268501  0.52922908  1
  C  C10  1  0.30961817  0.81099142  0.26558091  1
