# generated using pymatgen
data_Cu12NiC24
_symmetry_space_group_name_H-M   'P 1'
_cell_length_a   9.70970753
_cell_length_b   14.46644343
_cell_length_c   3.09991100
_cell_angle_alpha   90.00000000
_cell_angle_beta   90.00000000
_cell_angle_gamma   92.09718897
_symmetry_Int_Tables_number   1
_chemical_formula_structural   Cu12NiC24
_chemical_formula_sum   'Cu12 Ni1 C24'
_cell_volume   435.13714181
_cell_formula_units_Z   1
loop_
 _symmetry_equiv_pos_site_id
 _symmetry_equiv_pos_as_xyz
  1  'x, y, z'
loop_
 _atom_site_type_symbol
 _atom_site_label
 _atom_site_symmetry_multiplicity
 _atom_site_fract_x
 _atom_site_fract_y
 _atom_site_fract_z
 _atom_site_occupancy
  Ni  Ni0  1  0.47424000  0.81918200  0.00000000  1
  Cu  Cu1  1  0.98913200  0.02224800  0.00000000  1
  Cu  Cu2  1  0.02219400  0.32877700  0.00000000  1
  Cu  Cu3  1  0.00763800  0.66123200  0.00000000  1
  Cu  Cu4  1  0.22747700  0.16829200  0.50000000  1
  Cu  Cu5  1  0.25214100  0.48280100  0.50000000  1
  Cu  Cu6  1  0.21008700  0.87248200  0.50000000  1
  Cu  Cu7  1  0.49854200  0.34456600  0.00000000  1
  Cu  Cu8  1  0.50413000  0.00534600  0.00000000  1
  Cu  Cu9  1  0.54711500  0.63157200  0.00000000  1
  Cu  Cu10  1  0.74067900  0.15715400  0.50000000  1
  Cu  Cu11  1  0.74567600  0.48219200  0.50000000  1
  Cu  Cu12  1  0.74348400  0.82789900  0.50000000  1
  C  C13  1  0.09644900  0.26680500  0.50000000  1
  C  C14  1  0.06077300  0.94475800  0.50000000  1
  C  C15  1  0.15796500  0.10319500  0.00000000  1
  C  C16  1  0.15369400  0.43457400  0.00000000  1
  C  C17  1  0.32730300  0.91033100  0.00000000  1
  C  C18  1  0.40720800  0.39807600  0.50000000  1
  C  C19  1  0.56775200  0.91781600  0.50000000  1
  C  C20  1  0.63819700  0.58604300  0.50000000  1
  C  C21  1  0.64438600  0.10016400  0.00000000  1
  C  C22  1  0.66891600  0.41740300  0.00000000  1
  C  C23  1  0.65735500  0.76525400  0.00000000  1
  C  C24  1  0.89365500  0.07817100  0.50000000  1
  C  C25  1  0.12251300  0.60171700  0.50000000  1
  C  C26  1  0.14444200  0.77845300  0.00000000  1
  C  C27  1  0.34956900  0.23170600  0.00000000  1
  C  C28  1  0.35336800  0.56233600  0.00000000  1
  C  C29  1  0.40391000  0.06993700  0.50000000  1
  C  C30  1  0.40512100  0.74646900  0.50000000  1
  C  C31  1  0.58676000  0.26176900  0.50000000  1
  C  C32  1  0.83423900  0.23847600  0.00000000  1
  C  C33  1  0.82905900  0.90384400  0.00000000  1
  C  C34  1  0.87398300  0.54934200  0.00000000  1
  C  C35  1  0.91354000  0.39215800  0.50000000  1
  C  C36  1  0.90445300  0.73838300  0.50000000  1
