# generated using pymatgen
data_Cu6Ni2C
_symmetry_space_group_name_H-M   'P 1'
_cell_length_a   7.06178600
_cell_length_b   7.06178600
_cell_length_c   9.72134500
_cell_angle_alpha   90.00000000
_cell_angle_beta   90.00000000
_cell_angle_gamma   90.00000000
_symmetry_Int_Tables_number   1
_chemical_formula_structural   Cu6Ni2C
_chemical_formula_sum   'Cu12 Ni4 C2'
_cell_volume   484.79201864
_cell_formula_units_Z   2
loop_
 _symmetry_equiv_pos_site_id
 _symmetry_equiv_pos_as_xyz
  1  'x, y, z'
loop_
 _atom_site_type_symbol
 _atom_site_label
 _atom_site_symmetry_multiplicity
 _atom_site_fract_x
 _atom_site_fract_y
 _atom_site_fract_z
 _atom_site_occupancy
  C  C0  1  0.00000000  0.00000000  0.75000000  1
  C  C1  1  0.00000000  0.00000000  0.25000000  1
  Ni  Ni2  1  0.05759400  0.34646800  0.50000000  1
  Ni  Ni3  1  0.94240600  0.65353200  0.50000000  1
  Ni  Ni4  1  0.34646800  0.94240600  0.00000000  1
  Ni  Ni5  1  0.65353200  0.05759400  0.00000000  1
  Cu  Cu6  1  0.20763900  0.31458000  0.67602500  1
  Cu  Cu7  1  0.68542000  0.20763900  0.17602500  1
  Cu  Cu8  1  0.17185000  0.17437800  0.00000000  1
  Cu  Cu9  1  0.82562200  0.17185000  0.50000000  1
  Cu  Cu10  1  0.17437800  0.82815000  0.50000000  1
  Cu  Cu11  1  0.82815000  0.82562200  0.00000000  1
  Cu  Cu12  1  0.20763900  0.31458000  0.32397500  1
  Cu  Cu13  1  0.68542000  0.20763900  0.82397500  1
  Cu  Cu14  1  0.31458000  0.79236100  0.82397500  1
  Cu  Cu15  1  0.79236100  0.68542000  0.32397500  1
  Cu  Cu16  1  0.79236100  0.68542000  0.67602500  1
  Cu  Cu17  1  0.31458000  0.79236100  0.17602500  1
