# generated using pymatgen
data_Cu4Ni2C13
_symmetry_space_group_name_H-M   'P 1'
_cell_length_a   5.04517532
_cell_length_b   4.99979551
_cell_length_c   10.00536776
_cell_angle_alpha   96.74966829
_cell_angle_beta   93.33863606
_cell_angle_gamma   60.29711032
_symmetry_Int_Tables_number   1
_chemical_formula_structural   Cu4Ni2C13
_chemical_formula_sum   'Cu4 Ni2 C13'
_cell_volume   217.70285968
_cell_formula_units_Z   1
loop_
 _symmetry_equiv_pos_site_id
 _symmetry_equiv_pos_as_xyz
  1  'x, y, z'
loop_
 _atom_site_type_symbol
 _atom_site_label
 _atom_site_symmetry_multiplicity
 _atom_site_fract_x
 _atom_site_fract_y
 _atom_site_fract_z
 _atom_site_occupancy
  C  C0  1  1.00000000  0.08396215  0.25224003  1
  Ni  Ni1  1  0.00000000  0.01218756  0.98459271  1
  Ni  Ni2  1  0.00000000  0.49213579  0.50411896  1
  Cu  Cu3  1  0.33804955  0.34577320  0.00169883  1
  Cu  Cu4  1  0.33443492  0.82408458  0.50539074  1
  Cu  Cu5  1  0.66556508  0.15851950  0.50539074  1
  Cu  Cu6  1  0.66195045  0.68382275  0.00169883  1
  C  C7  1  1.00000000  0.18501177  0.60011747  1
  C  C8  1  0.00000000  0.35312456  0.10416298  1
  C  C9  1  1.00000000  0.65156531  0.90314960  1
  C  C10  1  0.33815786  0.98588455  0.89702412  1
  C  C11  1  1.00000000  0.81215013  0.40236026  1
  C  C12  1  0.31317013  0.12930841  0.39893240  1
  C  C13  1  0.33733078  0.51140034  0.59601519  1
  C  C14  1  0.30735314  0.73360708  0.10681772  1
  C  C15  1  0.69264686  0.04096022  0.10681772  1
  C  C16  1  0.66184214  0.32404241  0.89702412  1
  C  C17  1  0.68682987  0.44247855  0.39893240  1
  C  C18  1  0.66266922  0.84873112  0.59601519  1
