# generated using pymatgen
data_Cu3NiC9
_symmetry_space_group_name_H-M   'P 1'
_cell_length_a   6.23695486
_cell_length_b   6.08837697
_cell_length_c   6.11711497
_cell_angle_alpha   60.09380971
_cell_angle_beta   58.67339955
_cell_angle_gamma   58.56177363
_symmetry_Int_Tables_number   1
_chemical_formula_structural   Cu3NiC9
_chemical_formula_sum   'Cu3 Ni1 C9'
_cell_volume   160.84230170
_cell_formula_units_Z   1
loop_
 _symmetry_equiv_pos_site_id
 _symmetry_equiv_pos_as_xyz
  1  'x, y, z'
loop_
 _atom_site_type_symbol
 _atom_site_label
 _atom_site_symmetry_multiplicity
 _atom_site_fract_x
 _atom_site_fract_y
 _atom_site_fract_z
 _atom_site_occupancy
  Ni  Ni0  1  0.87008800  0.88767400  0.86265400  1
  Cu  Cu1  1  0.00547300  0.49503400  0.50396800  1
  Cu  Cu2  1  0.49700600  0.00812400  0.49960000  1
  Cu  Cu3  1  0.49215600  0.49744700  0.00481300  1
  C  C4  1  0.50142800  0.50232000  0.49057200  1
  C  C5  1  0.25206500  0.23310700  0.31404300  1
  C  C6  1  0.29578000  0.23521000  0.71890600  1
  C  C7  1  0.25748200  0.69607700  0.26087300  1
  C  C8  1  0.70028900  0.24493600  0.25063300  1
  C  C9  1  0.28345800  0.74755000  0.74628900  1
  C  C10  1  0.73856900  0.29433100  0.73565400  1
  C  C11  1  0.71972100  0.75601500  0.26907700  1
  C  C12  1  0.75106900  0.75634300  0.70750000  1
