# generated using pymatgen
data_Cu(NiC3)3
_symmetry_space_group_name_H-M   'P 1'
_cell_length_a   3.33694600
_cell_length_b   3.33677902
_cell_length_c   38.12076100
_cell_angle_alpha   90.00045595
_cell_angle_beta   89.99982097
_cell_angle_gamma   119.99815924
_symmetry_Int_Tables_number   1
_chemical_formula_structural   Cu(NiC3)3
_chemical_formula_sum   'Cu1 Ni3 C9'
_cell_volume   367.60116050
_cell_formula_units_Z   1
loop_
 _symmetry_equiv_pos_site_id
 _symmetry_equiv_pos_as_xyz
  1  'x, y, z'
loop_
 _atom_site_type_symbol
 _atom_site_label
 _atom_site_symmetry_multiplicity
 _atom_site_fract_x
 _atom_site_fract_y
 _atom_site_fract_z
 _atom_site_occupancy
  C  C0  1  0.00595200  0.99404600  0.88541800  1
  C  C1  1  0.33335600  0.66670600  0.70765500  1
  C  C2  1  0.33334800  0.66670100  0.60751100  1
  Ni  Ni3  1  0.33330300  0.66661100  0.09387500  1
  Ni  Ni4  1  0.33330900  0.66662400  0.46959600  1
  Ni  Ni5  1  0.66669800  0.33339000  0.28177600  1
  Cu  Cu6  1  0.66669000  0.33337200  0.65763800  1
  C  C7  1  0.66663400  0.33327000  0.05012700  1
  C  C8  1  0.66665400  0.33330300  0.42579900  1
  C  C9  1  0.66664400  0.33329100  0.13774400  1
  C  C10  1  0.66665300  0.33330100  0.51341500  1
  C  C11  1  0.33335600  0.66671600  0.32162000  1
  C  C12  1  0.33335600  0.66671800  0.24199000  1
