# generated using pymatgen
data_CuNiC5
_symmetry_space_group_name_H-M   'P 1'
_cell_length_a   3.00845500
_cell_length_b   5.05618569
_cell_length_c   5.01903635
_cell_angle_alpha   88.58195140
_cell_angle_beta   90.00000000
_cell_angle_gamma   90.00000000
_symmetry_Int_Tables_number   1
_chemical_formula_structural   CuNiC5
_chemical_formula_sum   'Cu1 Ni1 C5'
_cell_volume   76.32272192
_cell_formula_units_Z   1
loop_
 _symmetry_equiv_pos_site_id
 _symmetry_equiv_pos_as_xyz
  1  'x, y, z'
loop_
 _atom_site_type_symbol
 _atom_site_label
 _atom_site_symmetry_multiplicity
 _atom_site_fract_x
 _atom_site_fract_y
 _atom_site_fract_z
 _atom_site_occupancy
  Ni  Ni0  1  0.52975900  0.50000000  0.00000000  1
  Cu  Cu1  1  0.02975800  0.00000000  0.00000000  1
  C  C2  1  0.52965700  0.50000000  0.50000000  1
  C  C3  1  0.02978300  0.33510600  0.24724200  1
  C  C4  1  0.52979700  0.17000500  0.79850700  1
  C  C5  1  0.52979700  0.82999500  0.20149300  1
  C  C6  1  0.02978300  0.66489400  0.75275800  1
