# generated using pymatgen
data_Cu(NiC3)3
_symmetry_space_group_name_H-M   'P 1'
_cell_length_a   3.39290703
_cell_length_b   3.39405787
_cell_length_c   46.09899210
_cell_angle_alpha   90.00799290
_cell_angle_beta   89.99514850
_cell_angle_gamma   120.00185330
_symmetry_Int_Tables_number   1
_chemical_formula_structural   Cu(NiC3)3
_chemical_formula_sum   'Cu1 Ni3 C9'
_cell_volume   459.73243950
_cell_formula_units_Z   1
loop_
 _symmetry_equiv_pos_site_id
 _symmetry_equiv_pos_as_xyz
  1  'x, y, z'
loop_
 _atom_site_type_symbol
 _atom_site_label
 _atom_site_symmetry_multiplicity
 _atom_site_fract_x
 _atom_site_fract_y
 _atom_site_fract_z
 _atom_site_occupancy
  C  C0  1  0.99998500  0.99998500  0.18396300  1
  C  C1  1  0.33329100  0.66650100  0.32985400  1
  C  C2  1  0.33335800  0.66678800  0.69831000  1
  C  C3  1  0.33334400  0.66651500  0.24820600  1
  C  C4  1  0.33345600  0.66680200  0.61657200  1
  Ni  Ni5  1  0.33331900  0.66678700  0.08541000  1
  Ni  Ni6  1  0.33339600  0.66670000  0.46964100  1
  Ni  Ni7  1  0.66655900  0.33308700  0.28926800  1
  Cu  Cu8  1  0.66665300  0.33337500  0.65745100  1
  C  C9  1  0.66664100  0.33340100  0.04971100  1
  C  C10  1  0.66658800  0.33339700  0.12162200  1
  C  C11  1  0.66673500  0.33332600  0.43704600  1
  C  C12  1  0.66667500  0.33333500  0.50225000  1
