# generated using pymatgen
data_Cu4Ni4C11
_symmetry_space_group_name_H-M   'P 1'
_cell_length_a   6.00370503
_cell_length_b   5.80101516
_cell_length_c   9.60183392
_cell_angle_alpha   84.28862458
_cell_angle_beta   70.03533362
_cell_angle_gamma   70.84129450
_symmetry_Int_Tables_number   1
_chemical_formula_structural   Cu4Ni4C11
_chemical_formula_sum   'Cu4 Ni4 C11'
_cell_volume   296.87348586
_cell_formula_units_Z   1
loop_
 _symmetry_equiv_pos_site_id
 _symmetry_equiv_pos_as_xyz
  1  'x, y, z'
loop_
 _atom_site_type_symbol
 _atom_site_label
 _atom_site_symmetry_multiplicity
 _atom_site_fract_x
 _atom_site_fract_y
 _atom_site_fract_z
 _atom_site_occupancy
  C  C0  1  0.14697512  0.58488060  0.95450880  1
  C  C1  1  0.75732834  0.25079661  0.00253932  1
  C  C2  1  0.11753080  0.74980551  0.40437571  1
  C  C3  1  0.98205768  0.23759061  0.58033718  1
  C  C4  1  0.49009552  0.71461254  0.58630145  1
  C  C5  1  0.53706670  0.23914380  0.45827134  1
  C  C6  1  0.73539078  0.79261452  0.22486590  1
  C  C7  1  0.43113057  0.23639403  0.79254106  1
  C  C8  1  0.41320056  0.82324921  0.03451006  1
  C  C9  1  0.84604404  0.72840869  0.75123746  1
  C  C10  1  0.14440484  0.29360179  0.24712136  1
  Ni  Ni11  1  0.33685218  0.06183434  0.34156692  1
  Ni  Ni12  1  0.16056788  0.50918760  0.66955863  1
  Ni  Ni13  1  0.83281536  0.44530515  0.37346284  1
  Ni  Ni14  1  0.74932401  0.95317750  0.61889700  1
  Cu  Cu15  1  0.56335891  0.58607273  0.84394791  1
  Cu  Cu16  1  0.18495452  0.17033920  0.03819844  1
  Cu  Cu17  1  0.26920405  0.58200979  0.15822486  1
  Cu  Cu18  1  0.76003116  0.84305878  0.96953376  1
