# generated using pymatgen
data_Cu2NiC10
_symmetry_space_group_name_H-M   'P 1'
_cell_length_a   6.98489636
_cell_length_b   8.22614482
_cell_length_c   8.22614549
_cell_angle_alpha   113.66339104
_cell_angle_beta   92.70378721
_cell_angle_gamma   92.70378276
_symmetry_Int_Tables_number   1
_chemical_formula_structural   Cu2NiC10
_chemical_formula_sum   'Cu2 Ni1 C10'
_cell_volume   431.30997454
_cell_formula_units_Z   1
loop_
 _symmetry_equiv_pos_site_id
 _symmetry_equiv_pos_as_xyz
  1  'x, y, z'
loop_
 _atom_site_type_symbol
 _atom_site_label
 _atom_site_symmetry_multiplicity
 _atom_site_fract_x
 _atom_site_fract_y
 _atom_site_fract_z
 _atom_site_occupancy
  C  C0  1  0.33548200  0.96782400  0.32039600  1
  C  C1  1  0.82181800  0.99776800  0.69278400  1
  C  C2  1  0.82181800  0.69278400  0.99776800  1
  C  C3  1  0.33548200  0.32039600  0.96782400  1
  Ni  Ni4  1  0.02863100  0.27938100  0.27938100  1
  Cu  Cu5  1  0.70669800  0.44299600  0.44299600  1
  Cu  Cu6  1  0.27698400  0.58420600  0.58420600  1
  C  C7  1  0.50918200  0.39575500  0.64330000  1
  C  C8  1  0.00809000  0.59956000  0.36903600  1
  C  C9  1  0.69735500  0.18212800  0.18212800  1
  C  C10  1  0.26518900  0.83319800  0.83319800  1
  C  C11  1  0.00809000  0.36903600  0.59956000  1
  C  C12  1  0.50918200  0.64330000  0.39575500  1
