# generated using pymatgen
data_Cu3(Ni3C16)2
_symmetry_space_group_name_H-M   'P 1'
_cell_length_a   8.84261212
_cell_length_b   8.85092858
_cell_length_c   21.91879945
_cell_angle_alpha   90.07289215
_cell_angle_beta   89.86658497
_cell_angle_gamma   120.04058007
_symmetry_Int_Tables_number   1
_chemical_formula_structural   Cu3(Ni3C16)2
_chemical_formula_sum   'Cu9 Ni18 C96'
_cell_volume   1485.03911247
_cell_formula_units_Z   3
loop_
 _symmetry_equiv_pos_site_id
 _symmetry_equiv_pos_as_xyz
  1  'x, y, z'
loop_
 _atom_site_type_symbol
 _atom_site_label
 _atom_site_symmetry_multiplicity
 _atom_site_fract_x
 _atom_site_fract_y
 _atom_site_fract_z
 _atom_site_occupancy
  C  C0  1  0.36934210  0.36680368  0.24876005  1
  C  C1  1  0.63377095  0.63081020  0.74846816  1
  C  C2  1  0.99710706  0.36675809  0.74842223  1
  C  C3  1  0.36878319  0.00305341  0.74853064  1
  C  C4  1  0.29770242  0.33326152  0.58286245  1
  C  C5  1  0.03541501  0.70222395  0.58288282  1
  C  C6  1  0.66677548  0.96430594  0.58286272  1
  C  C7  1  0.30210746  0.96638207  0.08218424  1
  C  C8  1  0.66381808  0.69913849  0.08226800  1
  C  C9  1  0.03485598  0.33654062  0.08200687  1
  C  C10  1  0.96453609  0.66497568  0.91827028  1
  C  C11  1  0.70251465  0.03387210  0.91821389  1
  C  C12  1  0.96623369  0.29913977  0.41584201  1
  C  C13  1  0.33324902  0.03487803  0.41622580  1
  C  C14  1  0.70090110  0.66659893  0.41576168  1
  C  C15  1  0.00012569  0.00009689  0.49948043  1
  C  C16  1  0.00804079  0.00728850  0.99660854  1
  C  C17  1  0.65895301  0.33244858  0.83563712  1
  C  C18  1  0.67339297  0.33292498  0.32987427  1
  C  C19  1  0.33266906  0.67284566  0.16623303  1
  C  C20  1  0.33319616  0.66661107  0.66402294  1
  C  C21  1  0.99926380  0.99911181  0.14553789  1
  C  C22  1  0.33290708  0.67045088  0.31099625  1
  C  C23  1  0.33447159  0.66714012  0.81428142  1
  Ni  Ni24  1  0.29365329  0.00513267  0.25087842  1
  Ni  Ni25  1  0.71656285  0.70684156  0.25168499  1
  Ni  Ni26  1  0.98706403  0.28469428  0.25153380  1
  Ni  Ni27  1  0.28462445  0.27945292  0.74835288  1
  Ni  Ni28  1  0.99473144  0.71506139  0.74859285  1
  Ni  Ni29  1  0.72035120  0.00557239  0.74849342  1
  Ni  Ni30  1  0.95337423  0.33327405  0.58318018  1
  Ni  Ni31  1  0.37995441  0.04641374  0.58333529  1
  Ni  Ni32  1  0.66663565  0.62028111  0.58332254  1
  Ni  Ni33  1  0.95089425  0.61175112  0.08162858  1
  Ni  Ni34  1  0.66076734  0.04991880  0.08168482  1
  Ni  Ni35  1  0.38845764  0.33926818  0.08180993  1
  Ni  Ni36  1  0.62430300  0.66214140  0.91944075  1
  Ni  Ni37  1  0.04295359  0.37112083  0.91956454  1
  Ni  Ni38  1  0.33281031  0.96432839  0.91940038  1
  Ni  Ni39  1  0.62547078  0.95928840  0.41954589  1
  Ni  Ni40  1  0.33402206  0.37501034  0.41882526  1
  Ni  Ni41  1  0.04088666  0.66619557  0.41948553  1
  Cu  Cu42  1  0.99934858  0.00028286  0.35241620  1
  Cu  Cu43  1  0.00397796  0.00333146  0.85406311  1
  Cu  Cu44  1  0.00054899  0.00042803  0.64546444  1
  Cu  Cu45  1  0.66653284  0.33349610  0.68564839  1
  Cu  Cu46  1  0.67005645  0.33296693  0.18768611  1
  Cu  Cu47  1  0.66398642  0.33273708  0.97921169  1
  Cu  Cu48  1  0.66653002  0.33349452  0.48092416  1
  Cu  Cu49  1  0.33259862  0.66649041  0.01972982  1
  Cu  Cu50  1  0.33320341  0.66663322  0.51959368  1
  C  C51  1  0.20376055  0.04117480  0.31076410  1
  C  C52  1  0.83460600  0.79905135  0.31216204  1
  C  C53  1  0.96530978  0.16762801  0.31229466  1
  C  C54  1  0.19919284  0.15435252  0.80753782  1
  C  C55  1  0.95650083  0.79679354  0.80969443  1
  C  C56  1  0.83907456  0.04160690  0.80962473  1
  C  C57  1  0.80006792  0.96038790  0.68829108  1
  C  C58  1  0.16152568  0.20211249  0.68758412  1
  C  C59  1  0.03987093  0.83972607  0.68838177  1
  C  C60  1  0.79975266  0.82849846  0.19040523  1
  C  C61  1  0.03198461  0.20111547  0.19109616  1
  C  C62  1  0.17154285  0.97112802  0.19001135  1
  C  C63  1  0.87059993  0.37543842  0.64396256  1
  C  C64  1  0.50486991  0.12939762  0.64393863  1
  C  C65  1  0.62471159  0.49536009  0.64393433  1
  C  C66  1  0.86603830  0.48860354  0.14092279  1
  C  C67  1  0.62027577  0.13342609  0.14098300  1
  C  C68  1  0.50439518  0.37709976  0.14379351  1
  C  C69  1  0.47011716  0.29064683  0.02387812  1
  C  C70  1  0.82871288  0.53520703  0.02101764  1
  C  C71  1  0.70865611  0.17252898  0.02099356  1
  C  C72  1  0.46345003  0.17231825  0.52357595  1
  C  C73  1  0.70901044  0.53665863  0.52353555  1
  C  C74  1  0.82746846  0.29119764  0.52350951  1
  C  C75  1  0.53604886  0.70801050  0.97719858  1
  C  C76  1  0.16691735  0.46516654  0.97856657  1
  C  C77  1  0.29187659  0.83100949  0.97728052  1
  C  C78  1  0.53905783  0.82982151  0.47892391  1
  C  C79  1  0.29114687  0.46221265  0.47817237  1
  C  C80  1  0.17026511  0.70946641  0.47885643  1
  C  C81  1  0.13089084  0.62505859  0.36121413  1
  C  C82  1  0.49477649  0.86856430  0.36133443  1
  C  C83  1  0.37439070  0.49999348  0.35901972  1
  C  C84  1  0.12991572  0.49809482  0.85857568  1
  C  C85  1  0.36923811  0.87221862  0.85850343  1
  C  C86  1  0.50394914  0.63382738  0.85779075  1
  C  C87  1  0.02479561  0.84191076  0.41175296  1
  C  C88  1  0.81789028  0.97613562  0.41220491  1
  C  C89  1  0.15824976  0.18168111  0.41219520  1
  C  C90  1  0.01916588  0.17772861  0.91111837  1
  C  C91  1  0.15188855  0.96793497  0.91062159  1
  C  C92  1  0.81522450  0.84084026  0.91116658  1
  C  C93  1  0.97318155  0.15770107  0.58868488  1
  C  C94  1  0.18424847  0.02654300  0.58879550  1
  C  C95  1  0.84250892  0.81583618  0.58885411  1
  C  C96  1  0.97505353  0.80969432  0.08650937  1
  C  C97  1  0.83452293  0.02557039  0.08708078  1
  C  C98  1  0.19003144  0.16590952  0.08683482  1
  C  C99  1  0.69608121  0.17787594  0.74348819  1
  C  C100  1  0.48166044  0.30406648  0.74321555  1
  C  C101  1  0.82196528  0.51829594  0.74344784  1
  C  C102  1  0.68966005  0.51334213  0.24453561  1
  C  C103  1  0.81771982  0.30343712  0.24400473  1
  C  C104  1  0.48003117  0.18172484  0.24403932  1
  C  C105  1  0.64739667  0.49201741  0.92280237  1
  C  C106  1  0.85145592  0.35835520  0.92269177  1
  C  C107  1  0.51416408  0.14932623  0.92294548  1
  C  C108  1  0.64206954  0.15165737  0.42455507  1
  C  C109  1  0.50979282  0.35769647  0.42467448  1
  C  C110  1  0.84826056  0.49016262  0.42463081  1
  C  C111  1  0.36311651  0.51186977  0.07685639  1
  C  C112  1  0.14963292  0.63880743  0.07708487  1
  C  C113  1  0.48863001  0.85156687  0.07650826  1
  C  C114  1  0.36019768  0.85108883  0.57784464  1
  C  C115  1  0.49071143  0.63963817  0.57781188  1
  C  C116  1  0.14891619  0.50926386  0.57771833  1
  C  C117  1  0.30836559  0.82930038  0.25515335  1
  C  C118  1  0.52063587  0.68523682  0.25608123  1
  C  C119  1  0.17071042  0.47338135  0.25629040  1
  C  C120  1  0.30731656  0.47619925  0.75415713  1
  C  C121  1  0.16898371  0.69266678  0.75422758  1
  C  C122  1  0.52332968  0.83129856  0.75368807  1
