# generated using pymatgen
data_Cu(Ni3C16)2
_symmetry_space_group_name_H-M   'P 1'
_cell_length_a   8.96695883
_cell_length_b   8.95853045
_cell_length_c   22.41335350
_cell_angle_alpha   90.26903961
_cell_angle_beta   89.81913383
_cell_angle_gamma   120.17932675
_symmetry_Int_Tables_number   1
_chemical_formula_structural   Cu(Ni3C16)2
_chemical_formula_sum   'Cu3 Ni18 C96'
_cell_volume   1556.42011135
_cell_formula_units_Z   3
loop_
 _symmetry_equiv_pos_site_id
 _symmetry_equiv_pos_as_xyz
  1  'x, y, z'
loop_
 _atom_site_type_symbol
 _atom_site_label
 _atom_site_symmetry_multiplicity
 _atom_site_fract_x
 _atom_site_fract_y
 _atom_site_fract_z
 _atom_site_occupancy
  C  C0  1  0.36791157  0.36684349  0.24691128  1
  C  C1  1  0.99528073  0.62909106  0.24619943  1
  C  C2  1  0.63641731  0.63171648  0.74696384  1
  C  C3  1  0.99917048  0.36703174  0.74759648  1
  C  C4  1  0.03493695  0.70171411  0.58477986  1
  C  C5  1  0.30027519  0.96662808  0.08524706  1
  C  C6  1  0.70012467  0.03391599  0.91867346  1
  C  C7  1  0.96805198  0.29788820  0.41240654  1
  C  C8  1  0.33250872  0.03419983  0.41348874  1
  C  C9  1  0.98827288  0.99639747  0.49647930  1
  C  C10  1  0.00020810  0.00017026  0.00049938  1
  C  C11  1  0.65523136  0.32978190  0.83184872  1
  C  C12  1  0.66635575  0.33257867  0.32877181  1
  C  C13  1  0.34721981  0.67068598  0.16547867  1
  C  C14  1  0.34455084  0.67919850  0.66511763  1
  C  C15  1  0.00577071  0.00115979  0.85418490  1
  C  C16  1  0.00052721  0.00446737  0.64272872  1
  C  C17  1  0.99261036  0.99905399  0.14450567  1
  C  C18  1  0.66832196  0.33918609  0.97886564  1
  C  C19  1  0.66563341  0.33522802  0.47851882  1
  C  C20  1  0.33252767  0.66134294  0.02464265  1
  C  C21  1  0.33905330  0.66791980  0.52195437  1
  C  C22  1  0.33663109  0.67006488  0.31019581  1
  C  C23  1  0.33309405  0.66951303  0.81136853  1
  Ni  Ni24  1  0.29216600  0.00855312  0.25045471  1
  Ni  Ni25  1  0.71708358  0.71149572  0.25164883  1
  Ni  Ni26  1  0.98598287  0.27882664  0.25222522  1
  Ni  Ni27  1  0.29947924  0.28675496  0.74813915  1
  Ni  Ni28  1  0.99632761  0.70622255  0.74659501  1
  Ni  Ni29  1  0.70933463  0.00795391  0.74887044  1
  Ni  Ni30  1  0.94836547  0.33246862  0.58518555  1
  Ni  Ni31  1  0.38676219  0.05158855  0.58566382  1
  Ni  Ni32  1  0.66031837  0.61363204  0.58760488  1
  Ni  Ni33  1  0.94964243  0.61418744  0.08817205  1
  Ni  Ni34  1  0.66909072  0.05438590  0.08502563  1
  Ni  Ni35  1  0.38719453  0.33762786  0.08815946  1
  Ni  Ni36  1  0.62045561  0.66390242  0.91579392  1
  Ni  Ni37  1  0.04496936  0.37831957  0.91617624  1
  Ni  Ni38  1  0.32899446  0.95389917  0.91952735  1
  Ni  Ni39  1  0.63267198  0.95242155  0.41549223  1
  Ni  Ni40  1  0.32889585  0.37270431  0.41417126  1
  Ni  Ni41  1  0.04243621  0.67482649  0.41550648  1
  Cu  Cu42  1  0.99746479  0.99731130  0.35210131  1
  Cu  Cu43  1  0.66290220  0.32944087  0.68746296  1
  Cu  Cu44  1  0.66575858  0.33004808  0.18852394  1
  C  C45  1  0.20434006  0.04336983  0.31008159  1
  C  C46  1  0.84638573  0.80415176  0.30822881  1
  C  C47  1  0.96611408  0.16867164  0.31294633  1
  C  C48  1  0.19822654  0.16865536  0.80679469  1
  C  C49  1  0.96544513  0.80432022  0.80366998  1
  C  C50  1  0.82896899  0.03687408  0.80844045  1
  C  C51  1  0.80499952  0.96922809  0.69315502  1
  C  C52  1  0.16786752  0.19459705  0.69190408  1
  C  C53  1  0.02649844  0.82320229  0.68754195  1
  C  C54  1  0.80429851  0.82938760  0.19211031  1
  C  C55  1  0.03020089  0.19268042  0.19514536  1
  C  C56  1  0.16969758  0.96815548  0.19161335  1
  C  C57  1  0.86569256  0.37260459  0.64416172  1
  C  C58  1  0.50724728  0.14341388  0.64312495  1
  C  C59  1  0.63693742  0.50397577  0.64799135  1
  C  C60  1  0.86323693  0.50287995  0.14836919  1
  C  C61  1  0.62859912  0.14300729  0.14172072  1
  C  C62  1  0.49936209  0.36717991  0.14874312  1
  C  C63  1  0.47615691  0.30447116  0.02897999  1
  C  C64  1  0.83525679  0.52274706  0.02795214  1
  C  C65  1  0.69301318  0.15880543  0.02229743  1
  C  C66  1  0.46930618  0.15835904  0.52325172  1
  C  C67  1  0.69090882  0.52125852  0.52855555  1
  C  C68  1  0.83710529  0.30698157  0.52395244  1
  C  C69  1  0.52616686  0.69736687  0.97270330  1
  C  C70  1  0.16516079  0.47637674  0.97405468  1
  C  C71  1  0.30517537  0.84236728  0.97950244  1
  C  C72  1  0.53242126  0.83412286  0.47408953  1
  C  C73  1  0.29870286  0.47071363  0.47127048  1
  C  C74  1  0.16421853  0.70362740  0.47440342  1
  C  C75  1  0.13297766  0.63665650  0.35790573  1
  C  C76  1  0.49962086  0.86005834  0.35939131  1
  C  C77  1  0.35768912  0.49112877  0.35528197  1
  C  C78  1  0.13579080  0.48944953  0.85545408  1
  C  C79  1  0.35674922  0.85479472  0.86162423  1
  C  C80  1  0.50753654  0.64071415  0.85505027  1
  C  C81  1  0.03440866  0.85146435  0.40875002  1
  C  C82  1  0.82331747  0.97646721  0.40944586  1
  C  C83  1  0.15452937  0.18224099  0.41017821  1
  C  C84  1  0.02178394  0.18555433  0.91191437  1
  C  C85  1  0.15862764  0.97122955  0.91049052  1
  C  C86  1  0.80690693  0.84117532  0.90989492  1
  C  C87  1  0.96958643  0.16219181  0.58939754  1
  C  C88  1  0.19029459  0.02379548  0.58886253  1
  C  C89  1  0.83694945  0.80428295  0.58835680  1
  C  C90  1  0.97793808  0.81060872  0.08915798  1
  C  C91  1  0.83867567  0.03227169  0.09020882  1
  C  C92  1  0.19674683  0.16162617  0.09079929  1
  C  C93  1  0.69961723  0.18330557  0.74229162  1
  C  C94  1  0.49113805  0.31205721  0.74416613  1
  C  C95  1  0.82286721  0.51427594  0.74417403  1
  C  C96  1  0.69433875  0.51765095  0.24651621  1
  C  C97  1  0.82189230  0.30898346  0.24490878  1
  C  C98  1  0.48285888  0.18163843  0.24488937  1
  C  C99  1  0.63985432  0.49463104  0.92203935  1
  C  C100  1  0.85258088  0.35405042  0.92054972  1
  C  C101  1  0.50514001  0.14097975  0.92122276  1
  C  C102  1  0.64513906  0.14210564  0.42115434  1
  C  C103  1  0.49699871  0.34823537  0.42122131  1
  C  C104  1  0.85605835  0.49662625  0.42172698  1
  C  C105  1  0.36451976  0.50604409  0.07893440  1
  C  C106  1  0.14549171  0.64208312  0.08113731  1
  C  C107  1  0.49517204  0.86129334  0.07928493  1
  C  C108  1  0.35673462  0.85496303  0.57876863  1
  C  C109  1  0.49214743  0.63554639  0.57819949  1
  C  C110  1  0.13827653  0.50715643  0.57715729  1
  C  C111  1  0.30286570  0.82991529  0.25643108  1
  C  C112  1  0.52169267  0.68614163  0.25566474  1
  C  C113  1  0.16394781  0.47431279  0.25553657  1
  C  C114  1  0.31240378  0.47679505  0.75358315  1
  C  C115  1  0.16446397  0.68150708  0.75412880  1
  C  C116  1  0.52231001  0.83005663  0.75413173  1
