# generated using pymatgen
data_Cu4Ni2C9
_symmetry_space_group_name_H-M   'P 1'
_cell_length_a   6.37190541
_cell_length_b   6.37185486
_cell_length_c   6.02917077
_cell_angle_alpha   90.05795307
_cell_angle_beta   118.18941429
_cell_angle_gamma   123.50880287
_symmetry_Int_Tables_number   1
_chemical_formula_structural   Cu4Ni2C9
_chemical_formula_sum   'Cu4 Ni2 C9'
_cell_volume   168.09486161
_cell_formula_units_Z   1
loop_
 _symmetry_equiv_pos_site_id
 _symmetry_equiv_pos_as_xyz
  1  'x, y, z'
loop_
 _atom_site_type_symbol
 _atom_site_label
 _atom_site_symmetry_multiplicity
 _atom_site_fract_x
 _atom_site_fract_y
 _atom_site_fract_z
 _atom_site_occupancy
  C  C0  1  0.24998300  0.87499700  0.12499600  1
  Ni  Ni1  1  0.94349300  0.02803800  0.97150500  1
  Ni  Ni2  1  0.55651600  0.72196600  0.27849400  1
  Cu  Cu3  1  0.74991100  0.37491900  0.12482100  1
  Cu  Cu4  1  0.74990000  0.37491500  0.62508100  1
  Cu  Cu5  1  0.25003500  0.37499200  0.62502000  1
  Cu  Cu6  1  0.25016200  0.87517100  0.62508300  1
  C  C7  1  0.23056800  0.62073800  0.37878800  1
  C  C8  1  0.75805000  0.14821800  0.37879100  1
  C  C9  1  0.71131900  0.14409700  0.85541500  1
  C  C10  1  0.78862000  0.60593500  0.39455700  1
  C  C11  1  0.23055300  0.62119100  0.85173900  1
  C  C12  1  0.26944600  0.12924500  0.87122400  1
  C  C13  1  0.26946700  0.12879800  0.39826200  1
  C  C14  1  0.74197600  0.60177800  0.87122500  1
