# generated using pymatgen
data_Cu4Ni2C13
_symmetry_space_group_name_H-M   'P 1'
_cell_length_a   5.51129312
_cell_length_b   6.72734236
_cell_length_c   6.89134674
_cell_angle_alpha   80.14917471
_cell_angle_beta   73.13978918
_cell_angle_gamma   73.50119238
_symmetry_Int_Tables_number   1
_chemical_formula_structural   Cu4Ni2C13
_chemical_formula_sum   'Cu4 Ni2 C13'
_cell_volume   233.35678178
_cell_formula_units_Z   1
loop_
 _symmetry_equiv_pos_site_id
 _symmetry_equiv_pos_as_xyz
  1  'x, y, z'
loop_
 _atom_site_type_symbol
 _atom_site_label
 _atom_site_symmetry_multiplicity
 _atom_site_fract_x
 _atom_site_fract_y
 _atom_site_fract_z
 _atom_site_occupancy
  C  C0  1  0.75444663  0.26957557  0.72836069  1
  Ni  Ni1  1  0.73808203  0.89364022  0.10228245  1
  Ni  Ni2  1  0.24979749  0.08606289  0.91060120  1
  Cu  Cu3  1  0.73841827  0.37727566  0.20175913  1
  Cu  Cu4  1  0.76598969  0.80540567  0.61063773  1
  Cu  Cu5  1  0.25046210  0.62142340  0.80836698  1
  Cu  Cu6  1  0.25764978  0.18218510  0.38498208  1
  C  C7  1  0.40769712  0.39385230  0.32553701  1
  C  C8  1  0.09429083  0.67668601  0.60715187  1
  C  C9  1  0.59966651  0.59919195  0.68825124  1
  C  C10  1  0.90971476  0.31079283  0.39497641  1
  C  C11  1  0.15693546  0.11802028  0.64831470  1
  C  C12  1  0.32678434  0.35152107  0.88320456  1
  C  C13  1  0.71125286  0.94066216  0.38262442  1
  C  C14  1  0.78000720  0.61982599  0.07205880  1
  C  C15  1  0.84645779  0.19769078  0.01342308  1
  C  C16  1  0.64802384  0.98483330  0.80082171  1
  C  C17  1  0.15324092  0.81803087  0.97588788  1
  C  C18  1  0.36108338  0.02332595  0.18076006  1
