# generated using pymatgen
data_Cu2NiC7
_symmetry_space_group_name_H-M   'P 1'
_cell_length_a   3.88223047
_cell_length_b   5.99361151
_cell_length_c   9.54420237
_cell_angle_alpha   113.16877238
_cell_angle_beta   90.00000098
_cell_angle_gamma   108.89676278
_symmetry_Int_Tables_number   1
_chemical_formula_structural   Cu2NiC7
_chemical_formula_sum   'Cu2 Ni1 C7'
_cell_volume   191.08131626
_cell_formula_units_Z   1
loop_
 _symmetry_equiv_pos_site_id
 _symmetry_equiv_pos_as_xyz
  1  'x, y, z'
loop_
 _atom_site_type_symbol
 _atom_site_label
 _atom_site_symmetry_multiplicity
 _atom_site_fract_x
 _atom_site_fract_y
 _atom_site_fract_z
 _atom_site_occupancy
  C  C0  1  0.65435453  0.25480750  0.25187138  1
  C  C1  1  0.39954603  0.74519250  0.74812862  1
  Ni  Ni2  1  0.03343261  1.00000000  0.50000000  1
  Cu  Cu3  1  0.89429450  0.73171151  0.06945229  1
  Cu  Cu4  1  0.16258299  0.26828849  0.93054771  1
  C  C5  1  0.70035101  0.34451092  0.98470012  1
  C  C6  1  0.35584109  0.65548908  0.01529988  1
  C  C7  1  0.97395259  0.89108999  0.27348820  1
  C  C8  1  0.08286160  0.10891001  0.72651180  1
  C  C9  1  0.02849705  1.00000000  1.00000000  1
