# generated using pymatgen
data_Cu4NiC12
_symmetry_space_group_name_H-M   'P 1'
_cell_length_a   5.28671280
_cell_length_b   5.46433577
_cell_length_c   8.80533582
_cell_angle_alpha   77.34009336
_cell_angle_beta   90.73425362
_cell_angle_gamma   59.63015529
_symmetry_Int_Tables_number   1
_chemical_formula_structural   Cu4NiC12
_chemical_formula_sum   'Cu4 Ni1 C12'
_cell_volume   211.80978786
_cell_formula_units_Z   1
loop_
 _symmetry_equiv_pos_site_id
 _symmetry_equiv_pos_as_xyz
  1  'x, y, z'
loop_
 _atom_site_type_symbol
 _atom_site_label
 _atom_site_symmetry_multiplicity
 _atom_site_fract_x
 _atom_site_fract_y
 _atom_site_fract_z
 _atom_site_occupancy
  Ni  Ni0  1  0.55516500  0.89626000  0.85003400  1
  Cu  Cu1  1  0.76780200  0.46965800  0.24117600  1
  Cu  Cu2  1  0.46349300  0.07883000  0.47297600  1
  Cu  Cu3  1  0.26156100  0.54106600  0.73685900  1
  Cu  Cu4  1  0.04628300  0.94081100  0.01064500  1
  C  C5  1  0.94622000  0.23128100  0.12814900  1
  C  C6  1  0.44508800  0.75100000  0.06224900  1
  C  C7  1  0.43764300  0.72675600  0.69514500  1
  C  C8  1  0.56077100  0.27275300  0.33516000  1
  C  C9  1  0.46501900  0.21516500  0.64026100  1
  C  C10  1  0.99568400  0.74671600  0.88116600  1
  C  C11  1  0.09330600  0.23681300  0.42152900  1
  C  C12  1  0.92263800  0.74132600  0.57834400  1
  C  C13  1  0.95008500  0.71794600  0.18326500  1
  C  C14  1  0.55676900  0.75282000  0.37649000  1
  C  C15  1  0.55759100  0.22868700  0.92625400  1
  C  C16  1  0.09988200  0.20211500  0.83648700  1
