# generated using pymatgen
data_CuNiC11
_symmetry_space_group_name_H-M   'P 1'
_cell_length_a   18.25309158
_cell_length_b   9.17931717
_cell_length_c   22.92362835
_cell_angle_alpha   89.86724630
_cell_angle_beta   89.53194444
_cell_angle_gamma   119.94779344
_symmetry_Int_Tables_number   1
_chemical_formula_structural   CuNiC11
_chemical_formula_sum   'Cu18 Ni18 C198'
_cell_volume   3327.84206450
_cell_formula_units_Z   18
loop_
 _symmetry_equiv_pos_site_id
 _symmetry_equiv_pos_as_xyz
  1  'x, y, z'
loop_
 _atom_site_type_symbol
 _atom_site_label
 _atom_site_symmetry_multiplicity
 _atom_site_fract_x
 _atom_site_fract_y
 _atom_site_fract_z
 _atom_site_occupancy
  C  C0  1  0.31924490  0.00526671  0.24879800  1
  C  C1  1  0.82112458  0.00413632  0.25145508  1
  C  C2  1  0.18586680  0.36427458  0.25013487  1
  C  C3  1  0.68606621  0.37409382  0.23868958  1
  C  C4  1  0.99649646  0.62832077  0.24470663  1
  C  C5  1  0.49504395  0.61637221  0.25225214  1
  C  C6  1  0.31164654  0.62289795  0.74989013  1
  C  C7  1  0.80740759  0.61934491  0.74949848  1
  C  C8  1  0.99457611  0.35061293  0.74836207  1
  C  C9  1  0.68662189  0.01136374  0.75534370  1
  C  C10  1  0.16292548  0.34850444  0.58228508  1
  C  C11  1  0.01200904  0.69212724  0.58343034  1
  C  C12  1  0.32973121  0.96560018  0.58725288  1
  C  C13  1  0.83151703  0.96949522  0.57899808  1
  C  C14  1  0.83154763  0.68232525  0.07446005  1
  C  C15  1  0.16978358  0.30781983  0.90825690  1
  C  C16  1  0.67167211  0.30922616  0.91670689  1
  C  C17  1  0.35627284  0.66664772  0.41711394  1
  C  C18  1  0.99873922  0.99480181  0.49427013  1
  C  C19  1  0.50962643  0.98239857  0.49948788  1
  C  C20  1  0.99043652  0.97308272  0.99672208  1
  C  C21  1  0.49077582  0.96352226  0.99861695  1
  C  C22  1  0.33211986  0.33096650  0.83468299  1
  C  C23  1  0.83020757  0.33378702  0.83697240  1
  C  C24  1  0.34395132  0.33814058  0.33267133  1
  C  C25  1  0.83976308  0.34490248  0.33185549  1
  C  C26  1  0.15837804  0.66226744  0.16403584  1
  C  C27  1  0.65033491  0.63795982  0.15936016  1
  C  C28  1  0.16761151  0.67021595  0.66297772  1
  C  C29  1  0.66138310  0.62797363  0.66796543  1
  C  C30  1  0.00000644  0.01065703  0.64606572  1
  C  C31  1  0.99944139  0.99106216  0.15199845  1
  C  C32  1  0.49638763  0.00221731  0.14409973  1
  C  C33  1  0.99895193  0.00143370  0.34556741  1
  C  C34  1  0.50011500  0.99091350  0.35115965  1
  C  C35  1  0.99239751  0.99821834  0.85089696  1
  C  C36  1  0.49677072  0.99295989  0.85180722  1
  C  C37  1  0.50243942  0.00142251  0.64959872  1
  C  C38  1  0.32346849  0.32567066  0.68097858  1
  C  C39  1  0.82717396  0.33631573  0.68177905  1
  C  C40  1  0.34072315  0.34385514  0.18461769  1
  C  C41  1  0.84281868  0.35514479  0.17796085  1
  C  C42  1  0.34174480  0.36169617  0.98473726  1
  C  C43  1  0.83536594  0.35511474  0.98764873  1
  C  C44  1  0.33747400  0.34930651  0.48528799  1
  C  C45  1  0.83808340  0.34319980  0.48575621  1
  C  C46  1  0.17031341  0.67380432  0.01700840  1
  C  C47  1  0.66572218  0.66027362  0.01926471  1
  C  C48  1  0.16590008  0.66476295  0.51931994  1
  C  C49  1  0.66320057  0.65927240  0.51437661  1
  C  C50  1  0.16400407  0.66524936  0.30980718  1
  C  C51  1  0.66179066  0.65114884  0.31709118  1
  C  C52  1  0.16781590  0.66284379  0.81838549  1
  C  C53  1  0.67090508  0.65990061  0.81572903  1
  Ni  Ni54  1  0.14847929  0.00567126  0.25169516  1
  Ni  Ni55  1  0.35379442  0.70700206  0.25202994  1
  Ni  Ni56  1  0.85097727  0.70150643  0.25408340  1
  Ni  Ni57  1  0.99538770  0.28816405  0.24939594  1
  Ni  Ni58  1  0.50090337  0.28652978  0.25240881  1
  Ni  Ni59  1  0.14654236  0.29203662  0.75410384  1
  Ni  Ni60  1  0.64362015  0.28960141  0.75164198  1
  Ni  Ni61  1  0.85057424  0.00392412  0.74870252  1
  Ni  Ni62  1  0.97747436  0.33402221  0.58455123  1
  Ni  Ni63  1  0.18770430  0.04120211  0.58186996  1
  Ni  Ni64  1  0.33862375  0.64411975  0.58398612  1
  Ni  Ni65  1  0.83011349  0.63104558  0.58480563  1
  Ni  Ni66  1  0.48668422  0.63587007  0.08636223  1
  Ni  Ni67  1  0.99120232  0.64393810  0.08492181  1
  Ni  Ni68  1  0.68405995  0.33017614  0.08395366  1
  Ni  Ni69  1  0.31637342  0.66709212  0.91511849  1
  Ni  Ni70  1  0.81856133  0.66830245  0.91770798  1
  Ni  Ni71  1  0.51803762  0.66605507  0.41548446  1
  Cu  Cu72  1  0.64644834  0.00089235  0.24710914  1
  Cu  Cu73  1  0.00343180  0.71071260  0.74938404  1
  Cu  Cu74  1  0.49880660  0.69730553  0.74989503  1
  Cu  Cu75  1  0.34953032  0.00272872  0.74955001  1
  Cu  Cu76  1  0.48116198  0.33403351  0.58537023  1
  Cu  Cu77  1  0.68325883  0.03313315  0.58165727  1
  Cu  Cu78  1  0.33370536  0.04044368  0.08363102  1
  Cu  Cu79  1  0.83753882  0.04179039  0.08460912  1
  Cu  Cu80  1  0.18111672  0.32605234  0.08393695  1
  Cu  Cu81  1  0.01624107  0.37083200  0.91730580  1
  Cu  Cu82  1  0.51668891  0.36971191  0.91568056  1
  Cu  Cu83  1  0.16807917  0.96664983  0.91654253  1
  Cu  Cu84  1  0.66807047  0.96257596  0.91519310  1
  Cu  Cu85  1  0.31264138  0.96357878  0.41662148  1
  Cu  Cu86  1  0.81838817  0.97215058  0.41679956  1
  Cu  Cu87  1  0.16343582  0.36708659  0.41603718  1
  Cu  Cu88  1  0.67068251  0.36379860  0.41692337  1
  Cu  Cu89  1  0.01717190  0.66804527  0.41649247  1
  C  C90  1  0.11275750  0.05623605  0.30786407  1
  C  C91  1  0.61296182  0.03265543  0.30131176  1
  C  C92  1  0.40683051  0.77307057  0.31181763  1
  C  C93  1  0.91566657  0.77822736  0.30749165  1
  C  C94  1  0.48837578  0.17449191  0.30991449  1
  C  C95  1  0.97357270  0.17260341  0.30717992  1
  C  C96  1  0.10507013  0.18919607  0.81407711  1
  C  C97  1  0.60408532  0.17161327  0.81076447  1
  C  C98  1  0.47924070  0.77209962  0.80091479  1
  C  C99  1  0.99272650  0.79173575  0.80109022  1
  C  C100  1  0.40011708  0.01619088  0.80105967  1
  C  C101  1  0.91256672  0.04589303  0.80317554  1
  C  C102  1  0.38577350  0.97281198  0.69532606  1
  C  C103  1  0.90260249  0.97723016  0.69178937  1
  C  C104  1  0.08469257  0.18336886  0.69721228  1
  C  C105  1  0.58975166  0.19680190  0.69397046  1
  C  C106  1  0.01128984  0.80669391  0.69485769  1
  C  C107  1  0.51230888  0.80019922  0.69659720  1
  C  C108  1  0.40773846  0.83892073  0.19750913  1
  C  C109  1  0.90070120  0.82499272  0.19424943  1
  C  C110  1  0.00890662  0.18508403  0.19376294  1
  C  C111  1  0.51074425  0.18568300  0.19504251  1
  C  C112  1  0.08146202  0.97449233  0.19594469  1
  C  C113  1  0.59123516  0.97920361  0.19682505  1
  C  C114  1  0.44163879  0.35630406  0.63840870  1
  C  C115  1  0.94091270  0.37490625  0.64322140  1
  C  C116  1  0.25127365  0.10528656  0.63711404  1
  C  C117  1  0.73237816  0.10751299  0.63584131  1
  C  C118  1  0.32027681  0.52783713  0.64272433  1
  C  C119  1  0.81379695  0.53095361  0.64642453  1
  C  C120  1  0.44965984  0.52722509  0.14644987  1
  C  C121  1  0.95701439  0.54777226  0.14739611  1
  C  C122  1  0.32395626  0.11353887  0.13853512  1
  C  C123  1  0.82721635  0.11533364  0.13962577  1
  C  C124  1  0.23218627  0.34491139  0.13619669  1
  C  C125  1  0.74058519  0.35561816  0.14199335  1
  C  C126  1  0.21888617  0.29946693  0.02986956  1
  C  C127  1  0.71821511  0.28789690  0.02412114  1
  C  C128  1  0.42686851  0.56113495  0.02994661  1
  C  C129  1  0.92301511  0.56027839  0.03305823  1
  C  C130  1  0.34345727  0.14334156  0.03184220  1
  C  C131  1  0.84881338  0.14733733  0.03322733  1
  C  C132  1  0.22598922  0.17199799  0.52710748  1
  C  C133  1  0.72517645  0.13906319  0.52983000  1
  C  C134  1  0.35019625  0.56584932  0.52351693  1
  C  C135  1  0.85877945  0.55469743  0.53091267  1
  C  C136  1  0.42926228  0.30758647  0.53264703  1
  C  C137  1  0.91281219  0.27033247  0.53015070  1
  C  C138  1  0.26788985  0.68889778  0.97104568  1
  C  C139  1  0.77316724  0.68834661  0.97685315  1
  C  C140  1  0.07097901  0.46361234  0.96629115  1
  C  C141  1  0.56704059  0.45099994  0.96808696  1
  C  C142  1  0.15501430  0.86325550  0.96878170  1
  C  C143  1  0.65814154  0.85580259  0.96544485  1
  C  C144  1  0.27008648  0.85715044  0.46931719  1
  C  C145  1  0.77724827  0.87443413  0.47089418  1
  C  C146  1  0.15615775  0.44953756  0.47011188  1
  C  C147  1  0.66244639  0.44999562  0.46856748  1
  C  C148  1  0.06443504  0.67715032  0.47009958  1
  C  C149  1  0.57588375  0.68802559  0.47182776  1
  C  C150  1  0.06018905  0.65506131  0.36309883  1
  C  C151  1  0.55879883  0.64920726  0.35297668  1
  C  C152  1  0.26372237  0.88115897  0.36301130  1
  C  C153  1  0.76965549  0.88658630  0.36367442  1
  C  C154  1  0.17169266  0.47069883  0.36336061  1
  C  C155  1  0.68370392  0.46295320  0.36228238  1
  C  C156  1  0.05015751  0.46660574  0.86078319  1
  C  C157  1  0.55401522  0.47389700  0.86264227  1
  C  C158  1  0.17541529  0.88409815  0.86264489  1
  C  C159  1  0.67082608  0.88320448  0.85863692  1
  C  C160  1  0.26218783  0.63337406  0.85390123  1
  C  C161  1  0.76288897  0.63794278  0.85827574  1
  C  C162  1  0.00950618  0.82147390  0.41536467  1
  C  C163  1  0.50499004  0.83329626  0.41544880  1
  C  C164  1  0.39647144  0.97388937  0.41525345  1
  C  C165  1  0.90425095  0.98889858  0.41537941  1
  C  C166  1  0.08706955  0.19850281  0.41443048  1
  C  C167  1  0.59371652  0.19636429  0.41409909  1
  C  C168  1  0.01726269  0.20936434  0.91537875  1
  C  C169  1  0.51581859  0.20636793  0.91152958  1
  C  C170  1  0.09469210  0.99572743  0.91345150  1
  C  C171  1  0.59386165  0.99124975  0.91545855  1
  C  C172  1  0.41106386  0.83393967  0.91189903  1
  C  C173  1  0.91349234  0.83463605  0.91421235  1
  C  C174  1  0.48710503  0.17824900  0.58881380  1
  C  C175  1  0.99199155  0.16746235  0.59356082  1
  C  C176  1  0.09310405  0.02368837  0.59516468  1
  C  C177  1  0.59763579  0.01189105  0.58513487  1
  C  C178  1  0.41787092  0.83863193  0.58955370  1
  C  C179  1  0.91998976  0.82118411  0.59363011  1
  C  C180  1  0.49126514  0.82308650  0.09680318  1
  C  C181  1  0.99285218  0.83093680  0.09145571  1
  C  C182  1  0.41324519  0.02696223  0.08684942  1
  C  C183  1  0.91486411  0.02164570  0.08814520  1
  C  C184  1  0.09554843  0.17419036  0.09004932  1
  C  C185  1  0.58804585  0.16455693  0.09536575  1
  C  C186  1  0.34369837  0.15719158  0.74616088  1
  C  C187  1  0.84193563  0.17121623  0.74065246  1
  C  C188  1  0.24375914  0.32803903  0.74855641  1
  C  C189  1  0.74007435  0.31207299  0.74907732  1
  C  C190  1  0.42488128  0.52575718  0.74432538  1
  C  C191  1  0.92696827  0.53943066  0.74711009  1
  C  C192  1  0.33729311  0.51647546  0.24466141  1
  C  C193  1  0.83420350  0.51093704  0.24637464  1
  C  C194  1  0.41619853  0.30342068  0.24794497  1
  C  C195  1  0.91117967  0.30687704  0.24252810  1
  C  C196  1  0.24149608  0.16348430  0.23838300  1
  C  C197  1  0.73296472  0.14707949  0.23994366  1
  C  C198  1  0.31696188  0.48617070  0.91872708  1
  C  C199  1  0.82079513  0.48897204  0.91880910  1
  C  C200  1  0.42848863  0.33712894  0.92069196  1
  C  C201  1  0.92905208  0.33952314  0.92366876  1
  C  C202  1  0.24661434  0.13508474  0.92079656  1
  C  C203  1  0.74664979  0.13013429  0.91785818  1
  C  C204  1  0.32047131  0.13063194  0.42136841  1
  C  C205  1  0.82486647  0.14097578  0.41875080  1
  C  C206  1  0.24254308  0.35866385  0.41695339  1
  C  C207  1  0.74729244  0.34424129  0.42140778  1
  C  C208  1  0.42112323  0.49709047  0.41845300  1
  C  C209  1  0.93215185  0.51221439  0.41753645  1
  C  C210  1  0.17227956  0.47802530  0.07943422  1
  C  C211  1  0.68023544  0.50427228  0.08137068  1
  C  C212  1  0.08553265  0.67001695  0.07659058  1
  C  C213  1  0.58274485  0.67238706  0.07802669  1
  C  C214  1  0.26115112  0.86789128  0.08018749  1
  C  C215  1  0.76376361  0.86968811  0.08061851  1
  C  C216  1  0.16612388  0.84745957  0.57405634  1
  C  C217  1  0.67887659  0.86739590  0.57753617  1
  C  C218  1  0.25122294  0.65818181  0.58024156  1
  C  C219  1  0.75307926  0.67187920  0.57435992  1
  C  C220  1  0.07280029  0.49153228  0.57633608  1
  C  C221  1  0.56727797  0.48361229  0.58024634  1
  C  C222  1  0.14839392  0.82792219  0.25286722  1
  C  C223  1  0.65265081  0.84497191  0.25039525  1
  C  C224  1  0.26261440  0.70243749  0.25252617  1
  C  C225  1  0.76229821  0.70689629  0.25727690  1
  C  C226  1  0.08265782  0.47115932  0.25140283  1
  C  C227  1  0.58734542  0.47314947  0.25082255  1
  C  C228  1  0.14761860  0.47571811  0.75092473  1
  C  C229  1  0.65516032  0.47840888  0.75354684  1
  C  C230  1  0.07985634  0.69134625  0.75286830  1
  C  C231  1  0.57857135  0.69416848  0.75769125  1
  C  C232  1  0.26319183  0.84834367  0.75378112  1
  C  C233  1  0.75714637  0.83454395  0.75010900  1
