# generated using pymatgen
data_Cu7Ni5C99
_symmetry_space_group_name_H-M   'P 1'
_cell_length_a   8.78835876
_cell_length_b   8.74455316
_cell_length_c   22.61056355
_cell_angle_alpha   89.99292884
_cell_angle_beta   90.13816709
_cell_angle_gamma   119.91263288
_symmetry_Int_Tables_number   1
_chemical_formula_structural   Cu7Ni5C99
_chemical_formula_sum   'Cu7 Ni5 C99'
_cell_volume   1506.14743170
_cell_formula_units_Z   1
loop_
 _symmetry_equiv_pos_site_id
 _symmetry_equiv_pos_as_xyz
  1  'x, y, z'
loop_
 _atom_site_type_symbol
 _atom_site_label
 _atom_site_symmetry_multiplicity
 _atom_site_fract_x
 _atom_site_fract_y
 _atom_site_fract_z
 _atom_site_occupancy
  C  C0  1  0.98794813  0.63163221  0.24595527  1
  C  C1  1  0.65547197  0.69048331  0.07945001  1
  C  C2  1  0.32237841  0.29847512  0.91323434  1
  C  C3  1  0.00012300  0.99995533  0.49554030  1
  C  C4  1  0.99815993  0.99756896  0.99136718  1
  C  C5  1  0.67502162  0.33446378  0.82410094  1
  C  C6  1  0.65676418  0.32400320  0.32617160  1
  C  C7  1  0.33153448  0.66727501  0.15737644  1
  C  C8  1  0.33347570  0.66675384  0.67065285  1
  Ni  Ni9  1  0.00049585  0.00066472  0.35398883  1
  Ni  Ni10  1  0.99389956  0.99457504  0.85198067  1
  Ni  Ni11  1  0.66630354  0.33315389  0.68777003  1
  Ni  Ni12  1  0.66101586  0.32756474  0.18508042  1
  Ni  Ni13  1  0.32787012  0.66690645  0.01829455  1
  Cu  Cu14  1  0.99930777  0.99964629  0.65034071  1
  Cu  Cu15  1  0.00536797  0.00657203  0.14532002  1
  Cu  Cu16  1  0.67114090  0.33149957  0.97851966  1
  Cu  Cu17  1  0.66722923  0.33381881  0.47946780  1
  Cu  Cu18  1  0.33301816  0.66663174  0.52138065  1
  Cu  Cu19  1  0.33876364  0.66747040  0.31028779  1
  Cu  Cu20  1  0.33271947  0.66860997  0.81237318  1
  C  C21  1  0.29289659  0.00924838  0.25291917  1
  C  C22  1  0.71468692  0.71090012  0.25113941  1
  C  C23  1  0.99384204  0.28459542  0.25293111  1
  C  C24  1  0.29456942  0.28958101  0.75342390  1
  C  C25  1  0.99476603  0.70546422  0.75260755  1
  C  C26  1  0.71101409  0.00500315  0.75270673  1
  C  C27  1  0.95321993  0.33094388  0.58476440  1
  C  C28  1  0.37742503  0.04780270  0.58472132  1
  C  C29  1  0.66925389  0.62263259  0.58482864  1
  C  C30  1  0.96124358  0.62018938  0.08649657  1
  C  C31  1  0.66195815  0.04167128  0.08564388  1
  C  C32  1  0.37989370  0.33657247  0.08398379  1
  C  C33  1  0.62729090  0.67416142  0.91957056  1
  C  C34  1  0.04637343  0.37668527  0.91789260  1
  C  C35  1  0.32828493  0.95285079  0.91866327  1
  C  C36  1  0.62472426  0.95480063  0.41695397  1
  C  C37  1  0.33062640  0.37478587  0.41687000  1
  C  C38  1  0.04499661  0.66915297  0.41611650  1
  C  C39  1  0.20440918  0.02401629  0.30689310  1
  C  C40  1  0.82628626  0.79525858  0.30483425  1
  C  C41  1  0.97322406  0.17855602  0.30685370  1
  C  C42  1  0.20980951  0.18655112  0.80853608  1
  C  C43  1  0.97710497  0.79596699  0.80579328  1
  C  C44  1  0.82031362  0.02494308  0.80577545  1
  C  C45  1  0.80040870  0.97007762  0.69481474  1
  C  C46  1  0.16876799  0.19767515  0.69628337  1
  C  C47  1  0.02908544  0.82912340  0.69466301  1
  C  C48  1  0.79523647  0.82724749  0.19341768  1
  C  C49  1  0.03002807  0.20117893  0.19585107  1
  C  C50  1  0.16802723  0.96594342  0.19613519  1
  C  C51  1  0.87960037  0.36971147  0.63816491  1
  C  C52  1  0.48974600  0.12098124  0.63831320  1
  C  C53  1  0.63086003  0.51010861  0.63830965  1
  C  C54  1  0.87717829  0.52126704  0.14259697  1
  C  C55  1  0.64180992  0.12750199  0.13955237  1
  C  C56  1  0.49271290  0.36514011  0.13749094  1
  C  C57  1  0.46171401  0.30139295  0.02644527  1
  C  C58  1  0.83368124  0.53301094  0.03086381  1
  C  C59  1  0.69617803  0.16155614  0.02877139  1
  C  C60  1  0.46827541  0.16159773  0.52759133  1
  C  C61  1  0.69313296  0.53242044  0.52763065  1
  C  C62  1  0.83891268  0.30670191  0.52758362  1
  C  C63  1  0.54354992  0.68916897  0.97565174  1
  C  C64  1  0.15837325  0.45952688  0.97155217  1
  C  C65  1  0.30783864  0.84701448  0.97264086  1
  C  C66  1  0.52469066  0.84020187  0.47145483  1
  C  C67  1  0.31608240  0.47490740  0.47150273  1
  C  C68  1  0.16048723  0.68379238  0.47066964  1
  C  C69  1  0.13004682  0.63545980  0.36046826  1
  C  C70  1  0.50264248  0.86603199  0.36203824  1
  C  C71  1  0.36403921  0.49762362  0.36215385  1
  C  C72  1  0.13256261  0.49761332  0.86133892  1
  C  C73  1  0.36261869  0.86774198  0.86181202  1
  C  C74  1  0.49953567  0.63294613  0.86402258  1
  C  C75  1  0.02495817  0.82883895  0.41325110  1
  C  C76  1  0.80274882  0.97354633  0.41314098  1
  C  C77  1  0.17135259  0.19622886  0.41320645  1
  C  C78  1  0.02240033  0.19452571  0.90907319  1
  C  C79  1  0.18065944  0.99289994  0.91025008  1
  C  C80  1  0.80941697  0.82603738  0.91073110  1
  C  C81  1  0.97701283  0.16677084  0.58822908  1
  C  C82  1  0.19043296  0.02401983  0.58826753  1
  C  C83  1  0.83310364  0.80998770  0.58824985  1
  C  C84  1  0.96644563  0.80698340  0.09074172  1
  C  C85  1  0.83693716  0.02640823  0.09077430  1
  C  C86  1  0.19342247  0.16326611  0.09089896  1
  C  C87  1  0.68355655  0.15811182  0.74196393  1
  C  C88  1  0.47357501  0.31487730  0.74241865  1
  C  C89  1  0.84191228  0.52524480  0.74208266  1
  C  C90  1  0.68850529  0.52739378  0.24298951  1
  C  C91  1  0.84742772  0.32618407  0.24407613  1
  C  C92  1  0.47619273  0.15927081  0.24389780  1
  C  C93  1  0.63320074  0.49278547  0.92414162  1
  C  C94  1  0.86053578  0.36421084  0.92413767  1
  C  C95  1  0.50374726  0.14348656  0.92397821  1
  C  C96  1  0.63288471  0.13705043  0.42475771  1
  C  C97  1  0.50391126  0.36665090  0.42480820  1
  C  C98  1  0.86298790  0.49587669  0.42503002  1
  C  C99  1  0.35517588  0.49469476  0.07605010  1
  C  C100  1  0.14283077  0.64975401  0.07749025  1
  C  C101  1  0.51375949  0.85404085  0.07719424  1
  C  C102  1  0.35180764  0.85871953  0.57188664  1
  C  C103  1  0.50682833  0.64833157  0.57192420  1
  C  C104  1  0.14119156  0.49345079  0.57181489  1
  C  C105  1  0.29915881  0.82701988  0.25782602  1
  C  C106  1  0.52729152  0.69691088  0.25765492  1
  C  C107  1  0.16970236  0.47597134  0.25811448  1
  C  C108  1  0.30301204  0.47548599  0.75648975  1
  C  C109  1  0.17201472  0.69735945  0.75626045  1
  C  C110  1  0.52585228  0.82758076  0.75684014  1
