# generated using pymatgen
data_Cu9Ni2C63
_symmetry_space_group_name_H-M   'P 1'
_cell_length_a   17.88662310
_cell_length_b   8.96669165
_cell_length_c   23.00169820
_cell_angle_alpha   90.09639553
_cell_angle_beta   89.93845681
_cell_angle_gamma   120.03171489
_symmetry_Int_Tables_number   1
_chemical_formula_structural   Cu9Ni2C63
_chemical_formula_sum   'Cu27 Ni6 C189'
_cell_volume   3193.82865254
_cell_formula_units_Z   3
loop_
 _symmetry_equiv_pos_site_id
 _symmetry_equiv_pos_as_xyz
  1  'x, y, z'
loop_
 _atom_site_type_symbol
 _atom_site_label
 _atom_site_symmetry_multiplicity
 _atom_site_fract_x
 _atom_site_fract_y
 _atom_site_fract_z
 _atom_site_occupancy
  C  C0  1  0.32116900  0.01312712  0.25193314  1
  C  C1  1  0.68517901  0.37066860  0.24694141  1
  C  C2  1  0.49226114  0.62132140  0.25004120  1
  C  C3  1  0.82069144  0.62949909  0.75060581  1
  C  C4  1  0.99243286  0.36252734  0.74832889  1
  C  C5  1  0.18642995  0.00373226  0.74454508  1
  C  C6  1  0.00262440  0.00738070  0.49939959  1
  C  C7  1  0.50424826  0.99919284  0.49727750  1
  C  C8  1  0.00442714  0.01227812  0.99517709  1
  C  C9  1  0.50275734  0.99802214  0.99820994  1
  C  C10  1  0.33821763  0.33216555  0.83263423  1
  C  C11  1  0.83107925  0.32428303  0.82725471  1
  C  C12  1  0.33072978  0.34015010  0.33174936  1
  C  C13  1  0.83760647  0.34313331  0.33626646  1
  C  C14  1  0.16715413  0.65805293  0.16686930  1
  C  C15  1  0.67062815  0.66884093  0.16451389  1
  C  C16  1  0.17204712  0.67275219  0.66290242  1
  C  C17  1  0.66104424  0.66849532  0.66245892  1
  C  C18  1  0.00186096  0.98692521  0.35885659  1
  C  C19  1  0.50195720  0.01676235  0.85691096  1
  C  C20  1  0.99753689  0.99176021  0.64350393  1
  C  C21  1  0.49875740  0.01439025  0.63962430  1
  C  C22  1  0.99985085  0.99708226  0.14487001  1
  C  C23  1  0.49773816  0.00262458  0.14426525  1
  C  C24  1  0.33071506  0.34528764  0.97579039  1
  C  C25  1  0.82773213  0.30994320  0.97783993  1
  C  C26  1  0.33400286  0.34581948  0.48230082  1
  C  C27  1  0.83012430  0.31436044  0.47619978  1
  C  C28  1  0.16766955  0.65711874  0.01427049  1
  C  C29  1  0.66012891  0.66423809  0.02365853  1
  C  C30  1  0.16024482  0.65420313  0.52395858  1
  C  C31  1  0.66146467  0.66958770  0.51683197  1
  C  C32  1  0.16501843  0.66155160  0.31402646  1
  C  C33  1  0.66939069  0.65850720  0.31754473  1
  C  C34  1  0.16936130  0.68041349  0.81581878  1
  C  C35  1  0.66175441  0.66673037  0.81074473  1
  Ni  Ni36  1  0.49936110  0.00024536  0.35644170  1
  Ni  Ni37  1  0.99963748  0.99919283  0.85565064  1
  Ni  Ni38  1  0.33736697  0.32954814  0.67838587  1
  Ni  Ni39  1  0.82935600  0.31756529  0.68576965  1
  Ni  Ni40  1  0.32912438  0.34161009  0.18602503  1
  Ni  Ni41  1  0.83339942  0.33827849  0.18134734  1
  Cu  Cu42  1  0.14249443  0.99628615  0.25082577  1
  Cu  Cu43  1  0.35453154  0.71095649  0.25161837  1
  Cu  Cu44  1  0.85689079  0.71222118  0.25063535  1
  Cu  Cu45  1  0.50061636  0.29220563  0.25061148  1
  Cu  Cu46  1  0.64247233  0.28603315  0.74986709  1
  Cu  Cu47  1  0.00023610  0.70976255  0.75049225  1
  Cu  Cu48  1  0.35744866  0.00297650  0.74988487  1
  Cu  Cu49  1  0.85495728  0.99873867  0.75168431  1
  Cu  Cu50  1  0.48059524  0.34160557  0.58131943  1
  Cu  Cu51  1  0.97452851  0.32818201  0.58507386  1
  Cu  Cu52  1  0.18793501  0.04145967  0.58322430  1
  Cu  Cu53  1  0.68761531  0.04036792  0.58311259  1
  Cu  Cu54  1  0.33302486  0.62529407  0.58594612  1
  Cu  Cu55  1  0.47462660  0.62112524  0.08498815  1
  Cu  Cu56  1  0.83349638  0.04019894  0.08461762  1
  Cu  Cu57  1  0.18698525  0.33465392  0.08283133  1
  Cu  Cu58  1  0.68784573  0.33463150  0.08329949  1
  Cu  Cu59  1  0.31283411  0.67149054  0.91411624  1
  Cu  Cu60  1  0.01945472  0.37462998  0.91476017  1
  Cu  Cu61  1  0.52275542  0.38406164  0.91792455  1
  Cu  Cu62  1  0.16569362  0.95832314  0.92017502  1
  Cu  Cu63  1  0.66366360  0.94719272  0.91585181  1
  Cu  Cu64  1  0.81079675  0.94955444  0.41657427  1
  Cu  Cu65  1  0.16785034  0.37793613  0.41669929  1
  Cu  Cu66  1  0.66654344  0.37336760  0.42030075  1
  Cu  Cu67  1  0.02225128  0.65924624  0.41849994  1
  Cu  Cu68  1  0.51806826  0.66347157  0.41476577  1
  C  C69  1  0.64571866  0.99861587  0.24912626  1
  C  C70  1  0.00027401  0.28447236  0.25122505  1
  C  C71  1  0.14659776  0.29347341  0.74919913  1
  C  C72  1  0.49899376  0.71629530  0.75135980  1
  C  C73  1  0.83186208  0.62375711  0.58228487  1
  C  C74  1  0.98125386  0.62749895  0.08131638  1
  C  C75  1  0.33150035  0.03946457  0.08263820  1
  C  C76  1  0.80745455  0.66127126  0.91851142  1
  C  C77  1  0.30762643  0.95363810  0.41826697  1
  C  C78  1  0.09286419  0.02265737  0.30613346  1
  C  C79  1  0.60966853  0.03071639  0.30134697  1
  C  C80  1  0.41558140  0.79636549  0.30627355  1
  C  C81  1  0.91720419  0.81579543  0.30634494  1
  C  C82  1  0.48398701  0.17337486  0.30583046  1
  C  C83  1  0.98928740  0.18239271  0.30286977  1
  C  C84  1  0.11003170  0.18949576  0.80181223  1
  C  C85  1  0.59410979  0.16519065  0.80696924  1
  C  C86  1  0.49107507  0.80022486  0.80476595  1
  C  C87  1  0.98388266  0.79273389  0.80689376  1
  C  C88  1  0.41677005  0.01728947  0.80688107  1
  C  C89  1  0.91510440  0.03632222  0.80735932  1
  C  C90  1  0.40305971  0.97107301  0.69328744  1
  C  C91  1  0.90263103  0.96329274  0.69382329  1
  C  C92  1  0.08975549  0.20962482  0.69689438  1
  C  C93  1  0.58098756  0.19119179  0.69375284  1
  C  C94  1  0.01952787  0.84143356  0.69353191  1
  C  C95  1  0.51511343  0.81712863  0.69879813  1
  C  C96  1  0.40294684  0.84173700  0.19325997  1
  C  C97  1  0.90381101  0.83410644  0.19275372  1
  C  C98  1  0.01430097  0.20773500  0.19708046  1
  C  C99  1  0.51943779  0.19726907  0.19302052  1
  C  C100  1  0.08070473  0.97117922  0.19355551  1
  C  C101  1  0.58997380  0.97142512  0.19629883  1
  C  C102  1  0.45126307  0.38375765  0.64187337  1
  C  C103  1  0.94644400  0.37722347  0.64474905  1
  C  C104  1  0.23536709  0.10054669  0.64563138  1
  C  C105  1  0.74329790  0.11040844  0.64057648  1
  C  C106  1  0.30950523  0.50991380  0.64326598  1
  C  C107  1  0.81928864  0.53146598  0.63761734  1
  C  C108  1  0.44590540  0.51489527  0.14419754  1
  C  C109  1  0.94859806  0.52901438  0.13606135  1
  C  C110  1  0.31777622  0.10485444  0.13716442  1
  C  C111  1  0.81559546  0.11814262  0.14205165  1
  C  C112  1  0.24207271  0.37642675  0.14030745  1
  C  C113  1  0.73863255  0.37353286  0.14438220  1
  C  C114  1  0.23416448  0.30437404  0.02547790  1
  C  C115  1  0.74019598  0.31032607  0.02765408  1
  C  C116  1  0.41470775  0.52446589  0.02728933  1
  C  C117  1  0.92586141  0.54506747  0.03096972  1
  C  C118  1  0.34645902  0.14885579  0.03146528  1
  C  C119  1  0.84896650  0.16775951  0.02691248  1
  C  C120  1  0.23620200  0.16828367  0.52717227  1
  C  C121  1  0.73504523  0.16720696  0.52576487  1
  C  C122  1  0.34896903  0.53267085  0.52749267  1
  C  C123  1  0.84768958  0.54400638  0.53168906  1
  C  C124  1  0.41639295  0.30580392  0.52544791  1
  C  C125  1  0.91521730  0.30526674  0.52726700  1
  C  C126  1  0.26660414  0.69547145  0.97237175  1
  C  C127  1  0.76417860  0.68342527  0.96920241  1
  C  C128  1  0.08224857  0.47837208  0.97139621  1
  C  C129  1  0.58475016  0.47383342  0.97316164  1
  C  C130  1  0.15740161  0.83454826  0.97502037  1
  C  C131  1  0.65520794  0.83343019  0.97235579  1
  C  C132  1  0.26372696  0.84389380  0.46859281  1
  C  C133  1  0.76683138  0.83453040  0.47339372  1
  C  C134  1  0.15460115  0.47648352  0.47145249  1
  C  C135  1  0.65830609  0.48130374  0.47359882  1
  C  C136  1  0.08513003  0.69625963  0.47295394  1
  C  C137  1  0.58102322  0.68716875  0.47066898  1
  C  C138  1  0.07028383  0.63900388  0.35989307  1
  C  C139  1  0.56839877  0.63845211  0.35678752  1
  C  C140  1  0.25523157  0.86965509  0.36245384  1
  C  C141  1  0.74934004  0.86179295  0.35891668  1
  C  C142  1  0.18054194  0.50199416  0.35920714  1
  C  C143  1  0.68318644  0.49554318  0.35966836  1
  C  C144  1  0.06769610  0.49789966  0.85742819  1
  C  C145  1  0.57038662  0.50269849  0.86043600  1
  C  C146  1  0.18246122  0.86816886  0.86073369  1
  C  C147  1  0.68126658  0.85921325  0.85892812  1
  C  C148  1  0.24858805  0.63518662  0.85910217  1
  C  C149  1  0.75640256  0.63631755  0.86356696  1
  C  C150  1  0.01313673  0.83273321  0.40995605  1
  C  C151  1  0.51120882  0.83384374  0.41490016  1
  C  C152  1  0.39250527  0.96992726  0.41423467  1
  C  C153  1  0.90732128  0.97935474  0.40609877  1
  C  C154  1  0.08086470  0.19043134  0.40620747  1
  C  C155  1  0.58223933  0.18950150  0.41482921  1
  C  C156  1  0.01030117  0.18879556  0.91595419  1
  C  C157  1  0.51303531  0.19236885  0.90990907  1
  C  C158  1  0.08130324  0.97398271  0.91596627  1
  C  C159  1  0.58061413  0.97205590  0.90755170  1
  C  C160  1  0.40805945  0.83656223  0.90770458  1
  C  C161  1  0.89361994  0.81460708  0.91523180  1
  C  C162  1  0.48824028  0.16456574  0.58693428  1
  C  C163  1  0.98731766  0.15736037  0.59202308  1
  C  C164  1  0.08997770  0.02051159  0.59040183  1
  C  C165  1  0.59090323  0.01747640  0.59143950  1
  C  C166  1  0.42016093  0.81460349  0.59212688  1
  C  C167  1  0.91356383  0.80166037  0.58784286  1
  C  C168  1  0.48766137  0.81765333  0.09168229  1
  C  C169  1  0.98844008  0.80155687  0.08814700  1
  C  C170  1  0.41201590  0.02221995  0.08759631  1
  C  C171  1  0.92041540  0.02224617  0.09168706  1
  C  C172  1  0.09001481  0.16120762  0.09148035  1
  C  C173  1  0.59105080  0.15971500  0.08985839  1
  C  C174  1  0.33895558  0.16373077  0.75038324  1
  C  C175  1  0.84579380  0.16677387  0.74803554  1
  C  C176  1  0.23296286  0.31453307  0.74327987  1
  C  C177  1  0.74118750  0.32991488  0.74779700  1
  C  C178  1  0.42366048  0.54061671  0.74916975  1
  C  C179  1  0.91667477  0.52167855  0.74364016  1
  C  C180  1  0.34575740  0.52518739  0.24766535  1
  C  C181  1  0.84199911  0.51628343  0.24805845  1
  C  C182  1  0.41639626  0.31075869  0.24308031  1
  C  C183  1  0.92479180  0.30870252  0.24514154  1
  C  C184  1  0.24015732  0.15147920  0.24655781  1
  C  C185  1  0.73267313  0.15227972  0.24330040  1
  C  C186  1  0.31955635  0.49674359  0.92284236  1
  C  C187  1  0.81598157  0.50408753  0.92470061  1
  C  C188  1  0.42645292  0.35698057  0.92694896  1
  C  C189  1  0.92775237  0.37358277  0.92719415  1
  C  C190  1  0.25587095  0.14288339  0.92744200  1
  C  C191  1  0.75042645  0.14257079  0.92426575  1
  C  C192  1  0.31313848  0.12314635  0.42134970  1
  C  C193  1  0.81982832  0.14146275  0.42266723  1
  C  C194  1  0.25203119  0.35467684  0.42388780  1
  C  C195  1  0.75667094  0.36789309  0.42628219  1
  C  C196  1  0.42598394  0.48316558  0.42340174  1
  C  C197  1  0.92625967  0.49480263  0.42602751  1
  C  C198  1  0.17315212  0.50353633  0.07245926  1
  C  C199  1  0.67628555  0.50095520  0.07060247  1
  C  C200  1  0.06995099  0.65337731  0.07406447  1
  C  C201  1  0.57274145  0.65177220  0.07292567  1
  C  C202  1  0.25561143  0.86207863  0.07467312  1
  C  C203  1  0.75184440  0.85046332  0.07038961  1
  C  C204  1  0.17572469  0.85076622  0.57025656  1
  C  C205  1  0.67735989  0.84997063  0.57176694  1
  C  C206  1  0.25175392  0.65422984  0.56988833  1
  C  C207  1  0.75774179  0.65093049  0.57499645  1
  C  C208  1  0.07264985  0.49328976  0.57324086  1
  C  C209  1  0.57928924  0.50161069  0.57191069  1
  C  C210  1  0.15038497  0.82009003  0.25981244  1
  C  C211  1  0.65024813  0.83710493  0.25310506  1
  C  C212  1  0.25957202  0.70466692  0.25690015  1
  C  C213  1  0.75953414  0.69135931  0.25757312  1
  C  C214  1  0.08066612  0.46116672  0.25610242  1
  C  C215  1  0.58958363  0.48723836  0.25500587  1
  C  C216  1  0.14993944  0.46406140  0.75413927  1
  C  C217  1  0.65076104  0.47858335  0.76122735  1
  C  C218  1  0.08929314  0.69206597  0.75579397  1
  C  C219  1  0.58008945  0.69746417  0.75838918  1
  C  C220  1  0.25989531  0.82663482  0.75910401  1
  C  C221  1  0.75999038  0.81520710  0.75810677  1
