# generated using pymatgen
data_Cu5Ni4C69
_symmetry_space_group_name_H-M   'P 1'
_cell_length_a   17.66225951
_cell_length_b   8.86395418
_cell_length_c   22.22740459
_cell_angle_alpha   89.63029263
_cell_angle_beta   89.39318816
_cell_angle_gamma   119.99179018
_symmetry_Int_Tables_number   1
_chemical_formula_structural   Cu5Ni4C69
_chemical_formula_sum   'Cu15 Ni12 C207'
_cell_volume   3013.45537024
_cell_formula_units_Z   3
loop_
 _symmetry_equiv_pos_site_id
 _symmetry_equiv_pos_as_xyz
  1  'x, y, z'
loop_
 _atom_site_type_symbol
 _atom_site_label
 _atom_site_symmetry_multiplicity
 _atom_site_fract_x
 _atom_site_fract_y
 _atom_site_fract_z
 _atom_site_occupancy
  C  C0  1  0.32537701  0.00004714  0.24945424  1
  C  C1  1  0.82431636  0.00121154  0.25256258  1
  C  C2  1  0.18475805  0.37459017  0.24154056  1
  C  C3  1  0.67660621  0.36500919  0.24475844  1
  C  C4  1  0.99485689  0.63278698  0.25946394  1
  C  C5  1  0.49640738  0.62628876  0.25871716  1
  C  C6  1  0.82662197  0.65054635  0.74486726  1
  C  C7  1  0.99484103  0.36018377  0.75628387  1
  C  C8  1  0.49802520  0.35411314  0.75680334  1
  C  C9  1  0.17779033  0.99079863  0.74195882  1
  C  C10  1  0.01880212  0.70965486  0.58589075  1
  C  C11  1  0.33022553  0.97359112  0.59092844  1
  C  C12  1  0.02072152  0.32880255  0.08326124  1
  C  C13  1  0.51611002  0.33328970  0.08509088  1
  C  C14  1  0.16218632  0.30271975  0.92591181  1
  C  C15  1  0.66344365  0.30031353  0.92639026  1
  C  C16  1  0.16357133  0.02070279  0.42520310  1
  C  C17  1  0.66206144  0.02787643  0.42542882  1
  C  C18  1  0.99472550  0.99828664  0.50184690  1
  C  C19  1  0.51017791  0.99273975  0.49656898  1
  C  C20  1  0.00287354  0.00088297  0.00037975  1
  C  C21  1  0.50058305  0.99449306  0.00449710  1
  C  C22  1  0.34506232  0.33487284  0.83556627  1
  C  C23  1  0.84586893  0.32098234  0.83083075  1
  C  C24  1  0.35112842  0.36586120  0.33724517  1
  C  C25  1  0.84674608  0.35799465  0.33868176  1
  C  C26  1  0.17633309  0.66350821  0.16814080  1
  C  C27  1  0.67508366  0.66058880  0.16567478  1
  C  C28  1  0.17249105  0.67277893  0.66924971  1
  C  C29  1  0.67945726  0.71232399  0.65974175  1
  C  C30  1  0.98935597  0.98363161  0.35417261  1
  C  C31  1  0.99000830  0.99209940  0.84895839  1
  C  C32  1  0.49394727  0.01270842  0.85217150  1
  C  C33  1  0.50748163  0.00157744  0.64240432  1
  C  C34  1  0.99842014  0.00580145  0.15183904  1
  C  C35  1  0.82787118  0.34025997  0.18520116  1
  C  C36  1  0.33678138  0.33482787  0.98347353  1
  C  C37  1  0.83178446  0.33133111  0.98260889  1
  C  C38  1  0.16762079  0.65051761  0.02088869  1
  C  C39  1  0.16375103  0.67073229  0.52029507  1
  C  C40  1  0.16170351  0.66664650  0.81156463  1
  C  C41  1  0.66729270  0.67953588  0.81283682  1
  Ni  Ni42  1  0.48581925  0.97194340  0.34880083  1
  Ni  Ni43  1  0.00192980  0.99220293  0.64756744  1
  Ni  Ni44  1  0.49914261  0.01518836  0.15248247  1
  Ni  Ni45  1  0.33134823  0.32122595  0.68155833  1
  Ni  Ni46  1  0.83120162  0.31278581  0.68516332  1
  Ni  Ni47  1  0.33786610  0.35261730  0.18766377  1
  Ni  Ni48  1  0.33736299  0.34840826  0.48209513  1
  Ni  Ni49  1  0.83646031  0.34699574  0.48355036  1
  Ni  Ni50  1  0.66307140  0.64607574  0.01915643  1
  Ni  Ni51  1  0.66035149  0.69821955  0.51771210  1
  Ni  Ni52  1  0.16048739  0.64621112  0.31499688  1
  Ni  Ni53  1  0.65304043  0.63196511  0.31662897  1
  Cu  Cu54  1  0.35558806  0.71276502  0.24963078  1
  Cu  Cu55  1  0.84424214  0.70233099  0.25363957  1
  Cu  Cu56  1  0.00169566  0.30177919  0.25124878  1
  Cu  Cu57  1  0.49682548  0.28304838  0.25133447  1
  Cu  Cu58  1  0.99351212  0.69781709  0.74296080  1
  Cu  Cu59  1  0.35338513  0.00883010  0.74276101  1
  Cu  Cu60  1  0.85569644  0.00312357  0.74249141  1
  Cu  Cu61  1  0.18800891  0.05980138  0.58115495  1
  Cu  Cu62  1  0.69700582  0.05492803  0.57929766  1
  Cu  Cu63  1  0.18943543  0.32800690  0.08645399  1
  Cu  Cu64  1  0.67673130  0.32520367  0.08296067  1
  Cu  Cu65  1  0.01473579  0.36224690  0.91677325  1
  Cu  Cu66  1  0.52085148  0.37884965  0.91710845  1
  Cu  Cu67  1  0.01596844  0.65443366  0.41737348  1
  Cu  Cu68  1  0.51752654  0.66683374  0.41544732  1
  C  C69  1  0.15125566  0.00110622  0.25201783  1
  C  C70  1  0.63910104  0.99355876  0.25130094  1
  C  C71  1  0.15036083  0.29056324  0.74502154  1
  C  C72  1  0.65120933  0.29240455  0.74931266  1
  C  C73  1  0.49478844  0.69855598  0.74767031  1
  C  C74  1  0.47972999  0.34696384  0.58052061  1
  C  C75  1  0.97411356  0.32417653  0.58399229  1
  C  C76  1  0.33415854  0.61191913  0.58403070  1
  C  C77  1  0.82961228  0.61974847  0.58205551  1
  C  C78  1  0.48224990  0.63573122  0.08614795  1
  C  C79  1  0.98176918  0.63351599  0.08344133  1
  C  C80  1  0.33451084  0.04223351  0.08920537  1
  C  C81  1  0.82580125  0.02168745  0.08231663  1
  C  C82  1  0.31526621  0.66774129  0.91520065  1
  C  C83  1  0.80985571  0.66949274  0.91953987  1
  C  C84  1  0.16732830  0.96138230  0.91662826  1
  C  C85  1  0.66534153  0.95030843  0.92102079  1
  C  C86  1  0.31626134  0.96138577  0.41505243  1
  C  C87  1  0.80630251  0.95155357  0.41801720  1
  C  C88  1  0.17129899  0.37896954  0.41605192  1
  C  C89  1  0.66685755  0.38309991  0.41930007  1
  C  C90  1  0.11401971  0.03489546  0.30650554  1
  C  C91  1  0.60188714  0.02729899  0.30633853  1
  C  C92  1  0.41852038  0.78438073  0.30728838  1
  C  C93  1  0.91434850  0.78068073  0.30769214  1
  C  C94  1  0.47954853  0.14705773  0.30693256  1
  C  C95  1  0.98450870  0.16924597  0.30662394  1
  C  C96  1  0.11575555  0.18644761  0.80174328  1
  C  C97  1  0.61458302  0.19138911  0.80624024  1
  C  C98  1  0.48566051  0.77853900  0.80274370  1
  C  C99  1  0.97501697  0.78363043  0.80201507  1
  C  C100  1  0.41899848  0.05131949  0.80030278  1
  C  C101  1  0.91365860  0.04470124  0.80395751  1
  C  C102  1  0.39903249  0.98513934  0.68257498  1
  C  C103  1  0.91004159  0.97412054  0.68849915  1
  C  C104  1  0.09258502  0.20180554  0.69410966  1
  C  C105  1  0.59227881  0.20595728  0.69894290  1
  C  C106  1  0.01820426  0.82941285  0.68466294  1
  C  C107  1  0.50947800  0.80829241  0.69397729  1
  C  C108  1  0.40246652  0.84673092  0.19273317  1
  C  C109  1  0.88764593  0.82987919  0.19507187  1
  C  C110  1  0.02265534  0.22709384  0.18959612  1
  C  C111  1  0.51949008  0.21054457  0.19032537  1
  C  C112  1  0.09348940  0.96493205  0.19996957  1
  C  C113  1  0.58518950  0.97022848  0.19795479  1
  C  C114  1  0.44139641  0.36961285  0.63809700  1
  C  C115  1  0.93618986  0.35939771  0.63859562  1
  C  C116  1  0.25077069  0.14597048  0.63940577  1
  C  C117  1  0.75314413  0.15280373  0.63796313  1
  C  C118  1  0.32920939  0.51086728  0.63866108  1
  C  C119  1  0.81896370  0.52118085  0.63866599  1
  C  C120  1  0.44244409  0.51647823  0.14020895  1
  C  C121  1  0.94272048  0.52537798  0.13903636  1
  C  C122  1  0.32661058  0.13023871  0.14337002  1
  C  C123  1  0.81388924  0.09469875  0.13924588  1
  C  C124  1  0.25009866  0.34259772  0.14380999  1
  C  C125  1  0.73562657  0.35445044  0.14245886  1
  C  C126  1  0.23240559  0.31698563  0.02243888  1
  C  C127  1  0.72254081  0.30207768  0.02232537  1
  C  C128  1  0.42922592  0.55315741  0.03253605  1
  C  C129  1  0.92914786  0.54225212  0.03095395  1
  C  C130  1  0.35133741  0.15391044  0.03476994  1
  C  C131  1  0.84237004  0.14426329  0.03177638  1
  C  C132  1  0.23959182  0.17107376  0.51968696  1
  C  C133  1  0.74259779  0.17053372  0.51788379  1
  C  C134  1  0.34253435  0.53022877  0.52891694  1
  C  C135  1  0.84900711  0.53542206  0.53042949  1
  C  C136  1  0.42004558  0.31925958  0.53023148  1
  C  C137  1  0.92307707  0.30979069  0.53007970  1
  C  C138  1  0.27641295  0.69227737  0.97074013  1
  C  C139  1  0.76338722  0.68609546  0.97244215  1
  C  C140  1  0.07674726  0.45940093  0.97595358  1
  C  C141  1  0.58203081  0.47827223  0.97470846  1
  C  C142  1  0.16231258  0.85899137  0.97001662  1
  C  C143  1  0.66029661  0.84476636  0.97388363  1
  C  C144  1  0.27784631  0.85968712  0.47185376  1
  C  C145  1  0.76251178  0.84084937  0.47168765  1
  C  C146  1  0.16256441  0.46600500  0.46927164  1
  C  C147  1  0.65745924  0.47447788  0.47101251  1
  C  C148  1  0.07673574  0.68881637  0.47714378  1
  C  C149  1  0.58420324  0.71086594  0.47141199  1
  C  C150  1  0.06976758  0.64008409  0.35816520  1
  C  C151  1  0.56379288  0.63721042  0.35503191  1
  C  C152  1  0.25859639  0.87257676  0.36312207  1
  C  C153  1  0.75589701  0.87019480  0.36262463  1
  C  C154  1  0.18143956  0.48226276  0.36000552  1
  C  C155  1  0.67810660  0.48231150  0.36141949  1
  C  C156  1  0.06373934  0.47404376  0.85556502  1
  C  C157  1  0.56611277  0.48098316  0.85368372  1
  C  C158  1  0.17771366  0.88415324  0.86029110  1
  C  C159  1  0.67802022  0.87709585  0.86448831  1
  C  C160  1  0.26237881  0.65059253  0.86242745  1
  C  C161  1  0.76192760  0.65183068  0.86320144  1
  C  C162  1  0.01393557  0.83781428  0.41427948  1
  C  C163  1  0.51277717  0.85033645  0.40650409  1
  C  C164  1  0.40392934  0.98010309  0.40865208  1
  C  C165  1  0.89498932  0.97260859  0.41698153  1
  C  C166  1  0.09388116  0.20203832  0.41298736  1
  C  C167  1  0.58971715  0.20493079  0.41465376  1
  C  C168  1  0.01354699  0.17629484  0.91469855  1
  C  C169  1  0.51708402  0.18717584  0.91587687  1
  C  C170  1  0.08795616  0.97773656  0.91392161  1
  C  C171  1  0.58526439  0.96390981  0.91772445  1
  C  C172  1  0.40458081  0.81813646  0.91071872  1
  C  C173  1  0.89790562  0.82231371  0.91803507  1
  C  C174  1  0.48550500  0.18513218  0.58373494  1
  C  C175  1  0.98350359  0.16887873  0.58934869  1
  C  C176  1  0.08790345  0.02953650  0.58785981  1
  C  C177  1  0.59713248  0.02919166  0.58384753  1
  C  C178  1  0.41122261  0.79084366  0.58504120  1
  C  C179  1  0.91072558  0.79687288  0.58486409  1
  C  C180  1  0.48966221  0.80613992  0.09444053  1
  C  C181  1  0.98843731  0.80397336  0.08761195  1
  C  C182  1  0.41317073  0.02199481  0.09228501  1
  C  C183  1  0.90631941  0.00806903  0.08455719  1
  C  C184  1  0.08937426  0.15978757  0.08789471  1
  C  C185  1  0.57906412  0.15002609  0.09139759  1
  C  C186  1  0.34579699  0.18911406  0.73864518  1
  C  C187  1  0.84462549  0.17420644  0.73814078  1
  C  C188  1  0.23940715  0.31411099  0.73677759  1
  C  C189  1  0.73948947  0.31819292  0.74116914  1
  C  C190  1  0.41551521  0.52266404  0.74112246  1
  C  C191  1  0.90659161  0.50563356  0.73320873  1
  C  C192  1  0.34200544  0.51531325  0.24025203  1
  C  C193  1  0.83037278  0.50597221  0.24666504  1
  C  C194  1  0.41059538  0.30949489  0.24111986  1
  C  C195  1  0.91358156  0.31718807  0.24446059  1
  C  C196  1  0.23940722  0.15669156  0.24278249  1
  C  C197  1  0.72901695  0.14697890  0.24514279  1
  C  C198  1  0.31949249  0.50483283  0.91886285  1
  C  C199  1  0.81517488  0.50770080  0.92327005  1
  C  C200  1  0.42362459  0.35257156  0.92160003  1
  C  C201  1  0.91913729  0.34608380  0.92169169  1
  C  C202  1  0.24465372  0.14127630  0.91876657  1
  C  C203  1  0.74150650  0.13058410  0.92296808  1
  C  C204  1  0.32209120  0.13499348  0.41963872  1
  C  C205  1  0.81429464  0.12652538  0.42132929  1
  C  C206  1  0.25081202  0.35998270  0.41916675  1
  C  C207  1  0.74687447  0.36417379  0.42218313  1
  C  C208  1  0.42098958  0.49225764  0.42822523  1
  C  C209  1  0.91934783  0.48009928  0.42753377  1
  C  C210  1  0.17690412  0.50266988  0.08584974  1
  C  C211  1  0.66694051  0.50229776  0.07659436  1
  C  C212  1  0.07012833  0.65295215  0.07887882  1
  C  C213  1  0.57041645  0.65214196  0.07865024  1
  C  C214  1  0.25476347  0.87206318  0.08341936  1
  C  C215  1  0.74738558  0.84970269  0.07279328  1
  C  C216  1  0.17918994  0.86103205  0.57913813  1
  C  C217  1  0.68429108  0.85663885  0.57460933  1
  C  C218  1  0.25453799  0.62909851  0.58288783  1
  C  C219  1  0.75117331  0.63438845  0.57274077  1
  C  C220  1  0.06393877  0.48331210  0.57968164  1
  C  C221  1  0.56797016  0.50041383  0.57295776  1
  C  C222  1  0.16251138  0.84600282  0.25896943  1
  C  C223  1  0.64942234  0.83774328  0.25612247  1
  C  C224  1  0.25791839  0.69346474  0.26233093  1
  C  C225  1  0.74888536  0.68980961  0.26556310  1
  C  C226  1  0.08898731  0.49638066  0.25802950  1
  C  C227  1  0.58263927  0.47866222  0.25946128  1
  C  C228  1  0.15750160  0.46364564  0.74991166  1
  C  C229  1  0.65862988  0.46739384  0.75342465  1
  C  C230  1  0.07907818  0.67196911  0.74963669  1
  C  C231  1  0.57195667  0.67122178  0.75031054  1
  C  C232  1  0.25600121  0.84303056  0.75210660  1
  C  C233  1  0.76104220  0.82113296  0.74958011  1
