# generated using pymatgen
data_Cu4NiC12
_symmetry_space_group_name_H-M   'P 1'
_cell_length_a   8.30685500
_cell_length_b   9.39726100
_cell_length_c   13.17260800
_cell_angle_alpha   90.00000000
_cell_angle_beta   90.00000000
_cell_angle_gamma   90.00000000
_symmetry_Int_Tables_number   1
_chemical_formula_structural   Cu4NiC12
_chemical_formula_sum   'Cu16 Ni4 C48'
_cell_volume   1028.27597006
_cell_formula_units_Z   4
loop_
 _symmetry_equiv_pos_site_id
 _symmetry_equiv_pos_as_xyz
  1  'x, y, z'
loop_
 _atom_site_type_symbol
 _atom_site_label
 _atom_site_symmetry_multiplicity
 _atom_site_fract_x
 _atom_site_fract_y
 _atom_site_fract_z
 _atom_site_occupancy
  Ni  Ni0  1  0.35288100  0.75000000  0.00000000  1
  Ni  Ni1  1  0.64711900  0.25000000  0.00000000  1
  Ni  Ni2  1  0.14711900  0.25000000  0.50000000  1
  Ni  Ni3  1  0.85288100  0.75000000  0.50000000  1
  Cu  Cu4  1  0.17844600  0.50648500  0.14733800  1
  Cu  Cu5  1  0.82155400  0.00648500  0.14733800  1
  Cu  Cu6  1  0.46018600  0.01816200  0.15057400  1
  Cu  Cu7  1  0.53981400  0.51816200  0.15057400  1
  Cu  Cu8  1  0.03981400  0.51816200  0.34942600  1
  Cu  Cu9  1  0.96018600  0.01816200  0.34942600  1
  Cu  Cu10  1  0.32155400  0.00648500  0.35266200  1
  Cu  Cu11  1  0.67844600  0.50648500  0.35266200  1
  Cu  Cu12  1  0.32155400  0.49351500  0.64733800  1
  Cu  Cu13  1  0.67844600  0.99351500  0.64733800  1
  Cu  Cu14  1  0.03981400  0.98183800  0.65057400  1
  Cu  Cu15  1  0.96018600  0.48183800  0.65057400  1
  Cu  Cu16  1  0.46018600  0.48183800  0.84942600  1
  Cu  Cu17  1  0.53981400  0.98183800  0.84942600  1
  Cu  Cu18  1  0.17844600  0.99351500  0.85266200  1
  Cu  Cu19  1  0.82155400  0.49351500  0.85266200  1
  C  C20  1  0.18595300  0.62807800  0.07033400  1
  C  C21  1  0.81404700  0.12807800  0.07033400  1
  C  C22  1  0.46356200  0.13230400  0.06870200  1
  C  C23  1  0.53643800  0.63230400  0.06870200  1
  C  C24  1  0.08811200  0.37663500  0.12581900  1
  C  C25  1  0.91188800  0.87663500  0.12581900  1
  C  C26  1  0.36222700  0.88719000  0.12307200  1
  C  C27  1  0.63777300  0.38719000  0.12307200  1
  C  C28  1  0.36400100  0.47073100  0.18137800  1
  C  C29  1  0.63599900  0.97073100  0.18137800  1
  C  C30  1  0.11687400  0.58698400  0.25132500  1
  C  C31  1  0.88312600  0.08698400  0.25132500  1
  C  C32  1  0.38312600  0.08698400  0.24867500  1
  C  C33  1  0.61687400  0.58698400  0.24867500  1
  C  C34  1  0.13599900  0.97073100  0.31862200  1
  C  C35  1  0.86400100  0.47073100  0.31862200  1
  C  C36  1  0.13777300  0.38719000  0.37692800  1
  C  C37  1  0.86222700  0.88719000  0.37692800  1
  C  C38  1  0.41188800  0.87663500  0.37418100  1
  C  C39  1  0.58811200  0.37663500  0.37418100  1
  C  C40  1  0.03643800  0.63230400  0.43129800  1
  C  C41  1  0.96356200  0.13230400  0.43129800  1
  C  C42  1  0.31404700  0.12807800  0.42966600  1
  C  C43  1  0.68595300  0.62807800  0.42966600  1
  C  C44  1  0.31404700  0.37192200  0.57033400  1
  C  C45  1  0.68595300  0.87192200  0.57033400  1
  C  C46  1  0.03643800  0.86769600  0.56870200  1
  C  C47  1  0.96356200  0.36769600  0.56870200  1
  C  C48  1  0.41188800  0.62336500  0.62581900  1
  C  C49  1  0.58811200  0.12336500  0.62581900  1
  C  C50  1  0.13777300  0.11281000  0.62307200  1
  C  C51  1  0.86222700  0.61281000  0.62307200  1
  C  C52  1  0.13599900  0.52926900  0.68137800  1
  C  C53  1  0.86400100  0.02926900  0.68137800  1
  C  C54  1  0.38312600  0.41301600  0.75132500  1
  C  C55  1  0.61687400  0.91301600  0.75132500  1
  C  C56  1  0.11687400  0.91301600  0.74867500  1
  C  C57  1  0.88312600  0.41301600  0.74867500  1
  C  C58  1  0.36400100  0.02926900  0.81862200  1
  C  C59  1  0.63599900  0.52926900  0.81862200  1
  C  C60  1  0.36222700  0.61281000  0.87692800  1
  C  C61  1  0.63777300  0.11281000  0.87692800  1
  C  C62  1  0.08811200  0.12336500  0.87418100  1
  C  C63  1  0.91188800  0.62336500  0.87418100  1
  C  C64  1  0.46356200  0.36769600  0.93129800  1
  C  C65  1  0.53643800  0.86769600  0.93129800  1
  C  C66  1  0.18595300  0.87192200  0.92966600  1
  C  C67  1  0.81404700  0.37192200  0.92966600  1
