# generated using pymatgen
data_Cu5(NiC10)7
_symmetry_space_group_name_H-M   'P 1'
_cell_length_a   18.36122642
_cell_length_b   9.18968682
_cell_length_c   22.56140844
_cell_angle_alpha   90.07424893
_cell_angle_beta   89.74031677
_cell_angle_gamma   119.94469447
_symmetry_Int_Tables_number   1
_chemical_formula_structural   Cu5(NiC10)7
_chemical_formula_sum   'Cu15 Ni21 C210'
_cell_volume   3298.65021899
_cell_formula_units_Z   3
loop_
 _symmetry_equiv_pos_site_id
 _symmetry_equiv_pos_as_xyz
  1  'x, y, z'
loop_
 _atom_site_type_symbol
 _atom_site_label
 _atom_site_symmetry_multiplicity
 _atom_site_fract_x
 _atom_site_fract_y
 _atom_site_fract_z
 _atom_site_occupancy
  C  C0  1  0.80604760  0.98410786  0.25849344  1
  C  C1  1  0.18356360  0.35529937  0.25681098  1
  C  C2  1  0.69232046  0.36759016  0.25676187  1
  C  C3  1  0.99006513  0.64107466  0.24460406  1
  C  C4  1  0.50261570  0.64950774  0.25296713  1
  C  C5  1  0.30718913  0.62900022  0.74491304  1
  C  C6  1  0.00176147  0.35298369  0.74700486  1
  C  C7  1  0.49279566  0.34457583  0.73805172  1
  C  C8  1  0.19113883  0.01604564  0.75171451  1
  C  C9  1  0.68595090  0.01318370  0.75187132  1
  C  C10  1  0.14773071  0.33051685  0.58671780  1
  C  C11  1  0.65753300  0.33586385  0.58027119  1
  C  C12  1  0.33811758  0.99300179  0.57925500  1
  C  C13  1  0.83588564  0.98149166  0.57738841  1
  C  C14  1  0.15637055  0.98072825  0.08657471  1
  C  C15  1  0.64819735  0.96470771  0.09100390  1
  C  C16  1  0.33589988  0.68937342  0.08682958  1
  C  C17  1  0.83669577  0.68757190  0.08397441  1
  C  C18  1  0.48322262  0.67737404  0.92557541  1
  C  C19  1  0.97405005  0.66455374  0.92274691  1
  C  C20  1  0.35350987  0.04137684  0.91512527  1
  C  C21  1  0.84933691  0.03035289  0.90834729  1
  C  C22  1  0.16768250  0.28716438  0.91363417  1
  C  C23  1  0.67241110  0.29195647  0.90664075  1
  C  C24  1  0.47669064  0.28756912  0.42387502  1
  C  C25  1  0.97435955  0.27253623  0.42546221  1
  C  C26  1  0.17010737  0.05361601  0.40702759  1
  C  C27  1  0.67721913  0.04095603  0.41167617  1
  C  C28  1  0.35107112  0.66965204  0.40911709  1
  C  C29  1  0.85020584  0.67918257  0.41745152  1
  C  C30  1  0.99032283  0.99599471  0.49317205  1
  C  C31  1  0.50315541  0.00272115  0.49761002  1
  C  C32  1  0.99880621  0.99816203  0.00048189  1
  C  C33  1  0.49994193  0.00119774  0.00099201  1
  C  C34  1  0.32537668  0.31806034  0.82196921  1
  C  C35  1  0.82302940  0.33292646  0.83296573  1
  C  C36  1  0.32454292  0.31508489  0.33627866  1
  C  C37  1  0.82355274  0.31524664  0.33092314  1
  C  C38  1  0.16921635  0.67813266  0.17076383  1
  C  C39  1  0.66288717  0.66544862  0.17873153  1
  C  C40  1  0.16111212  0.65683160  0.67442497  1
  C  C41  1  0.66839176  0.65939091  0.66274107  1
  C  C42  1  0.99830009  0.99772898  0.35134277  1
  C  C43  1  0.49838171  0.99276404  0.34684938  1
  C  C44  1  0.99687964  0.00090141  0.84555171  1
  C  C45  1  0.50510848  0.00811937  0.84669680  1
  C  C46  1  0.33569790  0.32598580  0.68588727  1
  C  C47  1  0.83554879  0.34169406  0.18756816  1
  C  C48  1  0.33555423  0.33453897  0.99641582  1
  C  C49  1  0.83196904  0.33970240  0.98004279  1
  C  C50  1  0.33354797  0.32704360  0.47990940  1
  C  C51  1  0.83295900  0.32185357  0.48895527  1
  C  C52  1  0.67400954  0.68770438  0.31366078  1
  C  C53  1  0.16870571  0.66297598  0.81117934  1
  C  C54  1  0.99399041  0.00073887  0.64878160  1
  C  C55  1  0.50074749  0.01492720  0.64897607  1
  C  C56  1  0.00031318  0.98809323  0.14972176  1
  C  C57  1  0.49426318  0.98824253  0.15022578  1
  C  C58  1  0.83093145  0.33349391  0.68115375  1
  C  C59  1  0.33014206  0.32638052  0.18216661  1
  C  C60  1  0.16363381  0.66318440  0.02587124  1
  C  C61  1  0.66572528  0.67255324  0.01662844  1
  C  C62  1  0.16548044  0.65981700  0.51642037  1
  C  C63  1  0.67097661  0.67547674  0.52241397  1
  C  C64  1  0.17832211  0.68159451  0.31457282  1
  C  C65  1  0.67868194  0.67633772  0.81325927  1
  Ni  Ni66  1  0.14733739  0.99816124  0.25417841  1
  Ni  Ni67  1  0.64997251  0.00377804  0.25132792  1
  Ni  Ni68  1  0.35153798  0.69607469  0.25294396  1
  Ni  Ni69  1  0.84912958  0.69883698  0.25367180  1
  Ni  Ni70  1  0.15011813  0.29462263  0.75300901  1
  Ni  Ni71  1  0.64946524  0.30011303  0.75382640  1
  Ni  Ni72  1  0.34968990  0.99667232  0.75568874  1
  Ni  Ni73  1  0.85243557  0.00899743  0.75356717  1
  Ni  Ni74  1  0.47707473  0.33717519  0.58277039  1
  Ni  Ni75  1  0.98514226  0.34238829  0.58377444  1
  Ni  Ni76  1  0.68201453  0.03706823  0.58118513  1
  Ni  Ni77  1  0.83878134  0.62903450  0.57596164  1
  Ni  Ni78  1  0.48403536  0.62933756  0.08207227  1
  Ni  Ni79  1  0.97384992  0.61709248  0.08292118  1
  Ni  Ni80  1  0.33915094  0.04452756  0.07582715  1
  Ni  Ni81  1  0.18293380  0.32561328  0.07938747  1
  Ni  Ni82  1  0.82115006  0.67069755  0.91947837  1
  Ni  Ni83  1  0.66369546  0.96796824  0.91563506  1
  Ni  Ni84  1  0.32136977  0.97219635  0.41993124  1
  Ni  Ni85  1  0.81635642  0.97247108  0.41361170  1
  Ni  Ni86  1  0.16673314  0.36332982  0.41581709  1
  Cu  Cu87  1  0.99898982  0.29126173  0.25163668  1
  Cu  Cu88  1  0.50000202  0.29280381  0.25338700  1
  Cu  Cu89  1  0.00109970  0.70757255  0.75408463  1
  Cu  Cu90  1  0.49819968  0.70641751  0.75308154  1
  Cu  Cu91  1  0.18804913  0.04188545  0.58366843  1
  Cu  Cu92  1  0.33285018  0.62303348  0.58299857  1
  Cu  Cu93  1  0.83317097  0.04417334  0.08159014  1
  Cu  Cu94  1  0.68769725  0.33455059  0.08255326  1
  Cu  Cu95  1  0.31236504  0.66272065  0.91459167  1
  Cu  Cu96  1  0.02282553  0.37727263  0.91503057  1
  Cu  Cu97  1  0.51728854  0.37312596  0.91537177  1
  Cu  Cu98  1  0.16709003  0.95768167  0.91421777  1
  Cu  Cu99  1  0.66477967  0.37258988  0.41355158  1
  Cu  Cu100  1  0.01907140  0.66438942  0.41497117  1
  Cu  Cu101  1  0.52121333  0.66702585  0.41506183  1
  C  C102  1  0.10635019  0.03510187  0.31142725  1
  C  C103  1  0.60721781  0.04171350  0.30871373  1
  C  C104  1  0.40715531  0.78426532  0.31088914  1
  C  C105  1  0.91121498  0.79374295  0.30894917  1
  C  C106  1  0.48801158  0.19333795  0.30708435  1
  C  C107  1  0.99011760  0.19501919  0.30572005  1
  C  C108  1  0.10944914  0.17512109  0.81180607  1
  C  C109  1  0.61063904  0.18525154  0.81248190  1
  C  C110  1  0.48821206  0.78351994  0.80798187  1
  C  C111  1  0.99015142  0.78412373  0.80835827  1
  C  C112  1  0.40817334  0.02163798  0.81346039  1
  C  C113  1  0.90665170  0.03081637  0.81236147  1
  C  C114  1  0.39575575  0.96432796  0.69637768  1
  C  C115  1  0.89704072  0.98431010  0.69390382  1
  C  C116  1  0.08993146  0.19301695  0.69459081  1
  C  C117  1  0.58968169  0.20570676  0.69526999  1
  C  C118  1  0.01198094  0.81375314  0.70113734  1
  C  C119  1  0.51268271  0.81603911  0.70130834  1
  C  C120  1  0.39498550  0.80814571  0.19223520  1
  C  C121  1  0.89510804  0.82167090  0.19281736  1
  C  C122  1  0.01388573  0.21071205  0.19890765  1
  C  C123  1  0.50969411  0.20723886  0.19993250  1
  C  C124  1  0.09065900  0.97432258  0.19335138  1
  C  C125  1  0.59083092  0.98738552  0.19169703  1
  C  C126  1  0.43768425  0.35834662  0.64418241  1
  C  C127  1  0.94070809  0.35828388  0.64464134  1
  C  C128  1  0.23888736  0.12010549  0.63707075  1
  C  C129  1  0.74198093  0.12424256  0.64047550  1
  C  C130  1  0.32120730  0.52345020  0.63685623  1
  C  C131  1  0.82186970  0.50705783  0.63381733  1
  C  C132  1  0.43603981  0.51782073  0.14068833  1
  C  C133  1  0.93575930  0.51465864  0.14329666  1
  C  C134  1  0.31838624  0.13190305  0.13171898  1
  C  C135  1  0.82152952  0.12076441  0.13500356  1
  C  C136  1  0.24362847  0.35992996  0.13765974  1
  C  C137  1  0.73848784  0.35720652  0.13556615  1
  C  C138  1  0.22347417  0.29422025  0.02005076  1
  C  C139  1  0.72492727  0.30634729  0.02860397  1
  C  C140  1  0.42849903  0.55433609  0.02225189  1
  C  C141  1  0.92023342  0.53903972  0.02319097  1
  C  C142  1  0.34839905  0.14045948  0.01409330  1
  C  C143  1  0.83949673  0.13659579  0.02690073  1
  C  C144  1  0.22572147  0.14481317  0.53012180  1
  C  C145  1  0.72090238  0.15399596  0.52321329  1
  C  C146  1  0.33913452  0.54166846  0.52876670  1
  C  C147  1  0.84690148  0.54535395  0.51552599  1
  C  C148  1  0.41900568  0.29975596  0.52466254  1
  C  C149  1  0.92869497  0.30590523  0.52522261  1
  C  C150  1  0.27069374  0.68179890  0.96916721  1
  C  C151  1  0.77114056  0.69103370  0.97833894  1
  C  C152  1  0.07700854  0.46929868  0.96689938  1
  C  C153  1  0.57183762  0.46200583  0.96811506  1
  C  C154  1  0.16079253  0.85906584  0.96887229  1
  C  C155  1  0.65095423  0.84224561  0.97340871  1
  C  C156  1  0.27149499  0.85236346  0.47894395  1
  C  C157  1  0.76667114  0.85005744  0.47271656  1
  C  C158  1  0.15420402  0.46355180  0.47404269  1
  C  C159  1  0.65495208  0.45435585  0.46835671  1
  C  C160  1  0.07408863  0.68335028  0.46752391  1
  C  C161  1  0.57436860  0.68212718  0.46691501  1
  C  C162  1  0.06140927  0.64449254  0.36123434  1
  C  C163  1  0.55735412  0.63861570  0.36052034  1
  C  C164  1  0.25656922  0.86758308  0.36451178  1
  C  C165  1  0.75578379  0.88477269  0.35669630  1
  C  C166  1  0.17654986  0.48494479  0.35855216  1
  C  C167  1  0.66943292  0.47293857  0.36096640  1
  C  C168  1  0.06116856  0.47923154  0.86117015  1
  C  C169  1  0.55950443  0.47408533  0.86167826  1
  C  C170  1  0.17336303  0.86761429  0.86182957  1
  C  C171  1  0.67347537  0.86558575  0.85869689  1
  C  C172  1  0.26009338  0.64433149  0.86251351  1
  C  C173  1  0.75644162  0.64623257  0.86416318  1
  C  C174  1  0.01522328  0.82023557  0.41343374  1
  C  C175  1  0.51694925  0.82484180  0.41323231  1
  C  C176  1  0.41262675  0.98286325  0.41500333  1
  C  C177  1  0.90761940  0.97997517  0.41307397  1
  C  C178  1  0.08296542  0.18021468  0.41505070  1
  C  C179  1  0.58854345  0.20109721  0.41264047  1
  C  C180  1  0.01863693  0.21133989  0.91369660  1
  C  C181  1  0.50975240  0.20548011  0.91440999  1
  C  C182  1  0.08971529  0.97202394  0.91401166  1
  C  C183  1  0.57756812  0.97945938  0.91485752  1
  C  C184  1  0.39723025  0.81589034  0.91211507  1
  C  C185  1  0.91274751  0.84227770  0.91484362  1
  C  C186  1  0.48538505  0.15891528  0.58785628  1
  C  C187  1  0.99907605  0.17498792  0.58919527  1
  C  C188  1  0.10200304  0.01862237  0.58968013  1
  C  C189  1  0.58794008  0.01137302  0.59174194  1
  C  C190  1  0.40686924  0.79676899  0.58674556  1
  C  C191  1  0.91750892  0.82105666  0.58675638  1
  C  C192  1  0.49774615  0.82333323  0.08786133  1
  C  C193  1  0.98591160  0.81292519  0.08717393  1
  C  C194  1  0.41745932  0.01051194  0.08593612  1
  C  C195  1  0.90713482  0.01740070  0.08507446  1
  C  C196  1  0.08953906  0.16294614  0.08899330  1
  C  C197  1  0.60113662  0.18493119  0.08800628  1
  C  C198  1  0.34286930  0.16760965  0.74778537  1
  C  C199  1  0.84424534  0.17878606  0.74826115  1
  C  C200  1  0.24612784  0.32806280  0.74282818  1
  C  C201  1  0.74311133  0.32265329  0.74501166  1
  C  C202  1  0.42131794  0.53955969  0.74633614  1
  C  C203  1  0.92691251  0.53617088  0.74776890  1
  C  C204  1  0.34380274  0.51009544  0.24672130  1
  C  C205  1  0.84158249  0.51340716  0.24672564  1
  C  C206  1  0.42559936  0.31626683  0.24628986  1
  C  C207  1  0.92222808  0.30370080  0.24438905  1
  C  C208  1  0.24134371  0.16359701  0.24475210  1
  C  C209  1  0.74558479  0.16142138  0.24155910  1
  C  C210  1  0.32115767  0.51020380  0.91815354  1
  C  C211  1  0.82553965  0.49810517  0.91893936  1
  C  C212  1  0.43438315  0.36225504  0.91987954  1
  C  C213  1  0.93727330  0.35350308  0.92231677  1
  C  C214  1  0.24347064  0.12746320  0.91558401  1
  C  C215  1  0.75105836  0.14677286  0.92172271  1
  C  C216  1  0.32552371  0.15301955  0.41940673  1
  C  C217  1  0.82701747  0.16141212  0.42028672  1
  C  C218  1  0.25500429  0.36238099  0.42162018  1
  C  C219  1  0.74219953  0.36055660  0.41572481  1
  C  C220  1  0.43483737  0.52068132  0.42259049  1
  C  C221  1  0.93635803  0.51410074  0.41948968  1
  C  C222  1  0.17947359  0.50221337  0.07615861  1
  C  C223  1  0.68055223  0.48936660  0.07694019  1
  C  C224  1  0.07461982  0.66449037  0.07596545  1
  C  C225  1  0.58062157  0.65637020  0.08085610  1
  C  C226  1  0.25281571  0.85166195  0.07452677  1
  C  C227  1  0.75522631  0.86816619  0.07872363  1
  C  C228  1  0.18142565  0.87289726  0.57821890  1
  C  C229  1  0.67795695  0.85404789  0.57897189  1
  C  C230  1  0.25517993  0.64343329  0.58024251  1
  C  C231  1  0.75189887  0.64669864  0.57674669  1
  C  C232  1  0.08242912  0.50722305  0.58235871  1
  C  C233  1  0.57612222  0.48634065  0.57482671  1
  C  C234  1  0.14686124  0.81800098  0.25568695  1
  C  C235  1  0.64810207  0.82299415  0.25196596  1
  C  C236  1  0.25440370  0.66473877  0.25177379  1
  C  C237  1  0.75449737  0.67567831  0.25393548  1
  C  C238  1  0.07425352  0.46438512  0.25449811  1
  C  C239  1  0.57675006  0.46076763  0.25618740  1
  C  C240  1  0.15124675  0.47563069  0.75506030  1
  C  C241  1  0.64709966  0.47737346  0.75549651  1
  C  C242  1  0.07802291  0.69267776  0.75716736  1
  C  C243  1  0.57314110  0.68297587  0.75661473  1
  C  C244  1  0.25450142  0.83122951  0.75603760  1
  C  C245  1  0.75522013  0.84589806  0.75242134  1
