# generated using pymatgen
data_Cu3NiC14
_symmetry_space_group_name_H-M   'P 1'
_cell_length_a   3.96596540
_cell_length_b   3.94656314
_cell_length_c   16.79975510
_cell_angle_alpha   103.61372751
_cell_angle_beta   93.69549367
_cell_angle_gamma   90.03467026
_symmetry_Int_Tables_number   1
_chemical_formula_structural   Cu3NiC14
_chemical_formula_sum   'Cu3 Ni1 C14'
_cell_volume   254.99587089
_cell_formula_units_Z   1
loop_
 _symmetry_equiv_pos_site_id
 _symmetry_equiv_pos_as_xyz
  1  'x, y, z'
loop_
 _atom_site_type_symbol
 _atom_site_label
 _atom_site_symmetry_multiplicity
 _atom_site_fract_x
 _atom_site_fract_y
 _atom_site_fract_z
 _atom_site_occupancy
  C  C0  1  0.62413397  0.48790498  0.17508959  1
  C  C1  1  0.55621989  0.24236091  0.93276331  1
  C  C2  1  0.22344598  0.38073300  0.57290747  1
  C  C3  1  0.68462351  0.71639862  0.40526792  1
  Ni  Ni4  1  0.96692491  0.60851050  0.80112619  1
  Cu  Cu5  1  0.09129751  0.86346675  0.05213152  1
  Cu  Cu6  1  0.73369666  0.98488286  0.67755907  1
  Cu  Cu7  1  0.15487049  0.10983369  0.29818633  1
  C  C8  1  0.15093735  0.60019722  0.28928339  1
  C  C9  1  0.74313357  0.86300518  0.55422958  1
  C  C10  1  0.18444949  0.22319014  0.41402364  1
  C  C11  1  0.57868420  0.85094929  0.04102646  1
  C  C12  1  0.07800955  0.34644493  0.03632407  1
  C  C13  1  0.11270513  0.97679799  0.16684112  1
  C  C14  1  0.83741497  0.10804672  0.80039732  1
  C  C15  1  0.65065214  0.10175245  0.29032285  1
  C  C16  1  0.27680315  0.97966971  0.67215121  1
  C  C17  1  0.78533053  0.48918808  0.68147996  1
