# generated using pymatgen
data_Cu2NiC4
_symmetry_space_group_name_H-M   'P 1'
_cell_length_a   14.38321751
_cell_length_b   14.38321751
_cell_length_c   14.38321694
_cell_angle_alpha   17.53571248
_cell_angle_beta   17.53571248
_cell_angle_gamma   17.53571241
_symmetry_Int_Tables_number   1
_chemical_formula_structural   Cu2NiC4
_chemical_formula_sum   'Cu2 Ni1 C4'
_cell_volume   235.76205463
_cell_formula_units_Z   1
loop_
 _symmetry_equiv_pos_site_id
 _symmetry_equiv_pos_as_xyz
  1  'x, y, z'
loop_
 _atom_site_type_symbol
 _atom_site_label
 _atom_site_symmetry_multiplicity
 _atom_site_fract_x
 _atom_site_fract_y
 _atom_site_fract_z
 _atom_site_occupancy
  Ni  Ni0  1  0.00000000  0.00000000  0.00000000  1
  Cu  Cu1  1  0.42505000  0.42505000  0.42505000  1
  Cu  Cu2  1  0.57495000  0.57495000  0.57495000  1
  C  C3  1  0.13095200  0.13095200  0.13095200  1
  C  C4  1  0.86904800  0.86904800  0.86904800  1
  C  C5  1  0.28832500  0.28832500  0.28832500  1
  C  C6  1  0.71167500  0.71167500  0.71167500  1
