# generated using pymatgen
data_Cu4NiC15
_symmetry_space_group_name_H-M   'P 1'
_cell_length_a   3.89129224
_cell_length_b   7.78557438
_cell_length_c   8.94263266
_cell_angle_alpha   90.00000000
_cell_angle_beta   90.00000000
_cell_angle_gamma   90.00000000
_symmetry_Int_Tables_number   1
_chemical_formula_structural   Cu4NiC15
_chemical_formula_sum   'Cu4 Ni1 C15'
_cell_volume   270.92550873
_cell_formula_units_Z   1
loop_
 _symmetry_equiv_pos_site_id
 _symmetry_equiv_pos_as_xyz
  1  'x, y, z'
loop_
 _atom_site_type_symbol
 _atom_site_label
 _atom_site_symmetry_multiplicity
 _atom_site_fract_x
 _atom_site_fract_y
 _atom_site_fract_z
 _atom_site_occupancy
  C  C0  1  0.50000000  0.05040881  0.70682428  1
  C  C1  1  0.50000000  0.05040881  0.29317572  1
  C  C2  1  0.50000000  0.53532584  0.28519554  1
  C  C3  1  0.50000000  0.53532584  0.71480446  1
  Ni  Ni4  1  0.50000000  0.90318497  -0.00000000  1
  Cu  Cu5  1  -0.00000000  0.22019779  -0.00000000  1
  Cu  Cu6  1  -0.00000000  0.67451991  -0.00000000  1
  Cu  Cu7  1  -0.00000000  0.76974893  0.49999900  1
  Cu  Cu8  1  -0.00000000  0.28394821  0.49999900  1
  C  C9  1  -0.00000000  0.31377156  0.80486599  1
  C  C10  1  0.00000000  0.70902929  0.23671449  1
  C  C11  1  -0.00000000  0.31377156  0.19513501  1
  C  C12  1  0.00000000  0.70902929  0.76328651  1
  C  C13  1  0.50000000  0.29790888  0.49999900  1
  C  C14  1  0.50000000  0.75820354  0.49999900  1
  C  C15  1  0.50000000  0.16888786  -0.00000000  1
  C  C16  1  0.50000000  0.64344652  -0.00000000  1
  C  C17  1  -0.00000000  0.95511879  -0.00000000  1
  C  C18  1  -0.00000000  0.51713089  0.49999900  1
  C  C19  1  -0.00000000  0.04063571  0.49999900  1
