# generated using pymatgen
data_CuNi13C6
_symmetry_space_group_name_H-M   'P 1'
_cell_length_a   13.06307124
_cell_length_b   13.06307124
_cell_length_c   13.06307124
_cell_angle_alpha   144.02544714
_cell_angle_beta   144.02544714
_cell_angle_gamma   51.78924171
_symmetry_Int_Tables_number   1
_chemical_formula_structural   CuNi13C6
_chemical_formula_sum   'Cu2 Ni26 C12'
_cell_volume   764.91926441
_cell_formula_units_Z   2
loop_
 _symmetry_equiv_pos_site_id
 _symmetry_equiv_pos_as_xyz
  1  'x, y, z'
loop_
 _atom_site_type_symbol
 _atom_site_label
 _atom_site_symmetry_multiplicity
 _atom_site_fract_x
 _atom_site_fract_y
 _atom_site_fract_z
 _atom_site_occupancy
  C  C0  1  0.47952300  0.65130000  0.50000000  1
  C  C1  1  0.39565100  0.39565100  0.00000000  1
  C  C2  1  0.89565100  0.89565100  0.00000000  1
  C  C3  1  0.60434900  0.60434900  0.00000000  1
  C  C4  1  0.52047700  0.34870000  0.50000000  1
  C  C5  1  0.10434900  0.10434900  0.00000000  1
  C  C6  1  0.15130000  0.97952300  0.50000000  1
  C  C7  1  0.97952300  0.47952300  0.82822300  1
  C  C8  1  0.65130000  0.15130000  0.17177700  1
  C  C9  1  0.34870000  0.84870000  0.82822300  1
  C  C10  1  0.02047700  0.52047700  0.17177700  1
  C  C11  1  0.84870000  0.02047700  0.50000000  1
  Ni  Ni12  1  0.20643800  0.47988700  0.50000000  1
  Ni  Ni13  1  0.02011300  0.29356200  0.50000000  1
  Ni  Ni14  1  0.00000000  0.50000000  0.50000000  1
  Ni  Ni15  1  0.50000000  0.00000000  0.50000000  1
  Ni  Ni16  1  0.43360600  0.70957100  0.14317700  1
  Ni  Ni17  1  0.20957100  0.93360600  0.14317700  1
  Ni  Ni18  1  0.79042900  0.06639400  0.85682300  1
  Ni  Ni19  1  0.06639400  0.20957100  0.27596600  1
  Ni  Ni20  1  0.93360600  0.79042900  0.72403400  1
  Ni  Ni21  1  0.70957100  0.56639400  0.27596600  1
  Ni  Ni22  1  0.29042900  0.43360600  0.72403400  1
  Ni  Ni23  1  0.56639400  0.29042900  0.85682300  1
  Ni  Ni24  1  0.73727500  0.87946200  0.50000000  1
  Ni  Ni25  1  0.79356200  0.52011300  0.50000000  1
  Ni  Ni26  1  0.23727500  0.73727500  0.85781300  1
  Ni  Ni27  1  0.76272500  0.26272500  0.14218700  1
  Ni  Ni28  1  0.12053800  0.62053800  0.85781300  1
  Ni  Ni29  1  0.26272500  0.12053800  0.50000000  1
  Ni  Ni30  1  0.62053800  0.76272500  0.50000000  1
  Ni  Ni31  1  0.37946200  0.23727500  0.50000000  1
  Ni  Ni32  1  0.87946200  0.37946200  0.14218700  1
  Ni  Ni33  1  0.47988700  0.97988700  0.27345000  1
  Ni  Ni34  1  0.70643800  0.20643800  0.72655000  1
  Ni  Ni35  1  0.29356200  0.79356200  0.27345000  1
  Ni  Ni36  1  0.52011300  0.02011300  0.72655000  1
  Ni  Ni37  1  0.97988700  0.70643800  0.50000000  1
  Cu  Cu38  1  0.75000000  0.75000000  0.00000000  1
  Cu  Cu39  1  0.25000000  0.25000000  0.00000000  1
