# generated using pymatgen
data_Cu2NiC10
_symmetry_space_group_name_H-M   'P 1'
_cell_length_a   5.04629021
_cell_length_b   5.61018457
_cell_length_c   4.73999323
_cell_angle_alpha   89.72175224
_cell_angle_beta   85.68004413
_cell_angle_gamma   90.37989411
_symmetry_Int_Tables_number   1
_chemical_formula_structural   Cu2NiC10
_chemical_formula_sum   'Cu2 Ni1 C10'
_cell_volume   133.80602766
_cell_formula_units_Z   1
loop_
 _symmetry_equiv_pos_site_id
 _symmetry_equiv_pos_as_xyz
  1  'x, y, z'
loop_
 _atom_site_type_symbol
 _atom_site_label
 _atom_site_symmetry_multiplicity
 _atom_site_fract_x
 _atom_site_fract_y
 _atom_site_fract_z
 _atom_site_occupancy
  Ni  Ni0  1  0.74893100  0.60989100  0.00295500  1
  C  C1  1  0.25160000  0.87348500  0.00300600  1
  C  C2  1  0.74898500  0.13325700  0.00283300  1
  Cu  Cu3  1  0.24250900  0.35436500  0.49889800  1
  Cu  Cu4  1  0.74879300  0.62854700  0.50382200  1
  C  C5  1  0.09900100  0.13559700  0.75936700  1
  C  C6  1  0.06340900  0.61771700  0.71077200  1
  C  C7  1  0.43291000  0.61109300  0.28881800  1
  C  C8  1  0.40702100  0.12849000  0.22803800  1
  C  C9  1  0.59335800  0.86575500  0.77433100  1
  C  C10  1  0.59467000  0.38944800  0.73235100  1
  C  C11  1  0.91102600  0.39165200  0.26913800  1
  C  C12  1  0.90778700  0.86784700  0.22567100  1
