# generated using pymatgen
data_CuNi3C16
_symmetry_space_group_name_H-M   'P 1'
_cell_length_a   9.36235089
_cell_length_b   9.36085257
_cell_length_c   22.85242433
_cell_angle_alpha   90.69437324
_cell_angle_beta   90.00000000
_cell_angle_gamma   120.00529501
_symmetry_Int_Tables_number   1
_chemical_formula_structural   CuNi3C16
_chemical_formula_sum   'Cu6 Ni18 C96'
_cell_volume   1734.19338373
_cell_formula_units_Z   6
loop_
 _symmetry_equiv_pos_site_id
 _symmetry_equiv_pos_as_xyz
  1  'x, y, z'
loop_
 _atom_site_type_symbol
 _atom_site_label
 _atom_site_symmetry_multiplicity
 _atom_site_fract_x
 _atom_site_fract_y
 _atom_site_fract_z
 _atom_site_occupancy
  Ni  Ni0  1  0.63247800  0.99513420  0.25690603  1
  Ni  Ni1  1  0.00963413  0.64556493  0.23368569  1
  Ni  Ni2  1  0.63593080  0.64556493  0.73368569  1
  Ni  Ni3  1  0.36265620  0.99513420  0.75690603  1
  Ni  Ni4  1  0.32800476  0.35293035  0.58757711  1
  Ni  Ni5  1  0.65693026  0.94617027  0.57737835  1
  Ni  Ni6  1  0.28924101  0.94617027  0.07737835  1
  Ni  Ni7  1  0.02492659  0.35293035  0.08757711  1
  Ni  Ni8  1  0.99110151  0.68568912  0.92979822  1
  Ni  Ni9  1  0.68374883  0.02693804  0.90160104  1
  Ni  Ni10  1  0.34318821  0.02693804  0.40160104  1
  Ni  Ni11  1  0.69458662  0.68568912  0.42979822  1
  Ni  Ni12  1  0.96732140  0.98858928  0.49944531  1
  Ni  Ni13  1  0.02126788  0.98858928  0.99944531  1
  Ni  Ni14  1  0.66046028  0.29994725  0.83382123  1
  Ni  Ni15  1  0.63948797  0.29994725  0.33382123  1
  Ni  Ni16  1  0.32245957  0.66630267  0.16562459  1
  Ni  Ni17  1  0.34384210  0.66630267  0.66562459  1
  Cu  Cu18  1  0.00685605  0.01054509  0.35014788  1
  Cu  Cu19  1  0.00368904  0.01054509  0.85014788  1
  Cu  Cu20  1  0.67961201  0.33279013  0.68420477  1
  Cu  Cu21  1  0.65317912  0.33279013  0.18420477  1
  Cu  Cu22  1  0.33887614  0.67164875  0.01646041  1
  Cu  Cu23  1  0.33277161  0.67164875  0.51646041  1
  C  C24  1  0.97664632  0.98224938  0.65181534  1
  C  C25  1  0.00560307  0.98224938  0.15181534  1
  C  C26  1  0.65971377  0.33981730  0.98621640  1
  C  C27  1  0.68010453  0.33981730  0.48621640  1
  C  C28  1  0.33849558  0.68363516  0.32041074  1
  C  C29  1  0.34513858  0.68363516  0.82041074  1
  C  C30  1  0.30436796  0.98975131  0.25372386  1
  C  C31  1  0.68538335  0.98975131  0.75372386  1
  C  C32  1  0.67046287  0.63461226  0.58483064  1
  C  C33  1  0.96415039  0.63461226  0.08483064  1
  C  C34  1  0.34140153  0.98151314  0.92179191  1
  C  C35  1  0.64011061  0.98151314  0.42179191  1
  C  C36  1  0.69528940  0.70630649  0.25263893  1
  C  C37  1  0.00759051  0.30380539  0.24627040  1
  C  C38  1  0.29621487  0.30380539  0.74627040  1
  C  C39  1  0.01101709  0.70630649  0.75263893  1
  C  C40  1  0.97196553  0.32258636  0.58402344  1
  C  C41  1  0.35228506  0.03655802  0.58490916  1
  C  C42  1  0.68427396  0.03655802  0.08490916  1
  C  C43  1  0.35062183  0.32258636  0.08402344  1
  C  C44  1  0.63438662  0.65746532  0.91358094  1
  C  C45  1  0.03237771  0.37593597  0.91649422  1
  C  C46  1  0.34355726  0.37593597  0.41649422  1
  C  C47  1  0.02307769  0.65746532  0.41358094  1
  C  C48  1  0.21630314  0.99592795  0.31330369  1
  C  C49  1  0.78539810  0.78579556  0.30713535  1
  C  C50  1  0.98361529  0.19612154  0.29554132  1
  C  C51  1  0.21250625  0.19612154  0.79554132  1
  C  C52  1  0.00039747  0.78579556  0.80713535  1
  C  C53  1  0.77962481  0.99592795  0.81330369  1
  C  C54  1  0.77557163  0.96474351  0.69428345  1
  C  C55  1  0.20639569  0.22567020  0.68983074  1
  C  C56  1  0.04472272  0.81941863  0.70163219  1
  C  C57  1  0.77469591  0.81941863  0.20163219  1
  C  C58  1  0.01927451  0.22567020  0.18983074  1
  C  C59  1  0.18917189  0.96474351  0.19428345  1
  C  C60  1  0.89115928  0.33571306  0.63671594  1
  C  C61  1  0.45754592  0.11424217  0.63727825  1
  C  C62  1  0.65745745  0.53256216  0.64284596  1
  C  C63  1  0.87510571  0.53256216  0.14284596  1
  C  C64  1  0.65669725  0.11424217  0.13727825  1
  C  C65  1  0.44455478  0.33571306  0.13671594  1
  C  C66  1  0.43015327  0.29751032  0.03095004  1
  C  C67  1  0.86086372  0.54031864  0.02275719  1
  C  C68  1  0.70231223  0.13566632  0.03132828  1
  C  C69  1  0.43335509  0.13566632  0.53132828  1
  C  C70  1  0.67945591  0.54031864  0.52275719  1
  C  C71  1  0.86735806  0.29751032  0.53095004  1
  C  C72  1  0.54049460  0.66262511  0.96385718  1
  C  C73  1  0.11699109  0.44917328  0.97229481  1
  C  C74  1  0.32416152  0.87425811  0.97910668  1
  C  C75  1  0.55009559  0.87425811  0.47910668  1
  C  C76  1  0.33218119  0.44917328  0.47229481  1
  C  C77  1  0.12212952  0.66262511  0.46385718  1
  C  C78  1  0.09691468  0.63793543  0.35765481  1
  C  C79  1  0.52203167  0.89548856  0.36145824  1
  C  C80  1  0.34179530  0.47550063  0.36581581  1
  C  C81  1  0.13370434  0.47550063  0.86581581  1
  C  C82  1  0.37345589  0.89548856  0.86145824  1
  C  C83  1  0.54101975  0.63793543  0.85765481  1
  C  C84  1  0.01325393  0.81156078  0.41386535  1
  C  C85  1  0.81677717  0.98906889  0.41654119  1
  C  C86  1  0.20785505  0.20284278  0.41299026  1
  C  C87  1  0.99498773  0.20284278  0.91299026  1
  C  C88  1  0.17229172  0.98906889  0.91654119  1
  C  C89  1  0.79830684  0.81156078  0.91386535  1
  C  C90  1  0.99160387  0.17217390  0.58575720  1
  C  C91  1  0.19288428  0.03706609  0.59007412  1
  C  C92  1  0.83395640  0.82524599  0.58219486  1
  C  C93  1  0.99128958  0.82524599  0.08219486  1
  C  C94  1  0.84418181  0.03706609  0.09007412  1
  C  C95  1  0.18057003  0.17217390  0.08575720  1
  C  C96  1  0.64912160  0.14268151  0.75055705  1
  C  C97  1  0.46718717  0.33024375  0.74422634  1
  C  C98  1  0.85675352  0.54788996  0.74576836  1
  C  C99  1  0.69113745  0.54788996  0.24576836  1
  C  C100  1  0.86305757  0.33024375  0.24422634  1
  C  C101  1  0.49356091  0.14268151  0.25055705  1
  C  C102  1  0.66524634  0.51553697  0.91589519  1
  C  C103  1  0.87179448  0.37619512  0.91299731  1
  C  C104  1  0.52164507  0.16287107  0.92307941  1
  C  C105  1  0.64122700  0.16287107  0.42307941  1
  C  C106  1  0.50440164  0.37619512  0.41299731  1
  C  C107  1  0.85029163  0.51553697  0.41589519  1
  C  C108  1  0.32778864  0.46705547  0.07920117  1
  C  C109  1  0.14843326  0.65075524  0.08369999  1
  C  C110  1  0.54326682  0.86654441  0.07970933  1
  C  C111  1  0.32327659  0.86654441  0.57970933  1
  C  C112  1  0.50232097  0.65075524  0.58369999  1
  C  C113  1  0.13926583  0.46705547  0.57920117  1
  C  C114  1  0.31210980  0.81176174  0.25000246  1
  C  C115  1  0.52392165  0.68104289  0.25430808  1
  C  C116  1  0.16162634  0.46900608  0.25198579  1
  C  C117  1  0.30737874  0.46900608  0.75198579  1
  C  C118  1  0.15712024  0.68104289  0.75430808  1
  C  C119  1  0.49965095  0.81176174  0.75000246  1
