# generated using pymatgen
data_CuNi5C33
_symmetry_space_group_name_H-M   'P 1'
_cell_length_a   18.21549417
_cell_length_b   9.10732847
_cell_length_c   22.84550133
_cell_angle_alpha   89.98117914
_cell_angle_beta   90.14206362
_cell_angle_gamma   120.00486815
_symmetry_Int_Tables_number   1
_chemical_formula_structural   CuNi5C33
_chemical_formula_sum   'Cu6 Ni30 C198'
_cell_volume   3282.01378648
_cell_formula_units_Z   6
loop_
 _symmetry_equiv_pos_site_id
 _symmetry_equiv_pos_as_xyz
  1  'x, y, z'
loop_
 _atom_site_type_symbol
 _atom_site_label
 _atom_site_symmetry_multiplicity
 _atom_site_fract_x
 _atom_site_fract_y
 _atom_site_fract_z
 _atom_site_occupancy
  Ni  Ni0  1  0.31791712  0.98871892  0.25264853  1
  Ni  Ni1  1  0.81958895  0.98959254  0.25243502  1
  Ni  Ni2  1  0.81759429  0.64250180  0.74759774  1
  Ni  Ni3  1  0.18326454  0.98453476  0.74925191  1
  Ni  Ni4  1  0.67958071  0.00105454  0.74911873  1
  Ni  Ni5  1  0.01903717  0.71191058  0.58480065  1
  Ni  Ni6  1  0.83440389  0.96189239  0.58430116  1
  Ni  Ni7  1  0.64752304  0.96895440  0.08224404  1
  Ni  Ni8  1  0.33623410  0.70991991  0.08580860  1
  Ni  Ni9  1  0.83786943  0.71104903  0.08763724  1
  Ni  Ni10  1  0.01905703  0.32535259  0.08630113  1
  Ni  Ni11  1  0.51526774  0.32244180  0.08643650  1
  Ni  Ni12  1  0.98743737  0.65753508  0.91460101  1
  Ni  Ni13  1  0.34690144  0.03032252  0.91398530  1
  Ni  Ni14  1  0.48684090  0.31896036  0.41606793  1
  Ni  Ni15  1  0.98824995  0.32010749  0.41590445  1
  Ni  Ni16  1  0.34139945  0.65726075  0.41632353  1
  Ni  Ni17  1  0.84265025  0.65807241  0.41607388  1
  Ni  Ni18  1  0.01211135  0.01237129  0.50428374  1
  Ni  Ni19  1  0.50603767  0.99974764  0.50544180  1
  Ni  Ni20  1  0.00825801  0.01243821  0.00364320  1
  Ni  Ni21  1  0.50301424  0.99862499  0.99831438  1
  Ni  Ni22  1  0.33811839  0.35572338  0.83364027  1
  Ni  Ni23  1  0.83685094  0.32589173  0.83343164  1
  Ni  Ni24  1  0.33036166  0.33612511  0.33326540  1
  Ni  Ni25  1  0.83135543  0.33793756  0.33306378  1
  Ni  Ni26  1  0.16187234  0.65067972  0.17258271  1
  Ni  Ni27  1  0.66307101  0.64120624  0.17517676  1
  Ni  Ni28  1  0.17276451  0.66994113  0.66950791  1
  Ni  Ni29  1  0.65682791  0.64827093  0.66373259  1
  Cu  Cu30  1  0.99929788  0.00250231  0.64464065  1
  Cu  Cu31  1  0.00414450  0.00066254  0.14411338  1
  Cu  Cu32  1  0.49814083  0.00228015  0.14618795  1
  Cu  Cu33  1  0.16318884  0.65387689  0.31902167  1
  Cu  Cu34  1  0.66381152  0.65530401  0.31868742  1
  Cu  Cu35  1  0.17012645  0.66855609  0.81715543  1
  C  C36  1  0.99429172  0.99668096  0.35538460  1
  C  C37  1  0.49336584  0.99694962  0.35508272  1
  C  C38  1  0.99220815  0.99274391  0.85676577  1
  C  C39  1  0.49990493  0.99817706  0.85421833  1
  C  C40  1  0.50011438  0.00150466  0.64507020  1
  C  C41  1  0.34139089  0.33655291  0.68441109  1
  C  C42  1  0.83455947  0.33659906  0.68759597  1
  C  C43  1  0.33858234  0.34437897  0.18589239  1
  C  C44  1  0.84016761  0.34718424  0.18602389  1
  C  C45  1  0.33403156  0.33820742  0.97848539  1
  C  C46  1  0.82956746  0.32385101  0.97630237  1
  C  C47  1  0.33429064  0.33430098  0.48398818  1
  C  C48  1  0.82899503  0.32668062  0.48244933  1
  C  C49  1  0.16715052  0.66912657  0.01915767  1
  C  C50  1  0.66713417  0.66664509  0.01879403  1
  C  C51  1  0.16978045  0.66828785  0.52158301  1
  C  C52  1  0.66237678  0.66195515  0.52084671  1
  C  C53  1  0.66108737  0.66148462  0.81333922  1
  C  C54  1  0.35137444  0.69835836  0.24828975  1
  C  C55  1  0.85283961  0.70238469  0.24746318  1
  C  C56  1  0.99833961  0.29612285  0.24707310  1
  C  C57  1  0.49782537  0.29891072  0.24777822  1
  C  C58  1  0.64178146  0.28814814  0.74954032  1
  C  C59  1  0.99927731  0.70326791  0.74915346  1
  C  C60  1  0.49650070  0.71149208  0.74973523  1
  C  C61  1  0.35774135  0.00468409  0.74852553  1
  C  C62  1  0.85145788  0.00129703  0.75004666  1
  C  C63  1  0.48109303  0.33226318  0.58209046  1
  C  C64  1  0.97966457  0.34236423  0.58217404  1
  C  C65  1  0.19191587  0.04194133  0.58394783  1
  C  C66  1  0.68724122  0.04121802  0.58545136  1
  C  C67  1  0.33348187  0.62214677  0.58498234  1
  C  C68  1  0.82737972  0.61580746  0.58264406  1
  C  C69  1  0.48104720  0.61867492  0.08131089  1
  C  C70  1  0.97886073  0.61687202  0.07791761  1
  C  C71  1  0.32753971  0.04377813  0.08181894  1
  C  C72  1  0.82908282  0.04410747  0.08312055  1
  C  C73  1  0.19258184  0.33986857  0.08103455  1
  C  C74  1  0.69336891  0.34088186  0.08135795  1
  C  C75  1  0.31635467  0.66836694  0.91791087  1
  C  C76  1  0.80783750  0.66087898  0.91542034  1
  C  C77  1  0.02051543  0.37138632  0.91796486  1
  C  C78  1  0.52159855  0.37455045  0.91720929  1
  C  C79  1  0.16635553  0.96478679  0.91614509  1
  C  C80  1  0.66431981  0.95279588  0.91598047  1
  C  C81  1  0.31117790  0.96609807  0.41574462  1
  C  C82  1  0.81081098  0.96162554  0.41680787  1
  C  C83  1  0.16729726  0.36799369  0.41957490  1
  C  C84  1  0.66587648  0.36769436  0.41864820  1
  C  C85  1  0.01864266  0.66806147  0.42049253  1
  C  C86  1  0.51881296  0.67036157  0.41866617  1
  C  C87  1  0.14926718  0.00865689  0.25200491  1
  C  C88  1  0.64879902  0.00858629  0.25065900  1
  C  C89  1  0.14819217  0.28706522  0.75164420  1
  C  C90  1  0.10312076  0.02469650  0.30421386  1
  C  C91  1  0.60144056  0.02313920  0.30137207  1
  C  C92  1  0.41456201  0.80530805  0.30693220  1
  C  C93  1  0.91500060  0.80600213  0.30672028  1
  C  C94  1  0.48792920  0.16783282  0.30525279  1
  C  C95  1  0.98751139  0.16688869  0.30549916  1
  C  C96  1  0.10246744  0.17677956  0.80362560  1
  C  C97  1  0.59673548  0.16313653  0.80615579  1
  C  C98  1  0.48547232  0.80651547  0.80755787  1
  C  C99  1  0.98633400  0.80718130  0.80689272  1
  C  C100  1  0.41443566  0.02586434  0.80863380  1
  C  C101  1  0.91632443  0.02483992  0.80550259  1
  C  C102  1  0.41221149  0.99176755  0.69362041  1
  C  C103  1  0.88127125  0.95137729  0.69090064  1
  C  C104  1  0.10014018  0.21192076  0.69775859  1
  C  C105  1  0.58532849  0.19564620  0.69171468  1
  C  C106  1  0.01077389  0.81068480  0.69059891  1
  C  C107  1  0.51737582  0.83888339  0.69390597  1
  C  C108  1  0.39370423  0.79949206  0.18857867  1
  C  C109  1  0.89486437  0.80455515  0.18824144  1
  C  C110  1  0.00548094  0.21100218  0.18742685  1
  C  C111  1  0.50772661  0.21872099  0.18751806  1
  C  C112  1  0.10193646  0.98683993  0.19796713  1
  C  C113  1  0.60376030  0.98932188  0.19464256  1
  C  C114  1  0.43254661  0.36018037  0.63898698  1
  C  C115  1  0.92848078  0.36414691  0.63971473  1
  C  C116  1  0.24849381  0.13797885  0.64361624  1
  C  C117  1  0.74878622  0.13296593  0.64332242  1
  C  C118  1  0.32084936  0.49628582  0.64067488  1
  C  C119  1  0.81803397  0.50121151  0.64190584  1
  C  C120  1  0.43430230  0.49813402  0.14035705  1
  C  C121  1  0.93186260  0.49388817  0.13768381  1
  C  C122  1  0.31860172  0.13797711  0.14162619  1
  C  C123  1  0.81352640  0.13238443  0.14207896  1
  C  C124  1  0.25347472  0.36419499  0.13934899  1
  C  C125  1  0.75417734  0.36755462  0.13925849  1
  C  C126  1  0.24466235  0.32569861  0.02594678  1
  C  C127  1  0.74186160  0.32192469  0.02467692  1
  C  C128  1  0.42040755  0.51671810  0.02711929  1
  C  C129  1  0.91838080  0.51607815  0.02216874  1
  C  C130  1  0.34195025  0.16411181  0.02528727  1
  C  C131  1  0.83625566  0.16411829  0.02795492  1
  C  C132  1  0.24636006  0.16560613  0.53006135  1
  C  C133  1  0.73715203  0.15932594  0.52912925  1
  C  C134  1  0.34719747  0.53333148  0.52682728  1
  C  C135  1  0.83692086  0.51553552  0.52706660  1
  C  C136  1  0.42512005  0.31357980  0.52427806  1
  C  C137  1  0.92076325  0.32540392  0.52575170  1
  C  C138  1  0.26672203  0.69979276  0.97460144  1
  C  C139  1  0.76426177  0.69127029  0.97395978  1
  C  C140  1  0.08176521  0.46521251  0.97621231  1
  C  C141  1  0.58169320  0.47060915  0.97521655  1
  C  C142  1  0.14930541  0.82654508  0.97023899  1
  C  C143  1  0.65350532  0.83511866  0.97460552  1
  C  C144  1  0.26263628  0.82782878  0.46934843  1
  C  C145  1  0.76466131  0.83078661  0.47255280  1
  C  C146  1  0.14795084  0.46634236  0.47392827  1
  C  C147  1  0.64783540  0.46735508  0.47328137  1
  C  C148  1  0.08124432  0.69610603  0.47736399  1
  C  C149  1  0.58274189  0.69664909  0.47470054  1
  C  C150  1  0.04888696  0.60589786  0.36512924  1
  C  C151  1  0.54913680  0.60780961  0.36346295  1
  C  C152  1  0.26442201  0.90509189  0.35422812  1
  C  C153  1  0.76339527  0.90175436  0.35546583  1
  C  C154  1  0.19844046  0.48967292  0.36350604  1
  C  C155  1  0.69768948  0.49023128  0.36288938  1
  C  C156  1  0.05282766  0.49666653  0.86336715  1
  C  C157  1  0.57071632  0.49883767  0.86142653  1
  C  C158  1  0.19261435  0.90651055  0.85719982  1
  C  C159  1  0.67634737  0.85745114  0.85912667  1
  C  C160  1  0.26184469  0.62534231  0.85998420  1
  C  C161  1  0.75040115  0.64127910  0.85795126  1
  C  C162  1  0.00757631  0.83698004  0.41002020  1
  C  C163  1  0.50811969  0.83919080  0.41004322  1
  C  C164  1  0.40716307  0.97656302  0.41053714  1
  C  C165  1  0.90721320  0.97531597  0.41058248  1
  C  C166  1  0.07863970  0.18491123  0.40888745  1
  C  C167  1  0.57766589  0.18500346  0.40887434  1
  C  C168  1  0.01114176  0.18231866  0.90871104  1
  C  C169  1  0.51166393  0.18701730  0.90908376  1
  C  C170  1  0.07713022  0.97013637  0.90944801  1
  C  C171  1  0.58082149  0.97319652  0.90850141  1
  C  C172  1  0.40816153  0.84934673  0.91315772  1
  C  C173  1  0.90401971  0.83155126  0.90816014  1
  C  C174  1  0.48975134  0.16380063  0.58969144  1
  C  C175  1  0.98117579  0.16815208  0.58195758  1
  C  C176  1  0.09694765  0.01131892  0.58186485  1
  C  C177  1  0.59419240  0.02242251  0.59107326  1
  C  C178  1  0.41740544  0.81027169  0.59370380  1
  C  C179  1  0.91238925  0.80064379  0.58139125  1
  C  C180  1  0.49383397  0.80667478  0.08181522  1
  C  C181  1  0.98279806  0.79601575  0.07937108  1
  C  C182  1  0.41120320  0.02169020  0.08127520  1
  C  C183  1  0.91156645  0.02273963  0.08128925  1
  C  C184  1  0.09738088  0.18386369  0.07977624  1
  C  C185  1  0.60077216  0.17319623  0.08168453  1
  C  C186  1  0.34922964  0.17929438  0.74215781  1
  C  C187  1  0.83901163  0.16834258  0.74576335  1
  C  C188  1  0.23212552  0.29016615  0.74901073  1
  C  C189  1  0.73650799  0.30610313  0.74194607  1
  C  C190  1  0.41321519  0.52274210  0.74137699  1
  C  C191  1  0.90684932  0.51986040  0.74584214  1
  C  C192  1  0.34554235  0.51064851  0.24494400  1
  C  C193  1  0.84632965  0.51302204  0.24406224  1
  C  C194  1  0.40258147  0.28645750  0.24586554  1
  C  C195  1  0.90296094  0.28701244  0.24482344  1
  C  C196  1  0.23421141  0.16941413  0.24890516  1
  C  C197  1  0.73427411  0.16995767  0.24846084  1
  C  C198  1  0.33338283  0.51108258  0.92911056  1
  C  C199  1  0.82572476  0.50222040  0.92145623  1
  C  C200  1  0.42579312  0.34546583  0.92299266  1
  C  C201  1  0.92490231  0.34462973  0.92937830  1
  C  C202  1  0.24925991  0.14985960  0.92945081  1
  C  C203  1  0.74919051  0.14029816  0.92283329  1
  C  C204  1  0.33585979  0.16229284  0.42826177  1
  C  C205  1  0.83456194  0.15761615  0.42895825  1
  C  C206  1  0.24862757  0.34245599  0.43278063  1
  C  C207  1  0.74645453  0.33982241  0.43053708  1
  C  C208  1  0.42243392  0.51061279  0.43044919  1
  C  C209  1  0.92049915  0.50878906  0.43114855  1
  C  C210  1  0.18920087  0.51874649  0.07612416  1
  C  C211  1  0.68692590  0.51511225  0.07592108  1
  C  C212  1  0.06998989  0.62098731  0.07525032  1
  C  C213  1  0.57313324  0.62648121  0.07651392  1
  C  C214  1  0.24274367  0.85408406  0.07526847  1
  C  C215  1  0.74185354  0.85638421  0.07579736  1
  C  C216  1  0.18600009  0.85564611  0.57585758  1
  C  C217  1  0.68454475  0.85821006  0.57630100  1
  C  C218  1  0.24771918  0.63664013  0.57466602  1
  C  C219  1  0.74390159  0.63918355  0.57669712  1
  C  C220  1  0.07158589  0.51819003  0.57768316  1
  C  C221  1  0.57341682  0.50655530  0.57643706  1
  C  C222  1  0.16368904  0.86555888  0.25745927  1
  C  C223  1  0.66311173  0.86516270  0.25575747  1
  C  C224  1  0.26275340  0.69554746  0.25344410  1
  C  C225  1  0.76328948  0.69622664  0.25292036  1
  C  C226  1  0.07427486  0.48653407  0.25176505  1
  C  C227  1  0.57463396  0.48871193  0.25219285  1
  C  C228  1  0.16130365  0.45745019  0.75650452  1
  C  C229  1  0.65711521  0.48194521  0.75762838  1
  C  C230  1  0.08164336  0.68365431  0.75365360  1
  C  C231  1  0.58328046  0.69586989  0.75873274  1
  C  C232  1  0.26257235  0.84554153  0.74716004  1
  C  C233  1  0.75649282  0.83509738  0.76321025  1
