# generated using pymatgen
data_Cu3NiC14
_symmetry_space_group_name_H-M   'P 1'
_cell_length_a   3.86644496
_cell_length_b   3.86644440
_cell_length_c   18.55324594
_cell_angle_alpha   95.64556641
_cell_angle_beta   95.64556053
_cell_angle_gamma   89.85352602
_symmetry_Int_Tables_number   1
_chemical_formula_structural   Cu3NiC14
_chemical_formula_sum   'Cu3 Ni1 C14'
_cell_volume   274.66854012
_cell_formula_units_Z   1
loop_
 _symmetry_equiv_pos_site_id
 _symmetry_equiv_pos_as_xyz
  1  'x, y, z'
loop_
 _atom_site_type_symbol
 _atom_site_label
 _atom_site_symmetry_multiplicity
 _atom_site_fract_x
 _atom_site_fract_y
 _atom_site_fract_z
 _atom_site_occupancy
  C  C0  1  0.57435667  0.57435667  0.15138077  1
  C  C1  1  0.46916866  0.46916866  0.92869877  1
  C  C2  1  0.22199836  0.22199836  0.51030537  1
  C  C3  1  0.67259690  0.67259690  0.36116088  1
  Ni  Ni4  1  0.36932699  0.36932699  0.72060562  1
  Cu  Cu5  1  0.01999958  0.01999958  0.03639470  1
  Cu  Cu6  1  0.90603106  0.90603106  0.79815852  1
  Cu  Cu7  1  0.12674616  0.12674616  0.26229322  1
  C  C8  1  0.11992063  0.62052346  0.24917583  1
  C  C9  1  0.75951329  0.75951329  0.48771507  1
  C  C10  1  0.17601094  0.17601094  0.36360660  1
  C  C11  1  0.51171086  0.01164139  0.01873466  1
  C  C12  1  0.01164139  0.51171086  0.01873466  1
  C  C13  1  0.06694358  0.06694358  0.13523945  1
  C  C14  1  0.95331322  0.95331322  0.89637894  1
  C  C15  1  0.62052346  0.11992063  0.24917583  1
  C  C16  1  0.39376609  0.89309915  0.77186106  1
  C  C17  1  0.89309915  0.39376609  0.77186106  1
