# generated using pymatgen
data_Cu2NiC12
_symmetry_space_group_name_H-M   'P 1'
_cell_length_a   5.92164195
_cell_length_b   5.92164195
_cell_length_c   14.40244500
_cell_angle_alpha   90.00000000
_cell_angle_beta   90.00000000
_cell_angle_gamma   121.76733061
_symmetry_Int_Tables_number   1
_chemical_formula_structural   Cu2NiC12
_chemical_formula_sum   'Cu4 Ni2 C24'
_cell_volume   429.37628025
_cell_formula_units_Z   2
loop_
 _symmetry_equiv_pos_site_id
 _symmetry_equiv_pos_as_xyz
  1  'x, y, z'
loop_
 _atom_site_type_symbol
 _atom_site_label
 _atom_site_symmetry_multiplicity
 _atom_site_fract_x
 _atom_site_fract_y
 _atom_site_fract_z
 _atom_site_occupancy
  C  C0  1  0.67811100  0.32188900  0.59452700  1
  C  C1  1  0.32188900  0.67811100  0.40547300  1
  C  C2  1  0.32188900  0.67811100  0.09452700  1
  C  C3  1  0.67811100  0.32188900  0.90547300  1
  C  C4  1  0.98277900  0.01722100  0.25000000  1
  C  C5  1  0.01722100  0.98277900  0.75000000  1
  Ni  Ni6  1  0.00000000  0.00000000  0.50000000  1
  Ni  Ni7  1  0.00000000  0.00000000  0.00000000  1
  Cu  Cu8  1  0.64817600  0.35182400  0.34785100  1
  Cu  Cu9  1  0.35182400  0.64817600  0.65214900  1
  Cu  Cu10  1  0.35182400  0.64817600  0.84785100  1
  Cu  Cu11  1  0.64817600  0.35182400  0.15214900  1
  C  C12  1  0.81996300  0.68750300  0.41063200  1
  C  C13  1  0.68750300  0.81996300  0.58936800  1
  C  C14  1  0.18003700  0.31249700  0.91063200  1
  C  C15  1  0.31249700  0.18003700  0.08936800  1
  C  C16  1  0.18003700  0.31249700  0.58936800  1
  C  C17  1  0.31249700  0.18003700  0.41063200  1
  C  C18  1  0.81996300  0.68750300  0.08936800  1
  C  C19  1  0.68750300  0.81996300  0.91063200  1
  C  C20  1  0.19715100  0.80284900  0.58116600  1
  C  C21  1  0.80284900  0.19715100  0.41883400  1
  C  C22  1  0.80284900  0.19715100  0.08116600  1
  C  C23  1  0.19715100  0.80284900  0.91883400  1
  C  C24  1  0.50167400  0.49832600  0.75000000  1
  C  C25  1  0.49832600  0.50167400  0.25000000  1
  C  C26  1  0.50184500  0.94871000  0.75000000  1
  C  C27  1  0.94871000  0.50184500  0.25000000  1
  C  C28  1  0.49815600  0.05129000  0.25000000  1
  C  C29  1  0.05129000  0.49815500  0.75000000  1
