# generated using pymatgen
data_Cu7Ni17C13
_symmetry_space_group_name_H-M   'P 1'
_cell_length_a   4.78410183
_cell_length_b   5.72083331
_cell_length_c   14.99184826
_cell_angle_alpha   89.40996684
_cell_angle_beta   86.51592978
_cell_angle_gamma   90.16192026
_symmetry_Int_Tables_number   1
_chemical_formula_structural   Cu7Ni17C13
_chemical_formula_sum   'Cu7 Ni17 C13'
_cell_volume   409.53009926
_cell_formula_units_Z   1
loop_
 _symmetry_equiv_pos_site_id
 _symmetry_equiv_pos_as_xyz
  1  'x, y, z'
loop_
 _atom_site_type_symbol
 _atom_site_label
 _atom_site_symmetry_multiplicity
 _atom_site_fract_x
 _atom_site_fract_y
 _atom_site_fract_z
 _atom_site_occupancy
  C  C0  1  0.49141900  0.91821000  0.24628500  1
  C  C1  1  0.05089600  0.18362800  0.41917300  1
  C  C2  1  0.00865900  0.64862400  0.24667700  1
  C  C3  1  0.00520000  0.15395800  0.07859900  1
  C  C4  1  0.02945900  0.17125400  0.74108600  1
  C  C5  1  0.03742400  0.82430700  0.58330000  1
  C  C6  1  0.98531600  0.83370300  0.90475400  1
  C  C7  1  0.48044400  0.33741100  0.91665500  1
  C  C8  1  0.51039100  0.36443300  0.58989700  1
  C  C9  1  0.50227300  0.39548200  0.25733700  1
  C  C10  1  0.45442200  0.62893800  0.08050700  1
  C  C11  1  0.52626900  0.65859600  0.43002900  1
  C  C12  1  0.49425400  0.62998800  0.75502900  1
  Ni  Ni13  1  0.29703200  0.16283000  0.31277700  1
  Ni  Ni14  1  0.24243900  0.11943300  0.63385300  1
  Ni  Ni15  1  0.20351900  0.09383700  0.96587100  1
  Ni  Ni16  1  0.20973800  0.86242500  0.14973900  1
  Ni  Ni17  1  0.24717900  0.88037000  0.47377200  1
  Ni  Ni18  1  0.22614500  0.87713300  0.79855300  1
  Ni  Ni19  1  0.32245100  0.40080500  0.48022300  1
  Ni  Ni20  1  0.23925200  0.40077300  0.16217500  1
  Ni  Ni21  1  0.32199000  0.64322900  0.31822900  1
  Ni  Ni22  1  0.29191900  0.59769100  0.64752400  1
  Ni  Ni23  1  0.27336900  0.39125500  0.81123900  1
  Ni  Ni24  1  0.66638100  0.37268100  0.02680800  1
  Ni  Ni25  1  0.68754900  0.64178000  0.18530400  1
  Ni  Ni26  1  0.78811200  0.44265300  0.34140100  1
  Ni  Ni27  1  0.75020200  0.61217000  0.52767000  1
  Ni  Ni28  1  0.69631500  0.61811300  0.86127500  1
  Ni  Ni29  1  0.72944300  0.38597700  0.69303500  1
  Cu  Cu30  1  0.19784700  0.59282800  0.98205100  1
  Cu  Cu31  1  0.73627900  0.15668900  0.19233100  1
  Cu  Cu32  1  0.77490000  0.12896200  0.52634700  1
  Cu  Cu33  1  0.77068400  0.90341300  0.35100700  1
  Cu  Cu34  1  0.73574200  0.87092000  0.02080700  1
  Cu  Cu35  1  0.77372200  0.12244900  0.84792000  1
  Cu  Cu36  1  0.76915200  0.86591400  0.69076100  1
