# generated using pymatgen
data_Cu5NiC
_symmetry_space_group_name_H-M   'P 1'
_cell_length_a   6.39499000
_cell_length_b   7.25939100
_cell_length_c   7.40551700
_cell_angle_alpha   90.00000000
_cell_angle_beta   90.00000000
_cell_angle_gamma   90.00000000
_symmetry_Int_Tables_number   1
_chemical_formula_structural   Cu5NiC
_chemical_formula_sum   'Cu20 Ni4 C4'
_cell_volume   343.79174283
_cell_formula_units_Z   4
loop_
 _symmetry_equiv_pos_site_id
 _symmetry_equiv_pos_as_xyz
  1  'x, y, z'
loop_
 _atom_site_type_symbol
 _atom_site_label
 _atom_site_symmetry_multiplicity
 _atom_site_fract_x
 _atom_site_fract_y
 _atom_site_fract_z
 _atom_site_occupancy
  C  C0  1  0.25000000  0.65547200  0.73366100  1
  C  C1  1  0.75000000  0.34452800  0.26633900  1
  C  C2  1  0.75000000  0.84452800  0.23366100  1
  C  C3  1  0.25000000  0.15547200  0.76633900  1
  Ni  Ni4  1  0.75000000  0.62654200  0.62474200  1
  Ni  Ni5  1  0.25000000  0.37345800  0.37525800  1
  Ni  Ni6  1  0.25000000  0.87345800  0.12474200  1
  Ni  Ni7  1  0.75000000  0.12654200  0.87525800  1
  Cu  Cu8  1  0.75000000  0.79082500  0.50563600  1
  Cu  Cu9  1  0.25000000  0.20917500  0.49436400  1
  Cu  Cu10  1  0.25000000  0.70917500  0.00563600  1
  Cu  Cu11  1  0.75000000  0.29082500  0.99436400  1
  Cu  Cu12  1  0.75000000  0.45262500  0.51759200  1
  Cu  Cu13  1  0.25000000  0.54737500  0.48240800  1
  Cu  Cu14  1  0.25000000  0.04737500  0.01759200  1
  Cu  Cu15  1  0.75000000  0.95262500  0.98240800  1
  Cu  Cu16  1  0.93381900  0.12844300  0.75358400  1
  Cu  Cu17  1  0.43381900  0.87155700  0.24641600  1
  Cu  Cu18  1  0.06618100  0.37155700  0.25358400  1
  Cu  Cu19  1  0.56618100  0.62844300  0.74641600  1
  Cu  Cu20  1  0.06618100  0.87155700  0.24641600  1
  Cu  Cu21  1  0.56618100  0.12844300  0.75358400  1
  Cu  Cu22  1  0.25000000  0.88144900  0.68433700  1
  Cu  Cu23  1  0.43381900  0.37155700  0.25358400  1
  Cu  Cu24  1  0.25000000  0.38144900  0.81566300  1
  Cu  Cu25  1  0.75000000  0.61855100  0.18433700  1
  Cu  Cu26  1  0.75000000  0.11855100  0.31566300  1
  Cu  Cu27  1  0.93381900  0.62844300  0.74641600  1
