# generated using pymatgen
data_Cu3Ni7C31
_symmetry_space_group_name_H-M   'P 1'
_cell_length_a   18.93838384
_cell_length_b   9.46644420
_cell_length_c   22.87898483
_cell_angle_alpha   89.89277922
_cell_angle_beta   90.26245809
_cell_angle_gamma   120.07679827
_symmetry_Int_Tables_number   1
_chemical_formula_structural   Cu3Ni7C31
_chemical_formula_sum   'Cu18 Ni42 C186'
_cell_volume   3549.40828821
_cell_formula_units_Z   6
loop_
 _symmetry_equiv_pos_site_id
 _symmetry_equiv_pos_as_xyz
  1  'x, y, z'
loop_
 _atom_site_type_symbol
 _atom_site_label
 _atom_site_symmetry_multiplicity
 _atom_site_fract_x
 _atom_site_fract_y
 _atom_site_fract_z
 _atom_site_occupancy
  Ni  Ni0  1  0.80769871  0.00139472  0.24649937  1
  Ni  Ni1  1  0.68686769  0.34173924  0.23701848  1
  Ni  Ni2  1  0.50454506  0.65440888  0.24048664  1
  Ni  Ni3  1  0.30423147  0.61075624  0.74530457  1
  Ni  Ni4  1  0.00917935  0.37432266  0.73814954  1
  Ni  Ni5  1  0.17267115  0.00773644  0.73214752  1
  Ni  Ni6  1  0.15230086  0.31405788  0.56860463  1
  Ni  Ni7  1  0.68161983  0.37220445  0.58818546  1
  Ni  Ni8  1  0.01137490  0.69027105  0.56610319  1
  Ni  Ni9  1  0.51568144  0.65766736  0.59808761  1
  Ni  Ni10  1  0.32301106  0.00503006  0.58737338  1
  Ni  Ni11  1  0.82287604  0.97333130  0.59936584  1
  Ni  Ni12  1  0.17682398  0.98708960  0.07881396  1
  Ni  Ni13  1  0.66057677  0.00900800  0.06139318  1
  Ni  Ni14  1  0.31592109  0.67086529  0.09225498  1
  Ni  Ni15  1  0.82784106  0.64688863  0.07630547  1
  Ni  Ni16  1  0.01648346  0.37380268  0.09007428  1
  Ni  Ni17  1  0.50579154  0.31610791  0.06062676  1
  Ni  Ni18  1  0.49176480  0.66805578  0.91891217  1
  Ni  Ni19  1  0.97578205  0.65593800  0.91174177  1
  Ni  Ni20  1  0.35692508  0.05175904  0.92574646  1
  Ni  Ni21  1  0.84494016  0.04436411  0.90415255  1
  Ni  Ni22  1  0.16796724  0.29615187  0.91184243  1
  Ni  Ni23  1  0.66276235  0.28673533  0.92854471  1
  Ni  Ni24  1  0.48159550  0.29773523  0.42515631  1
  Ni  Ni25  1  0.99312281  0.31539150  0.42902410  1
  Ni  Ni26  1  0.15266715  0.02410565  0.43614568  1
  Ni  Ni27  1  0.66879417  0.03947310  0.42063406  1
  Ni  Ni28  1  0.34203560  0.65119070  0.41851676  1
  Ni  Ni29  1  0.85843108  0.67184637  0.42438069  1
  Ni  Ni30  1  -0.00119110  0.96995579  0.50299150  1
  Ni  Ni31  1  0.52222227  0.03719213  0.50938993  1
  Ni  Ni32  1  0.01867388  0.00406907  0.00059897  1
  Ni  Ni33  1  0.50207174  0.02240449  0.99205286  1
  Ni  Ni34  1  0.33736106  0.32939777  0.83141249  1
  Ni  Ni35  1  0.82803996  0.33972841  0.82444432  1
  Ni  Ni36  1  0.30545113  0.30869456  0.33230434  1
  Ni  Ni37  1  0.84241201  0.34400700  0.33404519  1
  Ni  Ni38  1  0.16780960  0.68036528  0.15123401  1
  Ni  Ni39  1  0.66635360  0.65894180  0.16254841  1
  Ni  Ni40  1  0.15658558  0.67308140  0.66703249  1
  Ni  Ni41  1  0.67222372  0.66305678  0.65376575  1
  Cu  Cu42  1  0.00539005  0.00259560  0.35323882  1
  Cu  Cu43  1  0.50438356  0.00151716  0.34412990  1
  Cu  Cu44  1  0.00288285  0.99202753  0.83997136  1
  Cu  Cu45  1  0.50531763  0.01048503  0.85170596  1
  Cu  Cu46  1  0.33543855  0.32811519  0.68100196  1
  Cu  Cu47  1  0.83080482  0.33980872  0.68100212  1
  Cu  Cu48  1  0.32545042  0.32172372  0.17953686  1
  Cu  Cu49  1  0.83732465  0.34366797  0.17993096  1
  Cu  Cu50  1  0.33103360  0.32177170  0.98898272  1
  Cu  Cu51  1  0.83165187  0.34039272  0.98686500  1
  Cu  Cu52  1  0.32863524  0.31966852  0.48972973  1
  Cu  Cu53  1  0.83142536  0.34339298  0.49221332  1
  Cu  Cu54  1  0.16551144  0.66695336  0.01310054  1
  Cu  Cu55  1  0.66429991  0.66421842  0.01387837  1
  Cu  Cu56  1  0.16567338  0.66715364  0.51560448  1
  Cu  Cu57  1  0.66632929  0.66781739  0.51660750  1
  Cu  Cu58  1  0.66453679  0.67356987  0.31494887  1
  Cu  Cu59  1  0.16069878  0.65829512  0.81230332  1
  C  C60  1  0.00090904  0.98104136  0.65653098  1
  C  C61  1  0.50845709  0.02036042  0.65092118  1
  C  C62  1  0.00830867  0.99823541  0.14918409  1
  C  C63  1  0.50232535  0.00894349  0.15030975  1
  C  C64  1  0.16024993  0.64841836  0.31990068  1
  C  C65  1  0.66136408  0.67313383  0.81974701  1
  C  C66  1  0.65272463  0.99865392  0.25484402  1
  C  C67  1  0.15347752  0.30282713  0.75526046  1
  C  C68  1  0.99790849  0.68195981  0.75846485  1
  C  C69  1  0.48460564  0.32754150  0.57618056  1
  C  C70  1  0.17502851  0.01330676  0.58648836  1
  C  C71  1  0.68045542  0.02880789  0.57759592  1
  C  C72  1  0.83775250  0.65354998  0.57795456  1
  C  C73  1  0.98490698  0.64192246  0.07428958  1
  C  C74  1  0.33640472  0.02514865  0.07879773  1
  C  C75  1  0.18056725  0.33421372  0.07691863  1
  C  C76  1  0.67784324  0.33943112  0.08703056  1
  C  C77  1  0.51179792  0.36797403  0.91743489  1
  C  C78  1  0.67048005  0.97865360  0.92143285  1
  C  C79  1  0.16970155  0.36333753  0.42334076  1
  C  C80  1  0.01185616  0.65573170  0.41891294  1
  C  C81  1  0.15119316  0.98449865  0.25298481  1
  C  C82  1  0.34520985  0.69324470  0.25376191  1
  C  C83  1  0.84871032  0.70809471  0.25122957  1
  C  C84  1  0.00413042  0.30406759  0.25221765  1
  C  C85  1  0.50202916  0.30595009  0.25112239  1
  C  C86  1  0.65084650  0.32000049  0.75304147  1
  C  C87  1  0.50418936  0.70347160  0.75272832  1
  C  C88  1  0.35043965  0.99116044  0.75174224  1
  C  C89  1  0.84159198  0.98850036  0.75280676  1
  C  C90  1  0.98901222  0.32431986  0.58695537  1
  C  C91  1  0.34115527  0.65553867  0.58699188  1
  C  C92  1  0.48949990  0.65084187  0.09033368  1
  C  C93  1  0.83901277  0.02483045  0.08915007  1
  C  C94  1  0.31977824  0.66247849  0.91535459  1
  C  C95  1  0.81459262  0.67033758  0.91459454  1
  C  C96  1  0.00975458  0.35026280  0.91759018  1
  C  C97  1  0.16818621  0.97704959  0.91548215  1
  C  C98  1  0.31443509  0.96300352  0.41150748  1
  C  C99  1  0.81826894  0.97907870  0.41286203  1
  C  C100  1  0.66550950  0.36190833  0.41242760  1
  C  C101  1  0.50878283  0.66145458  0.41363518  1
  C  C102  1  0.10895174  -0.01654143  0.30687998  1
  C  C103  1  0.61446270  0.00202995  0.31818280  1
  C  C104  1  0.38731263  0.77792951  0.30878764  1
  C  C105  1  0.88540222  0.79113284  0.30688153  1
  C  C106  1  0.49399277  0.22580220  0.30814282  1
  C  C107  1  0.00205054  0.21951589  0.30672234  1
  C  C108  1  0.11438887  0.22105123  0.81815167  1
  C  C109  1  0.61030593  0.23634735  0.80737898  1
  C  C110  1  0.50082251  0.78093530  0.80760554  1
  C  C111  1  0.99336622  0.75562964  0.82145391  1
  C  C112  1  0.38891503  -0.00996642  0.80766658  1
  C  C113  1  0.88527674  -0.00389142  0.80792128  1
  C  C114  1  0.40433673  0.99567198  0.70220626  1
  C  C115  1  0.88869797  0.98373877  0.70098368  1
  C  C116  1  0.08766815  0.17373140  0.70421475  1
  C  C117  1  0.59895805  0.22147078  0.70075341  1
  C  C118  1  -0.00629568  0.81013803  0.70786733  1
  C  C119  1  0.51067863  0.80857438  0.70115069  1
  C  C120  1  0.39236044  0.79309670  0.20189855  1
  C  C121  1  0.90134126  0.80968255  0.20132862  1
  C  C122  1  0.00926773  0.21244771  0.20032207  1
  C  C123  1  0.49371228  0.19093395  0.20285590  1
  C  C124  1  0.10168582  0.98373841  0.20020588  1
  C  C125  1  0.58526217  0.99825309  0.20491496  1
  C  C126  1  0.43772087  0.38654757  0.62058552  1
  C  C127  1  0.94769428  0.33886752  0.63916489  1
  C  C128  1  0.23581475  0.10799264  0.64107264  1
  C  C129  1  0.75632923  0.12669236  0.62191960  1
  C  C130  1  0.32688139  0.55260250  0.63899181  1
  C  C131  1  0.81804651  0.50769651  0.62383128  1
  C  C132  1  0.45109553  0.56201244  0.14510996  1
  C  C133  1  0.93730643  0.48974264  0.11936804  1
  C  C134  1  0.32088053  0.13355217  0.12611081  1
  C  C135  1  0.82662677  0.09615066  0.14310995  1
  C  C136  1  0.25349795  0.38649964  0.12437868  1
  C  C137  1  0.73400964  0.36152639  0.14395252  1
  C  C138  1  0.20212801  0.27561202  0.01544819  1
  C  C139  1  0.71582433  0.30181522  0.02846626  1
  C  C140  1  0.44064896  0.56331783  0.03850966  1
  C  C141  1  0.93397782  0.60050540  0.01239961  1
  C  C142  1  0.36357171  0.12914377  0.01742827  1
  C  C143  1  0.84902423  0.12598586  0.03726044  1
  C  C144  1  0.21252617  0.11825150  0.52579063  1
  C  C145  1  0.69982472  0.12600312  0.51477865  1
  C  C146  1  0.35162923  0.57968733  0.53325463  1
  C  C147  1  0.86047160  0.59943398  0.51539784  1
  C  C148  1  0.43268687  0.27090830  0.51454807  1
  C  C149  1  0.94335886  0.31565491  0.53245232  1
  C  C150  1  0.27856817  0.67503984  0.96827287  1
  C  C151  1  0.77549633  0.66671455  0.97082268  1
  C  C152  1  0.05501348  0.43084821  0.97175712  1
  C  C153  1  0.55847538  0.45455124  0.97761314  1
  C  C154  1  0.17282895  0.89910970  0.97036718  1
  C  C155  1  0.67076854  0.89002582  0.98194543  1
  C  C156  1  0.27684258  0.87932981  0.46686175  1
  C  C157  1  0.77319505  0.87543760  0.46284229  1
  C  C158  1  0.17108123  0.45146285  0.48411906  1
  C  C159  1  0.66865142  0.45960674  0.46324516  1
  C  C160  1  0.05987114  0.66747405  0.47881809  1
  C  C161  1  0.56084358  0.67434546  0.46366170  1
  C  C162  1  0.07559311  0.65725412  0.36443779  1
  C  C163  1  0.54823151  0.65828151  0.35779314  1
  C  C164  1  0.26372859  0.85919072  0.36081719  1
  C  C165  1  0.77672968  0.89860855  0.35666715  1
  C  C166  1  0.17020702  0.48940088  0.36837835  1
  C  C167  1  0.66134788  0.44034915  0.35708536  1
  C  C168  1  0.05525391  0.44313421  0.86539465  1
  C  C169  1  0.57564197  0.49195802  0.86348421  1
  C  C170  1  0.16539719  0.87995208  0.86420854  1
  C  C171  1  0.66978533  0.85209356  0.86745056  1
  C  C172  1  0.27490648  0.66026905  0.86167842  1
  C  C173  1  0.76267237  0.67288517  0.86481908  1
  C  C174  1  0.00183703  0.81808203  0.41497926  1
  C  C175  1  0.49430019  0.80404662  0.41592223  1
  C  C176  1  0.39784793  0.98455847  0.40832056  1
  C  C177  1  0.90317944  0.00630968  0.41432744  1
  C  C178  1  0.08597085  0.18596623  0.41923516  1
  C  C179  1  0.58890429  0.19605786  0.41835365  1
  C  C180  1  -0.00475395  0.17909563  0.91711144  1
  C  C181  1  0.50173821  0.18550601  0.91481084  1
  C  C182  1  0.09306026  0.99275087  0.91889488  1
  C  C183  1  0.58641738  0.98818338  0.91842176  1
  C  C184  1  0.40504003  0.80597390  0.91529992  1
  C  C185  1  0.89573865  0.82082885  0.91283250  1
  C  C186  1  0.48202873  0.15150827  0.59808902  1
  C  C187  1  0.99322039  0.16997159  0.58977932  1
  C  C188  1  0.08327741  -0.00124988  0.59334273  1
  C  C189  1  0.59293193  0.02906598  0.59950302  1
  C  C190  1  0.42095747  0.81546149  0.59497610  1
  C  C191  1  0.91800928  0.83572667  0.59328124  1
  C  C192  1  0.49377979  0.81592544  0.09117799  1
  C  C193  1  0.98513988  0.81489183  0.09778501  1
  C  C194  1  0.41498930  -0.00305663  0.09639846  1
  C  C195  1  0.91779566  0.01988958  0.09535526  1
  C  C196  1  0.09141660  0.16126286  0.09813131  1
  C  C197  1  0.58336146  0.16940930  0.09319052  1
  C  C198  1  0.33867253  0.13412913  0.74894762  1
  C  C199  1  0.83193508  0.13335398  0.74951126  1
  C  C200  1  0.24508265  0.32335637  0.74957761  1
  C  C201  1  0.73142107  0.33394521  0.74886860  1
  C  C202  1  0.42976573  0.54226808  0.74717195  1
  C  C203  1  0.92621500  0.49173614  0.75155484  1
  C  C204  1  0.34273497  0.53344657  0.25247946  1
  C  C205  1  0.83883871  0.54267747  0.25051512  1
  C  C206  1  0.43933068  0.35468652  0.24528259  1
  C  C207  1  0.92918905  0.31569713  0.24803415  1
  C  C208  1  0.23250806  0.13345982  0.25111262  1
  C  C209  1  0.74380989  0.15972476  0.24819475  1
  C  C210  1  0.32479248  0.51007919  0.91699645  1
  C  C211  1  0.82029362  0.52020732  0.90791264  1
  C  C212  1  0.42502106  0.36507017  0.90976910  1
  C  C213  1  0.92827670  0.34114529  0.91718285  1
  C  C214  1  0.24256968  0.14295388  0.91023865  1
  C  C215  1  0.75293646  0.15683532  0.91186055  1
  C  C216  1  0.31845984  0.12341753  0.40710753  1
  C  C217  1  0.82175877  0.13978012  0.41607764  1
  C  C218  1  0.25301144  0.35416214  0.41371064  1
  C  C219  1  0.73919567  0.34352310  0.41065032  1
  C  C220  1  0.42796940  0.50793204  0.41694857  1
  C  C221  1  0.92563713  0.48417583  0.41175807  1
  C  C222  1  0.15625998  0.47703454  0.07690393  1
  C  C223  1  0.66443769  0.49627729  0.08446682  1
  C  C224  1  0.08088522  0.69660519  0.07371564  1
  C  C225  1  0.57425433  0.68220275  0.08779380  1
  C  C226  1  0.25743016  0.84161060  0.07733171  1
  C  C227  1  0.77147936  0.85436972  0.08328848  1
  C  C228  1  0.16245248  0.82931425  0.58620111  1
  C  C229  1  0.65199111  0.83472830  0.57828750  1
  C  C230  1  0.27504794  0.69477606  0.58142957  1
  C  C231  1  0.75995099  0.68439876  0.57841296  1
  C  C232  1  0.07388055  0.46538730  0.58582470  1
  C  C233  1  0.58163066  0.46062023  0.57486619  1
  C  C234  1  0.15900834  0.83544242  0.24906241  1
  C  C235  1  0.65481019  0.82751583  0.24356833  1
  C  C236  1  0.26151255  0.67089292  0.25212661  1
  C  C237  1  0.76685188  0.69508287  0.24314012  1
  C  C238  1  0.07844104  0.47285159  0.25170056  1
  C  C239  1  0.58490633  0.45419424  0.24487738  1
  C  C240  1  0.15854268  0.48031385  0.74444256  1
  C  C241  1  0.65735264  0.48363531  0.74926181  1
  C  C242  1  0.08777904  0.70006767  0.74498308  1
  C  C243  1  0.57875926  0.68474497  0.75241239  1
  C  C244  1  0.27110731  0.83738287  0.74409254  1
  C  C245  1  0.75944722  0.83485981  0.75225342  1
