# generated using pymatgen
data_Cu5Ni4
_symmetry_space_group_name_H-M   'P 1'
_cell_length_a   6.93958500
_cell_length_b   11.81349600
_cell_length_c   13.55793400
_cell_angle_alpha   90.00000000
_cell_angle_beta   90.00000000
_cell_angle_gamma   90.00000000
_symmetry_Int_Tables_number   1
_chemical_formula_structural   Cu5Ni4
_chemical_formula_sum   'Cu20 Ni16'
_cell_volume   1111.48972846
_cell_formula_units_Z   4
loop_
 _symmetry_equiv_pos_site_id
 _symmetry_equiv_pos_as_xyz
  1  'x, y, z'
loop_
 _atom_site_type_symbol
 _atom_site_label
 _atom_site_symmetry_multiplicity
 _atom_site_fract_x
 _atom_site_fract_y
 _atom_site_fract_z
 _atom_site_occupancy
  Ni  Ni0  1  0.48986100  0.47162900  0.93813900  1
  Ni  Ni1  1  0.51013900  0.97162900  0.06186100  1
  Ni  Ni2  1  0.01013900  0.47162900  0.43813900  1
  Ni  Ni3  1  0.98986100  0.97162900  0.56186100  1
  Ni  Ni4  1  0.79233100  0.52012000  0.88971200  1
  Ni  Ni5  1  0.20766900  0.02012000  0.11028800  1
  Ni  Ni6  1  0.70766900  0.52012000  0.38971200  1
  Ni  Ni7  1  0.29233100  0.02012000  0.61028800  1
  Ni  Ni8  1  0.40029300  0.65025200  0.90114100  1
  Ni  Ni9  1  0.59970700  0.15025200  0.09885900  1
  Ni  Ni10  1  0.09970700  0.65025200  0.40114100  1
  Ni  Ni11  1  0.90029300  0.15025200  0.59885900  1
  Ni  Ni12  1  0.46005000  0.48847700  0.68521000  1
  Ni  Ni13  1  0.53995000  0.98847700  0.31479000  1
  Ni  Ni14  1  0.03995000  0.48847700  0.18521000  1
  Ni  Ni15  1  0.96005000  0.98847700  0.81479000  1
  Cu  Cu16  1  0.36541100  0.37166100  0.81389500  1
  Cu  Cu17  1  0.63458900  0.87166100  0.18610500  1
  Cu  Cu18  1  0.13458900  0.37166100  0.31389500  1
  Cu  Cu19  1  0.86541100  0.87166100  0.68610500  1
  Cu  Cu20  1  0.78082400  0.50050500  0.72130500  1
  Cu  Cu21  1  0.21917600  0.00050500  0.27869500  1
  Cu  Cu22  1  0.71917600  0.50050500  0.22130500  1
  Cu  Cu23  1  0.28082400  0.00050500  0.77869500  1
  Cu  Cu24  1  0.32904400  0.65695300  0.73584600  1
  Cu  Cu25  1  0.67095600  0.15695300  0.26415400  1
  Cu  Cu26  1  0.17095600  0.65695300  0.23584600  1
  Cu  Cu27  1  0.82904400  0.15695300  0.76415400  1
  Cu  Cu28  1  0.71352100  0.70602400  0.92927300  1
  Cu  Cu29  1  0.28647900  0.20602400  0.07072700  1
  Cu  Cu30  1  0.78647900  0.70602400  0.42927300  1
  Cu  Cu31  1  0.21352100  0.20602400  0.57072700  1
  Cu  Cu32  1  0.18572400  0.73817900  0.98411100  1
  Cu  Cu33  1  0.81427600  0.23817900  0.01588900  1
  Cu  Cu34  1  0.31427600  0.73817900  0.48411100  1
  Cu  Cu35  1  0.68572400  0.23817900  0.51588900  1
