# generated using pymatgen
data_Cu2NiC3
_symmetry_space_group_name_H-M   'P 1'
_cell_length_a   6.78389080
_cell_length_b   6.78389080
_cell_length_c   10.39857100
_cell_angle_alpha   90.00000000
_cell_angle_beta   90.00000000
_cell_angle_gamma   120.00000780
_symmetry_Int_Tables_number   1
_chemical_formula_structural   Cu2NiC3
_chemical_formula_sum   'Cu6 Ni3 C9'
_cell_volume   414.44027764
_cell_formula_units_Z   3
loop_
 _symmetry_equiv_pos_site_id
 _symmetry_equiv_pos_as_xyz
  1  'x, y, z'
loop_
 _atom_site_type_symbol
 _atom_site_label
 _atom_site_symmetry_multiplicity
 _atom_site_fract_x
 _atom_site_fract_y
 _atom_site_fract_z
 _atom_site_occupancy
  C  C0  1  0.00000000  0.00000000  0.16666700  1
  C  C1  1  0.00000000  0.00000000  0.83333300  1
  C  C2  1  0.00000000  0.00000000  0.50000000  1
  C  C3  1  0.50000000  0.50000000  0.00400200  1
  C  C4  1  0.00000000  0.50000000  0.33733500  1
  C  C5  1  0.50000000  0.00000000  0.67066800  1
  C  C6  1  0.00000000  0.50000000  0.99599800  1
  C  C7  1  0.50000000  0.50000000  0.66266500  1
  C  C8  1  0.50000000  0.00000000  0.32933200  1
  Ni  Ni9  1  0.50000000  0.00000000  0.00000000  1
  Ni  Ni10  1  0.50000000  0.50000000  0.33333300  1
  Ni  Ni11  1  0.00000000  0.50000000  0.66666700  1
  Cu  Cu12  1  0.85216500  0.70433000  0.00000000  1
  Cu  Cu13  1  0.14783500  0.85216500  0.33333300  1
  Cu  Cu14  1  0.70433000  0.85216500  0.66666700  1
  Cu  Cu15  1  0.29567000  0.14783500  0.66666700  1
  Cu  Cu16  1  0.14783500  0.29567000  0.00000000  1
  Cu  Cu17  1  0.85216500  0.14783500  0.33333300  1
