# generated using pymatgen
data_Cu6Ni6C7
_symmetry_space_group_name_H-M   'P 1'
_cell_length_a   6.92571631
_cell_length_b   15.17863182
_cell_length_c   3.09353283
_cell_angle_alpha   90.05113601
_cell_angle_beta   89.66489439
_cell_angle_gamma   135.56620002
_symmetry_Int_Tables_number   1
_chemical_formula_structural   Cu6Ni6C7
_chemical_formula_sum   'Cu6 Ni6 C7'
_cell_volume   227.66194205
_cell_formula_units_Z   1
loop_
 _symmetry_equiv_pos_site_id
 _symmetry_equiv_pos_as_xyz
  1  'x, y, z'
loop_
 _atom_site_type_symbol
 _atom_site_label
 _atom_site_symmetry_multiplicity
 _atom_site_fract_x
 _atom_site_fract_y
 _atom_site_fract_z
 _atom_site_occupancy
  C  C0  1  0.54110700  0.50399600  0.01275500  1
  C  C1  1  0.96483100  0.00194200  0.01242100  1
  C  C2  1  0.00152600  0.33823500  0.00761900  1
  C  C3  1  0.16047700  0.72990900  0.02145800  1
  C  C4  1  0.42725100  0.29460300  0.51133200  1
  C  C5  1  0.45540200  0.65607200  0.51400400  1
  C  C6  1  0.50038500  0.99940600  0.51421500  1
  Ni  Ni7  1  0.28178400  0.37000600  0.51418700  1
  Ni  Ni8  1  0.22132100  0.67541300  0.52052300  1
  Ni  Ni9  1  0.25394100  0.18621000  0.01292000  1
  Ni  Ni10  1  0.32091400  0.54404800  0.01483700  1
  Ni  Ni11  1  0.29554500  0.89545100  0.01647600  1
  Ni  Ni12  1  0.76354900  0.98383000  0.51456300  1
  Cu  Cu13  1  0.18595500  0.01006500  0.51290800  1
  Cu  Cu14  1  0.69176900  0.43425300  0.01007100  1
  Cu  Cu15  1  0.71740800  0.79696000  0.01349100  1
  Cu  Cu16  1  0.71481900  0.13790300  0.00962400  1
  Cu  Cu17  1  0.75703500  0.31191000  0.50784600  1
  Cu  Cu18  1  0.76498000  0.63442000  0.50875200  1
