# generated using pymatgen
data_CuNi3C13
_symmetry_space_group_name_H-M   'P 1'
_cell_length_a   6.92515889
_cell_length_b   7.03821822
_cell_length_c   6.57447062
_cell_angle_alpha   73.95324298
_cell_angle_beta   74.02258267
_cell_angle_gamma   96.67678178
_symmetry_Int_Tables_number   1
_chemical_formula_structural   CuNi3C13
_chemical_formula_sum   'Cu1 Ni3 C13'
_cell_volume   289.57512019
_cell_formula_units_Z   1
loop_
 _symmetry_equiv_pos_site_id
 _symmetry_equiv_pos_as_xyz
  1  'x, y, z'
loop_
 _atom_site_type_symbol
 _atom_site_label
 _atom_site_symmetry_multiplicity
 _atom_site_fract_x
 _atom_site_fract_y
 _atom_site_fract_z
 _atom_site_occupancy
  C  C0  1  0.91065346  0.10223761  0.49262358  1
  C  C1  1  0.26468867  0.75626308  0.51167531  1
  C  C2  1  0.65636866  0.34206649  0.99637888  1
  Ni  Ni3  1  0.55277399  0.44310606  0.49817944  1
  Ni  Ni4  1  0.20718692  0.41585087  0.89881981  1
  Ni  Ni5  1  0.58916299  0.78974645  0.09609100  1
  Cu  Cu6  1  0.29607551  0.70821805  0.02818209  1
  C  C7  1  0.68514815  0.42512651  0.64572700  1
  C  C8  1  0.57776697  0.31918194  0.34426097  1
  C  C9  1  0.25876022  0.65152761  0.83797016  1
  C  C10  1  0.34303266  0.73535701  0.15889766  1
  C  C11  1  0.66176273  0.01234304  0.04142932  1
  C  C12  1  0.98110998  0.33278573  0.95922112  1
  C  C13  1  0.69759364  0.68165908  0.94673831  1
  C  C14  1  0.30959971  0.40149008  0.63690861  1
  C  C15  1  0.58993318  0.68727663  0.35981158  1
  C  C16  1  0.31851455  0.30604978  0.04708716  1
