# generated using pymatgen
data_Cu4(NiC21)3
_symmetry_space_group_name_H-M   'P 1'
_cell_length_a   18.13483791
_cell_length_b   9.14414996
_cell_length_c   23.87348005
_cell_angle_alpha   89.56038792
_cell_angle_beta   88.29621630
_cell_angle_gamma   120.53471810
_symmetry_Int_Tables_number   1
_chemical_formula_structural   Cu4(NiC21)3
_chemical_formula_sum   'Cu12 Ni9 C189'
_cell_volume   3407.17088816
_cell_formula_units_Z   3
loop_
 _symmetry_equiv_pos_site_id
 _symmetry_equiv_pos_as_xyz
  1  'x, y, z'
loop_
 _atom_site_type_symbol
 _atom_site_label
 _atom_site_symmetry_multiplicity
 _atom_site_fract_x
 _atom_site_fract_y
 _atom_site_fract_z
 _atom_site_occupancy
  C  C0  1  0.99537199  0.01602786  0.50044710  1
  C  C1  1  0.49448583  0.97467125  0.00148060  1
  C  C2  1  0.31903758  0.31065160  0.83245470  1
  C  C3  1  0.82885700  0.33099598  0.82467858  1
  C  C4  1  0.32952703  0.32406921  0.32468373  1
  C  C5  1  0.82047967  0.33166697  0.33112275  1
  C  C6  1  0.01112476  0.00794072  0.34811059  1
  C  C7  1  0.51036079  0.01448081  0.84913257  1
  C  C8  1  0.00188572  0.00668601  0.64590631  1
  C  C9  1  0.50249458  -0.00084747  0.14653598  1
  C  C10  1  0.31887408  0.32784294  0.98364519  1
  C  C11  1  0.84684172  0.34749115  0.98488311  1
  C  C12  1  0.34858605  0.34349252  0.48183751  1
  C  C13  1  0.82023067  0.31171214  0.48435359  1
  C  C14  1  0.16434779  0.67884567  0.30131996  1
  C  C15  1  0.67170907  0.66936284  0.30184468  1
  C  C16  1  0.17365246  0.68418126  0.80411188  1
  C  C17  1  0.66170835  0.64518493  0.80050809  1
  Ni  Ni18  1  0.15725844  0.03542594  0.23899766  1
  Ni  Ni19  1  0.65757948  0.04289470  0.24909526  1
  Ni  Ni20  1  0.65759686  0.28033164  0.73894220  1
  Ni  Ni21  1  0.48801456  0.33258543  0.58395240  1
  Ni  Ni22  1  0.98154489  0.35139988  0.58245340  1
  Ni  Ni23  1  0.48199552  0.61149807  0.08331927  1
  Ni  Ni24  1  0.97830768  0.63046051  0.08865637  1
  Ni  Ni25  1  0.16129490  0.95660164  0.91413333  1
  Ni  Ni26  1  0.65928187  0.36510570  0.41401112  1
  Cu  Cu27  1  0.52585254  0.03226922  0.35707646  1
  Cu  Cu28  1  0.00906138  0.00485764  0.86709730  1
  Cu  Cu29  1  0.51381512  0.03839068  0.64551240  1
  Cu  Cu30  1  0.01112296  0.98503996  0.14672129  1
  Cu  Cu31  1  0.35373168  0.35961782  0.67593227  1
  Cu  Cu32  1  0.83681093  0.31976958  0.68303731  1
  Cu  Cu33  1  0.33691278  0.35922071  0.18425268  1
  Cu  Cu34  1  0.84178864  0.33542872  0.18556788  1
  Cu  Cu35  1  0.15674053  0.72366511  0.02707775  1
  Cu  Cu36  1  0.66496521  0.67904289  0.03306201  1
  Cu  Cu37  1  0.16238194  0.65543552  0.52760204  1
  Cu  Cu38  1  0.66542174  0.60706684  0.51994521  1
  C  C39  1  0.36045120  0.68380840  0.25256056  1
  C  C40  1  0.86611715  0.70045938  0.23858176  1
  C  C41  1  0.98722788  0.27496940  0.23922890  1
  C  C42  1  0.48462886  0.27480419  0.25280087  1
  C  C43  1  0.15491750  0.27390035  0.75418996  1
  C  C44  1  0.98408977  0.68738895  0.75168049  1
  C  C45  1  0.48585827  0.69875208  0.73918391  1
  C  C46  1  0.36524440  0.03261273  0.73679665  1
  C  C47  1  0.85965398  0.03708773  0.75200172  1
  C  C48  1  0.19048681  0.01849561  0.58064439  1
  C  C49  1  0.67657087  0.02311763  0.59268640  1
  C  C50  1  0.33510315  0.64143940  0.58850279  1
  C  C51  1  0.82329652  0.62579322  0.58097426  1
  C  C52  1  0.32227554  0.02009169  0.08204843  1
  C  C53  1  0.83391137  0.02679860  0.09045795  1
  C  C54  1  0.17526914  0.33055355  0.09243368  1
  C  C55  1  0.68998639  0.36398685  0.07959741  1
  C  C56  1  0.31075035  0.68343058  0.92293277  1
  C  C57  1  0.81805780  0.68575557  0.91462405  1
  C  C58  1  0.02468290  0.35766516  0.91538197  1
  C  C59  1  0.52738867  0.37709128  0.92608586  1
  C  C60  1  0.66424614  0.94013646  0.92494117  1
  C  C61  1  0.32180016  0.95159306  0.41311952  1
  C  C62  1  0.80880041  0.93338210  0.42402806  1
  C  C63  1  0.16351694  0.38438750  0.42477762  1
  C  C64  1  0.02696526  0.67715193  0.42475192  1
  C  C65  1  0.52573243  0.69846364  0.41352060  1
  C  C66  1  0.12767518  0.07877892  0.29882881  1
  C  C67  1  0.60999378  0.07045975  0.30621649  1
  C  C68  1  0.41277949  0.75919904  0.30104738  1
  C  C69  1  0.91028608  0.77126438  0.29115027  1
  C  C70  1  0.47286670  0.16746546  0.30458396  1
  C  C71  1  0.97246732  0.18122452  0.29378270  1
  C  C72  1  0.11232927  0.16606178  0.80780352  1
  C  C73  1  0.62716838  0.17472195  0.79911728  1
  C  C74  1  0.46904312  0.75685361  0.79330028  1
  C  C75  1  0.97089435  0.76328390  0.80403158  1
  C  C76  1  0.40844338  0.05335022  0.79007865  1
  C  C77  1  0.90979950  0.06427153  0.80230151  1
  C  C78  1  0.41248001  0.01099791  0.68876586  1
  C  C79  1  0.89418278  0.00668733  0.70170464  1
  C  C80  1  0.10645934  0.19947758  0.70552976  1
  C  C81  1  0.58699384  0.17290847  0.69288745  1
  C  C82  1  0.99774606  0.79066192  0.70205571  1
  C  C83  1  0.49320961  0.80700973  0.69136362  1
  C  C84  1  0.39020007  0.78039068  0.20074527  1
  C  C85  1  0.91129011  0.82139076  0.18948937  1
  C  C86  1  0.99461071  0.18355424  0.19174414  1
  C  C87  1  0.49779135  0.20342088  0.20215710  1
  C  C88  1  0.08746233  0.00236322  0.19298080  1
  C  C89  1  0.60124519  0.99322723  0.19456100  1
  C  C90  1  0.44378546  0.38356202  0.63821581  1
  C  C91  1  0.92686177  0.37304285  0.63946336  1
  C  C92  1  0.24033279  0.10011620  0.63163289  1
  C  C93  1  0.73545069  0.11371501  0.63920397  1
  C  C94  1  0.31385627  0.51377942  0.63988541  1
  C  C95  1  0.80795939  0.51892444  0.63162470  1
  C  C96  1  0.42672455  0.47986392  0.13941412  1
  C  C97  1  0.92664106  0.48114377  0.13946458  1
  C  C98  1  0.30755195  0.09532653  0.13148276  1
  C  C99  1  0.81296186  0.10620818  0.13840958  1
  C  C100  1  0.23472084  0.35576186  0.13907398  1
  C  C101  1  0.73749069  0.37804109  0.12994344  1
  C  C102  1  0.20210446  0.27902919  0.04179954  1
  C  C103  1  0.72641528  0.33287636  0.02870702  1
  C  C104  1  0.42612417  0.53783057  0.02748196  1
  C  C105  1  0.92656535  0.56676580  0.03260360  1
  C  C106  1  0.33620589  0.11600290  0.02971014  1
  C  C107  1  0.85356637  0.13042822  0.03855493  1
  C  C108  1  0.22589965  0.12541455  0.52998504  1
  C  C109  1  0.70208680  0.12696564  0.54208166  1
  C  C110  1  0.35526816  0.57487741  0.53900291  1
  C  C111  1  0.83781178  0.55905065  0.52985155  1
  C  C112  1  0.42769356  0.28644887  0.53206122  1
  C  C113  1  0.92629833  0.31867367  0.52784620  1
  C  C114  1  0.26190252  0.67935605  0.97481597  1
  C  C115  1  0.78195716  0.70568442  0.96774195  1
  C  C116  1  0.06602495  0.42878723  0.96677416  1
  C  C117  1  0.57849417  0.47065229  0.97458176  1
  C  C118  1  0.14626245  0.84433747  0.97473452  1
  C  C119  1  0.65837422  0.84232844  0.97970846  1
  C  C120  1  0.28413812  0.85762502  0.46799831  1
  C  C121  1  0.75844094  0.83405903  0.47803983  1
  C  C122  1  0.15673271  0.46903671  0.47890330  1
  C  C123  1  0.64676103  0.45087972  0.47193215  1
  C  C124  1  0.07755252  0.68381119  0.47466628  1
  C  C125  1  0.56729257  0.71084830  0.46601751  1
  C  C126  1  0.06964887  0.67574322  0.37092361  1
  C  C127  1  0.56903977  0.67501485  0.36442210  1
  C  C128  1  0.26596375  0.86883633  0.36606773  1
  C  C129  1  0.76682181  0.85264501  0.37251859  1
  C  C130  1  0.16503194  0.47676925  0.37337693  1
  C  C131  1  0.68333403  0.48703656  0.35797011  1
  C  C132  1  0.06986079  0.46168121  0.86409261  1
  C  C133  1  0.56936017  0.46461471  0.87136857  1
  C  C134  1  0.17404231  0.86659884  0.86060045  1
  C  C135  1  0.66603198  0.85207170  0.87420096  1
  C  C136  1  0.26879469  0.68227312  0.87041874  1
  C  C137  1  0.76693494  0.66743861  0.86569436  1
  C  C138  1  0.01982349  0.83298357  0.42532415  1
  C  C139  1  0.52393898  0.86488866  0.40590051  1
  C  C140  1  0.40627880  0.95883870  0.40401876  1
  C  C141  1  0.89527302  0.95243439  0.42551724  1
  C  C142  1  0.08496739  0.21161237  0.42648872  1
  C  C143  1  0.56911847  0.18823300  0.40790903  1
  C  C144  1  0.02178600  0.18468082  0.91041978  1
  C  C145  1  0.51968827  0.20588102  0.92568784  1
  C  C146  1  0.06952206  0.95377698  0.90933102  1
  C  C147  1  0.58576147  0.95486986  0.92660569  1
  C  C148  1  0.39757793  0.83916415  0.92274053  1
  C  C149  1  0.90526079  0.85660240  0.90698471  1
  C  C150  1  0.50207511  0.17263668  0.59797401  1
  C  C151  1  0.99937510  0.19778287  0.58970473  1
  C  C152  1  0.10115379  0.97477081  0.58739969  1
  C  C153  1  0.58319648  0.98393210  0.60421565  1
  C  C154  1  0.40619627  0.81173380  0.60237858  1
  C  C155  1  0.89281557  0.80199047  0.58667360  1
  C  C156  1  0.49968804  0.80458266  0.08679719  1
  C  C157  1  0.99791660  0.82299409  0.10096846  1
  C  C158  1  0.39026682  0.97970970  0.08679719  1
  C  C159  1  0.90387672  0.99505697  0.10223851  1
  C  C160  1  0.08257182  0.17867448  0.10350672  1
  C  C161  1  0.59937329  0.22981788  0.08412365  1
  C  C162  1  0.35737661  0.19171219  0.73092399  1
  C  C163  1  0.85539884  0.19948851  0.74324146  1
  C  C164  1  0.24169005  0.28683628  0.74889980  1
  C  C165  1  0.75279891  0.30361838  0.72527045  1
  C  C166  1  0.40413502  0.51676499  0.73410319  1
  C  C167  1  0.90401182  0.51634179  0.74573095  1
  C  C168  1  0.35708152  0.51206836  0.24375444  1
  C  C169  1  0.86246892  0.53555291  0.23278208  1
  C  C170  1  0.40439822  0.28458820  0.24842601  1
  C  C171  1  0.90702746  0.29048754  0.23602102  1
  C  C172  1  0.25384646  0.20192363  0.22565209  1
  C  C173  1  0.75223768  0.22130456  0.23467488  1
  C  C174  1  0.32170822  0.53359432  0.92035661  1
  C  C175  1  0.83389553  0.54187273  0.91653813  1
  C  C176  1  0.44139392  0.35642696  0.92649286  1
  C  C177  1  0.93516760  0.32071309  0.91435673  1
  C  C178  1  0.24194538  0.14756079  0.91513016  1
  C  C179  1  0.74072020  0.11144047  0.92512848  1
  C  C180  1  0.33469430  0.12716002  0.41584776  1
  C  C181  1  0.81886394  0.10464283  0.42343860  1
  C  C182  1  0.23984225  0.36738802  0.42526973  1
  C  C183  1  0.74223758  0.33841140  0.41468578  1
  C  C184  1  0.43539013  0.55669716  0.41459201  1
  C  C185  1  0.94104701  0.52538619  0.42544307  1
  C  C186  1  0.16922926  0.48267726  0.08501432  1
  C  C187  1  0.69529842  0.53813715  0.07310379  1
  C  C188  1  0.07305830  0.64034115  0.07762029  1
  C  C189  1  0.57526235  0.62187755  0.07760687  1
  C  C190  1  0.23717087  0.84314848  0.07726365  1
  C  C191  1  0.75100978  0.85430854  0.08136860  1
  C  C192  1  0.19311637  0.85347370  0.57412365  1
  C  C193  1  0.66975592  0.85500786  0.58523765  1
  C  C194  1  0.25413487  0.64825143  0.58148733  1
  C  C195  1  0.73982941  0.63391223  0.57523899  1
  C  C196  1  0.07760751  0.53035190  0.57640815  1
  C  C197  1  0.58011617  0.51235597  0.57081747  1
  C  C198  1  0.16713428  0.86910711  0.24409323  1
  C  C199  1  0.67993355  0.89285696  0.26039358  1
  C  C200  1  0.26983939  0.63661118  0.26316755  1
  C  C201  1  0.77884088  0.67417083  0.23905724  1
  C  C202  1  0.06219738  0.44785973  0.24225525  1
  C  C203  1  0.55741745  0.44876661  0.25761587  1
  C  C204  1  0.16782109  0.44585888  0.76051556  1
  C  C205  1  0.66776712  0.46517671  0.74468641  1
  C  C206  1  0.05703833  0.65931483  0.75638549  1
  C  C207  1  0.56001402  0.67551540  0.74200853  1
  C  C208  1  0.27877731  0.88219147  0.73765001  1
  C  C209  1  0.76940397  0.89774428  0.76041362  1
