# generated using pymatgen
data_Cu17(NiC2)6
_symmetry_space_group_name_H-M   'P 1'
_cell_length_a   12.01463060
_cell_length_b   12.01463060
_cell_length_c   19.50383393
_cell_angle_alpha   89.25166577
_cell_angle_beta   89.25166577
_cell_angle_gamma   63.99299118
_symmetry_Int_Tables_number   1
_chemical_formula_structural   Cu17(NiC2)6
_chemical_formula_sum   'Cu34 Ni12 C24'
_cell_volume   2530.01794556
_cell_formula_units_Z   2
loop_
 _symmetry_equiv_pos_site_id
 _symmetry_equiv_pos_as_xyz
  1  'x, y, z'
loop_
 _atom_site_type_symbol
 _atom_site_label
 _atom_site_symmetry_multiplicity
 _atom_site_fract_x
 _atom_site_fract_y
 _atom_site_fract_z
 _atom_site_occupancy
  C  C0  1  0.71089100  0.29633300  0.02060000  1
  C  C1  1  0.70366700  0.28910900  0.47940000  1
  C  C2  1  0.28910900  0.70366700  0.97940000  1
  C  C3  1  0.29633300  0.71089100  0.52060000  1
  C  C4  1  0.53415400  0.54842300  0.12803100  1
  C  C5  1  0.45157700  0.46584600  0.37196900  1
  C  C6  1  0.46584600  0.45157700  0.87196900  1
  C  C7  1  0.54842300  0.53415400  0.62803100  1
  C  C8  1  0.89903800  0.42405200  0.11692500  1
  C  C9  1  0.57594800  0.10096200  0.38307500  1
  C  C10  1  0.10096200  0.57594800  0.88307500  1
  C  C11  1  0.42405200  0.89903800  0.61692500  1
  C  C12  1  0.64143800  0.64111100  0.94979000  1
  C  C13  1  0.35888900  0.35856200  0.55021000  1
  C  C14  1  0.35856200  0.35888900  0.05021000  1
  C  C15  1  0.64111100  0.64143800  0.44979000  1
  C  C16  1  0.02017800  0.07653900  0.15223200  1
  C  C17  1  0.92346100  0.97982200  0.34776800  1
  C  C18  1  0.97982200  0.92346100  0.84776800  1
  C  C19  1  0.07653900  0.02017800  0.65223200  1
  C  C20  1  0.80832700  0.33816800  0.28887600  1
  C  C21  1  0.66183200  0.19167300  0.21112400  1
  C  C22  1  0.19167300  0.66183200  0.71112400  1
  C  C23  1  0.33816800  0.80832700  0.78887600  1
  Ni  Ni24  1  0.72096700  0.36580100  0.14976700  1
  Ni  Ni25  1  0.63419900  0.27903300  0.35023300  1
  Ni  Ni26  1  0.27903300  0.63419900  0.85023300  1
  Ni  Ni27  1  0.36580100  0.72096700  0.64976700  1
  Ni  Ni28  1  0.83132400  0.25684000  0.15286000  1
  Ni  Ni29  1  0.74316000  0.16867600  0.34714000  1
  Ni  Ni30  1  0.16867600  0.74316000  0.84714000  1
  Ni  Ni31  1  0.25684000  0.83132400  0.65286000  1
  Ni  Ni32  1  0.53282600  0.53188400  0.98845200  1
  Ni  Ni33  1  0.46811600  0.46717400  0.51154800  1
  Ni  Ni34  1  0.46717400  0.46811600  0.01154800  1
  Ni  Ni35  1  0.53188400  0.53282600  0.48845200  1
  Cu  Cu36  1  0.18032300  0.21222400  0.10103400  1
  Cu  Cu37  1  0.78777600  0.81967700  0.39896600  1
  Cu  Cu38  1  0.81967700  0.78777600  0.89896600  1
  Cu  Cu39  1  0.21222400  0.18032300  0.60103400  1
  Cu  Cu40  1  0.28273000  0.80626200  0.13768800  1
  Cu  Cu41  1  0.19373800  0.71727000  0.36231200  1
  Cu  Cu42  1  0.71727000  0.19373800  0.86231200  1
  Cu  Cu43  1  0.80626200  0.28273000  0.63768800  1
  Cu  Cu44  1  0.00000000  0.00000000  0.00000000  1
  Cu  Cu45  1  0.00000000  0.00000000  0.50000000  1
  Cu  Cu46  1  0.89522600  0.39687500  0.44007400  1
  Cu  Cu47  1  0.60312500  0.10477400  0.05992600  1
  Cu  Cu48  1  0.10477400  0.60312500  0.55992600  1
  Cu  Cu49  1  0.39687500  0.89522600  0.94007400  1
  Cu  Cu50  1  0.39821400  0.90489700  0.45108100  1
  Cu  Cu51  1  0.09510300  0.60178600  0.04891900  1
  Cu  Cu52  1  0.60178600  0.09510300  0.54891900  1
  Cu  Cu53  1  0.90489700  0.39821400  0.95108100  1
  Cu  Cu54  1  0.96625400  0.49820300  0.25417000  1
  Cu  Cu55  1  0.50179700  0.03374600  0.24583000  1
  Cu  Cu56  1  0.03374600  0.50179700  0.74583000  1
  Cu  Cu57  1  0.49820300  0.96625400  0.75417000  1
  Cu  Cu58  1  0.09317800  0.11238600  0.30314300  1
  Cu  Cu59  1  0.88761400  0.90682200  0.19685700  1
  Cu  Cu60  1  0.90682200  0.88761400  0.69685700  1
  Cu  Cu61  1  0.11238600  0.09317800  0.80314300  1
  Cu  Cu62  1  0.68977900  0.70859300  0.10023700  1
  Cu  Cu63  1  0.29140700  0.31022100  0.39976300  1
  Cu  Cu64  1  0.31022100  0.29140700  0.89976300  1
  Cu  Cu65  1  0.70859300  0.68977900  0.60023700  1
  Cu  Cu66  1  0.57654200  0.62556300  0.29198600  1
  Cu  Cu67  1  0.37443700  0.42345800  0.20801400  1
  Cu  Cu68  1  0.42345800  0.37443700  0.70801400  1
  Cu  Cu69  1  0.62556300  0.57654200  0.79198600  1
