# generated using pymatgen
data_Cu11Ni9
_symmetry_space_group_name_H-M   'P 1'
_cell_length_a   10.90446900
_cell_length_b   11.15666500
_cell_length_c   12.47188000
_cell_angle_alpha   90.00000000
_cell_angle_beta   90.00000000
_cell_angle_gamma   90.00000000
_symmetry_Int_Tables_number   1
_chemical_formula_structural   Cu11Ni9
_chemical_formula_sum   'Cu88 Ni72'
_cell_volume   1517.29783633
_cell_formula_units_Z   8
loop_
 _symmetry_equiv_pos_site_id
 _symmetry_equiv_pos_as_xyz
  1  'x, y, z'
loop_
 _atom_site_type_symbol
 _atom_site_label
 _atom_site_symmetry_multiplicity
 _atom_site_fract_x
 _atom_site_fract_y
 _atom_site_fract_z
 _atom_site_occupancy
  Ni  Ni0  1  0.49367300  0.92714000  0.46884000  1
  Ni  Ni1  1  0.49367300  0.57286000  0.03116000  1
  Ni  Ni2  1  0.00632700  0.42714000  0.53116000  1
  Ni  Ni3  1  0.00632700  0.07286000  0.96884000  1
  Ni  Ni4  1  0.50632700  0.07286000  0.53116000  1
  Ni  Ni5  1  0.50632700  0.42714000  0.96884000  1
  Ni  Ni6  1  0.99367300  0.57286000  0.46884000  1
  Ni  Ni7  1  0.99367300  0.92714000  0.03116000  1
  Ni  Ni8  1  0.60246300  0.93590100  0.35912400  1
  Ni  Ni9  1  0.60246300  0.56409900  0.14087600  1
  Ni  Ni10  1  0.89753700  0.43590100  0.64087600  1
  Ni  Ni11  1  0.89753700  0.06409900  0.85912400  1
  Ni  Ni12  1  0.39753700  0.06409900  0.64087600  1
  Ni  Ni13  1  0.39753700  0.43590100  0.85912400  1
  Ni  Ni14  1  0.10246300  0.56409900  0.35912400  1
  Ni  Ni15  1  0.10246300  0.93590100  0.14087600  1
  Ni  Ni16  1  0.76487300  0.99718300  0.39633100  1
  Ni  Ni17  1  0.76487300  0.50281700  0.10366900  1
  Ni  Ni18  1  0.73512700  0.49718300  0.60366900  1
  Ni  Ni19  1  0.73512700  0.00281700  0.89633100  1
  Ni  Ni20  1  0.23512700  0.00281700  0.60366900  1
  Ni  Ni21  1  0.23512700  0.49718300  0.89633100  1
  Ni  Ni22  1  0.26487300  0.50281700  0.39633100  1
  Ni  Ni23  1  0.26487300  0.99718300  0.10366900  1
  Ni  Ni24  1  0.79349700  0.04521800  0.53087100  1
  Ni  Ni25  1  0.79349700  0.45478200  0.96912900  1
  Ni  Ni26  1  0.70650300  0.54521800  0.46912900  1
  Ni  Ni27  1  0.70650300  0.95478200  0.03087100  1
  Ni  Ni28  1  0.20650300  0.95478200  0.46912900  1
  Ni  Ni29  1  0.20650300  0.54521800  0.03087100  1
  Ni  Ni30  1  0.29349700  0.45478200  0.53087100  1
  Ni  Ni31  1  0.29349700  0.04521800  0.96912900  1
  Ni  Ni32  1  0.66914600  0.14074700  0.56371200  1
  Ni  Ni33  1  0.66914600  0.35925300  0.93628800  1
  Ni  Ni34  1  0.83085400  0.64074700  0.43628800  1
  Ni  Ni35  1  0.83085400  0.85925300  0.06371200  1
  Ni  Ni36  1  0.33085400  0.85925300  0.43628800  1
  Ni  Ni37  1  0.33085400  0.64074700  0.06371200  1
  Ni  Ni38  1  0.16914600  0.35925300  0.56371200  1
  Ni  Ni39  1  0.16914600  0.14074700  0.93628800  1
  Ni  Ni40  1  0.49870700  0.05607600  0.38728400  1
  Ni  Ni41  1  0.49870700  0.44392400  0.11271600  1
  Ni  Ni42  1  0.00129300  0.55607600  0.61271600  1
  Ni  Ni43  1  0.00129300  0.94392400  0.88728400  1
  Ni  Ni44  1  0.50129300  0.94392400  0.61271600  1
  Ni  Ni45  1  0.50129300  0.55607600  0.88728400  1
  Ni  Ni46  1  0.99870700  0.44392400  0.38728400  1
  Ni  Ni47  1  0.99870700  0.05607600  0.11271600  1
  Ni  Ni48  1  0.64788500  0.08560600  0.34168200  1
  Ni  Ni49  1  0.64788500  0.41439400  0.15831800  1
  Ni  Ni50  1  0.85211500  0.58560600  0.65831800  1
  Ni  Ni51  1  0.85211500  0.91439400  0.84168200  1
  Ni  Ni52  1  0.35211500  0.91439400  0.65831800  1
  Ni  Ni53  1  0.35211500  0.58560600  0.84168200  1
  Ni  Ni54  1  0.14788500  0.41439400  0.34168200  1
  Ni  Ni55  1  0.14788500  0.08560600  0.15831800  1
  Ni  Ni56  1  0.74679900  0.15020800  0.43877500  1
  Ni  Ni57  1  0.74679900  0.34979200  0.06122500  1
  Ni  Ni58  1  0.75320100  0.65020800  0.56122500  1
  Ni  Ni59  1  0.75320100  0.84979200  0.93877500  1
  Ni  Ni60  1  0.25320100  0.84979200  0.56122500  1
  Ni  Ni61  1  0.25320100  0.65020800  0.93877500  1
  Ni  Ni62  1  0.24679900  0.34979200  0.43877500  1
  Ni  Ni63  1  0.24679900  0.15020800  0.06122500  1
  Ni  Ni64  1  0.58501900  0.17371900  0.44802500  1
  Ni  Ni65  1  0.58501900  0.32628100  0.05197500  1
  Ni  Ni66  1  0.91498100  0.67371900  0.55197500  1
  Ni  Ni67  1  0.91498100  0.82628100  0.94802500  1
  Ni  Ni68  1  0.41498100  0.82628100  0.55197500  1
  Ni  Ni69  1  0.41498100  0.67371900  0.94802500  1
  Ni  Ni70  1  0.08501900  0.32628100  0.44802500  1
  Ni  Ni71  1  0.08501900  0.17371900  0.05197500  1
  Cu  Cu72  1  0.76728900  0.93738500  0.48826500  1
  Cu  Cu73  1  0.76728900  0.56261500  0.01173500  1
  Cu  Cu74  1  0.73271100  0.43738500  0.51173500  1
  Cu  Cu75  1  0.73271100  0.06261500  0.98826500  1
  Cu  Cu76  1  0.23271100  0.06261500  0.51173500  1
  Cu  Cu77  1  0.23271100  0.43738500  0.98826500  1
  Cu  Cu78  1  0.26728900  0.56261500  0.48826500  1
  Cu  Cu79  1  0.26728900  0.93738500  0.01173500  1
  Cu  Cu80  1  0.70426400  0.03561100  0.60312300  1
  Cu  Cu81  1  0.70426400  0.46438900  0.89687700  1
  Cu  Cu82  1  0.79573600  0.53561100  0.39687700  1
  Cu  Cu83  1  0.79573600  0.96438900  0.10312300  1
  Cu  Cu84  1  0.29573600  0.96438900  0.39687700  1
  Cu  Cu85  1  0.29573600  0.53561100  0.10312300  1
  Cu  Cu86  1  0.20426400  0.46438900  0.60312300  1
  Cu  Cu87  1  0.20426400  0.03561100  0.89687700  1
  Cu  Cu88  1  0.59948700  0.86811900  0.44544300  1
  Cu  Cu89  1  0.59948700  0.63188100  0.05455700  1
  Cu  Cu90  1  0.90051300  0.36811900  0.55455700  1
  Cu  Cu91  1  0.90051300  0.13188100  0.94544300  1
  Cu  Cu92  1  0.40051300  0.13188100  0.55455700  1
  Cu  Cu93  1  0.40051300  0.36811900  0.94544300  1
  Cu  Cu94  1  0.09948700  0.63188100  0.44544300  1
  Cu  Cu95  1  0.09948700  0.86811900  0.05455700  1
  Cu  Cu96  1  0.59291100  0.86927000  0.28485400  1
  Cu  Cu97  1  0.59291100  0.63073000  0.21514600  1
  Cu  Cu98  1  0.90708900  0.36927000  0.71514600  1
  Cu  Cu99  1  0.90708900  0.13073000  0.78485400  1
  Cu  Cu100  1  0.40708900  0.13073000  0.71514600  1
  Cu  Cu101  1  0.40708900  0.36927000  0.78485400  1
  Cu  Cu102  1  0.09291000  0.63073000  0.28485400  1
  Cu  Cu103  1  0.09291000  0.86927000  0.21514600  1
  Cu  Cu104  1  0.84914000  0.95952800  0.34557000  1
  Cu  Cu105  1  0.84914000  0.54047200  0.15443000  1
  Cu  Cu106  1  0.65086000  0.45952800  0.65443000  1
  Cu  Cu107  1  0.65086000  0.04047200  0.84557000  1
  Cu  Cu108  1  0.15086000  0.04047200  0.65443000  1
  Cu  Cu109  1  0.15086000  0.45952800  0.84557000  1
  Cu  Cu110  1  0.34914000  0.54047200  0.34557000  1
  Cu  Cu111  1  0.81212700  0.23043900  0.41168100  1
  Cu  Cu112  1  0.34914000  0.95952800  0.15443000  1
  Cu  Cu113  1  0.88796000  0.46433100  0.92205800  1
  Cu  Cu114  1  0.61204000  0.53566900  0.42205800  1
  Cu  Cu115  1  0.61204000  0.96433100  0.07794200  1
  Cu  Cu116  1  0.11204000  0.96433100  0.42205800  1
  Cu  Cu117  1  0.11204000  0.53566900  0.07794200  1
  Cu  Cu118  1  0.38796000  0.46433100  0.57794200  1
  Cu  Cu119  1  0.38796000  0.03566900  0.92205800  1
  Cu  Cu120  1  0.67534400  0.20822200  0.63768400  1
  Cu  Cu121  1  0.67534400  0.29177800  0.86231600  1
  Cu  Cu122  1  0.82465600  0.70822200  0.36231600  1
  Cu  Cu123  1  0.82465600  0.79177800  0.13768400  1
  Cu  Cu124  1  0.32465600  0.79177800  0.36231600  1
  Cu  Cu125  1  0.32465600  0.70822200  0.13768400  1
  Cu  Cu126  1  0.17534400  0.29177800  0.63768400  1
  Cu  Cu127  1  0.17534400  0.20822200  0.86231600  1
  Cu  Cu128  1  0.41441700  0.08348200  0.33169900  1
  Cu  Cu129  1  0.41441700  0.41651800  0.16830100  1
  Cu  Cu130  1  0.08558300  0.58348200  0.66830100  1
  Cu  Cu131  1  0.08558300  0.91651800  0.83169900  1
  Cu  Cu132  1  0.58558300  0.91651800  0.66830100  1
  Cu  Cu133  1  0.58558300  0.58348200  0.83169900  1
  Cu  Cu134  1  0.91441700  0.41651800  0.33169900  1
  Cu  Cu135  1  0.91441700  0.08348200  0.16830100  1
  Cu  Cu136  1  0.65998100  0.11492900  0.25021000  1
  Cu  Cu137  1  0.65998100  0.38507100  0.24979000  1
  Cu  Cu138  1  0.84001900  0.61492900  0.74979000  1
  Cu  Cu139  1  0.84001900  0.88507100  0.75021000  1
  Cu  Cu140  1  0.34001900  0.88507100  0.74979000  1
  Cu  Cu141  1  0.34001900  0.61492900  0.75021000  1
  Cu  Cu142  1  0.15998100  0.38507100  0.25021000  1
  Cu  Cu143  1  0.15998100  0.11492900  0.24979000  1
  Cu  Cu144  1  0.04523500  0.27318700  0.05794300  1
  Cu  Cu145  1  0.04523500  0.22681300  0.44205700  1
  Cu  Cu146  1  0.45476500  0.77318700  0.94205700  1
  Cu  Cu147  1  0.45476500  0.72681300  0.55794300  1
  Cu  Cu148  1  0.95476500  0.72681300  0.94205700  1
  Cu  Cu149  1  0.95476500  0.77318700  0.55794300  1
  Cu  Cu150  1  0.54523500  0.22681300  0.05794300  1
  Cu  Cu151  1  0.54523500  0.27318700  0.44205700  1
  Cu  Cu152  1  0.31212700  0.23043900  0.08831900  1
  Cu  Cu153  1  0.31212700  0.26956100  0.41168100  1
  Cu  Cu154  1  0.18787300  0.73043900  0.91168100  1
  Cu  Cu155  1  0.18787300  0.76956100  0.58831900  1
  Cu  Cu156  1  0.68787300  0.76956100  0.91168100  1
  Cu  Cu157  1  0.68787300  0.73043900  0.58831900  1
  Cu  Cu158  1  0.81212700  0.26956100  0.08831900  1
  Cu  Cu159  1  0.88796000  0.03566900  0.57794200  1
