# generated using pymatgen
data_Cu2Ni4C7
_symmetry_space_group_name_H-M   'P 1'
_cell_length_a   3.33894100
_cell_length_b   3.33894445
_cell_length_c   38.05524900
_cell_angle_alpha   89.99984696
_cell_angle_beta   90.00000452
_cell_angle_gamma   119.99993875
_symmetry_Int_Tables_number   1
_chemical_formula_structural   Cu2Ni4C7
_chemical_formula_sum   'Cu2 Ni4 C7'
_cell_volume   367.42051910
_cell_formula_units_Z   1
loop_
 _symmetry_equiv_pos_site_id
 _symmetry_equiv_pos_as_xyz
  1  'x, y, z'
loop_
 _atom_site_type_symbol
 _atom_site_label
 _atom_site_symmetry_multiplicity
 _atom_site_fract_x
 _atom_site_fract_y
 _atom_site_fract_z
 _atom_site_occupancy
  C  C0  1  0.33604000  0.60312200  0.86828500  1
  C  C1  1  0.66664100  0.33328200  0.04405100  1
  C  C2  1  0.66664600  0.33329000  0.14377100  1
  C  C3  1  0.33330700  0.66661400  0.09389500  1
  C  C4  1  0.33331400  0.66662800  0.46965500  1
  C  C5  1  0.66668900  0.33337900  0.28181600  1
  C  C6  1  0.66669100  0.33337900  0.65755600  1
  Ni  Ni7  1  0.33335600  0.66671300  0.70156200  1
  Ni  Ni8  1  0.66664900  0.33329900  0.42582700  1
  Ni  Ni9  1  0.66664400  0.33328700  0.51348200  1
  Ni  Ni10  1  0.33335700  0.66671200  0.61351900  1
  Cu  Cu11  1  0.33335300  0.66670900  0.32183700  1
  Cu  Cu12  1  0.33335300  0.66670900  0.24177600  1
