# generated using pymatgen
data_CuNiC9
_symmetry_space_group_name_H-M   'P 1'
_cell_length_a   6.93199815
_cell_length_b   6.93778195
_cell_length_c   6.93778216
_cell_angle_alpha   53.20552948
_cell_angle_beta   53.21869158
_cell_angle_gamma   53.21868484
_symmetry_Int_Tables_number   1
_chemical_formula_structural   CuNiC9
_chemical_formula_sum   'Cu1 Ni1 C9'
_cell_volume   198.43304457
_cell_formula_units_Z   1
loop_
 _symmetry_equiv_pos_site_id
 _symmetry_equiv_pos_as_xyz
  1  'x, y, z'
loop_
 _atom_site_type_symbol
 _atom_site_label
 _atom_site_symmetry_multiplicity
 _atom_site_fract_x
 _atom_site_fract_y
 _atom_site_fract_z
 _atom_site_occupancy
  C  C0  1  0.72793345  0.72619933  0.72619933  1
  C  C1  1  0.31534969  0.31433855  0.31433855  1
  Ni  Ni2  1  0.09229850  0.09077479  0.09077479  1
  Cu  Cu3  1  0.92487092  0.92456864  0.92456864  1
  C  C4  1  0.50456749  0.50323534  0.50323534  1
  C  C5  1  0.27688380  0.75103204  0.75103204  1
  C  C6  1  0.27371349  0.74111661  0.27264417  1
  C  C7  1  0.75160542  0.27700194  0.75142684  1
  C  C8  1  0.27371349  0.27264417  0.74111661  1
  C  C9  1  0.74287530  0.27266174  0.27266174  1
  C  C10  1  0.75160542  0.75142684  0.27700194  1
