# generated using pymatgen
data_Cu2NiC32
_symmetry_space_group_name_H-M   'P 1'
_cell_length_a   18.11292959
_cell_length_b   9.05918173
_cell_length_c   23.67630158
_cell_angle_alpha   89.92461809
_cell_angle_beta   89.95131423
_cell_angle_gamma   119.97053610
_symmetry_Int_Tables_number   1
_chemical_formula_structural   Cu2NiC32
_chemical_formula_sum   'Cu12 Ni6 C192'
_cell_volume   3365.50311665
_cell_formula_units_Z   6
loop_
 _symmetry_equiv_pos_site_id
 _symmetry_equiv_pos_as_xyz
  1  'x, y, z'
loop_
 _atom_site_type_symbol
 _atom_site_label
 _atom_site_symmetry_multiplicity
 _atom_site_fract_x
 _atom_site_fract_y
 _atom_site_fract_z
 _atom_site_occupancy
  Ni  Ni0  1  0.99564025  0.97861873  0.49159444  1
  Ni  Ni1  1  0.49781784  0.00316509  0.00038402  1
  Ni  Ni2  1  0.33537381  0.32607899  0.83918521  1
  Ni  Ni3  1  0.84183721  0.34372414  0.83133421  1
  Ni  Ni4  1  0.34112300  0.33340398  0.32870208  1
  Ni  Ni5  1  0.84308470  0.34506932  0.34289365  1
  Cu  Cu6  1  0.00205944  0.99318300  0.35781743  1
  Cu  Cu7  1  0.00304073  0.00266821  0.85997926  1
  Cu  Cu8  1  0.33239171  0.33372195  0.68349258  1
  Cu  Cu9  1  0.83568399  0.33406600  0.68190305  1
  Cu  Cu10  1  0.33981508  0.33528823  0.18486835  1
  Cu  Cu11  1  0.83219490  0.32956631  0.18284132  1
  Cu  Cu12  1  0.33893984  0.33348784  0.98211118  1
  Cu  Cu13  1  0.83384798  0.33503760  0.98440996  1
  Cu  Cu14  1  0.33634163  0.33710952  0.48240015  1
  Cu  Cu15  1  0.83624391  0.33915963  0.48024310  1
  Cu  Cu16  1  0.66512736  0.66509265  0.52030721  1
  Cu  Cu17  1  0.16356950  0.66386683  0.80606337  1
  C  C18  1  0.49734747  0.00514731  0.35513729  1
  C  C19  1  0.49859215  0.00522991  0.85639247  1
  C  C20  1  0.99872783  0.99731422  0.65055295  1
  C  C21  1  0.49974817  0.99962636  0.64516859  1
  C  C22  1  0.00006384  0.00095380  0.14933807  1
  C  C23  1  0.50014749  0.00962008  0.15367166  1
  C  C24  1  0.16554276  0.66611878  0.01820374  1
  C  C25  1  0.66140592  0.65296422  0.01797556  1
  C  C26  1  0.16272039  0.66705528  0.51911249  1
  C  C27  1  0.15899953  0.66318372  0.31212777  1
  C  C28  1  0.66647857  0.66324233  0.31013137  1
  C  C29  1  0.66395058  0.65962244  0.81060779  1
  C  C30  1  0.49918174  0.29276423  0.25415571  1
  C  C31  1  0.52142950  0.37771941  0.91348068  1
  C  C32  1  0.01962828  0.66539696  0.41714266  1
  C  C33  1  0.14400129  0.99523947  0.24987818  1
  C  C34  1  0.64055750  0.99537672  0.25339939  1
  C  C35  1  0.35586353  0.71832751  0.25325098  1
  C  C36  1  0.85357227  0.71201655  0.25015178  1
  C  C37  1  0.00277749  0.29232369  0.25067474  1
  C  C38  1  0.14459585  0.28502123  0.74948999  1
  C  C39  1  0.64091763  0.28444625  0.75237389  1
  C  C40  1  0.99715627  0.71001971  0.75020381  1
  C  C41  1  0.50311995  0.72116164  0.75296814  1
  C  C42  1  0.36172868  0.00312609  0.75047064  1
  C  C43  1  0.85331376  0.99578219  0.75221926  1
  C  C44  1  0.48138973  0.32696981  0.58560638  1
  C  C45  1  0.98674673  0.32904577  0.58334335  1
  C  C46  1  0.18020941  0.03015175  0.58348064  1
  C  C47  1  0.68189990  0.03651588  0.58545357  1
  C  C48  1  0.33317712  0.63720182  0.58335789  1
  C  C49  1  0.83781714  0.64127969  0.58561256  1
  C  C50  1  0.48729057  0.64588989  0.08252556  1
  C  C51  1  0.98616105  0.64100700  0.08372424  1
  C  C52  1  0.33423241  0.02365433  0.08282351  1
  C  C53  1  0.83299960  0.02582994  0.08344159  1
  C  C54  1  0.18074957  0.33343130  0.08376983  1
  C  C55  1  0.67909998  0.32847939  0.08293224  1
  C  C56  1  0.31263845  0.67168206  0.91572863  1
  C  C57  1  0.80486504  0.66427068  0.91548809  1
  C  C58  1  0.02214506  0.38164330  0.91756134  1
  C  C59  1  0.16762736  0.95251680  0.91750283  1
  C  C60  1  0.66429808  0.94742243  0.91346017  1
  C  C61  1  0.30844409  0.94619735  0.41376397  1
  C  C62  1  0.80857941  0.95449724  0.41412995  1
  C  C63  1  0.16955880  0.39132815  0.41625065  1
  C  C64  1  0.66419645  0.37348983  0.41228931  1
  C  C65  1  0.52206096  0.66984524  0.41098468  1
  C  C66  1  0.10578117  0.01990470  0.30009389  1
  C  C67  1  0.59491525  0.01161963  0.30256405  1
  C  C68  1  0.41100756  0.80468385  0.30274767  1
  C  C69  1  0.90541199  0.78717182  0.29985427  1
  C  C70  1  0.49190316  0.16508656  0.30582923  1
  C  C71  1  0.99085525  0.19116549  0.30069358  1
  C  C72  1  0.10499550  0.18630288  0.80064246  1
  C  C73  1  0.59480805  0.17612321  0.80268816  1
  C  C74  1  0.49463135  0.81146784  0.80309544  1
  C  C75  1  0.98727163  0.78966691  0.80108780  1
  C  C76  1  0.41485960  0.01550963  0.80208340  1
  C  C77  1  0.90490295  0.02023595  0.80213186  1
  C  C78  1  0.40874007  0.99207281  0.70024454  1
  C  C79  1  0.89576834  0.97575145  0.70005314  1
  C  C80  1  0.09037527  0.18526902  0.69855950  1
  C  C81  1  0.58982405  0.20493038  0.70113393  1
  C  C82  1  0.00007413  0.81523278  0.69880525  1
  C  C83  1  0.51355482  0.82376298  0.70140626  1
  C  C84  1  0.39939332  0.82258161  0.20116006  1
  C  C85  1  0.89776806  0.82218369  0.19861574  1
  C  C86  1  0.01241849  0.20309816  0.19911716  1
  C  C87  1  0.51110233  0.19568924  0.19706614  1
  C  C88  1  0.08778127  0.97108885  0.19895269  1
  C  C89  1  0.58835408  0.97077445  0.20087430  1
  C  C90  1  0.44045435  0.35233669  0.63521348  1
  C  C91  1  0.95286804  0.36547618  0.63393149  1
  C  C92  1  0.23229075  0.10138113  0.63379128  1
  C  C93  1  0.73443738  0.11726671  0.63548514  1
  C  C94  1  0.31456479  0.52959579  0.63332369  1
  C  C95  1  0.82746450  0.53895799  0.63617015  1
  C  C96  1  0.45331524  0.53970571  0.13277990  1
  C  C97  1  0.95142584  0.53049244  0.13308807  1
  C  C98  1  0.31584938  0.09246931  0.13285441  1
  C  C99  1  0.81261953  0.09493676  0.13318778  1
  C  C100  1  0.23522668  0.37638449  0.13340117  1
  C  C101  1  0.73056522  0.35763094  0.13326281  1
  C  C102  1  0.21408270  0.29116048  0.03407675  1
  C  C103  1  0.71475580  0.29453529  0.03242076  1
  C  C104  1  0.43335292  0.57521612  0.03266045  1
  C  C105  1  0.93149355  0.57414768  0.03405481  1
  C  C106  1  0.35549410  0.13221904  0.03279702  1
  C  C107  1  0.85440057  0.13766312  0.03413524  1
  C  C108  1  0.21514200  0.13762066  0.53312290  1
  C  C109  1  0.71522654  0.14348010  0.53499776  1
  C  C110  1  0.35381469  0.56905000  0.53360960  1
  C  C111  1  0.85802341  0.57396331  0.53503336  1
  C  C112  1  0.42781181  0.28738691  0.53486775  1
  C  C113  1  0.93271710  0.28947580  0.53367771  1
  C  C114  1  0.27174487  0.69590964  0.96763843  1
  C  C115  1  0.75961075  0.67707783  0.96715261  1
  C  C116  1  0.07604400  0.48137251  0.96887351  1
  C  C117  1  0.57937805  0.47110965  0.97063153  1
  C  C118  1  0.16525307  0.84638474  0.96909828  1
  C  C119  1  0.65377131  0.84625128  0.96548571  1
  C  C120  1  0.26973114  0.84696521  0.46604889  1
  C  C121  1  0.76902744  0.85785523  0.46558330  1
  C  C122  1  0.16812496  0.48545993  0.46771522  1
  C  C123  1  0.64857579  0.43823834  0.46400994  1
  C  C124  1  0.08009006  0.66784678  0.47116232  1
  C  C125  1  0.56789365  0.69762019  0.46363428  1
  C  C126  1  0.07594771  0.66048662  0.36015283  1
  C  C127  1  0.57123987  0.65436757  0.36216353  1
  C  C128  1  0.25632401  0.85651300  0.36329637  1
  C  C129  1  0.75700329  0.85386211  0.36293620  1
  C  C130  1  0.17596616  0.49358923  0.36412141  1
  C  C131  1  0.67273452  0.48634341  0.36294619  1
  C  C132  1  0.06188599  0.48043904  0.86661782  1
  C  C133  1  0.57762421  0.49624973  0.85947292  1
  C  C134  1  0.17852564  0.87381786  0.86676993  1
  C  C135  1  0.67341586  0.86128999  0.86276384  1
  C  C136  1  0.26503088  0.65649524  0.86498625  1
  C  C137  1  0.75320129  0.65451175  0.86429096  1
  C  C138  1  0.01954386  0.84170617  0.42144503  1
  C  C139  1  0.51261946  0.82171556  0.39901944  1
  C  C140  1  0.39352073  0.95768513  0.40675483  1
  C  C141  1  0.89500712  0.97896149  0.40981227  1
  C  C142  1  0.09039345  0.22801035  0.41522703  1
  C  C143  1  0.58730767  0.19985713  0.40178215  1
  C  C144  1  0.01823083  0.21727189  0.91877113  1
  C  C145  1  0.51834488  0.18993140  0.90729947  1
  C  C146  1  0.08753016  0.95402286  0.91881500  1
  C  C147  1  0.58402441  0.95751010  0.90729196  1
  C  C148  1  0.40105185  0.83399183  0.91167696  1
  C  C149  1  0.88732213  0.81724408  0.91293779  1
  C  C150  1  0.48997355  0.16954919  0.59760825  1
  C  C151  1  0.99912843  0.17785701  0.59472566  1
  C  C152  1  0.09146834  0.00175974  0.59384810  1
  C  C153  1  0.59410577  0.01951931  0.59851511  1
  C  C154  1  0.40942308  0.81139263  0.59654438  1
  C  C155  1  0.91667791  0.81940796  0.59539749  1
  C  C156  1  0.50081183  0.82183560  0.09276043  1
  C  C157  1  0.99912864  0.81528403  0.09735927  1
  C  C158  1  0.40954339  0.99514105  0.09352175  1
  C  C159  1  0.90849812  0.00327431  0.09746384  1
  C  C160  1  0.09264531  0.18531644  0.09793252  1
  C  C161  1  0.59074894  0.17575184  0.09169021  1
  C  C162  1  0.35757396  0.16019107  0.74852060  1
  C  C163  1  0.83889269  0.14060025  0.74494275  1
  C  C164  1  0.22985511  0.30305480  0.74319246  1
  C  C165  1  0.72533597  0.30199878  0.75030059  1
  C  C166  1  0.42853658  0.55118900  0.74946395  1
  C  C167  1  0.92141669  0.53787276  0.74502553  1
  C  C168  1  0.34623496  0.54897715  0.24805368  1
  C  C169  1  0.83881097  0.53946161  0.24055859  1
  C  C170  1  0.41631370  0.31127558  0.25211326  1
  C  C171  1  0.93080272  0.32127350  0.24164545  1
  C  C172  1  0.22879245  0.14166574  0.24049739  1
  C  C173  1  0.72464118  0.14709737  0.24809149  1
  C  C174  1  0.32571055  0.52642821  0.92320755  1
  C  C175  1  0.80801951  0.50528936  0.91807167  1
  C  C176  1  0.42880108  0.35596689  0.91391531  1
  C  C177  1  0.93650410  0.36375229  0.92387885  1
  C  C178  1  0.24219900  0.12413126  0.92430530  1
  C  C179  1  0.73821518  0.11873234  0.91735253  1
  C  C180  1  0.31886238  0.11708222  0.41687254  1
  C  C181  1  0.80992846  0.11859984  0.41291202  1
  C  C182  1  0.24651905  0.37559118  0.41783734  1
  C  C183  1  0.73984231  0.35473405  0.41271456  1
  C  C184  1  0.43657226  0.51599573  0.41141552  1
  C  C185  1  0.92982542  0.49235354  0.41442014  1
  C  C186  1  0.16651210  0.48065749  0.06976908  1
  C  C187  1  0.66841539  0.48091475  0.07305659  1
  C  C188  1  0.07366690  0.66759194  0.07083612  1
  C  C189  1  0.57462522  0.66940646  0.07019227  1
  C  C190  1  0.25996940  0.85026742  0.07037571  1
  C  C191  1  0.75992461  0.85272589  0.06988070  1
  C  C192  1  0.17001776  0.85741839  0.57233338  1
  C  C193  1  0.66613258  0.86408217  0.57890526  1
  C  C194  1  0.26088193  0.66626699  0.57143593  1
  C  C195  1  0.76592324  0.66847029  0.57861340  1
  C  C196  1  0.07504410  0.47634732  0.57193536  1
  C  C197  1  0.56663603  0.46946440  0.57840145  1
  C  C198  1  0.15011603  0.83592922  0.25515713  1
  C  C199  1  0.64784587  0.84031161  0.26039539  1
  C  C200  1  0.27348918  0.71212446  0.26017773  1
  C  C201  1  0.76948242  0.70597763  0.25580420  1
  C  C202  1  0.08428743  0.46215665  0.25511731  1
  C  C203  1  0.58744239  0.47428718  0.26393755  1
  C  C204  1  0.14848410  0.44955359  0.74840233  1
  C  C205  1  0.64780602  0.45512712  0.75963059  1
  C  C206  1  0.07622526  0.70463349  0.74847308  1
  C  C207  1  0.58282430  0.71181676  0.76038070  1
  C  C208  1  0.28022044  0.84838763  0.75333921  1
  C  C209  1  0.76817583  0.83466024  0.75823493  1
