# generated using pymatgen
data_Cu11NiC66
_symmetry_space_group_name_H-M   'P 1'
_cell_length_a   18.26429932
_cell_length_b   9.08069706
_cell_length_c   22.99118893
_cell_angle_alpha   89.95799789
_cell_angle_beta   90.10500583
_cell_angle_gamma   120.06875519
_symmetry_Int_Tables_number   1
_chemical_formula_structural   Cu11NiC66
_chemical_formula_sum   'Cu33 Ni3 C198'
_cell_volume   3299.98692945
_cell_formula_units_Z   3
loop_
 _symmetry_equiv_pos_site_id
 _symmetry_equiv_pos_as_xyz
  1  'x, y, z'
loop_
 _atom_site_type_symbol
 _atom_site_label
 _atom_site_symmetry_multiplicity
 _atom_site_fract_x
 _atom_site_fract_y
 _atom_site_fract_z
 _atom_site_occupancy
  C  C0  1  0.82023168  0.98322707  0.24701979  1
  C  C1  1  0.68543136  0.37577323  0.24985900  1
  C  C2  1  0.99503915  0.64778778  0.25484810  1
  C  C3  1  0.49565750  0.62618174  0.24864844  1
  C  C4  1  0.32100196  0.66056197  0.74609246  1
  C  C5  1  0.82033558  0.65973420  0.74633574  1
  C  C6  1  0.99060365  0.33987845  0.75375453  1
  C  C7  1  0.49039882  0.33950748  0.75388451  1
  C  C8  1  0.18871899  0.00042364  0.75005001  1
  C  C9  1  0.68833872  0.99967936  0.74994374  1
  C  C10  1  0.33481585  0.96935326  0.58756108  1
  C  C11  1  0.83304835  0.96833940  0.58941564  1
  C  C12  1  0.15610203  0.97370142  0.08167159  1
  C  C13  1  0.83246670  0.69703819  0.09009997  1
  C  C14  1  0.35030314  0.03193518  0.91261124  1
  C  C15  1  0.84923107  0.03055995  0.91029071  1
  C  C16  1  0.17017190  0.03597924  0.41768832  1
  C  C17  1  0.84919623  0.66696682  0.40953951  1
  C  C18  1  0.00627694  0.01860810  0.50111446  1
  C  C19  1  0.50668943  0.99694738  0.49561970  1
  C  C20  1  0.00731791  0.01692257  0.99899716  1
  C  C21  1  0.50591792  0.99598792  0.00453728  1
  C  C22  1  0.33490250  0.33125431  0.83521938  1
  C  C23  1  0.83385051  0.32904032  0.83456900  1
  C  C24  1  0.33468581  0.33786247  0.33407967  1
  C  C25  1  0.83326701  0.33816933  0.33383084  1
  C  C26  1  0.17929204  0.65809290  0.16788235  1
  C  C27  1  0.66473126  0.66145196  0.16481615  1
  C  C28  1  0.16972976  0.66951595  0.66511401  1
  C  C29  1  0.66811814  0.66978435  0.66497894  1
  C  C30  1  0.00126504  0.00462203  0.34935373  1
  C  C31  1  0.00050900  0.00187473  0.85379844  1
  C  C32  1  0.50037341  0.00218175  0.85405135  1
  C  C33  1  0.99903619  0.99778084  0.64627031  1
  C  C34  1  0.49912509  0.99806644  0.64593219  1
  C  C35  1  0.00111690  0.01066464  0.15169144  1
  C  C36  1  0.33480176  0.33300401  0.67570330  1
  C  C37  1  0.83401927  0.33103104  0.67572137  1
  C  C38  1  0.83276159  0.33454069  0.17819618  1
  C  C39  1  0.66406951  0.66389996  0.32158204  1
  C  C40  1  0.16832109  0.66705924  0.82428731  1
  C  C41  1  0.66764076  0.66719613  0.82432602  1
  C  C42  1  0.49395371  0.99419623  0.35189095  1
  C  C43  1  0.49240148  0.99225441  0.14791025  1
  C  C44  1  0.33237484  0.33140872  0.18007670  1
  C  C45  1  0.33892042  0.34575875  0.98776853  1
  C  C46  1  0.83003856  0.33394024  0.98623534  1
  C  C47  1  0.33824908  0.34663607  0.48246920  1
  C  C48  1  0.83174623  0.32832996  0.48466938  1
  C  C49  1  0.16835156  0.65780574  0.01671058  1
  C  C50  1  0.65763217  0.66123677  0.01804365  1
  C  C51  1  0.16691334  0.65990087  0.51373779  1
  C  C52  1  0.65908092  0.65897618  0.51177124  1
  C  C53  1  0.17561435  0.66743265  0.31847838  1
  Ni  Ni54  1  0.84523717  0.69241221  0.25005282  1
  Ni  Ni55  1  0.34612198  0.99990958  0.75000746  1
  Ni  Ni56  1  0.84608038  0.99951934  0.75011021  1
  Cu  Cu57  1  0.15849509  0.00048279  0.25008191  1
  Cu  Cu58  1  0.63773729  0.99733303  0.24978462  1
  Cu  Cu59  1  0.35466466  0.70731798  0.25003308  1
  Cu  Cu60  1  0.00609748  0.31725226  0.25188089  1
  Cu  Cu61  1  0.49397979  0.27958812  0.24819377  1
  Cu  Cu62  1  0.15070263  0.30048839  0.74955168  1
  Cu  Cu63  1  0.65068258  0.30062316  0.74959944  1
  Cu  Cu64  1  0.00026377  0.69909928  0.75038434  1
  Cu  Cu65  1  0.50038209  0.69944878  0.75037867  1
  Cu  Cu66  1  0.48578052  0.34336080  0.57835985  1
  Cu  Cu67  1  0.98619364  0.34443830  0.57854980  1
  Cu  Cu68  1  0.18484288  0.02711387  0.57573135  1
  Cu  Cu69  1  0.68417370  0.02525170  0.57824072  1
  Cu  Cu70  1  0.32829243  0.63067259  0.57886114  1
  Cu  Cu71  1  0.82831049  0.63132170  0.57655780  1
  Cu  Cu72  1  0.48095712  0.62997376  0.08607336  1
  Cu  Cu73  1  0.98714650  0.63065199  0.07946242  1
  Cu  Cu74  1  0.33336695  0.03991519  0.08236205  1
  Cu  Cu75  1  0.82907079  0.02521595  0.07821091  1
  Cu  Cu76  1  0.19266051  0.34108935  0.08157785  1
  Cu  Cu77  1  0.67977556  0.33308638  0.08107299  1
  Cu  Cu78  1  0.31494449  0.65653600  0.92133125  1
  Cu  Cu79  1  0.81439409  0.65674464  0.92313821  1
  Cu  Cu80  1  0.01297242  0.36983968  0.92187054  1
  Cu  Cu81  1  0.51278097  0.36944828  0.92141181  1
  Cu  Cu82  1  0.17191735  0.97411586  0.92392324  1
  Cu  Cu83  1  0.67122969  0.97270207  0.92211644  1
  Cu  Cu84  1  0.31368076  0.96080464  0.41742035  1
  Cu  Cu85  1  0.81479326  0.97088246  0.42154453  1
  Cu  Cu86  1  0.17209925  0.37933601  0.41844442  1
  Cu  Cu87  1  0.66699816  0.36118764  0.41863250  1
  Cu  Cu88  1  0.02103593  0.66042982  0.41773058  1
  Cu  Cu89  1  0.51257166  0.66708160  0.41701005  1
  C  C90  1  0.12015908  0.02849907  0.30303326  1
  C  C91  1  0.59844062  0.02109504  0.30227769  1
  C  C92  1  0.40874198  0.78838388  0.30177270  1
  C  C93  1  0.90135291  0.77937431  0.30891880  1
  C  C94  1  0.48594641  0.18334907  0.30174858  1
  C  C95  1  0.99328541  0.20923263  0.30282737  1
  C  C96  1  0.11344679  0.19398235  0.80148686  1
  C  C97  1  0.61371551  0.19427083  0.80149049  1
  C  C98  1  0.49280194  0.78275307  0.80281041  1
  C  C99  1  0.99252577  0.78260725  0.80275898  1
  C  C100  1  0.40202851  0.02460806  0.80878599  1
  C  C101  1  0.90203403  0.02385620  0.80890992  1
  C  C102  1  0.38955601  0.97519070  0.69125263  1
  C  C103  1  0.88964250  0.97494229  0.69128318  1
  C  C104  1  0.10116841  0.21681620  0.69708692  1
  C  C105  1  0.60142242  0.21751136  0.69714776  1
  C  C106  1  0.01626657  0.80590737  0.69841223  1
  C  C107  1  0.51605020  0.80556072  0.69844932  1
  C  C108  1  0.39322578  0.81009207  0.19740725  1
  C  C109  1  0.89007759  0.80494681  0.19144522  1
  C  C110  1  0.02009410  0.24554759  0.19876318  1
  C  C111  1  0.50551565  0.19647475  0.19679960  1
  C  C112  1  0.10320787  0.96994691  0.19826266  1
  C  C113  1  0.58881476  0.98465552  0.19715065  1
  C  C114  1  0.45531671  0.36499408  0.63609791  1
  C  C115  1  0.95503273  0.36379921  0.63616996  1
  C  C116  1  0.23097063  0.09868377  0.63152759  1
  C  C117  1  0.72862355  0.09104395  0.63535176  1
  C  C118  1  0.32047007  0.55048265  0.63659532  1
  C  C119  1  0.82137216  0.54653189  0.63297505  1
  C  C120  1  0.44215066  0.52891240  0.14024788  1
  C  C121  1  0.95456892  0.54539261  0.13601048  1
  C  C122  1  0.31927783  0.12654033  0.13230350  1
  C  C123  1  0.82158035  0.09522639  0.13465467  1
  C  C124  1  0.24037073  0.35902224  0.13572815  1
  C  C125  1  0.72913598  0.36514466  0.13627296  1
  C  C126  1  0.23592953  0.31945926  0.03086369  1
  C  C127  1  0.72730006  0.31243090  0.03265006  1
  C  C128  1  0.42774895  0.54373349  0.03502964  1
  C  C129  1  0.92722393  0.53210881  0.03252579  1
  C  C130  1  0.34446313  0.13874643  0.02823520  1
  C  C131  1  0.83521942  0.13629940  0.02939424  1
  C  C132  1  0.23259621  0.13862887  0.52609298  1
  C  C133  1  0.73535869  0.14300743  0.53135715  1
  C  C134  1  0.33298530  0.52632604  0.53215796  1
  C  C135  1  0.83506009  0.53362409  0.52751602  1
  C  C136  1  0.42475726  0.32398172  0.53239474  1
  C  C137  1  0.92578331  0.32664963  0.53237479  1
  C  C138  1  0.26370857  0.67575240  0.96741565  1
  C  C139  1  0.76534604  0.67442222  0.97123335  1
  C  C140  1  0.07036025  0.47255392  0.96878453  1
  C  C141  1  0.57003760  0.47299542  0.96828843  1
  C  C142  1  0.16410779  0.86173627  0.97337630  1
  C  C143  1  0.66414062  0.85623446  0.96926831  1
  C  C144  1  0.27552464  0.86181913  0.47157856  1
  C  C145  1  0.76599511  0.85479551  0.46986697  1
  C  C146  1  0.16366906  0.46511222  0.46997635  1
  C  C147  1  0.65664159  0.45588012  0.46705984  1
  C  C148  1  0.07525533  0.67572080  0.46742578  1
  C  C149  1  0.57105062  0.68818046  0.46499414  1
  C  C150  1  0.05808154  0.64406430  0.36252439  1
  C  C151  1  0.54433250  0.63945781  0.36074536  1
  C  C152  1  0.25628185  0.87344777  0.36734073  1
  C  C153  1  0.77079609  0.90311161  0.36519774  1
  C  C154  1  0.17813429  0.47428273  0.36498006  1
  C  C155  1  0.68303395  0.45955268  0.36332620  1
  C  C156  1  0.04519440  0.44974503  0.86423432  1
  C  C157  1  0.54489459  0.44984167  0.86377252  1
  C  C158  1  0.18128747  0.90124661  0.86806622  1
  C  C159  1  0.68245952  0.90695509  0.86505417  1
  C  C160  1  0.27302133  0.63529401  0.86378729  1
  C  C161  1  0.77140611  0.63678536  0.86637038  1
  C  C162  1  0.01596504  0.82184276  0.41728229  1
  C  C163  1  0.50539648  0.82324737  0.41323744  1
  C  C164  1  0.39852889  0.98225521  0.40926049  1
  C  C165  1  0.89864072  0.97767925  0.42089913  1
  C  C166  1  0.09688812  0.20207461  0.41679058  1
  C  C167  1  0.59138476  0.19060799  0.41333892  1
  C  C168  1  0.00381144  0.19642521  0.92338157  1
  C  C169  1  0.50366929  0.19688985  0.92318103  1
  C  C170  1  0.09668509  0.99373786  0.92248591  1
  C  C171  1  0.59665866  0.99303614  0.92152929  1
  C  C172  1  0.39836569  0.81775743  0.92147656  1
  C  C173  1  0.89844446  0.81779538  0.92229271  1
  C  C174  1  0.48952832  0.18290994  0.57838421  1
  C  C175  1  0.98908474  0.18226734  0.57819240  1
  C  C176  1  0.09987311  0.00756825  0.57746251  1
  C  C177  1  0.59989103  0.00672741  0.57883125  1
  C  C178  1  0.40531889  0.80305577  0.57692211  1
  C  C179  1  0.90550869  0.80481524  0.57593493  1
  C  C180  1  0.49001594  0.80226366  0.09116601  1
  C  C181  1  0.99527340  0.80437311  0.08007973  1
  C  C182  1  0.40734991  0.01745788  0.09035684  1
  C  C183  1  0.90627745  0.00742532  0.07760790  1
  C  C184  1  0.10774969  0.18061538  0.08411466  1
  C  C185  1  0.59513745  0.18127255  0.08601381  1
  C  C186  1  0.33648517  0.17153915  0.74824546  1
  C  C187  1  0.83699011  0.17164863  0.74850536  1
  C  C188  1  0.23895301  0.33332142  0.74474724  1
  C  C189  1  0.73933901  0.33441469  0.74478332  1
  C  C190  1  0.42003987  0.53286648  0.74526286  1
  C  C191  1  0.91984788  0.53316581  0.74499421  1
  C  C192  1  0.34874160  0.53552041  0.24381153  1
  C  C193  1  0.83506774  0.50161859  0.24876191  1
  C  C194  1  0.42001836  0.30739907  0.24240796  1
  C  C195  1  0.92612583  0.32572594  0.24650769  1
  C  C196  1  0.24305942  0.15173371  0.24143345  1
  C  C197  1  0.72654143  0.14427183  0.24623298  1
  C  C198  1  0.32585336  0.50776307  0.92969343  1
  C  C199  1  0.82578399  0.50743587  0.93036676  1
  C  C200  1  0.42614186  0.34697380  0.92779044  1
  C  C201  1  0.92595865  0.34540049  0.92828049  1
  C  C202  1  0.25151347  0.14226436  0.92938209  1
  C  C203  1  0.75114152  0.14170986  0.92849318  1
  C  C204  1  0.31900137  0.13193860  0.42209267  1
  C  C205  1  0.82699387  0.14379266  0.42883214  1
  C  C206  1  0.24799828  0.35610257  0.42232265  1
  C  C207  1  0.74622071  0.35066017  0.42719677  1
  C  C208  1  0.42762969  0.51430259  0.42620813  1
  C  C209  1  0.93234855  0.51470643  0.42334690  1
  C  C210  1  0.18032312  0.49049450  0.07583202  1
  C  C211  1  0.67478626  0.49208746  0.07268827  1
  C  C212  1  0.07361131  0.65612344  0.07133874  1
  C  C213  1  0.56670587  0.64806465  0.07955054  1
  C  C214  1  0.25345456  0.86804283  0.07759812  1
  C  C215  1  0.75373645  0.85003670  0.07276016  1
  C  C216  1  0.18008179  0.85808036  0.57026474  1
  C  C217  1  0.67958545  0.85656044  0.57131389  1
  C  C218  1  0.25313682  0.65496469  0.57304872  1
  C  C219  1  0.75302251  0.65383822  0.57099549  1
  C  C220  1  0.07149774  0.49244409  0.57031389  1
  C  C221  1  0.57080817  0.49284350  0.56973634  1
  C  C222  1  0.16242014  0.84072170  0.25776239  1
  C  C223  1  0.64352840  0.83831970  0.25323509  1
  C  C224  1  0.26835369  0.68348787  0.25746934  1
  C  C225  1  0.75142039  0.67897301  0.25121780  1
  C  C226  1  0.07868991  0.49373739  0.25962232  1
  C  C227  1  0.57172986  0.45492909  0.25194592  1
  C  C228  1  0.15315695  0.46664800  0.75468370  1
  C  C229  1  0.65348734  0.46723547  0.75483621  1
  C  C230  1  0.07206258  0.66586300  0.75527132  1
  C  C231  1  0.57224223  0.66598388  0.75507745  1
  C  C232  1  0.25084625  0.82835801  0.75178268  1
  C  C233  1  0.75117006  0.82768373  0.75181415  1
