# generated using pymatgen
data_Cu2NiC32
_symmetry_space_group_name_H-M   'P 1'
_cell_length_a   17.27399037
_cell_length_b   8.65921179
_cell_length_c   22.49517844
_cell_angle_alpha   89.73617153
_cell_angle_beta   89.30142791
_cell_angle_gamma   120.21293078
_symmetry_Int_Tables_number   1
_chemical_formula_structural   Cu2NiC32
_chemical_formula_sum   'Cu12 Ni6 C192'
_cell_volume   2907.29726783
_cell_formula_units_Z   6
loop_
 _symmetry_equiv_pos_site_id
 _symmetry_equiv_pos_as_xyz
  1  'x, y, z'
loop_
 _atom_site_type_symbol
 _atom_site_label
 _atom_site_symmetry_multiplicity
 _atom_site_fract_x
 _atom_site_fract_y
 _atom_site_fract_z
 _atom_site_occupancy
  Ni  Ni0  1  0.99470053  0.01086893  0.50113929  1
  Ni  Ni1  1  0.49539937  0.98091097  0.00392691  1
  Ni  Ni2  1  0.32621476  0.31901940  0.83719469  1
  Ni  Ni3  1  0.82907577  0.33025643  0.83032496  1
  Ni  Ni4  1  0.33070294  0.32917780  0.32956336  1
  Ni  Ni5  1  0.81953234  0.32627791  0.33380782  1
  Cu  Cu6  1  0.00793586  0.00576183  0.34959760  1
  Cu  Cu7  1  0.50795256  0.01004345  0.85086070  1
  Cu  Cu8  1  -0.00005226  0.00869186  0.64415809  1
  Cu  Cu9  1  0.50360467  0.98865814  0.14565968  1
  Cu  Cu10  1  0.32665246  0.33115877  0.98146232  1
  Cu  Cu11  1  0.84158349  0.34657759  0.98309838  1
  Cu  Cu12  1  0.34172976  0.33343416  0.48164483  1
  Cu  Cu13  1  0.82748842  0.32376797  0.47991922  1
  Cu  Cu14  1  0.16489549  0.67507622  0.30332715  1
  Cu  Cu15  1  0.66914368  0.66454399  0.30727670  1
  Cu  Cu16  1  0.16931678  0.67996378  0.81128620  1
  Cu  Cu17  1  0.66365615  0.65213354  0.80400916  1
  C  C18  1  0.15145108  0.02028175  0.24457179  1
  C  C19  1  0.65255243  0.01326133  0.24711460  1
  C  C20  1  0.65217398  0.28333722  0.74463250  1
  C  C21  1  0.48260375  0.33535742  0.58435382  1
  C  C22  1  0.98028741  0.34604219  0.58181220  1
  C  C23  1  0.47842334  0.61791182  0.08138987  1
  C  C24  1  0.97838604  0.62517674  0.08618702  1
  C  C25  1  0.16428535  0.95657870  0.91528346  1
  C  C26  1  0.66407907  0.37305174  0.41412729  1
  C  C27  1  0.52044235  0.02850860  0.35211035  1
  C  C28  1  0.00305592  0.99440483  0.85720000  1
  C  C29  1  0.50772625  0.02585167  0.64371842  1
  C  C30  1  0.00627101  0.98866598  0.14452022  1
  C  C31  1  0.33930750  0.34145893  0.68003760  1
  C  C32  1  0.83207101  0.33799046  0.67819480  1
  C  C33  1  0.33717439  0.33502760  0.18333979  1
  C  C34  1  0.83536558  0.33142045  0.18462782  1
  C  C35  1  0.15913520  0.68545932  0.02462507  1
  C  C36  1  0.66407113  0.66951474  0.02601941  1
  C  C37  1  0.16462896  0.66154593  0.52133017  1
  C  C38  1  0.65555291  0.63649381  0.51690755  1
  C  C39  1  0.36129906  0.70802022  0.25354626  1
  C  C40  1  0.86035886  0.71052807  0.24528313  1
  C  C41  1  0.99488463  0.27981480  0.24526495  1
  C  C42  1  0.49373386  0.27992600  0.25007804  1
  C  C43  1  0.15094461  0.28595679  0.74939912  1
  C  C44  1  0.99496006  0.70798339  0.75107892  1
  C  C45  1  0.49123198  0.70467848  0.74510917  1
  C  C46  1  0.35828847  0.01172375  0.74447012  1
  C  C47  1  0.86229587  0.01445328  0.75423420  1
  C  C48  1  0.19164928  0.03792307  0.58297647  1
  C  C49  1  0.68354348  0.02926681  0.58550772  1
  C  C50  1  0.33429392  0.63037976  0.58593171  1
  C  C51  1  0.82782912  0.62314838  0.58197290  1
  C  C52  1  0.32844722  0.03457675  0.08280487  1
  C  C53  1  0.83459144  0.03618532  0.08542508  1
  C  C54  1  0.18291042  0.33911133  0.08526405  1
  C  C55  1  0.68974341  0.34583709  0.08087482  1
  C  C56  1  0.30860146  0.67278729  0.91950502  1
  C  C57  1  0.81105856  0.67488721  0.91593002  1
  C  C58  1  0.02232885  0.36556425  0.91445805  1
  C  C59  1  0.52570934  0.38056216  0.91973835  1
  C  C60  1  0.66658495  0.94929712  0.91889163  1
  C  C61  1  0.31031036  0.94393015  0.41685807  1
  C  C62  1  0.80861745  0.94332357  0.42024705  1
  C  C63  1  0.16602460  0.38166278  0.41932316  1
  C  C64  1  0.02605449  0.67163287  0.41908792  1
  C  C65  1  0.52368155  0.68001745  0.41522098  1
  C  C66  1  0.11324577  0.06302119  0.30521190  1
  C  C67  1  0.61036238  0.05840976  0.30739385  1
  C  C68  1  0.41734216  0.79251508  0.30689609  1
  C  C69  1  0.91411196  0.79015678  0.29918932  1
  C  C70  1  0.47466369  0.16414627  0.30552584  1
  C  C71  1  0.97760688  0.17111990  0.30018835  1
  C  C72  1  0.11095569  0.17169262  0.80414856  1
  C  C73  1  0.61262570  0.16176588  0.80493196  1
  C  C74  1  0.47421160  0.77842410  0.79961127  1
  C  C75  1  0.97792577  0.78903007  0.80610058  1
  C  C76  1  0.41206593  0.04399844  0.79836207  1
  C  C77  1  0.91986092  0.04317103  0.80817571  1
  C  C78  1  0.40069164  0.98421948  0.69110420  1
  C  C79  1  0.90100642  0.98272524  0.70078248  1
  C  C80  1  0.09744939  0.20447355  0.69687978  1
  C  C81  1  0.58659872  0.18978190  0.68930666  1
  C  C82  1  0.00920679  0.81778002  0.69830251  1
  C  C83  1  0.50397061  0.81379013  0.69169667  1
  C  C84  1  0.39571666  0.81384797  0.19895411  1
  C  C85  1  0.90152640  0.82725113  0.19176400  1
  C  C86  1  0.00670755  0.19574097  0.19188663  1
  C  C87  1  0.50409217  0.19826065  0.19678921  1
  C  C88  1  0.08641322  0.98349914  0.18912963  1
  C  C89  1  0.59294349  0.98405665  0.19046960  1
  C  C90  1  0.43643657  0.37704931  0.64289090  1
  C  C91  1  0.93130337  0.37499040  0.64336677  1
  C  C92  1  0.24600156  0.12050871  0.63776614  1
  C  C93  1  0.74067451  0.11330316  0.63931800  1
  C  C94  1  0.30854187  0.50425895  0.64033947  1
  C  C95  1  0.80995747  0.50968874  0.63758375  1
  C  C96  1  0.43084829  0.48936262  0.14249095  1
  C  C97  1  0.92853839  0.48558231  0.14274882  1
  C  C98  1  0.30997025  0.11159418  0.13687924  1
  C  C99  1  0.81058088  0.10960784  0.13806248  1
  C  C100  1  0.23975661  0.36954100  0.13803659  1
  C  C101  1  0.74277457  0.37122922  0.13470251  1
  C  C102  1  0.21772386  0.29196130  0.03290422  1
  C  C103  1  0.72749166  0.30684641  0.02786583  1
  C  C104  1  0.41910497  0.52560851  0.02475523  1
  C  C105  1  0.92056347  0.54177198  0.02736631  1
  C  C106  1  0.34004549  0.13935172  0.02905689  1
  C  C107  1  0.85008322  0.14614015  0.03178626  1
  C  C108  1  0.22813591  0.15426201  0.53046561  1
  C  C109  1  0.71879426  0.14960564  0.53413089  1
  C  C110  1  0.35043376  0.54950698  0.53394095  1
  C  C111  1  0.84367943  0.54242158  0.53022955  1
  C  C112  1  0.42007817  0.29869866  0.52803909  1
  C  C113  1  0.91829239  0.30723340  0.52611007  1
  C  C114  1  0.26447524  0.68997527  0.97458262  1
  C  C115  1  0.77209793  0.70245859  0.97170757  1
  C  C116  1  0.07413946  0.43934437  0.96874037  1
  C  C117  1  0.58271771  0.46371231  0.97306177  1
  C  C118  1  0.14712718  0.83042007  0.97536247  1
  C  C119  1  0.65569957  0.84242701  0.97505955  1
  C  C120  1  0.26903680  0.83523641  0.47487913  1
  C  C121  1  0.76399077  0.83780845  0.47704099  1
  C  C122  1  0.15392693  0.46391257  0.47593698  1
  C  C123  1  0.64786229  0.46037133  0.47556553  1
  C  C124  1  0.08243795  0.70242026  0.47350990  1
  C  C125  1  0.57587153  0.70862473  0.47123090  1
  C  C126  1  0.06780141  0.65036390  0.36550270  1
  C  C127  1  0.56460234  0.64939515  0.36360090  1
  C  C128  1  0.25238542  0.86042982  0.36628213  1
  C  C129  1  0.75845419  0.86361796  0.36706065  1
  C  C130  1  0.17552410  0.48552065  0.36635372  1
  C  C131  1  0.68099966  0.49286989  0.35655663  1
  C  C132  1  0.06373863  0.47444022  0.86083205  1
  C  C133  1  0.56725972  0.48490772  0.86516440  1
  C  C134  1  0.17976228  0.86856582  0.85678577  1
  C  C135  1  0.67594433  0.86579177  0.86542508  1
  C  C136  1  0.25810553  0.65120458  0.86507273  1
  C  C137  1  0.75636533  0.64837054  0.86385890  1
  C  C138  1  0.01740134  0.83323648  0.41563849  1
  C  C139  1  0.51277512  0.83898090  0.40860344  1
  C  C140  1  0.39724934  0.95657763  0.41039783  1
  C  C141  1  0.89829051  0.95947986  0.41752577  1
  C  C142  1  0.08325193  0.20329075  0.41804419  1
  C  C143  1  0.56814459  0.18012238  0.41000005  1
  C  C144  1  0.01208516  0.18365496  0.90678045  1
  C  C145  1  0.51689549  0.20103816  0.91543843  1
  C  C146  1  0.07148092  0.96488903  0.90660761  1
  C  C147  1  0.58327726  0.96029672  0.91736318  1
  C  C148  1  0.39829562  0.83635171  0.91462815  1
  C  C149  1  0.90039427  0.84143567  0.90864475  1
  C  C150  1  0.48905248  0.15518585  0.59248180  1
  C  C151  1  0.99549672  0.17687314  0.59110587  1
  C  C152  1  0.09991237  0.00400945  0.59146716  1
  C  C153  1  0.59024529  0.99594421  0.59543285  1
  C  C154  1  0.41477900  0.80251343  0.59768379  1
  C  C155  1  0.90980699  0.79847777  0.59010418  1
  C  C156  1  0.49021521  0.81379600  0.08590046  1
  C  C157  1  0.98812497  0.82055083  0.09381954  1
  C  C158  1  0.40829503  0.01951824  0.08939310  1
  C  C159  1  0.91459407  0.02197100  0.09565947  1
  C  C160  1  0.08935232  0.18552502  0.09447793  1
  C  C161  1  0.59662492  0.20080911  0.08683889  1
  C  C162  1  0.34715054  0.17401779  0.73870371  1
  C  C163  1  0.85628714  0.17766399  0.74819007  1
  C  C164  1  0.24189416  0.29838522  0.74199652  1
  C  C165  1  0.75185670  0.30179407  0.73411743  1
  C  C166  1  0.40676657  0.52114098  0.74065055  1
  C  C167  1  0.91256319  0.53038739  0.74652616  1
  C  C168  1  0.35505483  0.53014759  0.24704071  1
  C  C169  1  0.85533689  0.53446920  0.23948138  1
  C  C170  1  0.41082078  0.29555846  0.24626927  1
  C  C171  1  0.91356093  0.29886598  0.24093659  1
  C  C172  1  0.25086498  0.20020228  0.23409635  1
  C  C173  1  0.75117522  0.20320349  0.23788857  1
  C  C174  1  0.31917735  0.51449142  0.92245414  1
  C  C175  1  0.82280889  0.51734602  0.92073555  1
  C  C176  1  0.43686376  0.36141236  0.92451384  1
  C  C177  1  0.93102181  0.34178265  0.91943718  1
  C  C178  1  0.24969400  0.15318184  0.92033299  1
  C  C179  1  0.74543212  0.12925095  0.92381808  1
  C  C180  1  0.31818145  0.12257503  0.42306097  1
  C  C181  1  0.81951130  0.12301290  0.42413471  1
  C  C182  1  0.24533078  0.36157954  0.42508785  1
  C  C183  1  0.74854173  0.34327338  0.42145040  1
  C  C184  1  0.43238747  0.52013043  0.42202256  1
  C  C185  1  0.93740392  0.51231285  0.42485122  1
  C  C186  1  0.17882911  0.50360862  0.07482753  1
  C  C187  1  0.69120049  0.51940249  0.07244797  1
  C  C188  1  0.07472956  0.63258710  0.07849147  1
  C  C189  1  0.57819150  0.63492876  0.07557342  1
  C  C190  1  0.24850327  0.85008756  0.07767743  1
  C  C191  1  0.75519144  0.85324428  0.07632596  1
  C  C192  1  0.18968351  0.86632254  0.57518145  1
  C  C193  1  0.67936338  0.85826580  0.57632414  1
  C  C194  1  0.25549338  0.65348812  0.57772345  1
  C  C195  1  0.74995525  0.64733608  0.57618258  1
  C  C196  1  0.08077915  0.52655373  0.57401732  1
  C  C197  1  0.57845837  0.52038620  0.57554391  1
  C  C198  1  0.16157547  0.84749926  0.25385969  1
  C  C199  1  0.66814897  0.85186373  0.26017265  1
  C  C200  1  0.27023641  0.67604861  0.26286641  1
  C  C201  1  0.77171397  0.68746353  0.24991649  1
  C  C202  1  0.07459863  0.45581511  0.25202556  1
  C  C203  1  0.57124106  0.45656855  0.25693381  1
  C  C204  1  0.16287938  0.46275261  0.75743453  1
  C  C205  1  0.66238231  0.47647199  0.75392333  1
  C  C206  1  0.07263545  0.68583018  0.75813452  1
  C  C207  1  0.56903989  0.68226758  0.75176414  1
  C  C208  1  0.26994917  0.85183888  0.74980130  1
  C  C209  1  0.77283203  0.85995236  0.76269522  1
