# generated using pymatgen
data_Cu4NiC
_symmetry_space_group_name_H-M   'P 1'
_cell_length_a   4.01831914
_cell_length_b   5.62524500
_cell_length_c   6.84549778
_cell_angle_alpha   114.25967225
_cell_angle_beta   107.06783964
_cell_angle_gamma   89.99967756
_symmetry_Int_Tables_number   1
_chemical_formula_structural   Cu4NiC
_chemical_formula_sum   'Cu12 Ni3 C3'
_cell_volume   133.56135910
_cell_formula_units_Z   3
loop_
 _symmetry_equiv_pos_site_id
 _symmetry_equiv_pos_as_xyz
  1  'x, y, z'
loop_
 _atom_site_type_symbol
 _atom_site_label
 _atom_site_symmetry_multiplicity
 _atom_site_fract_x
 _atom_site_fract_y
 _atom_site_fract_z
 _atom_site_occupancy
  C  C0  1  0.00000300  0.54391800  0.99999800  1
  C  C1  1  0.33586400  0.88915400  0.67172500  1
  C  C2  1  0.66411300  0.21741600  0.32827000  1
  Ni  Ni3  1  0.99997500  0.05469500  0.00000000  1
  Ni  Ni4  1  0.33447600  0.38625000  0.66927700  1
  Ni  Ni5  1  0.66549400  0.71694000  0.33073400  1
  Cu  Cu6  1  0.90841300  0.09362900  0.81676200  1
  Cu  Cu7  1  0.09158500  0.27685400  0.18322700  1
  Cu  Cu8  1  0.74493900  0.91827800  0.00000100  1
  Cu  Cu9  1  0.25506500  0.91827500  0.99998400  1
  Cu  Cu10  1  0.07975100  0.51839000  0.67279200  1
  Cu  Cu11  1  0.92027500  0.84560600  0.32721400  1
  Cu  Cu12  1  0.42007900  0.33382300  0.84012400  1
  Cu  Cu13  1  0.57995100  0.49371400  0.15989200  1
  Cu  Cu14  1  0.59305800  0.51843200  0.67282100  1
  Cu  Cu15  1  0.40694400  0.84561600  0.32717700  1
  Cu  Cu16  1  0.24167200  0.17638300  0.48336300  1
  Cu  Cu17  1  0.75834300  0.69302400  0.51663900  1
