# generated using pymatgen
data_Cu2NiC16
_symmetry_space_group_name_H-M   'P 1'
_cell_length_a   7.05280171
_cell_length_b   6.65389438
_cell_length_c   11.24193618
_cell_angle_alpha   101.04069681
_cell_angle_beta   102.42812599
_cell_angle_gamma   109.44883776
_symmetry_Int_Tables_number   1
_chemical_formula_structural   Cu2NiC16
_chemical_formula_sum   'Cu2 Ni1 C16'
_cell_volume   465.54607843
_cell_formula_units_Z   1
loop_
 _symmetry_equiv_pos_site_id
 _symmetry_equiv_pos_as_xyz
  1  'x, y, z'
loop_
 _atom_site_type_symbol
 _atom_site_label
 _atom_site_symmetry_multiplicity
 _atom_site_fract_x
 _atom_site_fract_y
 _atom_site_fract_z
 _atom_site_occupancy
  Ni  Ni0  1  0.51772900  0.51762100  0.03500900  1
  Cu  Cu1  1  0.84457500  0.84460400  0.68902400  1
  Cu  Cu2  1  0.60391800  0.10387000  0.20753800  1
  C  C3  1  0.73638900  0.86661500  0.37775600  1
  C  C4  1  0.60607200  0.99600600  0.87499200  1
  C  C5  1  0.26893100  0.87901200  0.87496200  1
  C  C6  1  0.64173100  0.51148400  0.37768800  1
  C  C7  1  0.69144400  0.73259000  0.87804100  1
  C  C8  1  0.18676700  0.14566900  0.87820500  1
  C  C9  1  0.97530500  0.03739500  0.54308100  1
  C  C10  1  0.56781700  0.50589300  0.54287100  1
  C  C11  1  0.29349200  0.77637300  0.03826000  1
  C  C12  1  0.74502000  0.26202000  0.03830200  1
  C  C13  1  0.39001300  0.33960200  0.21408300  1
  C  C14  1  0.82448500  0.87484900  0.21419600  1
  C  C15  1  0.65219700  0.09208600  0.72069200  1
  C  C16  1  0.06843300  0.62870700  0.72073600  1
  C  C17  1  0.46941800  0.92950800  0.35886800  1
  C  C18  1  0.88978200  0.42961600  0.35902900  1
