# generated using pymatgen
data_Cu5NiC28
_symmetry_space_group_name_H-M   'P 1'
_cell_length_a   9.12129192
_cell_length_b   9.14192005
_cell_length_c   23.54708158
_cell_angle_alpha   90.03871888
_cell_angle_beta   90.18448668
_cell_angle_gamma   119.87191526
_symmetry_Int_Tables_number   1
_chemical_formula_structural   Cu5NiC28
_chemical_formula_sum   'Cu15 Ni3 C84'
_cell_volume   1702.61645536
_cell_formula_units_Z   3
loop_
 _symmetry_equiv_pos_site_id
 _symmetry_equiv_pos_as_xyz
  1  'x, y, z'
loop_
 _atom_site_type_symbol
 _atom_site_label
 _atom_site_symmetry_multiplicity
 _atom_site_fract_x
 _atom_site_fract_y
 _atom_site_fract_z
 _atom_site_occupancy
  C  C0  1  0.99774554  0.00291289  0.36858087  1
  C  C1  1  0.00057393  0.99981644  0.86464919  1
  C  C2  1  0.67564588  0.33744375  0.67721388  1
  C  C3  1  0.65704128  0.33659511  0.18382555  1
  C  C4  1  0.65473286  0.32935114  0.99022538  1
  C  C5  1  0.33230224  0.66650983  0.80058356  1
  C  C6  1  0.00208769  0.00986745  0.63716647  1
  C  C7  1  0.01129377  0.01490280  0.14846463  1
  C  C8  1  0.68986279  0.32182296  0.47789357  1
  C  C9  1  0.33130654  0.65950349  0.02404209  1
  C  C10  1  0.33787050  0.66808814  0.52187495  1
  C  C11  1  0.34971628  0.68257417  0.31605553  1
  Ni  Ni12  1  0.97521610  0.33634954  0.57835969  1
  Ni  Ni13  1  0.34928184  0.33367019  0.08377693  1
  Ni  Ni14  1  0.59367699  0.94920610  0.42140193  1
  Cu  Cu15  1  0.27524835  0.97285827  0.25121385  1
  Cu  Cu16  1  0.69759471  0.72225176  0.25251415  1
  Cu  Cu17  1  0.02160485  0.29692322  0.24960799  1
  Cu  Cu18  1  0.27141855  0.27110244  0.74188484  1
  Cu  Cu19  1  0.99864036  0.72851112  0.74265055  1
  Cu  Cu20  1  0.72798571  0.99907302  0.74201202  1
  Cu  Cu21  1  0.36010015  0.02818167  0.57802933  1
  Cu  Cu22  1  0.67069706  0.64310140  0.57861152  1
  Cu  Cu23  1  0.99107815  0.66153358  0.08464584  1
  Cu  Cu24  1  0.67022290  0.00908257  0.08458497  1
  Cu  Cu25  1  0.60748016  0.66702493  0.92282868  1
  Cu  Cu26  1  0.05682648  0.39357585  0.92292953  1
  Cu  Cu27  1  0.33642508  0.94148410  0.92239474  1
  Cu  Cu28  1  0.36399588  0.41551878  0.41957638  1
  Cu  Cu29  1  0.04985630  0.63877361  0.42005190  1
  C  C30  1  0.20516526  0.00713502  0.30210900  1
  C  C31  1  0.80211499  0.79731344  0.30329680  1
  C  C32  1  0.98791683  0.19152514  0.30038697  1
  C  C33  1  0.19457312  0.18438136  0.79575564  1
  C  C34  1  0.99171839  0.80582562  0.79726908  1
  C  C35  1  0.81563877  0.01084246  0.79619572  1
  C  C36  1  0.82699993  0.99686900  0.69195485  1
  C  C37  1  0.16892832  0.17195582  0.69142596  1
  C  C38  1  0.00248849  0.82935536  0.69285339  1
  C  C39  1  0.77299706  0.82617374  0.20166559  1
  C  C40  1  0.03553770  0.19790161  0.19920686  1
  C  C41  1  0.16591942  0.95139360  0.20059727  1
  C  C42  1  0.90799273  0.38424405  0.63356142  1
  C  C43  1  0.46218676  0.08372860  0.63045499  1
  C  C44  1  0.62250338  0.54130901  0.63092944  1
  C  C45  1  0.92188337  0.54168252  0.13248457  1
  C  C46  1  0.62352252  0.08104171  0.13253811  1
  C  C47  1  0.47570811  0.38323150  0.13700976  1
  C  C48  1  0.41506271  0.27740782  0.02955835  1
  C  C49  1  0.87845685  0.59433675  0.03487243  1
  C  C50  1  0.71988543  0.12253998  0.03516830  1
  C  C51  1  0.44672106  0.15007149  0.53143717  1
  C  C52  1  0.70690728  0.55858505  0.53210783  1
  C  C53  1  0.82847585  0.29649203  0.52605982  1
  C  C54  1  0.50609414  0.66807822  0.97201982  1
  C  C55  1  0.16040930  0.49668198  0.97219938  1
  C  C56  1  0.33458500  0.84076161  0.97173577  1
  C  C57  1  0.48780156  0.83049066  0.47339284  1
  C  C58  1  0.33780136  0.49568801  0.46995081  1
  C  C59  1  0.15173146  0.65964199  0.47051796  1
  C  C60  1  0.12426595  0.61340879  0.36732545  1
  C  C61  1  0.47744723  0.85592243  0.36169321  1
  C  C62  1  0.37659230  0.51513705  0.36629886  1
  C  C63  1  0.13322040  0.47922654  0.86878360  1
  C  C64  1  0.34200150  0.86303533  0.86793242  1
  C  C65  1  0.52041895  0.65532964  0.86852915  1
  C  C66  1  0.02889050  0.78778689  0.41534126  1
  C  C67  1  0.77661093  0.97053459  0.41582576  1
  C  C68  1  0.21036889  0.24822013  0.41404827  1
  C  C69  1  0.05370261  0.23039391  0.92522799  1
  C  C70  1  0.17976098  0.95208366  0.92440629  1
  C  C71  1  0.77066761  0.82659902  0.92516599  1
  C  C72  1  0.98863101  0.16312519  0.59302133  1
  C  C73  1  0.19065914  0.01442385  0.58857634  1
  C  C74  1  0.82283827  0.81338617  0.59015938  1
  C  C75  1  0.01025912  0.82826081  0.10076655  1
  C  C76  1  0.81593745  0.98457294  0.10097058  1
  C  C77  1  0.16219656  0.16927885  0.10414035  1
  C  C78  1  0.70246397  0.14510415  0.73871338  1
  C  C79  1  0.44032288  0.29189225  0.73731814  1
  C  C80  1  0.84862305  0.55897382  0.74038467  1
  C  C81  1  0.66689825  0.54931731  0.24479813  1
  C  C82  1  0.87749434  0.32209050  0.23725400  1
  C  C83  1  0.44905347  0.11113862  0.24093156  1
  C  C84  1  0.63334762  0.52118991  0.92707956  1
  C  C85  1  0.88734920  0.37127177  0.92853578  1
  C  C86  1  0.48749947  0.11054861  0.92531117  1
  C  C87  1  0.61387993  0.14005159  0.43337833  1
  C  C88  1  0.51677318  0.40226181  0.42633435  1
  C  C89  1  0.87616935  0.48487331  0.42777480  1
  C  C90  1  0.31840365  0.49268260  0.06663766  1
  C  C91  1  0.16288344  0.68977980  0.06999002  1
  C  C92  1  0.52474164  0.84009365  0.07008664  1
  C  C93  1  0.32613386  0.85403255  0.56505058  1
  C  C94  1  0.52678014  0.67245043  0.56480771  1
  C  C95  1  0.15974990  0.48623358  0.55872509  1
  C  C96  1  0.28112877  0.81148765  0.26054007  1
  C  C97  1  0.52448813  0.70769728  0.26332302  1
  C  C98  1  0.17982943  0.45921712  0.25597840  1
  C  C99  1  0.27628148  0.43517135  0.74037527  1
  C  C100  1  0.15576418  0.71795618  0.74160561  1
  C  C101  1  0.56421522  0.83946291  0.74048690  1
