# generated using pymatgen
data_Cu5(Ni2C9)7
_symmetry_space_group_name_H-M   'P 1'
_cell_length_a   18.69382576
_cell_length_b   9.35680903
_cell_length_c   22.29413801
_cell_angle_alpha   90.04767530
_cell_angle_beta   89.97236204
_cell_angle_gamma   119.80497207
_symmetry_Int_Tables_number   1
_chemical_formula_structural   Cu5(Ni2C9)7
_chemical_formula_sum   'Cu15 Ni42 C189'
_cell_volume   3383.74214092
_cell_formula_units_Z   3
loop_
 _symmetry_equiv_pos_site_id
 _symmetry_equiv_pos_as_xyz
  1  'x, y, z'
loop_
 _atom_site_type_symbol
 _atom_site_label
 _atom_site_symmetry_multiplicity
 _atom_site_fract_x
 _atom_site_fract_y
 _atom_site_fract_z
 _atom_site_occupancy
  Ni  Ni0  1  0.18520799  0.35469598  0.24031808  1
  Ni  Ni1  1  0.68526815  0.35661234  0.24211466  1
  Ni  Ni2  1  0.99238280  0.64156575  0.24199354  1
  Ni  Ni3  1  0.49381530  0.64065626  0.24042179  1
  Ni  Ni4  1  0.32091429  0.62772702  0.74159049  1
  Ni  Ni5  1  0.82234480  0.62958964  0.74361018  1
  Ni  Ni6  1  0.17784131  0.01423887  0.74280772  1
  Ni  Ni7  1  0.67832714  0.01422169  0.74027128  1
  Ni  Ni8  1  0.16373098  0.34327179  0.57430537  1
  Ni  Ni9  1  0.66444847  0.34441102  0.57403073  1
  Ni  Ni10  1  0.00771695  0.67356504  0.57510659  1
  Ni  Ni11  1  0.50763236  0.67256021  0.57502882  1
  Ni  Ni12  1  0.32739757  0.97902243  0.57494060  1
  Ni  Ni13  1  0.82790985  0.97835105  0.57669411  1
  Ni  Ni14  1  0.15712355  0.97879176  0.07310633  1
  Ni  Ni15  1  0.65992963  0.97053839  0.07655301  1
  Ni  Ni16  1  0.32836683  0.66839238  0.07530061  1
  Ni  Ni17  1  0.01273010  0.35126539  0.07817134  1
  Ni  Ni18  1  0.51166536  0.34830867  0.07379344  1
  Ni  Ni19  1  0.48232500  0.67237398  0.91550246  1
  Ni  Ni20  1  0.99573233  0.68246804  0.90808926  1
  Ni  Ni21  1  0.35334367  0.03696173  0.91507873  1
  Ni  Ni22  1  0.16495937  0.28924264  0.91460827  1
  Ni  Ni23  1  0.66227824  0.29814883  0.90768033  1
  Ni  Ni24  1  0.48272522  0.29493164  0.41507763  1
  Ni  Ni25  1  0.98245845  0.29490817  0.41477901  1
  Ni  Ni26  1  0.16340670  0.03682355  0.41336785  1
  Ni  Ni27  1  0.66403960  0.03770556  0.41365862  1
  Ni  Ni28  1  0.35372528  0.66618919  0.41261554  1
  Ni  Ni29  1  0.85364593  0.66577005  0.41242563  1
  Ni  Ni30  1  0.99913190  0.00071710  0.49402140  1
  Ni  Ni31  1  0.49961415  0.00120885  0.49404122  1
  Ni  Ni32  1  0.97315888  0.97651401  0.99442302  1
  Ni  Ni33  1  0.49985226  0.00110081  0.99585120  1
  Ni  Ni34  1  0.34229559  0.33220386  0.83146116  1
  Ni  Ni35  1  0.84743667  0.31187959  0.82812550  1
  Ni  Ni36  1  0.33414857  0.31529680  0.33114087  1
  Ni  Ni37  1  0.83413818  0.31385443  0.33105345  1
  Ni  Ni38  1  0.17613742  0.68261872  0.16332921  1
  Ni  Ni39  1  0.68755996  0.68801323  0.16007277  1
  Ni  Ni40  1  0.15756381  0.65047275  0.66267850  1
  Ni  Ni41  1  0.65841879  0.64960577  0.66331877  1
  Cu  Cu42  1  0.99745368  0.00229084  0.34571009  1
  Cu  Cu43  1  0.49823653  0.00176944  0.34600933  1
  Cu  Cu44  1  0.99567549  0.00231774  0.85033946  1
  Cu  Cu45  1  0.49896139  0.00398034  0.84640763  1
  Cu  Cu46  1  0.33726967  0.33156396  0.68321422  1
  Cu  Cu47  1  0.83760835  0.33358787  0.68180389  1
  Cu  Cu48  1  0.33346699  0.32309074  0.18192497  1
  Cu  Cu49  1  0.83386458  0.33099453  0.18328866  1
  Cu  Cu50  1  0.33333519  0.33117536  0.98412651  1
  Cu  Cu51  1  0.33417018  0.33321362  0.48396561  1
  Cu  Cu52  1  0.83406858  0.33289011  0.48372919  1
  Cu  Cu53  1  0.16742176  0.66693702  0.01500838  1
  Cu  Cu54  1  0.67005059  0.66531689  0.01571270  1
  Cu  Cu55  1  0.16755148  0.66824889  0.51390875  1
  Cu  Cu56  1  0.66764781  0.66867869  0.51403912  1
  C  C57  1  -0.00067891  0.00467394  0.65403410  1
  C  C58  1  0.50025196  0.00494178  0.65578013  1
  C  C59  1  0.99322120  0.99484932  0.15063339  1
  C  C60  1  0.50092211  0.00148888  0.15288879  1
  C  C61  1  0.83310926  0.33395298  0.98207035  1
  C  C62  1  0.16858083  0.66963601  0.31417836  1
  C  C63  1  0.66871482  0.67095160  0.31504735  1
  C  C64  1  0.16241041  0.66117748  0.81612526  1
  C  C65  1  0.67017582  0.66944657  0.81688920  1
  C  C66  1  0.14527095  0.98561672  0.25126787  1
  C  C67  1  0.65001354  0.99167735  0.25524160  1
  C  C68  1  0.34626451  0.69964499  0.25281988  1
  C  C69  1  0.84520040  0.70051692  0.25421707  1
  C  C70  1  0.00648260  0.31359477  0.25330780  1
  C  C71  1  0.50806333  0.31558369  0.25312456  1
  C  C72  1  0.14927743  0.30674792  0.75530374  1
  C  C73  1  0.65182881  0.31229334  0.75418920  1
  C  C74  1  0.00447560  0.70342222  0.75446398  1
  C  C75  1  0.50648453  0.70381023  0.75654517  1
  C  C76  1  0.34132508  0.98480925  0.75592200  1
  C  C77  1  0.84293376  0.98815554  0.75139942  1
  C  C78  1  0.48786441  0.32472890  0.57997487  1
  C  C79  1  0.98850840  0.32602512  0.57935977  1
  C  C80  1  0.17330477  0.02475615  0.58628267  1
  C  C81  1  0.67287989  0.02442652  0.58634657  1
  C  C82  1  0.33830219  0.65142010  0.58754982  1
  C  C83  1  0.83826295  0.65145267  0.58659698  1
  C  C84  1  0.48744691  0.64914578  0.08598583  1
  C  C85  1  0.98021513  0.64599832  0.08444263  1
  C  C86  1  0.33920422  0.02477118  0.07931778  1
  C  C87  1  0.83834460  0.04205048  0.08391476  1
  C  C88  1  0.17395141  0.32172063  0.08672348  1
  C  C89  1  0.67838134  0.31956983  0.08689040  1
  C  C90  1  0.31445965  0.65768820  0.91639550  1
  C  C91  1  0.81532330  0.65029640  0.91528007  1
  C  C92  1  0.01274457  0.37110859  0.92196429  1
  C  C93  1  0.51682101  0.37505996  0.91907220  1
  C  C94  1  0.17073378  0.97282199  0.91562929  1
  C  C95  1  0.67205620  0.97213936  0.91941811  1
  C  C96  1  0.31486648  0.96895657  0.41803158  1
  C  C97  1  0.81540859  0.96981134  0.41881713  1
  C  C98  1  0.17056797  0.37003705  0.41511970  1
  C  C99  1  0.67027344  0.36966554  0.41558658  1
  C  C100  1  0.01523965  0.66130171  0.41495842  1
  C  C101  1  0.51463920  0.66070863  0.41546928  1
  C  C102  1  0.10928784  -0.00197161  0.31097216  1
  C  C103  1  0.61240392  -0.00048659  0.31465201  1
  C  C104  1  0.38993834  0.76828517  0.31210411  1
  C  C105  1  0.88782189  0.76832396  0.31376525  1
  C  C106  1  0.50098023  0.23114051  0.31254125  1
  C  C107  1  0.00037403  0.23204561  0.31334745  1
  C  C108  1  0.11421688  0.21523968  0.81371432  1
  C  C109  1  0.61608859  0.22234925  0.81285008  1
  C  C110  1  0.49887889  0.77288188  0.81646663  1
  C  C111  1  0.00171937  0.77999766  0.81370953  1
  C  C112  1  0.38240944  -0.00158694  0.81592558  1
  C  C113  1  0.88975719  0.00134968  0.80792211  1
  C  C114  1  0.39858879  0.97729976  0.70440923  1
  C  C115  1  0.89371825  0.98083540  0.69538221  1
  C  C116  1  0.09157083  0.19994708  0.70154408  1
  C  C117  1  0.59288340  0.20353240  0.70138622  1
  C  C118  1  0.01031293  0.82498455  0.70226329  1
  C  C119  1  0.51557348  0.83112597  0.70517552  1
  C  C120  1  0.40171753  0.81758410  0.20014887  1
  C  C121  1  0.89990877  0.82002130  0.20215790  1
  C  C122  1  0.00770946  0.19804618  0.20102779  1
  C  C123  1  0.51354648  0.20476729  0.20057241  1
  C  C124  1  0.08237856  0.96593969  0.19887853  1
  C  C125  1  0.58849702  0.97776278  0.20273192  1
  C  C126  1  0.43913344  0.35620273  0.62772414  1
  C  C127  1  0.94005444  0.35550071  0.62790548  1
  C  C128  1  0.22530999  0.10988773  0.64194155  1
  C  C129  1  0.72539116  0.11022122  0.64172064  1
  C  C130  1  0.32724134  0.54499010  0.64278004  1
  C  C131  1  0.82813788  0.54731322  0.64234737  1
  C  C132  1  0.44351062  0.54553088  0.14114465  1
  C  C133  1  0.94465984  0.55048050  0.14228549  1
  C  C134  1  0.32465085  0.12187176  0.12758025  1
  C  C135  1  0.82867742  0.11745362  0.14097527  1
  C  C136  1  0.22748394  0.34549641  0.14186702  1
  C  C137  1  0.72180907  0.33323472  0.14589451  1
  C  C138  1  0.21277015  0.29663621  0.02915290  1
  C  C139  1  0.73192090  0.30566966  0.03307398  1
  C  C140  1  0.43660443  0.57308297  0.02811758  1
  C  C141  1  0.92386805  0.53936815  0.02955268  1
  C  C142  1  0.35231288  0.11025674  0.01769385  1
  C  C143  1  0.84917234  0.16270694  0.03002165  1
  C  C144  1  0.21252120  0.12735614  0.52879049  1
  C  C145  1  0.71161733  0.12675808  0.52876762  1
  C  C146  1  0.35283980  0.57666332  0.52991118  1
  C  C147  1  0.85132839  0.57350854  0.52922678  1
  C  C148  1  0.44383828  0.29298928  0.51853097  1
  C  C149  1  0.94409544  0.29585427  0.51824120  1
  C  C150  1  0.27565569  0.65840405  0.97662941  1
  C  C151  1  0.77076287  0.66061175  0.96962658  1
  C  C152  1  0.05319443  0.44619445  0.98159188  1
  C  C153  1  0.55293358  0.44785851  0.98023631  1
  C  C154  1  0.16906891  0.88593817  0.97416811  1
  C  C155  1  0.66058525  0.87788829  0.97723420  1
  C  C156  1  0.27748378  0.89411101  0.47898434  1
  C  C157  1  0.77790610  0.89514551  0.47976364  1
  C  C158  1  0.17099320  0.45197208  0.47456768  1
  C  C159  1  0.67079697  0.45196055  0.47494200  1
  C  C160  1  0.05718231  0.66334649  0.47413939  1
  C  C161  1  0.55653572  0.66298952  0.47469632  1
  C  C162  1  0.07255274  0.66521587  0.36090330  1
  C  C163  1  0.57196483  0.66504761  0.36157950  1
  C  C164  1  0.25664675  0.84537031  0.36726275  1
  C  C165  1  0.75713891  0.84591711  0.36822557  1
  C  C166  1  0.16822814  0.48096196  0.36171440  1
  C  C167  1  0.66792123  0.48025234  0.36209929  1
  C  C168  1  0.06697774  0.49263323  0.86941608  1
  C  C169  1  0.58076394  0.49624499  0.87010842  1
  C  C170  1  0.16761778  0.85779051  0.86143115  1
  C  C171  1  0.67955866  0.87149846  0.86442772  1
  C  C172  1  0.25534406  0.65891810  0.86451226  1
  C  C173  1  0.76459374  0.64264966  0.85662281  1
  C  C174  1  0.00454439  0.81534515  0.41421138  1
  C  C175  1  0.50320028  0.81388065  0.41486056  1
  C  C176  1  0.40242476  0.99042753  0.41520450  1
  C  C177  1  0.90296001  0.99142334  0.41583838  1
  C  C178  1  0.09343457  0.19575062  0.41430513  1
  C  C179  1  0.59277090  0.19559586  0.41507711  1
  C  C180  1  0.00354191  0.20085044  0.91535487  1
  C  C181  1  0.50761880  0.20148956  0.91470174  1
  C  C182  1  0.09441519  0.99564085  0.91506225  1
  C  C183  1  0.59792822  0.00089425  0.91188217  1
  C  C184  1  0.40124461  0.81301836  0.91399525  1
  C  C185  1  0.90558856  0.78836142  0.91345295  1
  C  C186  1  0.48969550  0.16095743  0.59418771  1
  C  C187  1  0.99191036  0.16329652  0.59196199  1
  C  C188  1  0.08655292  0.01601264  0.59218465  1
  C  C189  1  0.58614540  0.01580128  0.59288698  1
  C  C190  1  0.41923362  0.82456029  0.59544196  1
  C  C191  1  0.91989294  0.82464358  0.59257027  1
  C  C192  1  0.49225683  0.82316206  0.09229645  1
  C  C193  1  0.98296943  0.81707754  0.08611455  1
  C  C194  1  0.42283387  0.02443012  0.09178431  1
  C  C195  1  0.92171299  0.03861596  0.08566636  1
  C  C196  1  0.08785498  0.15718614  0.09432859  1
  C  C197  1  0.59375725  0.14951430  0.08633597  1
  C  C198  1  0.32195064  0.12371291  0.74730014  1
  C  C199  1  0.82204093  0.12606737  0.74656441  1
  C  C200  1  0.23702544  0.33613863  0.74648814  1
  C  C201  1  0.73855663  0.33649117  0.74578581  1
  C  C202  1  0.43126041  0.53584168  0.74596864  1
  C  C203  1  0.92800662  0.53492151  0.74755235  1
  C  C204  1  0.33276874  0.52538160  0.24409130  1
  C  C205  1  0.83293829  0.52731426  0.24560062  1
  C  C206  1  0.43790620  0.35231267  0.24517293  1
  C  C207  1  0.93820349  0.35697106  0.24638060  1
  C  C208  1  0.22895938  0.13852991  0.24227709  1
  C  C209  1  0.73384139  0.14490250  0.24794127  1
  C  C210  1  0.31874178  0.49823529  0.90721329  1
  C  C211  1  0.81466838  0.47924676  0.91720826  1
  C  C212  1  0.43434966  0.37084469  0.90780780  1
  C  C213  1  0.92783151  0.37002800  0.91888615  1
  C  C214  1  0.25177907  0.13851382  0.90770835  1
  C  C215  1  0.75270168  0.14664619  0.92191031  1
  C  C216  1  0.31622621  0.13395074  0.40786290  1
  C  C217  1  0.81676255  0.13462144  0.40833630  1
  C  C218  1  0.25070168  0.36159610  0.40673047  1
  C  C219  1  0.75019124  0.36054910  0.40718308  1
  C  C220  1  0.43105743  0.49943015  0.40752633  1
  C  C221  1  0.93148458  0.50054465  0.40711517  1
  C  C222  1  0.15827300  0.46924901  0.08410832  1
  C  C223  1  0.65836143  0.45803718  0.07941827  1
  C  C224  1  0.06970792  0.68123115  0.07741390  1
  C  C225  1  0.57611981  0.67711919  0.08448591  1
  C  C226  1  0.26814887  0.84392291  0.08190201  1
  C  C227  1  0.76418032  0.87142474  0.07580070  1
  C  C228  1  0.15761041  0.84619959  0.58392750  1
  C  C229  1  0.65705525  0.84577834  0.58414269  1
  C  C230  1  0.26406806  0.68076725  0.58422190  1
  C  C231  1  0.76398136  0.68070927  0.58371607  1
  C  C232  1  0.07843498  0.46985123  0.58097605  1
  C  C233  1  0.57798696  0.46771766  0.58126645  1
  C  C234  1  0.14928306  0.82066271  0.24966567  1
  C  C235  1  0.65288091  0.82629435  0.25179121  1
  C  C236  1  0.25976873  0.68984031  0.25130789  1
  C  C237  1  0.75806659  0.68713702  0.25206927  1
  C  C238  1  0.09239176  0.47967961  0.24926787  1
  C  C239  1  0.59204662  0.48379996  0.25026891  1
  C  C240  1  0.15361332  0.47916022  0.75544714  1
  C  C241  1  0.65748541  0.48566477  0.75341513  1
  C  C242  1  0.08707354  0.69646344  0.75108758  1
  C  C243  1  0.59012612  0.70063813  0.75522351  1
  C  C244  1  0.25743831  0.81509415  0.75216081  1
  C  C245  1  0.75870664  0.81875699  0.75049415  1
