# generated using pymatgen
data_CuNiC
_symmetry_space_group_name_H-M   'P 1'
_cell_length_a   6.42695616
_cell_length_b   6.42695616
_cell_length_c   7.26132796
_cell_angle_alpha   116.00746435
_cell_angle_beta   116.00746435
_cell_angle_gamma   90.52547385
_symmetry_Int_Tables_number   1
_chemical_formula_structural   CuNiC
_chemical_formula_sum   'Cu4 Ni4 C4'
_cell_volume   234.61055685
_cell_formula_units_Z   4
loop_
 _symmetry_equiv_pos_site_id
 _symmetry_equiv_pos_as_xyz
  1  'x, y, z'
loop_
 _atom_site_type_symbol
 _atom_site_label
 _atom_site_symmetry_multiplicity
 _atom_site_fract_x
 _atom_site_fract_y
 _atom_site_fract_z
 _atom_site_occupancy
  C  C0  1  0.85099500  0.85099500  0.70199000  1
  C  C1  1  0.14900500  0.14900500  0.29801000  1
  C  C2  1  0.39900500  0.89900500  0.79801000  1
  C  C3  1  0.10099500  0.60099500  0.20199000  1
  Ni  Ni4  1  0.12500000  0.37500000  0.75000000  1
  Ni  Ni5  1  0.62500000  0.37500000  0.25000000  1
  Ni  Ni6  1  0.62500000  0.37500000  0.75000000  1
  Ni  Ni7  1  0.62500000  0.87500000  0.25000000  1
  Cu  Cu8  1  0.03786900  0.53786900  0.50000000  1
  Cu  Cu9  1  0.78786900  0.78786900  0.00000000  1
  Cu  Cu10  1  0.46213100  0.96213100  0.50000000  1
  Cu  Cu11  1  0.21213100  0.21213100  0.00000000  1
