# generated using pymatgen
data_Cu2NiC14
_symmetry_space_group_name_H-M   'P 1'
_cell_length_a   8.60991388
_cell_length_b   8.62312631
_cell_length_c   22.26123997
_cell_angle_alpha   90.07242526
_cell_angle_beta   89.98142214
_cell_angle_gamma   120.00976042
_symmetry_Int_Tables_number   1
_chemical_formula_structural   Cu2NiC14
_chemical_formula_sum   'Cu12 Ni6 C84'
_cell_volume   1431.20037619
_cell_formula_units_Z   6
loop_
 _symmetry_equiv_pos_site_id
 _symmetry_equiv_pos_as_xyz
  1  'x, y, z'
loop_
 _atom_site_type_symbol
 _atom_site_label
 _atom_site_symmetry_multiplicity
 _atom_site_fract_x
 _atom_site_fract_y
 _atom_site_fract_z
 _atom_site_occupancy
  C  C0  1  0.99782731  0.00091434  0.35669702  1
  C  C1  1  0.67152239  0.33576193  0.68908330  1
  C  C2  1  0.66527265  0.33488116  0.18766900  1
  C  C3  1  0.00055462  -0.00007680  0.86055162  1
  C  C4  1  0.99893987  0.00646695  0.64258707  1
  C  C5  1  0.00687360  0.00938511  0.14342477  1
  C  C6  1  0.65557152  0.33070215  0.97534043  1
  C  C7  1  0.67544726  0.32465443  0.47572095  1
  C  C8  1  0.33205442  0.65984667  0.02151631  1
  C  C9  1  0.33622637  0.66545921  0.52138128  1
  C  C10  1  0.34280104  0.67634222  0.30789056  1
  C  C11  1  0.33038469  0.66570747  0.81385713  1
  Ni  Ni12  1  0.95518596  0.33724655  0.58425921  1
  Ni  Ni13  1  0.38277140  0.33542683  0.08437104  1
  Ni  Ni14  1  0.61684932  0.66678822  0.91638413  1
  Ni  Ni15  1  0.04547627  0.38206784  0.91679167  1
  Ni  Ni16  1  0.33322490  0.94883266  0.91697857  1
  Ni  Ni17  1  0.61798799  0.94878079  0.41656826  1
  Cu  Cu18  1  0.28716397  0.00142937  0.25100831  1
  Cu  Cu19  1  0.71615925  0.71257733  0.25056426  1
  Cu  Cu20  1  0.00015630  0.28955189  0.25107798  1
  Cu  Cu21  1  0.28570834  0.28629073  0.75039103  1
  Cu  Cu22  1  0.00122080  0.71671778  0.75045208  1
  Cu  Cu23  1  0.71308932  0.99822255  0.75082121  1
  Cu  Cu24  1  0.37837096  0.04443437  0.58354513  1
  Cu  Cu25  1  0.66688961  0.62028211  0.58351920  1
  Cu  Cu26  1  0.95513890  0.62228417  0.08370348  1
  Cu  Cu27  1  0.66536289  0.04411731  0.08353260  1
  Cu  Cu28  1  0.33748663  0.38198607  0.41674234  1
  Cu  Cu29  1  0.04845903  0.66660974  0.41659326  1
  C  C30  1  0.20549578  0.02648976  0.30434355  1
  C  C31  1  0.82119395  0.79414162  0.30430869  1
  C  C32  1  0.97250507  0.17974982  0.30375000  1
  C  C33  1  0.19881048  0.17375498  0.80373411  1
  C  C34  1  0.97777819  0.80493399  0.80435366  1
  C  C35  1  0.82698107  0.02447116  0.80401449  1
  C  C36  1  0.79860861  0.96814286  0.69605795  1
  C  C37  1  0.16933027  0.20105791  0.69571864  1
  C  C38  1  0.03233813  0.83082444  0.69622980  1
  C  C39  1  0.79402228  0.82866436  0.19642902  1
  C  C40  1  0.03450799  0.20461015  0.19610060  1
  C  C41  1  0.17014393  0.96650253  0.19647724  1
  C  C42  1  0.87847083  0.37269344  0.63909101  1
  C  C43  1  0.48671927  0.11974699  0.63705992  1
  C  C44  1  0.63043906  0.51218152  0.63716375  1
  C  C45  1  0.88221207  0.51318398  0.13691220  1
  C  C46  1  0.63437165  0.12031055  0.13700231  1
  C  C47  1  0.49323166  0.37052249  0.13937541  1
  C  C48  1  0.46689707  0.30036098  0.02726818  1
  C  C49  1  0.84204995  0.54135939  0.02964336  1
  C  C50  1  0.70077336  0.15787133  0.02951838  1
  C  C51  1  0.45777109  0.15912186  0.52972879  1
  C  C52  1  0.69896019  0.54063087  0.52967807  1
  C  C53  1  0.83280078  0.29958494  0.52718344  1
  C  C54  1  0.53467267  0.70182321  0.97205104  1
  C  C55  1  0.16650752  0.46614973  0.97183325  1
  C  C56  1  0.29918947  0.83286506  0.97225151  1
  C  C57  1  0.52033459  0.83267397  0.47217649  1
  C  C58  1  0.30833299  0.46786515  0.47108604  1
  C  C59  1  0.15800123  0.68988383  0.47104198  1
  C  C60  1  0.12522375  0.62824601  0.36298665  1
  C  C61  1  0.49410556  0.86177023  0.36082639  1
  C  C62  1  0.36865846  0.49676312  0.36334099  1
  C  C63  1  0.13309935  0.50127299  0.86059485  1
  C  C64  1  0.36645466  0.86453162  0.86027663  1
  C  C65  1  0.49794413  0.63249463  0.86026827  1
  C  C66  1  0.02930814  0.82280671  0.41008213  1
  C  C67  1  0.80085784  0.97354886  0.41025194  1
  C  C68  1  0.18110542  0.20608366  0.41010995  1
  C  C69  1  0.02688728  0.19661580  0.90499317  1
  C  C70  1  0.16986659  0.97379184  0.90556115  1
  C  C71  1  0.80405159  0.83155076  0.90536287  1
  C  C72  1  0.97625347  0.16738270  0.59352526  1
  C  C73  1  0.19549295  0.02309333  0.59179319  1
  C  C74  1  0.82833068  0.80299712  0.59202345  1
  C  C75  1  0.97434433  0.80377899  0.09227003  1
  C  C76  1  0.82717017  0.02232965  0.09181679  1
  C  C77  1  0.19077571  0.16637506  0.09339199  1
  C  C78  1  0.69320450  0.15423604  0.74343785  1
  C  C79  1  0.46081962  0.30452193  0.74210098  1
  C  C80  1  0.84339732  0.54101604  0.74412689  1
  C  C81  1  0.68782551  0.53453797  0.24193367  1
  C  C82  1  0.84855791  0.31354636  0.23993706  1
  C  C83  1  0.46585174  0.14968793  0.24175882  1
  C  C84  1  0.64038603  0.50309953  0.92643303  1
  C  C85  1  0.86117221  0.36069847  0.92815792  1
  C  C86  1  0.49967993  0.13551571  0.92621276  1
  C  C87  1  0.62667258  0.13363219  0.42717975  1
  C  C88  1  0.50193101  0.37074173  0.42731778  1
  C  C89  1  0.86685476  0.50281521  0.42609465  1
  C  C90  1  0.35165627  0.49412803  0.07073262  1
  C  C91  1  0.13763139  0.64833739  0.07304502  1
  C  C92  1  0.50819796  0.86335333  0.07330769  1
  C  C93  1  0.35254083  0.86272298  0.57310403  1
  C  C94  1  0.51036474  0.64719899  0.57316391  1
  C  C95  1  0.14310135  0.49372521  0.56915550  1
  C  C96  1  0.29761576  0.83048743  0.25795763  1
  C  C97  1  0.53112514  0.69704755  0.25844730  1
  C  C98  1  0.16759211  0.46912218  0.25860490  1
  C  C99  1  0.29807935  0.46338350  0.75760351  1
  C  C100  1  0.16588705  0.70236293  0.75822191  1
  C  C101  1  0.53629606  0.83278419  0.75788306  1
