# generated using pymatgen
data_CuNiC9
_symmetry_space_group_name_H-M   'P 1'
_cell_length_a   5.52514924
_cell_length_b   6.64609041
_cell_length_c   6.64609102
_cell_angle_alpha   49.21990209
_cell_angle_beta   65.43852462
_cell_angle_gamma   65.43852224
_symmetry_Int_Tables_number   1
_chemical_formula_structural   CuNiC9
_chemical_formula_sum   'Cu1 Ni1 C9'
_cell_volume   164.35364691
_cell_formula_units_Z   1
loop_
 _symmetry_equiv_pos_site_id
 _symmetry_equiv_pos_as_xyz
  1  'x, y, z'
loop_
 _atom_site_type_symbol
 _atom_site_label
 _atom_site_symmetry_multiplicity
 _atom_site_fract_x
 _atom_site_fract_y
 _atom_site_fract_z
 _atom_site_occupancy
  C  C0  1  0.25438046  0.24561954  0.24561954  1
  C  C1  1  0.83860053  0.66139947  0.66139947  1
  Ni  Ni2  1  0.52689047  0.97310953  0.97310953  1
  C  C3  1  0.53686542  0.46313458  0.46313458  1
  Cu  Cu4  1  0.04404024  0.95595976  0.95595976  1
  C  C5  1  0.22223161  0.28445845  0.78953056  1
  C  C6  1  0.22223161  0.78953056  0.28445845  1
  C  C7  1  0.71275969  0.28724031  0.28724031  1
  C  C8  1  0.22402420  0.77597580  0.77597580  1
  C  C9  1  0.70377938  0.28445845  0.78953056  1
  C  C10  1  0.70377938  0.78953056  0.28445845  1
