# generated using pymatgen
data_Cu(Ni5C4)2
_symmetry_space_group_name_H-M   'P 1'
_cell_length_a   6.63487953
_cell_length_b   6.63487953
_cell_length_c   6.99378540
_cell_angle_alpha   118.83000894
_cell_angle_beta   118.83000894
_cell_angle_gamma   89.01691428
_symmetry_Int_Tables_number   1
_chemical_formula_structural   Cu(Ni5C4)2
_chemical_formula_sum   'Cu1 Ni10 C8'
_cell_volume   226.79266555
_cell_formula_units_Z   1
loop_
 _symmetry_equiv_pos_site_id
 _symmetry_equiv_pos_as_xyz
  1  'x, y, z'
loop_
 _atom_site_type_symbol
 _atom_site_label
 _atom_site_symmetry_multiplicity
 _atom_site_fract_x
 _atom_site_fract_y
 _atom_site_fract_z
 _atom_site_occupancy
  C  C0  1  0.26914235  0.26328618  0.99974187  1
  C  C1  1  0.74362398  0.25637602  0.00000000  1
  C  C2  1  0.73671382  0.73085765  0.00025813  1
  C  C3  1  0.26762144  0.73237856  0.00000000  1
  C  C4  1  0.21011853  0.21054701  0.42065624  1
  C  C5  1  0.78945299  0.78988147  0.57934376  1
  C  C6  1  0.25860165  0.74139835  0.50000000  1
  C  C7  1  0.75860013  0.24139987  0.50000000  1
  Ni  Ni8  1  0.15800267  0.82918549  0.67914119  1
  Ni  Ni9  1  0.17081451  0.84199733  0.32085881  1
  Ni  Ni10  1  0.16408311  0.46536667  0.31219607  1
  Ni  Ni11  1  0.32985933  0.42384599  0.75411376  1
  Ni  Ni12  1  0.53463333  0.83591689  0.68780393  1
  Ni  Ni13  1  0.47887504  0.15024398  0.32083013  1
  Ni  Ni14  1  0.57615401  0.67014067  0.24588624  1
  Ni  Ni15  1  0.84975602  0.52112496  0.67916987  1
  Ni  Ni16  1  0.85171295  0.15311062  0.68772350  1
  Ni  Ni17  1  0.84688938  0.14828705  0.31227650  1
  Cu  Cu18  1  0.02291177  0.97708823  0.00000000  1
