# generated using pymatgen
data_Cu4NiC2
_symmetry_space_group_name_H-M   'P 1'
_cell_length_a   7.96872200
_cell_length_b   6.40375500
_cell_length_c   15.95338322
_cell_angle_alpha   74.02274970
_cell_angle_beta   90.00000000
_cell_angle_gamma   90.00000000
_symmetry_Int_Tables_number   1
_chemical_formula_structural   Cu4NiC2
_chemical_formula_sum   'Cu16 Ni4 C8'
_cell_volume   782.64934837
_cell_formula_units_Z   4
loop_
 _symmetry_equiv_pos_site_id
 _symmetry_equiv_pos_as_xyz
  1  'x, y, z'
loop_
 _atom_site_type_symbol
 _atom_site_label
 _atom_site_symmetry_multiplicity
 _atom_site_fract_x
 _atom_site_fract_y
 _atom_site_fract_z
 _atom_site_occupancy
  C  C0  1  0.03737800  0.64595300  0.25005800  1
  C  C1  1  0.53737800  0.35404700  0.24994200  1
  C  C2  1  0.96262200  0.35404700  0.74994200  1
  C  C3  1  0.46262200  0.64595300  0.75005800  1
  C  C4  1  0.78802400  0.85417000  0.74997800  1
  C  C5  1  0.28802400  0.14583000  0.75002200  1
  C  C6  1  0.21197600  0.14583000  0.25002200  1
  C  C7  1  0.71197600  0.85417000  0.24997800  1
  Ni  Ni8  1  0.62536400  0.24991600  0.75007400  1
  Ni  Ni9  1  0.12536400  0.75008400  0.74992600  1
  Ni  Ni10  1  0.37463600  0.75008400  0.24992600  1
  Ni  Ni11  1  0.87463600  0.24991600  0.25007400  1
  Cu  Cu12  1  0.98303300  0.88714300  0.37342000  1
  Cu  Cu13  1  0.48303300  0.11285700  0.12658000  1
  Cu  Cu14  1  0.01696700  0.11285700  0.62658000  1
  Cu  Cu15  1  0.51696700  0.88714300  0.87342000  1
  Cu  Cu16  1  0.76649000  0.61281000  0.12664600  1
  Cu  Cu17  1  0.26649000  0.38719000  0.37335400  1
  Cu  Cu18  1  0.23351000  0.38719000  0.87335400  1
  Cu  Cu19  1  0.73351000  0.61281000  0.62664600  1
  Cu  Cu20  1  0.48309900  0.94354500  0.37338200  1
  Cu  Cu21  1  0.98309900  0.05645500  0.12661800  1
  Cu  Cu22  1  0.51690100  0.05645500  0.62661800  1
  Cu  Cu23  1  0.01690100  0.94354500  0.87338200  1
  Cu  Cu24  1  0.26598700  0.55615000  0.12662300  1
  Cu  Cu25  1  0.76598700  0.44385000  0.37337700  1
  Cu  Cu26  1  0.73401300  0.44385000  0.87337700  1
  Cu  Cu27  1  0.23401300  0.55615000  0.62662300  1
