# generated using pymatgen
data_Cu5NiC13
_symmetry_space_group_name_H-M   'P 1'
_cell_length_a   5.03093812
_cell_length_b   5.10093964
_cell_length_c   10.04284017
_cell_angle_alpha   85.55252065
_cell_angle_beta   86.90757371
_cell_angle_gamma   119.49270998
_symmetry_Int_Tables_number   1
_chemical_formula_structural   Cu5NiC13
_chemical_formula_sum   'Cu5 Ni1 C13'
_cell_volume   222.38885418
_cell_formula_units_Z   1
loop_
 _symmetry_equiv_pos_site_id
 _symmetry_equiv_pos_as_xyz
  1  'x, y, z'
loop_
 _atom_site_type_symbol
 _atom_site_label
 _atom_site_symmetry_multiplicity
 _atom_site_fract_x
 _atom_site_fract_y
 _atom_site_fract_z
 _atom_site_occupancy
  Ni  Ni0  1  0.62581300  0.58346500  0.24383400  1
  Cu  Cu1  1  0.17163600  0.86084800  0.49862400  1
  Cu  Cu2  1  0.33001100  0.62716500  0.99470000  1
  Cu  Cu3  1  0.50609300  0.52878100  0.51683000  1
  Cu  Cu4  1  0.66098200  0.29573600  0.99515000  1
  Cu  Cu5  1  0.84358200  0.19926300  0.50054800  1
  C  C6  1  0.99695700  0.96250500  0.99536900  1
  C  C7  1  0.96254900  0.60773900  0.09747100  1
  C  C8  1  0.34915500  0.98766700  0.90397300  1
  C  C9  1  0.21599700  0.56090400  0.40121000  1
  C  C10  1  0.47964800  0.84100000  0.59887100  1
  C  C11  1  0.34024500  0.30540200  0.10735500  1
  C  C12  1  0.14616700  0.15939900  0.59844900  1
  C  C13  1  0.66052000  0.62780200  0.89592300  1
  C  C14  1  0.84899000  0.84474400  0.39261400  1
  C  C15  1  0.53206900  0.24100000  0.40087100  1
  C  C16  1  0.82883000  0.53823100  0.60682500  1
  C  C17  1  0.01875600  0.31672600  0.90405400  1
  C  C18  1  0.64450000  0.92412300  0.09733100  1
