# generated using pymatgen
data_Cu(NiC2)3
_symmetry_space_group_name_H-M   'P 1'
_cell_length_a   5.77894733
_cell_length_b   5.77894733
_cell_length_c   11.64937000
_cell_angle_alpha   90.00000000
_cell_angle_beta   90.00000000
_cell_angle_gamma   119.99999231
_symmetry_Int_Tables_number   1
_chemical_formula_structural   Cu(NiC2)3
_chemical_formula_sum   'Cu2 Ni6 C12'
_cell_volume   336.92293632
_cell_formula_units_Z   2
loop_
 _symmetry_equiv_pos_site_id
 _symmetry_equiv_pos_as_xyz
  1  'x, y, z'
loop_
 _atom_site_type_symbol
 _atom_site_label
 _atom_site_symmetry_multiplicity
 _atom_site_fract_x
 _atom_site_fract_y
 _atom_site_fract_z
 _atom_site_occupancy
  Ni  Ni0  1  0.00000000  0.00000000  0.50000000  1
  Ni  Ni1  1  0.00000000  0.00000000  0.00000000  1
  Ni  Ni2  1  0.33333300  0.66666700  0.99485800  1
  Ni  Ni3  1  0.66666700  0.33333300  0.00514200  1
  Ni  Ni4  1  0.66666700  0.33333300  0.49485800  1
  Ni  Ni5  1  0.33333300  0.66666700  0.50514200  1
  Cu  Cu6  1  0.33333300  0.66666700  0.25000000  1
  Cu  Cu7  1  0.66666700  0.33333300  0.75000000  1
  C  C8  1  0.33107000  0.33903600  0.36408400  1
  C  C9  1  0.66096400  0.99203400  0.36408400  1
  C  C10  1  0.00796600  0.66893000  0.36408400  1
  C  C11  1  0.33903600  0.33107000  0.63591600  1
  C  C12  1  0.99203400  0.66096400  0.63591600  1
  C  C13  1  0.66893000  0.00796600  0.63591600  1
  C  C14  1  0.66893000  0.66096400  0.86408400  1
  C  C15  1  0.33903600  0.00796600  0.86408400  1
  C  C16  1  0.99203400  0.33107000  0.86408400  1
  C  C17  1  0.66096400  0.66893000  0.13591600  1
  C  C18  1  0.00796600  0.33903600  0.13591600  1
  C  C19  1  0.33107000  0.99203400  0.13591600  1
