# generated using pymatgen
data_Cu2Ni2C37
_symmetry_space_group_name_H-M   'P 1'
_cell_length_a   18.94066915
_cell_length_b   9.46072360
_cell_length_c   23.35581754
_cell_angle_alpha   89.98568898
_cell_angle_beta   89.79010169
_cell_angle_gamma   120.06299488
_symmetry_Int_Tables_number   1
_chemical_formula_structural   Cu2Ni2C37
_chemical_formula_sum   'Cu12 Ni12 C222'
_cell_volume   3622.13950168
_cell_formula_units_Z   6
loop_
 _symmetry_equiv_pos_site_id
 _symmetry_equiv_pos_as_xyz
  1  'x, y, z'
loop_
 _atom_site_type_symbol
 _atom_site_label
 _atom_site_symmetry_multiplicity
 _atom_site_fract_x
 _atom_site_fract_y
 _atom_site_fract_z
 _atom_site_occupancy
  C  C0  1  0.80946603  0.98763799  0.24312227  1
  C  C1  1  0.18725798  0.36482182  0.26218957  1
  C  C2  1  0.69223413  0.36882431  0.25770170  1
  C  C3  1  0.99645464  0.64750048  0.24132700  1
  C  C4  1  0.50578165  0.65827384  0.24682045  1
  C  C5  1  0.30899351  0.63301685  0.75391166  1
  C  C6  1  0.00383696  0.35017211  0.75090799  1
  C  C7  1  0.50033601  0.34859644  0.74854400  1
  C  C8  1  0.18650320  0.00887173  0.76304923  1
  C  C9  1  0.68982894  0.01198665  0.76558129  1
  C  C10  1  0.14136971  0.33280141  0.58334606  1
  C  C11  1  0.63948768  0.33365896  0.58385166  1
  C  C12  1  0.33812333  0.97819917  0.57745189  1
  C  C13  1  0.83933636  0.97867675  0.57936586  1
  C  C14  1  0.13544585  0.94369447  0.08587700  1
  C  C15  1  0.65161379  0.95660542  0.08550304  1
  C  C16  1  0.33841795  0.69866084  0.07946722  1
  C  C17  1  0.83813206  0.71580690  0.07723838  1
  C  C18  1  0.48943105  0.69296721  0.92442786  1
  C  C19  1  0.98551174  0.68304765  0.92497363  1
  C  C20  1  0.33973115  0.01146462  0.91179443  1
  C  C21  1  0.84198207  0.02014572  0.92055477  1
  C  C22  1  0.16925217  0.29421195  0.90648615  1
  C  C23  1  0.67901181  0.31234960  0.90941666  1
  C  C24  1  0.48892111  0.28854887  0.41868026  1
  C  C25  1  0.98621383  0.28087042  0.42042138  1
  C  C26  1  0.17272449  0.04144159  0.40380838  1
  C  C27  1  0.67140590  0.04551989  0.40327685  1
  C  C28  1  0.34259735  0.66788063  0.40777895  1
  C  C29  1  0.83955321  0.66817194  0.40790711  1
  C  C30  1  0.99706062  0.01711566  0.49258745  1
  C  C31  1  0.49843870  0.01987499  0.49177470  1
  C  C32  1  0.98700095  0.97861114  0.00047733  1
  C  C33  1  0.50043142  0.98085691  0.99486942  1
  C  C34  1  0.32148633  0.32072066  0.83473250  1
  C  C35  1  0.82142788  0.32991853  0.83860388  1
  C  C36  1  0.32184645  0.31651298  0.33269462  1
  C  C37  1  0.82213190  0.32606634  0.32744618  1
  C  C38  1  0.16373950  0.68251345  0.17205452  1
  C  C39  1  0.66655380  0.68684147  0.16441751  1
  C  C40  1  0.15692835  0.64389862  0.67331157  1
  C  C41  1  0.66728007  0.64971541  0.67449860  1
  Ni  Ni42  1  0.99879518  0.00905609  0.65355522  1
  Ni  Ni43  1  0.49552291  0.00455098  0.65123933  1
  Ni  Ni44  1  0.99116590  0.99027043  0.14844499  1
  Ni  Ni45  1  0.50018457  0.98898663  0.15240141  1
  Ni  Ni46  1  0.83708102  0.33980402  0.68915634  1
  Ni  Ni47  1  0.33665998  0.33245595  0.18855053  1
  Ni  Ni48  1  0.15842673  0.66550052  0.01146537  1
  Ni  Ni49  1  0.67028139  0.68299356  0.01467190  1
  Ni  Ni50  1  0.16497170  0.65981211  0.51161027  1
  Ni  Ni51  1  0.65995280  0.65287604  0.51065503  1
  Ni  Ni52  1  0.18068455  0.68967816  0.31866937  1
  Ni  Ni53  1  0.68112754  0.67290464  0.82092847  1
  Cu  Cu54  1  0.99730315  0.99269991  0.34751241  1
  Cu  Cu55  1  0.50113242  0.99917581  0.34687136  1
  Cu  Cu56  1  0.00069059  0.00118737  0.84765922  1
  Cu  Cu57  1  0.49836428  0.00432445  0.84875089  1
  Cu  Cu58  1  0.33633820  0.32583242  0.68874849  1
  Cu  Cu59  1  0.83632581  0.33218091  0.18319679  1
  Cu  Cu60  1  0.33499617  0.34720448  0.97875932  1
  Cu  Cu61  1  0.83813095  0.33528614  0.98496014  1
  Cu  Cu62  1  0.33838455  0.33070456  0.48116780  1
  Cu  Cu63  1  0.83504224  0.32276281  0.47839837  1
  Cu  Cu64  1  0.67973809  0.67848212  0.31939583  1
  Cu  Cu65  1  0.17877472  0.67955748  0.82030319  1
  C  C66  1  0.14492839  0.99845650  0.25032788  1
  C  C67  1  0.65304190  0.99604051  0.25303454  1
  C  C68  1  0.35071997  0.69804399  0.25150577  1
  C  C69  1  0.84727993  0.69237580  0.25379609  1
  C  C70  1  0.15370541  0.31047357  0.75075261  1
  C  C71  1  0.64624333  0.29554282  0.75062401  1
  C  C72  1  0.34629806  0.99786013  0.75214890  1
  C  C73  1  0.85038057  0.00143923  0.75072493  1
  C  C74  1  0.47835204  0.33869032  0.58482117  1
  C  C75  1  0.98266684  0.33446697  0.58052545  1
  C  C76  1  0.48094442  0.63052755  0.08043607  1
  C  C77  1  0.97940257  0.61867115  0.08486794  1
  C  C78  1  0.83413547  0.04750310  0.08260210  1
  C  C79  1  0.32027960  0.66897310  0.91665731  1
  C  C80  1  0.82870759  0.66662561  0.92074202  1
  C  C81  1  0.16653833  0.97641024  0.91468183  1
  C  C82  1  0.66476102  0.98664172  0.91481665  1
  C  C83  1  0.32775167  0.98464990  0.42325096  1
  C  C84  1  0.82028022  0.97108662  0.41758746  1
  C  C85  1  0.16623015  0.34575049  0.41723583  1
  C  C86  1  0.66614625  0.35557109  0.41616813  1
  C  C87  1  0.99629809  0.29744799  0.25338916  1
  C  C88  1  0.50766520  0.30786661  0.25778965  1
  C  C89  1  0.00816741  0.70767944  0.75705420  1
  C  C90  1  0.49505950  0.69359829  0.75174136  1
  C  C91  1  0.19469424  0.05363821  0.58423309  1
  C  C92  1  0.68712175  0.04300832  0.57931157  1
  C  C93  1  0.33286434  0.61372959  0.58324559  1
  C  C94  1  0.83368909  0.62931754  0.57727842  1
  C  C95  1  0.33356887  0.03781995  0.07712818  1
  C  C96  1  0.18834816  0.33250435  0.07922604  1
  C  C97  1  0.69352798  0.33495954  0.08387649  1
  C  C98  1  0.01446257  0.35854001  0.91017785  1
  C  C99  1  0.50855367  0.35226752  0.91564033  1
  C  C100  1  0.00794761  0.66572873  0.41564170  1
  C  C101  1  0.51235225  0.66842612  0.41230293  1
  C  C102  1  0.09187093  0.00855708  0.30528598  1
  C  C103  1  0.60245544  0.02209251  0.30598713  1
  C  C104  1  0.40612825  0.81278888  0.30545889  1
  C  C105  1  0.90776564  0.79133029  0.30791341  1
  C  C106  1  0.49971135  0.20355121  0.30759209  1
  C  C107  1  0.98766987  0.19528211  0.30485101  1
  C  C108  1  0.10506680  0.18096413  0.80310009  1
  C  C109  1  0.59036788  0.17396172  0.80316835  1
  C  C110  1  0.48524229  0.77755591  0.80263801  1
  C  C111  1  0.00128261  0.79730542  0.80617471  1
  C  C112  1  0.40879424  0.02658805  0.80492668  1
  C  C113  1  0.90941783  0.00180743  0.80238411  1
  C  C114  1  0.37806363  0.95449176  0.69287248  1
  C  C115  1  0.88642505  0.98481512  0.68840353  1
  C  C116  1  0.10186523  0.24131490  0.69061359  1
  C  C117  1  0.60335421  0.21792603  0.68812743  1
  C  C118  1  0.01763944  0.79690506  0.70288677  1
  C  C119  1  0.50833559  0.79135141  0.69968708  1
  C  C120  1  0.38852141  0.79118967  0.19047475  1
  C  C121  1  0.87925544  0.80312340  0.19578005  1
  C  C122  1  0.01100873  0.22834306  0.20206603  1
  C  C123  1  0.51667481  0.23587483  0.20415603  1
  C  C124  1  0.10266121  0.99396921  0.18885185  1
  C  C125  1  0.59979331  0.96076816  0.19364769  1
  C  C126  1  0.42769537  0.33662734  0.64325398  1
  C  C127  1  0.94075146  0.34003149  0.64102742  1
  C  C128  1  0.24016925  0.14081145  0.63673832  1
  C  C129  1  0.73032898  0.12049840  0.63296859  1
  C  C130  1  0.33027928  0.52250872  0.63577736  1
  C  C131  1  0.82785450  0.54003906  0.63034925  1
  C  C132  1  0.43790217  0.54145361  0.14102555  1
  C  C133  1  0.92983599  0.52160557  0.14375876  1
  C  C134  1  0.32790240  0.11547380  0.13014034  1
  C  C135  1  0.82984364  0.14291804  0.14114073  1
  C  C136  1  0.23241247  0.34375135  0.13284986  1
  C  C137  1  0.73843813  0.34051012  0.13683460  1
  C  C138  1  0.23525772  0.32382028  0.02876927  1
  C  C139  1  0.73627784  0.32727722  0.03163478  1
  C  C140  1  0.42293154  0.52133066  0.02545184  1
  C  C141  1  0.93041947  0.52115049  0.02688326  1
  C  C142  1  0.33376354  0.13149013  0.02583306  1
  C  C143  1  0.83208343  0.14166367  0.02398443  1
  C  C144  1  0.23734376  0.14774673  0.53200178  1
  C  C145  1  0.73375970  0.14626023  0.52902301  1
  C  C146  1  0.33348567  0.52722964  0.53062145  1
  C  C147  1  0.83390568  0.53641635  0.52608144  1
  C  C148  1  0.42740987  0.33932366  0.52816700  1
  C  C149  1  0.92540991  0.32866831  0.52540954  1
  C  C150  1  0.28309207  0.70411331  0.97475014  1
  C  C151  1  0.79203727  0.71089803  0.97765726  1
  C  C152  1  0.06419690  0.42296197  0.96244276  1
  C  C153  1  0.56377277  0.43085607  0.96424899  1
  C  C154  1  0.14431837  0.86751395  0.97382665  1
  C  C155  1  0.64064650  0.85893092  0.96899192  1
  C  C156  1  0.29223651  0.87323443  0.48197371  1
  C  C157  1  0.78418557  0.86418536  0.47663890  1
  C  C158  1  0.14487492  0.42578714  0.47300101  1
  C  C159  1  0.64278535  0.41648038  0.47603665  1
  C  C160  1  0.06221065  0.69904349  0.46550029  1
  C  C161  1  0.56213765  0.70302224  0.46461044  1
  C  C162  1  0.04234888  0.63042539  0.36468572  1
  C  C163  1  0.55294655  0.63818228  0.36334479  1
  C  C164  1  0.25681555  0.90405348  0.37449113  1
  C  C165  1  0.75546264  0.87515046  0.36541322  1
  C  C166  1  0.18605496  0.46731791  0.36200565  1
  C  C167  1  0.68034853  0.48979836  0.36577487  1
  C  C168  1  0.05716500  0.46942885  0.86100222  1
  C  C169  1  0.54113051  0.45206186  0.86307605  1
  C  C170  1  0.18152339  0.87306674  0.86330274  1
  C  C171  1  0.68178917  0.90397125  0.85847765  1
  C  C172  1  0.25708629  0.63628733  0.86296308  1
  C  C173  1  0.75941774  0.60685584  0.87039345  1
  C  C174  1  0.99805585  0.81142363  0.40948121  1
  C  C175  1  0.50182904  0.81278535  0.40414778  1
  C  C176  1  0.41559259  0.99461117  0.40945008  1
  C  C177  1  0.91151767  0.99420021  0.40705210  1
  C  C178  1  0.08466343  0.16272312  0.40950243  1
  C  C179  1  0.58727513  0.17093546  0.40630794  1
  C  C180  1  0.00367001  0.19290939  0.90214166  1
  C  C181  1  0.49741811  0.18527416  0.90972452  1
  C  C182  1  0.08881691  0.00446553  0.90413185  1
  C  C183  1  0.58324912  0.00804868  0.90773915  1
  C  C184  1  0.41132855  0.82868896  0.90579193  1
  C  C185  1  0.91662771  0.83507742  0.90743306  1
  C  C186  1  0.48145357  0.16477794  0.57996646  1
  C  C187  1  0.98789521  0.16315766  0.57550888  1
  C  C188  1  0.11235812  0.03563741  0.58453143  1
  C  C189  1  0.60541244  0.02898016  0.57788233  1
  C  C190  1  0.40482124  0.78100612  0.58192051  1
  C  C191  1  0.90752588  0.79458175  0.57652547  1
  C  C192  1  0.48513653  0.81119818  0.07534826  1
  C  C193  1  0.98602857  0.80075171  0.08044133  1
  C  C194  1  0.40760044  0.02131978  0.07630546  1
  C  C195  1  0.91217652  0.01803798  0.07823072  1
  C  C196  1  0.10767126  0.18359923  0.07790348  1
  C  C197  1  0.61147561  0.18488848  0.08402034  1
  C  C198  1  0.33907298  0.16634215  0.74664491  1
  C  C199  1  0.85206506  0.17787886  0.75661266  1
  C  C200  1  0.24610424  0.33104247  0.74471802  1
  C  C201  1  0.73471397  0.30361078  0.75513313  1
  C  C202  1  0.41701478  0.53151157  0.74713094  1
  C  C203  1  0.93502065  0.54176748  0.75664633  1
  C  C204  1  0.35291496  0.52571460  0.25751156  1
  C  C205  1  0.84069951  0.51144752  0.24864452  1
  C  C206  1  0.43438057  0.32686561  0.25727565  1
  C  C207  1  0.91878104  0.30390445  0.24947335  1
  C  C208  1  0.23451875  0.16660071  0.25614145  1
  C  C209  1  0.74381207  0.16221769  0.24817653  1
  C  C210  1  0.32880053  0.50197213  0.92069652  1
  C  C211  1  0.84294044  0.50936361  0.92660285  1
  C  C212  1  0.42550966  0.33175025  0.92534009  1
  C  C213  1  0.93278327  0.34333060  0.91682050  1
  C  C214  1  0.25210872  0.15612239  0.92019394  1
  C  C215  1  0.74779340  0.16614092  0.92376191  1
  C  C216  1  0.34330401  0.17263009  0.42761383  1
  C  C217  1  0.82950474  0.15574520  0.42177889  1
  C  C218  1  0.24947426  0.33252810  0.42719060  1
  C  C219  1  0.75129613  0.34641444  0.42164687  1
  C  C220  1  0.42946868  0.52192766  0.42011012  1
  C  C221  1  0.92506687  0.52059220  0.42542567  1
  C  C222  1  0.18321578  0.48351427  0.07629184  1
  C  C223  1  0.68653184  0.48424924  0.08309635  1
  C  C224  1  0.07473635  0.65435507  0.08792238  1
  C  C225  1  0.57383880  0.66112157  0.08097972  1
  C  C226  1  0.25955931  0.87031300  0.07742823  1
  C  C227  1  0.75005480  0.86384735  0.08662761  1
  C  C228  1  0.18985131  0.89158240  0.58382640  1
  C  C229  1  0.68143473  0.88150482  0.57643336  1
  C  C230  1  0.25688347  0.62765103  0.58448588  1
  C  C231  1  0.75937371  0.64804203  0.57760909  1
  C  C232  1  0.07736739  0.49077290  0.58127722  1
  C  C233  1  0.57345624  0.49072792  0.58712641  1
  C  C234  1  0.14405981  0.82345431  0.25256743  1
  C  C235  1  0.65938483  0.82872450  0.26228207  1
  C  C236  1  0.25421550  0.65027571  0.24999655  1
  C  C237  1  0.75470564  0.66686551  0.26274920  1
  C  C238  1  0.06569053  0.46597912  0.25991579  1
  C  C239  1  0.58122391  0.47340838  0.26344427  1
  C  C240  1  0.16036072  0.49091975  0.76024028  1
  C  C241  1  0.64492006  0.46765876  0.75253591  1
  C  C242  1  0.08191430  0.68889532  0.76209200  1
  C  C243  1  0.56401248  0.66383524  0.75793381  1
  C  C244  1  0.25389445  0.83990096  0.76097619  1
  C  C245  1  0.75404500  0.85548459  0.75000092  1
