# generated using pymatgen
data_Cu(NiC9)2
_symmetry_space_group_name_H-M   'P 1'
_cell_length_a   9.24910361
_cell_length_b   9.25417338
_cell_length_c   22.53815924
_cell_angle_alpha   89.95021702
_cell_angle_beta   89.92831597
_cell_angle_gamma   119.98856568
_symmetry_Int_Tables_number   1
_chemical_formula_structural   Cu(NiC9)2
_chemical_formula_sum   'Cu6 Ni12 C108'
_cell_volume   1670.84203396
_cell_formula_units_Z   6
loop_
 _symmetry_equiv_pos_site_id
 _symmetry_equiv_pos_as_xyz
  1  'x, y, z'
loop_
 _atom_site_type_symbol
 _atom_site_label
 _atom_site_symmetry_multiplicity
 _atom_site_fract_x
 _atom_site_fract_y
 _atom_site_fract_z
 _atom_site_occupancy
  C  C0  1  0.63093770  0.99740223  0.25470095  1
  C  C1  1  0.36867918  0.37014855  0.25215239  1
  C  C2  1  0.00209717  0.63123207  0.25196380  1
  C  C3  1  0.63973849  0.63406984  0.74144232  1
  C  C4  1  0.99151856  0.35492092  0.74384631  1
  C  C5  1  0.36913336  0.01182251  0.74822106  1
  C  C6  1  0.29596983  0.33994101  0.58305030  1
  C  C7  1  0.03783155  0.69980639  0.58093066  1
  C  C8  1  0.66656601  0.95724463  0.58097052  1
  C  C9  1  0.29181482  0.95699223  0.08013292  1
  C  C10  1  0.66040519  0.69949089  0.08239382  1
  C  C11  1  0.04462726  0.34277910  0.08218903  1
  C  C12  1  0.97694340  0.68133902  0.91473138  1
  C  C13  1  0.70822589  0.02944310  0.91261043  1
  C  C14  1  0.31625815  0.28936863  0.91255880  1
  C  C15  1  0.97842022  0.29929490  0.41748297  1
  C  C16  1  0.32577926  0.02506409  0.41765418  1
  C  C17  1  0.69810453  0.67755695  0.41739647  1
  C  C18  1  0.99700645  0.00010233  0.49893712  1
  C  C19  1  0.00340288  0.00074277  0.99737052  1
  C  C20  1  0.66230745  0.32677234  0.82726578  1
  C  C21  1  0.66489519  0.33179345  0.33460798  1
  C  C22  1  0.32835862  0.66131658  0.16499843  1
  C  C23  1  0.33456613  0.66125633  0.65941413  1
  C  C24  1  0.66441294  0.33731257  0.97923620  1
  C  C25  1  0.67248237  0.33841436  0.48111680  1
  C  C26  1  0.33595771  0.66503479  0.81608681  1
  C  C27  1  0.00036630  0.00008618  0.35077471  1
  C  C28  1  0.00105913  0.00386536  0.84854754  1
  C  C29  1  0.99413297  0.00261127  0.64848706  1
  C  C30  1  0.00250423  0.99921888  0.14660586  1
  C  C31  1  0.66577205  0.33335540  0.68237780  1
  C  C32  1  0.66781664  0.33664091  0.18155438  1
  C  C33  1  0.33115588  0.66432229  0.01592005  1
  C  C34  1  0.33338950  0.66313718  0.51426715  1
  C  C35  1  0.33424680  0.66618748  0.32254828  1
  Ni  Ni36  1  0.29793383  0.29870495  0.75044805  1
  Ni  Ni37  1  0.69855320  0.99745631  0.75085377  1
  Ni  Ni38  1  0.96389977  0.33560887  0.58494034  1
  Ni  Ni39  1  0.66696320  0.62997516  0.58512028  1
  Ni  Ni40  1  0.96205970  0.62766574  0.08451501  1
  Ni  Ni41  1  0.37161929  0.33484078  0.08475524  1
  Ni  Ni42  1  0.62873078  0.66742800  0.91893596  1
  Ni  Ni43  1  0.03640065  0.37124725  0.91859038  1
  Ni  Ni44  1  0.33418485  0.96125551  0.91866094  1
  Ni  Ni45  1  0.63059880  0.96728163  0.41681130  1
  Ni  Ni46  1  0.33557877  0.36689521  0.41640467  1
  Ni  Ni47  1  0.03566863  0.66609833  0.41664488  1
  Cu  Cu48  1  0.29925230  0.99828899  0.24890951  1
  Cu  Cu49  1  0.70187529  0.70369100  0.24908840  1
  Cu  Cu50  1  -0.00029586  0.29716970  0.24852675  1
  Cu  Cu51  1  0.00578322  0.70557219  0.75128887  1
  Cu  Cu52  1  0.37362822  0.03970814  0.58348611  1
  Cu  Cu53  1  0.66636583  0.04355808  0.08336653  1
  C  C54  1  0.21808408  0.02668087  0.30413191  1
  C  C55  1  0.80969298  0.78603313  0.30437454  1
  C  C56  1  0.97433215  0.18994114  0.30418113  1
  C  C57  1  0.22350125  0.18562724  0.80990137  1
  C  C58  1  0.97574017  0.78167120  0.80744718  1
  C  C59  1  0.80998349  0.03120369  0.81021465  1
  C  C60  1  0.76842522  0.94655407  0.69257425  1
  C  C61  1  0.17895365  0.22329590  0.69191636  1
  C  C62  1  0.04095728  0.81542821  0.69558452  1
  C  C63  1  0.78204674  0.80968098  0.19199575  1
  C  C64  1  0.02465553  0.21622636  0.19157574  1
  C  C65  1  0.19331898  0.97235900  0.19200067  1
  C  C66  1  0.88462640  0.36316966  0.64516837  1
  C  C67  1  0.47272411  0.11199160  0.64129580  1
  C  C68  1  0.63241400  0.51981425  0.64490314  1
  C  C69  1  0.88823868  0.51644322  0.14405110  1
  C  C70  1  0.63884622  0.11574604  0.14060054  1
  C  C71  1  0.47877562  0.36324335  0.14459249  1
  C  C72  1  0.47771030  0.31249415  0.02699248  1
  C  C73  1  0.83446144  0.51845399  0.02689477  1
  C  C74  1  0.68511143  0.15805262  0.02844339  1
  C  C75  1  0.47057037  0.15432025  0.52923892  1
  C  C76  1  0.68071046  0.51926636  0.52805627  1
  C  C77  1  0.83716213  0.31683282  0.52806311  1
  C  C78  1  0.55666864  0.70600667  0.97790658  1
  C  C79  1  0.14664563  0.44374455  0.97771282  1
  C  C80  1  0.29995270  0.85355899  0.97837237  1
  C  C81  1  0.55276948  0.84969665  0.47466037  1
  C  C82  1  0.29302110  0.44250414  0.47414387  1
  C  C83  1  0.15203637  0.70545806  0.47456157  1
  C  C84  1  0.10275168  0.61702244  0.35695941  1
  C  C85  1  0.51508708  0.89786342  0.35693748  1
  C  C86  1  0.38414204  0.48408239  0.35669887  1
  C  C87  1  0.13472381  0.50002838  0.86155062  1
  C  C88  1  0.36211581  0.86139707  0.86178163  1
  C  C89  1  0.49884212  0.63575498  0.86222389  1
  C  C90  1  0.00397819  0.82334321  0.41114428  1
  C  C91  1  0.81876492  0.99518039  0.41130428  1
  C  C92  1  0.17534253  0.17926682  0.41080267  1
  C  C93  1  0.00844507  0.18442940  0.91265910  1
  C  C94  1  0.17406119  0.98700324  0.91179976  1
  C  C95  1  0.81669393  0.82032706  0.91031583  1
  C  C96  1  0.97187355  0.16267544  0.58180910  1
  C  C97  1  0.20141794  0.03041431  0.58436870  1
  C  C98  1  0.84560221  0.80639556  0.58332376  1
  C  C99  1  0.96204115  0.80544818  0.08273145  1
  C  C100  1  0.83017506  0.03469689  0.08373228  1
  C  C101  1  0.18913020  0.16244311  0.08259387  1
  C  C102  1  0.67310786  0.15996617  0.74660413  1
  C  C103  1  0.48821391  0.32959782  0.74742951  1
  C  C104  1  0.85230577  0.52772024  0.74756510  1
  C  C105  1  0.68487091  0.52696793  0.24733035  1
  C  C106  1  0.83883394  0.31253779  0.24645485  1
  C  C107  1  0.47733026  0.15635684  0.24597800  1
  C  C108  1  0.63374100  0.48901657  0.92285363  1
  C  C109  1  0.85115967  0.36156166  0.92300763  1
  C  C110  1  0.51075656  0.14585075  0.92286996  1
  C  C111  1  0.64739696  0.15443473  0.42598004  1
  C  C112  1  0.50445030  0.34788068  0.42596848  1
  C  C113  1  0.84668932  0.49513215  0.42555791  1
  C  C114  1  0.35672517  0.50250323  0.08023655  1
  C  C115  1  0.14923362  0.65396452  0.07998517  1
  C  C116  1  0.51223969  0.86740451  0.07852999  1
  C  C117  1  0.35379913  0.86452826  0.57826135  1
  C  C118  1  0.50444460  0.65415409  0.57981347  1
  C  C119  1  0.14683984  0.50367107  0.58002081  1
  C  C120  1  0.31452888  0.83797274  0.25271270  1
  C  C121  1  0.52550489  0.68700011  0.25241652  1
  C  C122  1  0.15919737  0.47352055  0.25190733  1
  C  C123  1  0.31112153  0.48651082  0.75967140  1
  C  C124  1  0.16663520  0.68891785  0.75860436  1
  C  C125  1  0.50786428  0.82702411  0.76005587  1
