# generated using pymatgen
data_Cu4NiC8
_symmetry_space_group_name_H-M   'P 1'
_cell_length_a   3.73000211
_cell_length_b   5.67169249
_cell_length_c   12.26193552
_cell_angle_alpha   84.27767625
_cell_angle_beta   89.12159979
_cell_angle_gamma   89.41678607
_symmetry_Int_Tables_number   1
_chemical_formula_structural   Cu4NiC8
_chemical_formula_sum   'Cu4 Ni1 C8'
_cell_volume   258.07369329
_cell_formula_units_Z   1
loop_
 _symmetry_equiv_pos_site_id
 _symmetry_equiv_pos_as_xyz
  1  'x, y, z'
loop_
 _atom_site_type_symbol
 _atom_site_label
 _atom_site_symmetry_multiplicity
 _atom_site_fract_x
 _atom_site_fract_y
 _atom_site_fract_z
 _atom_site_occupancy
  Ni  Ni0  1  0.79711896  0.17387801  0.64181455  1
  Cu  Cu1  1  0.27562512  0.37480436  0.30929632  1
  Cu  Cu2  1  0.78048528  0.89735352  0.17362565  1
  Cu  Cu3  1  0.78758806  0.65922631  0.69415236  1
  Cu  Cu4  1  0.27986660  0.10138979  0.84870584  1
  C  C5  1  0.77877965  0.64810648  0.01856666  1
  C  C6  1  0.26395528  0.07661578  0.46467537  1
  C  C7  1  0.77017278  0.78194254  0.48720115  1
  C  C8  1  0.28230272  0.34807900  0.99864556  1
  C  C9  1  0.78354542  0.87209830  0.84269368  1
  C  C10  1  0.77232838  0.60279867  0.31171465  1
  C  C11  1  0.27752332  0.13814280  0.16913366  1
  C  C12  1  0.29074242  0.40889744  0.71199654  1
