# generated using pymatgen
data_Cu3Ni4C71
_symmetry_space_group_name_H-M   'P 1'
_cell_length_a   18.46910572
_cell_length_b   9.17057325
_cell_length_c   23.04919709
_cell_angle_alpha   90.10254689
_cell_angle_beta   89.95062795
_cell_angle_gamma   120.03432036
_symmetry_Int_Tables_number   1
_chemical_formula_structural   Cu3Ni4C71
_chemical_formula_sum   'Cu9 Ni12 C213'
_cell_volume   3379.69718986
_cell_formula_units_Z   3
loop_
 _symmetry_equiv_pos_site_id
 _symmetry_equiv_pos_as_xyz
  1  'x, y, z'
loop_
 _atom_site_type_symbol
 _atom_site_label
 _atom_site_symmetry_multiplicity
 _atom_site_fract_x
 _atom_site_fract_y
 _atom_site_fract_z
 _atom_site_occupancy
  C  C0  1  0.19111974  0.36249428  0.24173219  1
  C  C1  1  0.69057398  0.36734444  0.24170113  1
  C  C2  1  0.99006093  0.63928080  0.25369994  1
  C  C3  1  0.49129310  0.63153047  0.26259556  1
  C  C4  1  0.32464336  0.65173584  0.74040550  1
  C  C5  1  0.82194918  0.64666360  0.73984113  1
  C  C6  1  0.99097040  0.34520103  0.75146418  1
  C  C7  1  0.19204272  0.01271842  0.73805625  1
  C  C8  1  0.69308382  0.01250990  0.73791682  1
  C  C9  1  0.52243844  0.70029766  0.56857022  1
  C  C10  1  0.32481431  0.96545914  0.58903484  1
  C  C11  1  0.82457805  0.96089970  0.58821484  1
  C  C12  1  0.15480989  0.98328057  0.07534003  1
  C  C13  1  0.65467898  0.98247091  0.07502644  1
  C  C14  1  0.32692728  0.68228245  0.09276684  1
  C  C15  1  0.82636691  0.68275492  0.09332696  1
  C  C16  1  0.65764279  0.01318041  0.42592066  1
  C  C17  1  0.35691650  0.67757165  0.40628320  1
  C  C18  1  0.02322327  0.00458155  0.49496553  1
  C  C19  1  0.51470366  0.01812282  0.49349131  1
  C  C20  1  0.01154652  0.03494884  0.99435399  1
  C  C21  1  0.51169895  0.03470386  0.99364255  1
  C  C22  1  0.34921247  0.32191352  0.82642133  1
  C  C23  1  0.83373271  0.31411848  0.82936813  1
  C  C24  1  0.34534926  0.33770945  0.33012670  1
  C  C25  1  0.84073315  0.34789367  0.32661498  1
  C  C26  1  0.17559279  0.65469225  0.16055388  1
  C  C27  1  0.67633179  0.65469009  0.16305378  1
  C  C28  1  0.16845711  0.67924306  0.65464965  1
  C  C29  1  0.66813894  0.66447974  0.65611438  1
  C  C30  1  0.00329976  0.99843992  0.64718782  1
  C  C31  1  0.50326928  0.00797784  0.65025136  1
  C  C32  1  0.99575184  0.00633909  0.15101454  1
  C  C33  1  0.49632097  0.00580817  0.15037442  1
  C  C34  1  0.33013323  0.33067923  0.98114853  1
  C  C35  1  0.83030208  0.33189235  0.98101170  1
  C  C36  1  0.32813227  0.32781997  0.48079262  1
  C  C37  1  0.83150057  0.33743238  0.48430500  1
  C  C38  1  0.17272140  0.67447876  0.31531073  1
  C  C39  1  0.67049716  0.67100505  0.31873911  1
  C  C40  1  0.17272790  0.67745006  0.82047893  1
  C  C41  1  0.66671107  0.66918402  0.81817590  1
  Ni  Ni42  1  0.98652804  0.97439911  0.34726465  1
  Ni  Ni43  1  0.49355776  0.96911579  0.34681058  1
  Ni  Ni44  1  0.98973115  0.00699131  0.84931599  1
  Ni  Ni45  1  0.49195894  0.01316633  0.84823486  1
  Ni  Ni46  1  0.33357411  0.27726173  0.67596143  1
  Ni  Ni47  1  0.83169579  0.29303835  0.67392876  1
  Ni  Ni48  1  0.33065043  0.36333035  0.17825823  1
  Ni  Ni49  1  0.82918752  0.36198876  0.17781137  1
  Ni  Ni50  1  0.16269739  0.62964944  0.01444295  1
  Ni  Ni51  1  0.66224643  0.63014872  0.01473490  1
  Ni  Ni52  1  0.15765589  0.68260685  0.51498358  1
  Ni  Ni53  1  0.66335776  0.68991609  0.50939290  1
  Cu  Cu54  1  0.34871468  0.68895992  0.24818348  1
  Cu  Cu55  1  0.84960795  0.69204026  0.24713372  1
  Cu  Cu56  1  0.35177969  0.00483574  0.74942957  1
  Cu  Cu57  1  0.85235236  0.00605275  0.74819296  1
  Cu  Cu58  1  0.18059068  0.01901496  0.58356955  1
  Cu  Cu59  1  0.68071683  0.02049632  0.58218988  1
  Cu  Cu60  1  0.18150332  0.33560627  0.08503848  1
  Cu  Cu61  1  0.68137507  0.33610681  0.08456122  1
  Cu  Cu62  1  0.51481429  0.67322974  0.41456905  1
  C  C63  1  0.14759920  0.00527696  0.25085302  1
  C  C64  1  0.65075578  0.00545489  0.25041660  1
  C  C65  1  0.99672732  0.29771509  0.25492737  1
  C  C66  1  0.49798376  0.29601166  0.25451109  1
  C  C67  1  0.14807095  0.29367824  0.75476771  1
  C  C68  1  0.65232180  0.29628846  0.75452963  1
  C  C69  1  0.99774166  0.70113930  0.75504640  1
  C  C70  1  0.49751114  0.70269762  0.75274337  1
  C  C71  1  0.48351509  0.34226863  0.58388268  1
  C  C72  1  0.98537857  0.34382154  0.58581886  1
  C  C73  1  0.33142585  0.62851428  0.58696561  1
  C  C74  1  0.82888374  0.62838369  0.58821533  1
  C  C75  1  0.48626580  0.62975080  0.08493151  1
  C  C76  1  0.98658237  0.63045407  0.08484736  1
  C  C77  1  0.32952181  0.03607185  0.08461045  1
  C  C78  1  0.82988747  0.03711969  0.08436598  1
  C  C79  1  0.32308095  0.67991448  0.91859140  1
  C  C80  1  0.82158939  0.67956033  0.91719186  1
  C  C81  1  0.01754631  0.36065131  0.91512670  1
  C  C82  1  0.51775928  0.35952359  0.91757551  1
  C  C83  1  0.15922985  0.96376619  0.91925117  1
  C  C84  1  0.66015822  0.96292122  0.91862515  1
  C  C85  1  0.31892142  0.96135185  0.42044185  1
  C  C86  1  0.82360826  0.96982661  0.42009281  1
  C  C87  1  0.15900486  0.36600622  0.41829137  1
  C  C88  1  0.66486139  0.36610372  0.41772550  1
  C  C89  1  0.01796213  0.67606111  0.41462866  1
  C  C90  1  0.10534765  0.03276101  0.30039683  1
  C  C91  1  0.60996665  0.02871493  0.30244064  1
  C  C92  1  0.40384941  0.78158897  0.30608138  1
  C  C93  1  0.91548301  0.78952242  0.29963418  1
  C  C94  1  0.49335593  0.19627522  0.30554103  1
  C  C95  1  0.99229788  0.19960020  0.30629659  1
  C  C96  1  0.10842520  0.18461702  0.80533153  1
  C  C97  1  0.60934094  0.19039348  0.80500277  1
  C  C98  1  0.49150200  0.79480337  0.80305498  1
  C  C99  1  0.99077497  0.78809650  0.80642272  1
  C  C100  1  0.40616174  0.01468528  0.80514686  1
  C  C101  1  0.91633843  0.04526893  0.80192831  1
  C  C102  1  0.38831990  0.97222228  0.68864643  1
  C  C103  1  0.88820560  0.96711190  0.68872384  1
  C  C104  1  0.09771568  0.21535079  0.70151548  1
  C  C105  1  0.60518044  0.21950864  0.70035954  1
  C  C106  1  0.01611635  0.80823774  0.70248021  1
  C  C107  1  0.51338601  0.80497041  0.69847181  1
  C  C108  1  0.39006264  0.78944138  0.18786330  1
  C  C109  1  0.88807048  0.78603096  0.18489833  1
  C  C110  1  0.01463092  0.22684060  0.20199213  1
  C  C111  1  0.51160609  0.22154889  0.20084101  1
  C  C112  1  0.09988449  0.98531425  0.19586543  1
  C  C113  1  0.60001375  0.98808326  0.19752671  1
  C  C114  1  0.44484108  0.37005822  0.63641884  1
  C  C115  1  0.94975472  0.36704725  0.64129006  1
  C  C116  1  0.23172084  0.09643987  0.64527404  1
  C  C117  1  0.73413682  0.10622278  0.64184353  1
  C  C118  1  0.32805173  0.53586232  0.64011353  1
  C  C119  1  0.82800016  0.54014260  0.64250334  1
  C  C120  1  0.44953288  0.53377890  0.13907658  1
  C  C121  1  0.95000537  0.53514748  0.13922673  1
  C  C122  1  0.32724551  0.12910714  0.13600558  1
  C  C123  1  0.82769768  0.13005044  0.13584082  1
  C  C124  1  0.23412667  0.36566983  0.14574020  1
  C  C125  1  0.73350307  0.36546971  0.14528264  1
  C  C126  1  0.23352415  0.30906507  0.03270332  1
  C  C127  1  0.73336122  0.30934202  0.03215752  1
  C  C128  1  0.43315717  0.54002201  0.03446118  1
  C  C129  1  0.93319412  0.53954807  0.03455182  1
  C  C130  1  0.34179075  0.13312032  0.03067743  1
  C  C131  1  0.84204441  0.13456421  0.03046256  1
  C  C132  1  0.23426207  0.14003855  0.53058720  1
  C  C133  1  0.72841574  0.13050327  0.52444780  1
  C  C134  1  0.34356884  0.54866653  0.53441068  1
  C  C135  1  0.83879977  0.54242759  0.53706657  1
  C  C136  1  0.43314446  0.32515725  0.53206304  1
  C  C137  1  0.93052377  0.32805654  0.53665754  1
  C  C138  1  0.27672523  0.68892823  0.96983783  1
  C  C139  1  0.77680130  0.68872686  0.96924606  1
  C  C140  1  0.06835690  0.45841847  0.96528827  1
  C  C141  1  0.56521254  0.44901566  0.97002956  1
  C  C142  1  0.15575953  0.86550014  0.97128910  1
  C  C143  1  0.65689844  0.86628097  0.97112061  1
  C  C144  1  0.27591579  0.86091087  0.47259320  1
  C  C145  1  0.78438089  0.87467987  0.47405442  1
  C  C146  1  0.15319589  0.45980896  0.46835156  1
  C  C147  1  0.66438834  0.46402520  0.46801914  1
  C  C148  1  0.06819627  0.68233808  0.46511858  1
  C  C149  1  0.57135041  0.69677428  0.47276568  1
  C  C150  1  0.05611022  0.66015618  0.35956711  1
  C  C151  1  0.56110242  0.66149966  0.35571666  1
  C  C152  1  0.26853706  0.87525248  0.36794518  1
  C  C153  1  0.76914033  0.88232728  0.36954212  1
  C  C154  1  0.16828807  0.46102180  0.36307401  1
  C  C155  1  0.67378329  0.45625108  0.36229804  1
  C  C156  1  0.05549011  0.45044254  0.85977500  1
  C  C157  1  0.55901184  0.45712501  0.86464059  1
  C  C158  1  0.16489957  0.87827837  0.86538118  1
  C  C159  1  0.66602867  0.87671203  0.86513619  1
  C  C160  1  0.27423395  0.66028680  0.86450375  1
  C  C161  1  0.77269391  0.66239026  0.86350880  1
  C  C162  1  0.01261395  0.83217067  0.41383570  1
  C  C163  1  0.51110354  0.85102097  0.41373792  1
  C  C164  1  0.40145024  0.97331324  0.41638618  1
  C  C165  1  0.90761024  0.99158374  0.41360047  1
  C  C166  1  0.08676525  0.19443053  0.41449742  1
  C  C167  1  0.58971359  0.19671692  0.41628641  1
  C  C168  1  0.01218111  0.19407997  0.91534252  1
  C  C169  1  0.51260372  0.19322302  0.91537447  1
  C  C170  1  0.08493343  0.98332562  0.91630381  1
  C  C171  1  0.58607020  0.98302464  0.91550291  1
  C  C172  1  0.40619444  0.83185647  0.91616887  1
  C  C173  1  0.90519800  0.83200724  0.91445366  1
  C  C174  1  0.48503141  0.18140253  0.58787124  1
  C  C175  1  0.98499925  0.18065027  0.58754852  1
  C  C176  1  0.08693473  0.99538213  0.58413960  1
  C  C177  1  0.58515928  0.99032344  0.58440860  1
  C  C178  1  0.40839300  0.80311407  0.58741578  1
  C  C179  1  0.90210824  0.80417383  0.58669268  1
  C  C180  1  0.48967907  0.79776799  0.08690262  1
  C  C181  1  0.99035384  0.79860187  0.08647354  1
  C  C182  1  0.39942296  0.99758996  0.08639364  1
  C  C183  1  0.90015126  -0.00019110  0.08601329  1
  C  C184  1  0.08994659  0.16159810  0.08526819  1
  C  C185  1  0.59014554  0.16130810  0.08478840  1
  C  C186  1  0.33831628  0.16873408  0.74777046  1
  C  C187  1  0.84329042  0.17699340  0.74442898  1
  C  C188  1  0.23472470  0.32864997  0.74857656  1
  C  C189  1  0.73778578  0.31919031  0.75065821  1
  C  C190  1  0.41981545  0.53918426  0.74704537  1
  C  C191  1  0.91961994  0.53682137  0.74789856  1
  C  C192  1  0.34374608  0.50270798  0.24829737  1
  C  C193  1  0.84295775  0.50374057  0.24708963  1
  C  C194  1  0.42402891  0.31571779  0.24925133  1
  C  C195  1  0.92166794  0.31237514  0.24839098  1
  C  C196  1  0.23355219  0.14739540  0.24641110  1
  C  C197  1  0.73533776  0.15264964  0.24586502  1
  C  C198  1  0.33187323  0.52696521  0.92072333  1
  C  C199  1  0.83070043  0.52646809  0.91885662  1
  C  C200  1  0.43244294  0.33794858  0.91953411  1
  C  C201  1  0.93246264  0.34014700  0.91857524  1
  C  C202  1  0.23759531  0.13230279  0.91887098  1
  C  C203  1  0.73879042  0.13222864  0.91791274  1
  C  C204  1  0.32865422  0.13138610  0.42062367  1
  C  C205  1  0.82849412  0.13844266  0.42140143  1
  C  C206  1  0.23902857  0.36036271  0.42086193  1
  C  C207  1  0.73961238  0.33877653  0.41901710  1
  C  C208  1  0.41857094  0.51414383  0.41707347  1
  C  C209  1  0.93257308  0.52439506  0.41853633  1
  C  C210  1  0.17976592  0.51264185  0.07770192  1
  C  C211  1  0.67998965  0.51352354  0.07772636  1
  C  C212  1  0.07329366  0.66395458  0.07810421  1
  C  C213  1  0.57317222  0.66469435  0.07827817  1
  C  C214  1  0.24944697  0.87099421  0.08122531  1
  C  C215  1  0.74997381  0.87201376  0.08098772  1
  C  C216  1  0.17881705  0.83745172  0.57822824  1
  C  C217  1  0.67598964  0.83505565  0.57918941  1
  C  C218  1  0.25724728  0.64803371  0.58203671  1
  C  C219  1  0.75218458  0.63977507  0.58375349  1
  C  C220  1  0.07043432  0.48557635  0.57906522  1
  C  C221  1  0.56856676  0.48748609  0.57980468  1
  C  C222  1  0.14753615  0.84206684  0.25576072  1
  C  C223  1  0.65379459  0.84621932  0.25302381  1
  C  C224  1  0.25161163  0.65475982  0.25124422  1
  C  C225  1  0.75397966  0.66093533  0.25301930  1
  C  C226  1  0.07086251  0.47522474  0.25799597  1
  C  C227  1  0.57448706  0.47033014  0.25610241  1
  C  C228  1  0.15027763  0.46016923  0.75954227  1
  C  C229  1  0.66261238  0.46893961  0.75770140  1
  C  C230  1  0.06944219  0.66719483  0.75932790  1
  C  C231  1  0.57214593  0.67934729  0.75697513  1
  C  C232  1  0.25494424  0.83352886  0.75357792  1
  C  C233  1  0.75685570  0.84002990  0.75606166  1
