# generated using pymatgen
data_Cu3Ni3C31
_symmetry_space_group_name_H-M   'P 1'
_cell_length_a   8.81947247
_cell_length_b   8.79918607
_cell_length_c   22.59926060
_cell_angle_alpha   90.35042428
_cell_angle_beta   89.88428366
_cell_angle_gamma   120.02023422
_symmetry_Int_Tables_number   1
_chemical_formula_structural   Cu3Ni3C31
_chemical_formula_sum   'Cu9 Ni9 C93'
_cell_volume   1518.49354477
_cell_formula_units_Z   3
loop_
 _symmetry_equiv_pos_site_id
 _symmetry_equiv_pos_as_xyz
  1  'x, y, z'
loop_
 _atom_site_type_symbol
 _atom_site_label
 _atom_site_symmetry_multiplicity
 _atom_site_fract_x
 _atom_site_fract_y
 _atom_site_fract_z
 _atom_site_occupancy
  C  C0  1  0.66101945  0.96458142  0.58316398  1
  C  C1  1  0.29850369  0.95998396  0.08273946  1
  C  C2  1  0.03434060  0.33859671  0.08288904  1
  C  C3  1  0.01416034  0.00095440  0.49613221  1
  C  C4  1  0.98569685  0.98655329  0.99505175  1
  C  C5  1  0.66511398  0.33369537  0.82909790  1
  C  C6  1  0.66833831  0.33527910  0.32850875  1
  C  C7  1  0.34474396  0.67337557  0.16275556  1
  C  C8  1  0.32211963  0.66198553  0.66200973  1
  C  C9  1  0.67749495  0.33741223  0.97744330  1
  C  C10  1  0.65667304  0.32767477  0.47720391  1
  C  C11  1  0.33088563  0.66630356  0.31683681  1
  C  C12  1  0.33593841  0.66860709  0.81665883  1
  C  C13  1  0.00006778  0.99858505  0.35404801  1
  C  C14  1  0.99985578  0.99822785  0.85378589  1
  C  C15  1  0.01996280  0.00199678  0.64905376  1
  C  C16  1  0.97914917  0.98235167  0.14851838  1
  C  C17  1  0.66107470  0.32928118  0.68284651  1
  C  C18  1  0.67252762  0.33370539  0.18212984  1
  C  C19  1  0.33966073  0.67466283  0.01369847  1
  C  C20  1  0.32661995  0.66930408  0.51413489  1
  Ni  Ni21  1  0.37114871  0.03800166  0.58536678  1
  Ni  Ni22  1  0.96010093  0.62799484  0.08539038  1
  Ni  Ni23  1  0.66458549  0.03875922  0.08502853  1
  Ni  Ni24  1  0.62765253  0.67064165  0.91897012  1
  Ni  Ni25  1  0.04764213  0.37231175  0.91922162  1
  Ni  Ni26  1  0.32836769  0.95961254  0.91947298  1
  Ni  Ni27  1  0.62954401  0.95494038  0.41967148  1
  Ni  Ni28  1  0.32590444  0.37433675  0.41930353  1
  Ni  Ni29  1  0.04077907  0.67036484  0.41922960  1
  Cu  Cu30  1  0.29435222  0.00307865  0.24986795  1
  Cu  Cu31  1  0.70600342  0.70434283  0.25120767  1
  Cu  Cu32  1  0.99879325  0.29090301  0.25024174  1
  Cu  Cu33  1  0.29298030  0.29190219  0.75080893  1
  Cu  Cu34  1  0.99720038  0.70466357  0.75040424  1
  Cu  Cu35  1  0.70992769  0.00225407  0.74955761  1
  Cu  Cu36  1  0.95911618  0.33622977  0.58432864  1
  Cu  Cu37  1  0.66660649  0.62487776  0.58457630  1
  Cu  Cu38  1  0.37822943  0.33643309  0.08444821  1
  C  C39  1  0.20917663  0.02278990  0.30222105  1
  C  C40  1  0.81087540  0.78663588  0.30385357  1
  C  C41  1  0.97929031  0.18617419  0.30216622  1
  C  C42  1  0.21231912  0.18840946  0.80356936  1
  C  C43  1  0.97424724  0.78558372  0.80357353  1
  C  C44  1  0.81427485  0.02205994  0.80183136  1
  C  C45  1  0.77776836  0.96803357  0.69405759  1
  C  C46  1  0.18739435  0.22291998  0.69659399  1
  C  C47  1  0.03352903  0.81002181  0.69650073  1
  C  C48  1  0.77351458  0.80932430  0.19702252  1
  C  C49  1  0.03268024  0.22288167  0.19451308  1
  C  C50  1  0.19245356  0.96846865  0.19448649  1
  C  C51  1  0.87948446  0.36199399  0.63768328  1
  C  C52  1  0.49176872  0.12368251  0.63817547  1
  C  C53  1  0.64550026  0.52116122  0.63727897  1
  C  C54  1  0.87594874  0.51154627  0.13842715  1
  C  C55  1  0.62832085  0.12115760  0.13863669  1
  C  C56  1  0.48124312  0.36073747  0.13756325  1
  C  C57  1  0.46499577  0.30977437  0.03037095  1
  C  C58  1  0.83981295  0.52949873  0.02840812  1
  C  C59  1  0.68922366  0.16410454  0.02878362  1
  C  C60  1  0.47516818  0.16184501  0.52856868  1
  C  C61  1  0.68857185  0.53473368  0.53008381  1
  C  C62  1  0.84292694  0.31175968  0.53048762  1
  C  C63  1  0.54424055  0.69372370  0.97315646  1
  C  C64  1  0.14518138  0.45148995  0.97598828  1
  C  C65  1  0.30347070  0.85782056  0.97543693  1
  C  C66  1  0.55184989  0.85590195  0.47592519  1
  C  C67  1  0.30695034  0.45914764  0.47392387  1
  C  C68  1  0.14856541  0.69667909  0.47302741  1
  C  C69  1  0.13268077  0.63621737  0.36273529  1
  C  C70  1  0.50250994  0.86437750  0.36431249  1
  C  C71  1  0.36127195  0.49670693  0.36278229  1
  C  C72  1  0.13840838  0.49752874  0.86401732  1
  C  C73  1  0.36212929  0.86522739  0.86405193  1
  C  C74  1  0.50380360  0.63819808  0.86242928  1
  C  C75  1  0.01427569  0.82316515  0.40774231  1
  C  C76  1  0.80974300  0.98515481  0.40823376  1
  C  C77  1  0.17685771  0.19236297  0.40835746  1
  C  C78  1  0.01642893  0.19075918  0.90841304  1
  C  C79  1  0.17512215  0.98491612  0.90798482  1
  C  C80  1  0.80757321  0.82304937  0.90799106  1
  C  C81  1  0.96109959  0.16774346  0.58631075  1
  C  C82  1  0.19492798  0.03083029  0.58566951  1
  C  C83  1  0.82540668  0.80213005  0.58646724  1
  C  C84  1  0.98095733  0.81189856  0.08619667  1
  C  C85  1  0.84007201  0.04086413  0.08605663  1
  C  C86  1  0.20313935  0.17222443  0.08666568  1
  C  C87  1  0.68291272  0.15474124  0.74548230  1
  C  C88  1  0.47279819  0.32084019  0.74514623  1
  C  C89  1  0.84512871  0.52508631  0.74412817  1
  C  C90  1  0.67824472  0.52489233  0.24505803  1
  C  C91  1  0.84737719  0.31885314  0.24627392  1
  C  C92  1  0.47311799  0.15546797  0.24549213  1
  C  C93  1  0.63477865  0.49412566  0.92306811  1
  C  C94  1  0.86233440  0.36491591  0.92197680  1
  C  C95  1  0.50435354  0.14250774  0.92326725  1
  C  C96  1  0.63764918  0.14073412  0.42342315  1
  C  C97  1  0.50371836  0.36609303  0.42352232  1
  C  C98  1  0.85751790  0.49458092  0.42407874  1
  C  C99  1  0.35198665  0.48812979  0.07812501  1
  C  C100  1  0.14096177  0.64191696  0.07782532  1
  C  C101  1  0.50145506  0.85856968  0.07704643  1
  C  C102  1  0.36161446  0.85959973  0.57720072  1
  C  C103  1  0.51031593  0.64399985  0.57835606  1
  C  C104  1  0.13418033  0.48801162  0.57740475  1
  C  C105  1  0.31247497  0.83752085  0.25778439  1
  C  C106  1  0.52401123  0.68747870  0.25888603  1
  C  C107  1  0.16409365  0.47429526  0.25775416  1
  C  C108  1  0.31105176  0.47515340  0.75840879  1
  C  C109  1  0.16186338  0.68652219  0.75836152  1
  C  C110  1  0.52602353  0.83718044  0.75739261  1
