# generated using pymatgen
data_Cu2Ni2C3
_symmetry_space_group_name_H-M   'P 1'
_cell_length_a   10.49033830
_cell_length_b   10.49033830
_cell_length_c   10.61778809
_cell_angle_alpha   66.92475714
_cell_angle_beta   66.92475714
_cell_angle_gamma   54.05468613
_symmetry_Int_Tables_number   1
_chemical_formula_structural   Cu2Ni2C3
_chemical_formula_sum   'Cu8 Ni8 C12'
_cell_volume   849.47166535
_cell_formula_units_Z   4
loop_
 _symmetry_equiv_pos_site_id
 _symmetry_equiv_pos_as_xyz
  1  'x, y, z'
loop_
 _atom_site_type_symbol
 _atom_site_label
 _atom_site_symmetry_multiplicity
 _atom_site_fract_x
 _atom_site_fract_y
 _atom_site_fract_z
 _atom_site_occupancy
  C  C0  1  0.33937700  0.80609200  0.70594900  1
  C  C1  1  0.19390800  0.66062300  0.29405100  1
  C  C2  1  0.66062300  0.19390800  0.29405100  1
  C  C3  1  0.80609200  0.33937700  0.70594900  1
  C  C4  1  0.39351400  0.86724700  0.99587800  1
  C  C5  1  0.13275300  0.60648600  0.00412200  1
  C  C6  1  0.60648600  0.13275300  0.00412200  1
  C  C7  1  0.86724700  0.39351400  0.99587800  1
  C  C8  1  0.78419500  0.78419500  0.28409000  1
  C  C9  1  0.21580500  0.21580500  0.71591000  1
  C  C10  1  0.92501200  0.92501200  0.72842800  1
  C  C11  1  0.07498800  0.07498800  0.27157200  1
  Ni  Ni12  1  0.32289000  0.81278500  0.25110900  1
  Ni  Ni13  1  0.18721500  0.67711000  0.74889100  1
  Ni  Ni14  1  0.67711000  0.18721500  0.74889100  1
  Ni  Ni15  1  0.81278500  0.32289000  0.25110900  1
  Ni  Ni16  1  0.44928100  0.93971200  0.74052200  1
  Ni  Ni17  1  0.06028800  0.55071900  0.25947800  1
  Ni  Ni18  1  0.55071900  0.06028800  0.25947800  1
  Ni  Ni19  1  0.93971200  0.44928100  0.74052200  1
  Cu  Cu20  1  0.24981400  0.24981400  0.99650300  1
  Cu  Cu21  1  0.75018600  0.75018600  0.00349700  1
  Cu  Cu22  1  0.88244900  0.88244900  0.48628600  1
  Cu  Cu23  1  0.11755100  0.11755100  0.51371400  1
  Cu  Cu24  1  0.00000000  0.00000000  0.00000000  1
  Cu  Cu25  1  0.50000000  0.50000000  0.00000000  1
  Cu  Cu26  1  0.61906400  0.61906400  0.50419400  1
  Cu  Cu27  1  0.38093600  0.38093600  0.49580600  1
