# generated using pymatgen
data_Cu6Ni2C7
_symmetry_space_group_name_H-M   'P 1'
_cell_length_a   7.36633900
_cell_length_b   8.94855100
_cell_length_c   9.66996411
_cell_angle_alpha   82.67538953
_cell_angle_beta   90.00000000
_cell_angle_gamma   90.00000000
_symmetry_Int_Tables_number   1
_chemical_formula_structural   Cu6Ni2C7
_chemical_formula_sum   'Cu24 Ni8 C28'
_cell_volume   632.22374111
_cell_formula_units_Z   4
loop_
 _symmetry_equiv_pos_site_id
 _symmetry_equiv_pos_as_xyz
  1  'x, y, z'
loop_
 _atom_site_type_symbol
 _atom_site_label
 _atom_site_symmetry_multiplicity
 _atom_site_fract_x
 _atom_site_fract_y
 _atom_site_fract_z
 _atom_site_occupancy
  C  C0  1  0.00000000  0.50000000  0.50000000  1
  C  C1  1  0.50000000  0.50000000  0.00000000  1
  C  C2  1  0.50000000  0.00000000  0.50000000  1
  C  C3  1  0.00000000  0.00000000  0.00000000  1
  C  C4  1  0.64726700  0.46585800  0.28215700  1
  C  C5  1  0.14726700  0.53414200  0.21784300  1
  C  C6  1  0.35273300  0.53414200  0.71784300  1
  C  C7  1  0.85273300  0.46585800  0.78215700  1
  C  C8  1  0.09772700  0.69665800  0.26074100  1
  C  C9  1  0.40227300  0.69665800  0.76074100  1
  C  C10  1  0.90227300  0.30334200  0.73925900  1
  C  C11  1  0.89701900  0.20515800  0.49291600  1
  C  C12  1  0.71756200  0.93702800  0.77106100  1
  C  C13  1  0.21756200  0.06297200  0.72893900  1
  C  C14  1  0.28243800  0.06297200  0.22893900  1
  C  C15  1  0.78243800  0.93702800  0.27106100  1
  C  C16  1  0.39701900  0.79484200  0.00708400  1
  C  C17  1  0.10298100  0.79484200  0.50708400  1
  C  C18  1  0.60298100  0.20515800  0.99291600  1
  C  C19  1  0.97405500  0.32837000  0.10817400  1
  C  C20  1  0.60853700  0.76909400  0.04114800  1
  C  C21  1  0.89146300  0.76909400  0.54114800  1
  C  C22  1  0.39146300  0.23090600  0.95885200  1
  C  C23  1  0.59772700  0.30334200  0.23925900  1
  C  C24  1  0.52594500  0.32837000  0.60817400  1
  C  C25  1  0.47405500  0.67163000  0.39182600  1
  C  C26  1  0.02594500  0.67163000  0.89182600  1
  C  C27  1  0.10853700  0.23090600  0.45885200  1
  Ni  Ni28  1  0.11410000  0.32568300  0.06692900  1
  Ni  Ni29  1  0.61410000  0.67431700  0.43307100  1
  Ni  Ni30  1  0.88590000  0.67431700  0.93307100  1
  Ni  Ni31  1  0.38590000  0.32568300  0.56692900  1
  Ni  Ni32  1  0.28434000  0.95904000  0.77835400  1
  Ni  Ni33  1  0.21566000  0.95904000  0.27835400  1
  Ni  Ni34  1  0.78434000  0.04096000  0.72164600  1
  Ni  Ni35  1  0.71566000  0.04096000  0.22164600  1
  Cu  Cu36  1  0.33909600  0.21077100  0.50923200  1
  Cu  Cu37  1  0.83909600  0.78922900  0.99076800  1
  Cu  Cu38  1  0.66090400  0.78922900  0.49076800  1
  Cu  Cu39  1  0.16090400  0.21077100  0.00923200  1
  Cu  Cu40  1  0.51552700  0.27104900  0.93538900  1
  Cu  Cu41  1  0.01552700  0.72895100  0.56461100  1
  Cu  Cu42  1  0.48447300  0.72895100  0.06461100  1
  Cu  Cu43  1  0.21627300  0.43672400  0.08141800  1
  Cu  Cu44  1  0.26122700  0.90939900  0.40268800  1
  Cu  Cu45  1  0.23877300  0.90939900  0.90268800  1
  Cu  Cu46  1  0.73877300  0.09060100  0.59731200  1
  Cu  Cu47  1  0.59905000  0.10310000  0.29244700  1
  Cu  Cu48  1  0.09905000  0.89690000  0.20755300  1
  Cu  Cu49  1  0.40095000  0.89690000  0.70755300  1
  Cu  Cu50  1  0.71627300  0.56327600  0.41858200  1
  Cu  Cu51  1  0.76122700  0.09060100  0.09731200  1
  Cu  Cu52  1  0.88925600  0.41131300  0.70310500  1
  Cu  Cu53  1  0.38925600  0.58868700  0.79689500  1
  Cu  Cu54  1  0.11074400  0.58868700  0.29689500  1
  Cu  Cu55  1  0.61074400  0.41131300  0.20310500  1
  Cu  Cu56  1  0.78372700  0.56327600  0.91858200  1
  Cu  Cu57  1  0.28372700  0.43672400  0.58141800  1
  Cu  Cu58  1  0.98447300  0.27104900  0.43538900  1
  Cu  Cu59  1  0.90095000  0.10310000  0.79244700  1
