# generated using pymatgen
data_Cu6NiC12
_symmetry_space_group_name_H-M   'P 1'
_cell_length_a   5.30385945
_cell_length_b   7.71340895
_cell_length_c   5.80456174
_cell_angle_alpha   97.79260385
_cell_angle_beta   88.54079625
_cell_angle_gamma   92.35021154
_symmetry_Int_Tables_number   1
_chemical_formula_structural   Cu6NiC12
_chemical_formula_sum   'Cu6 Ni1 C12'
_cell_volume   235.03109983
_cell_formula_units_Z   1
loop_
 _symmetry_equiv_pos_site_id
 _symmetry_equiv_pos_as_xyz
  1  'x, y, z'
loop_
 _atom_site_type_symbol
 _atom_site_label
 _atom_site_symmetry_multiplicity
 _atom_site_fract_x
 _atom_site_fract_y
 _atom_site_fract_z
 _atom_site_occupancy
  Ni  Ni0  1  0.00244500  0.18045400  0.66863900  1
  Cu  Cu1  1  0.53317400  0.68053600  0.15445600  1
  Cu  Cu2  1  0.44679700  0.98907700  0.53399000  1
  Cu  Cu3  1  0.52338300  0.36229900  0.79602500  1
  Cu  Cu4  1  0.99406400  0.66634000  0.68737800  1
  Cu  Cu5  1  0.91574700  0.38146400  0.28195100  1
  Cu  Cu6  1  0.06716400  0.96092000  0.05987100  1
  C  C7  1  0.87259000  0.42517800  0.63791300  1
  C  C8  1  0.83630000  0.76309500  0.98888000  1
  C  C9  1  0.62285700  0.44585800  0.12110900  1
  C  C10  1  0.34220800  0.21857700  0.54091000  1
  C  C11  1  0.35335700  0.89948700  0.21626100  1
  C  C12  1  0.15488700  0.91677500  0.71995400  1
  C  C13  1  0.86775000  0.08817900  0.33995300  1
  C  C14  1  0.68519000  0.08483600  0.79117800  1
  C  C15  1  0.67860100  0.76200500  0.48678500  1
  C  C16  1  0.31559400  0.60416300  0.85802100  1
  C  C17  1  0.11090900  0.22191200  0.00762800  1
  C  C18  1  0.17698100  0.59884800  0.37100100  1
