# generated using pymatgen
data_Cu4NiC14
_symmetry_space_group_name_H-M   'P 1'
_cell_length_a   5.02200680
_cell_length_b   6.36669539
_cell_length_c   7.04017126
_cell_angle_alpha   109.56765302
_cell_angle_beta   96.46682706
_cell_angle_gamma   104.42437551
_symmetry_Int_Tables_number   1
_chemical_formula_structural   Cu4NiC14
_chemical_formula_sum   'Cu4 Ni1 C14'
_cell_volume   200.61648875
_cell_formula_units_Z   1
loop_
 _symmetry_equiv_pos_site_id
 _symmetry_equiv_pos_as_xyz
  1  'x, y, z'
loop_
 _atom_site_type_symbol
 _atom_site_label
 _atom_site_symmetry_multiplicity
 _atom_site_fract_x
 _atom_site_fract_y
 _atom_site_fract_z
 _atom_site_occupancy
  C  C0  1  0.36928942  0.28288241  0.74941634  1
  C  C1  1  0.57405324  0.71657271  0.17741367  1
  C  C2  1  0.78148461  0.08984488  0.54788172  1
  C  C3  1  0.98160929  0.52116309  0.98803812  1
  Ni  Ni4  1  0.18087484  0.40381417  0.36260026  1
  Cu  Cu5  1  0.37690789  0.79910804  0.76402777  1
  Cu  Cu6  1  0.97676167  0.00208465  0.96197513  1
  Cu  Cu7  1  0.77640154  0.60116685  0.56841903  1
  Cu  Cu8  1  0.57746475  0.20893295  0.16195682  1
  C  C9  1  0.06887667  0.90703404  0.69408415  1
  C  C10  1  0.08162800  0.50165776  0.65773753  1
  C  C11  1  0.28719936  0.88633379  0.02944026  1
  C  C12  1  0.29035977  0.32694686  0.07991603  1
  C  C13  1  0.48948966  0.72496754  0.50636731  1
  C  C14  1  0.66224684  0.67199007  0.82930032  1
  C  C15  1  0.51699423  0.30330186  0.45798299  1
  C  C16  1  0.66203882  0.09902755  0.86918606  1
  C  C17  1  0.85835781  0.53374556  0.30317915  1
  C  C18  1  0.86897356  0.08277820  0.22164534  1
