# generated using pymatgen
data_Cu3NiC38
_symmetry_space_group_name_H-M   'P 1'
_cell_length_a   9.00306924
_cell_length_b   9.01895336
_cell_length_c   21.95716265
_cell_angle_alpha   89.95645684
_cell_angle_beta   89.99375553
_cell_angle_gamma   120.08887695
_symmetry_Int_Tables_number   1
_chemical_formula_structural   Cu3NiC38
_chemical_formula_sum   'Cu9 Ni3 C114'
_cell_volume   1542.63699717
_cell_formula_units_Z   3
loop_
 _symmetry_equiv_pos_site_id
 _symmetry_equiv_pos_as_xyz
  1  'x, y, z'
loop_
 _atom_site_type_symbol
 _atom_site_label
 _atom_site_symmetry_multiplicity
 _atom_site_fract_x
 _atom_site_fract_y
 _atom_site_fract_z
 _atom_site_occupancy
  C  C0  1  0.63524139  0.00839635  0.24375777  1
  C  C1  1  0.37359882  0.36267768  0.24343769  1
  C  C2  1  0.99045882  0.62845616  0.24349416  1
  C  C3  1  0.62937090  0.62048659  0.74668965  1
  C  C4  1  0.98996286  0.36972850  0.74921628  1
  C  C5  1  0.38064627  0.00779867  0.74549509  1
  C  C6  1  0.30575581  0.33441683  0.58668991  1
  C  C7  1  0.03182098  0.69847125  0.58392824  1
  C  C8  1  0.66321288  0.97113496  0.58705793  1
  C  C9  1  0.30944240  0.96931363  0.08447358  1
  C  C10  1  0.65984035  0.69078700  0.08442161  1
  C  C11  1  0.03055160  0.33964239  0.08443466  1
  C  C12  1  0.96375320  0.66475978  0.91758547  1
  C  C13  1  0.70201587  0.03815731  0.91772513  1
  C  C14  1  0.33439164  0.29733505  0.91720983  1
  C  C15  1  0.96325995  0.28978934  0.41470011  1
  C  C16  1  0.32220170  0.03485750  0.41450076  1
  C  C17  1  0.71157346  0.67442188  0.41282347  1
  C  C18  1  0.00436568  0.00067043  0.49721827  1
  C  C19  1  0.00114654  0.00124191  0.99817212  1
  C  C20  1  0.66935713  0.33336753  0.83112423  1
  C  C21  1  0.66758721  0.33409556  0.33035850  1
  C  C22  1  0.33441418  0.66775398  0.16313997  1
  C  C23  1  0.33733075  0.67051568  0.66830941  1
  Ni  Ni24  1  0.00244810  0.00004120  0.35275288  1
  Ni  Ni25  1  0.66494198  0.33132908  0.68586501  1
  Ni  Ni26  1  0.66645782  0.33307522  0.18189207  1
  Cu  Cu27  1  0.99305949  0.99532989  0.85375544  1
  Cu  Cu28  1  0.99698885  0.98875232  0.64774235  1
  Cu  Cu29  1  0.99985856  0.99887441  0.14333186  1
  Cu  Cu30  1  0.66721543  0.33344073  0.98242418  1
  Cu  Cu31  1  0.66193800  0.34162228  0.48208893  1
  Cu  Cu32  1  0.33297440  0.66633307  0.01829911  1
  Cu  Cu33  1  0.33155668  0.66729608  0.51914338  1
  Cu  Cu34  1  0.32811890  0.65933945  0.31576861  1
  Cu  Cu35  1  0.33521101  0.67285280  0.81535041  1
  C  C36  1  0.00211653  0.70823092  0.75151199  1
  C  C37  1  0.70835682  0.99769450  0.75036888  1
  C  C38  1  0.37490401  0.04057441  0.58466231  1
  C  C39  1  0.66387591  0.62696582  0.58548059  1
  C  C40  1  0.96017988  0.62423141  0.08516240  1
  C  C41  1  0.66440135  0.03983096  0.08517877  1
  C  C42  1  0.37571330  0.33578106  0.08505850  1
  C  C43  1  0.62221595  0.66474551  0.91622875  1
  C  C44  1  0.04330808  0.37697080  0.91593139  1
  C  C45  1  0.33420345  0.95938692  0.91699435  1
  C  C46  1  0.33397542  0.37625649  0.41773880  1
  C  C47  1  0.03867780  0.66225777  0.41745359  1
  C  C48  1  0.29260187  0.99871129  0.25154428  1
  C  C49  1  0.70711784  0.70948791  0.25171551  1
  C  C50  1  0.00089508  0.29175186  0.25179007  1
  C  C51  1  0.28383461  0.28709440  0.75048518  1
  C  C52  1  0.95835018  0.33463248  0.58306090  1
  C  C53  1  0.61869103  0.95571766  0.41634713  1
  C  C54  1  0.20895764  0.02281688  0.30894611  1
  C  C55  1  0.81444738  0.79374263  0.30908446  1
  C  C56  1  0.97762903  0.18487423  0.30922081  1
  C  C57  1  0.19432339  0.17546371  0.80759866  1
  C  C58  1  0.98076953  0.81153135  0.80957606  1
  C  C59  1  0.83174290  0.02167892  0.80963134  1
  C  C60  1  0.80756953  0.97106010  0.69058584  1
  C  C61  1  0.17154380  0.19908856  0.69258297  1
  C  C62  1  0.03293517  0.83364184  0.69070617  1
  C  C63  1  0.79845283  0.82508327  0.19427965  1
  C  C64  1  0.02850899  0.20419220  0.19437919  1
  C  C65  1  0.17606115  0.97208908  0.19422828  1
  C  C66  1  0.88490641  0.37079165  0.64016209  1
  C  C67  1  0.49321296  0.11277625  0.64391132  1
  C  C68  1  0.62267495  0.50787570  0.64407925  1
  C  C69  1  0.88714544  0.51069580  0.14520867  1
  C  C70  1  0.62375087  0.11310298  0.14502945  1
  C  C71  1  0.48981270  0.37695524  0.14498459  1
  C  C72  1  0.46528145  0.29723908  0.02520081  1
  C  C73  1  0.83231038  0.53490941  0.02527375  1
  C  C74  1  0.70304059  0.16813403  0.02532816  1
  C  C75  1  0.47340533  0.16917564  0.52470478  1
  C  C76  1  0.69983665  0.53404341  0.52497271  1
  C  C77  1  0.84217352  0.30610237  0.52599386  1
  C  C78  1  0.53328752  0.69974006  0.97514453  1
  C  C79  1  0.16680507  0.46806670  0.97497853  1
  C  C80  1  0.29988621  0.83384178  0.97529988  1
  C  C81  1  0.53156016  0.84283402  0.47338448  1
  C  C82  1  0.31342396  0.47820035  0.47574532  1
  C  C83  1  0.16449488  0.68954463  0.47548107  1
  C  C84  1  0.13978924  0.63549506  0.35804938  1
  C  C85  1  0.50300415  0.86684294  0.35948301  1
  C  C86  1  0.36786094  0.50376137  0.35778388  1
  C  C87  1  0.13615785  0.50211193  0.85638464  1
  C  C88  1  0.36715249  0.86610287  0.85739025  1
  C  C89  1  0.49872551  0.63409301  0.85661952  1
  C  C90  1  0.01752040  0.82918137  0.41441192  1
  C  C91  1  0.79764060  0.97363919  0.41228692  1
  C  C92  1  0.16439070  0.18989579  0.41468559  1
  C  C93  1  0.02577127  0.18717674  0.91131766  1
  C  C94  1  0.16371283  0.97903428  0.91130868  1
  C  C95  1  0.81367381  0.83789306  0.91171524  1
  C  C96  1  0.97812652  0.17291689  0.58654115  1
  C  C97  1  0.18480065  0.02765230  0.58680848  1
  C  C98  1  0.84008988  0.81877844  0.58722124  1
  C  C99  1  0.97760527  0.81764641  0.09035873  1
  C  C100  1  0.84059086  0.02248954  0.09055736  1
  C  C101  1  0.18211133  0.15952773  0.09051876  1
  C  C102  1  0.69102624  0.16680462  0.74935838  1
  C  C103  1  0.46228240  0.30457853  0.74794128  1
  C  C104  1  0.83110032  0.52327659  0.74870690  1
  C  C105  1  0.68394237  0.52868076  0.24736187  1
  C  C106  1  0.84480621  0.31705757  0.24734073  1
  C  C107  1  0.47346944  0.15711746  0.24694504  1
  C  C108  1  0.64101072  0.49391812  0.92128646  1
  C  C109  1  0.85368457  0.35969083  0.92139195  1
  C  C110  1  0.50772284  0.14774323  0.92148496  1
  C  C111  1  0.63336213  0.13412916  0.42084374  1
  C  C112  1  0.51137374  0.36404213  0.42146288  1
  C  C113  1  0.85328538  0.48244866  0.42122849  1
  C  C114  1  0.34654143  0.49998068  0.07527705  1
  C  C115  1  0.15384357  0.65342798  0.07548572  1
  C  C116  1  0.49992388  0.84638584  0.07536801  1
  C  C117  1  0.34588691  0.84603031  0.57440167  1
  C  C118  1  0.49830458  0.65446984  0.57488430  1
  C  C119  1  0.14251253  0.49526809  0.57559566  1
  C  C120  1  0.30639478  0.83087408  0.25433939  1
  C  C121  1  0.52595007  0.69758874  0.25377951  1
  C  C122  1  0.17149584  0.47457370  0.25465257  1
  C  C123  1  0.29716412  0.46573356  0.75331975  1
  C  C124  1  0.17896462  0.69715633  0.75375251  1
  C  C125  1  0.52178798  0.81860777  0.75355449  1
