# generated using pymatgen
data_CuNiC5
_symmetry_space_group_name_H-M   'P 1'
_cell_length_a   3.05531906
_cell_length_b   5.27675273
_cell_length_c   5.27675273
_cell_angle_alpha   75.71865206
_cell_angle_beta   90.00000000
_cell_angle_gamma   90.00000000
_symmetry_Int_Tables_number   1
_chemical_formula_structural   CuNiC5
_chemical_formula_sum   'Cu1 Ni1 C5'
_cell_volume   82.44359039
_cell_formula_units_Z   1
loop_
 _symmetry_equiv_pos_site_id
 _symmetry_equiv_pos_as_xyz
  1  'x, y, z'
loop_
 _atom_site_type_symbol
 _atom_site_label
 _atom_site_symmetry_multiplicity
 _atom_site_fract_x
 _atom_site_fract_y
 _atom_site_fract_z
 _atom_site_occupancy
  C  C0  1  0.50000000  0.20546541  0.20546541  1
  Ni  Ni1  1  0.00000000  0.91201609  0.91201609  1
  Cu  Cu2  1  0.50000000  0.52461476  0.52461476  1
  C  C3  1  0.00000000  0.34831415  0.34831415  1
  C  C4  1  0.50000000  0.19143859  0.82559270  1
  C  C5  1  0.50000000  0.82559270  0.19143859  1
  C  C6  1  0.00000000  0.68700230  0.68700230  1
