# generated using pymatgen
data_CuNi7C8
_symmetry_space_group_name_H-M   'P 1'
_cell_length_a   15.43339600
_cell_length_b   9.49126700
_cell_length_c   18.93311829
_cell_angle_alpha   62.09443728
_cell_angle_beta   90.00000000
_cell_angle_gamma   90.00000000
_symmetry_Int_Tables_number   1
_chemical_formula_structural   CuNi7C8
_chemical_formula_sum   'Cu4 Ni28 C32'
_cell_volume   2450.88322225
_cell_formula_units_Z   4
loop_
 _symmetry_equiv_pos_site_id
 _symmetry_equiv_pos_as_xyz
  1  'x, y, z'
loop_
 _atom_site_type_symbol
 _atom_site_label
 _atom_site_symmetry_multiplicity
 _atom_site_fract_x
 _atom_site_fract_y
 _atom_site_fract_z
 _atom_site_occupancy
  Ni  Ni0  1  0.93754800  0.68640000  0.36112800  1
  Ni  Ni1  1  0.28604700  0.62933400  0.15247200  1
  Ni  Ni2  1  0.21395300  0.62933400  0.65247200  1
  Ni  Ni3  1  0.71395300  0.37066600  0.84752800  1
  Ni  Ni4  1  0.73647700  0.96185700  0.32898500  1
  Ni  Ni5  1  0.23647700  0.03814300  0.17101500  1
  Ni  Ni6  1  0.26352300  0.03814300  0.67101500  1
  Ni  Ni7  1  0.76352300  0.96185700  0.82898500  1
  Ni  Ni8  1  0.79498000  0.54601300  0.49904800  1
  Ni  Ni9  1  0.29498000  0.45398700  0.00095200  1
  Ni  Ni10  1  0.20502000  0.45398700  0.50095200  1
  Ni  Ni11  1  0.70502000  0.54601300  0.99904800  1
  Ni  Ni12  1  0.78604700  0.37066600  0.34752800  1
  Ni  Ni13  1  0.43754800  0.31360000  0.13887200  1
  Ni  Ni14  1  0.06245200  0.31360000  0.63887200  1
  Ni  Ni15  1  0.56245200  0.68640000  0.86112800  1
  Ni  Ni16  1  0.84076600  0.80234400  0.19093200  1
  Ni  Ni17  1  0.34076600  0.19765600  0.30906800  1
  Ni  Ni18  1  0.15923400  0.19765600  0.80906800  1
  Ni  Ni19  1  0.65923400  0.80234400  0.69093200  1
  Ni  Ni20  1  0.63970000  0.73570600  0.22224200  1
  Ni  Ni21  1  0.13970000  0.26429400  0.27775800  1
  Ni  Ni22  1  0.36030000  0.26429400  0.77775800  1
  Ni  Ni23  1  0.86030000  0.73570600  0.72224200  1
  Ni  Ni24  1  0.60957900  0.56521000  0.41775400  1
  Ni  Ni25  1  0.10957900  0.43479000  0.08224600  1
  Ni  Ni26  1  0.39042100  0.43479000  0.58224600  1
  Ni  Ni27  1  0.89042100  0.56521000  0.91775400  1
  Cu  Cu28  1  0.76338400  0.66614100  0.33848500  1
  Cu  Cu29  1  0.26338400  0.33385900  0.16151500  1
  Cu  Cu30  1  0.23661600  0.33385900  0.66151500  1
  Cu  Cu31  1  0.73661600  0.66614100  0.83848500  1
  C  C32  1  0.94747800  0.32394600  0.43602800  1
  C  C33  1  0.44747800  0.67605400  0.06397200  1
  C  C34  1  0.05252200  0.67605400  0.56397200  1
  C  C35  1  0.55252200  0.32394600  0.93602800  1
  C  C36  1  0.88919200  0.52110400  0.18789900  1
  C  C37  1  0.38919200  0.47889600  0.31210100  1
  C  C38  1  0.11080800  0.47889600  0.81210100  1
  C  C39  1  0.61080800  0.52110400  0.68789900  1
  C  C40  1  0.63874000  0.42648700  0.23180400  1
  C  C41  1  0.13874000  0.57351300  0.26819600  1
  C  C42  1  0.36126000  0.57351300  0.76819600  1
  C  C43  1  0.86126000  0.42648700  0.73180400  1
  C  C44  1  0.65887300  0.22253500  0.47091000  1
  C  C45  1  0.15887300  0.77746500  0.02909000  1
  C  C46  1  0.34112700  0.77746500  0.52909000  1
  C  C47  1  0.93965900  0.88018300  0.89486900  1
  C  C48  1  0.78423000  0.83043300  0.50776500  1
  C  C49  1  0.28423000  0.16956700  0.99223500  1
  C  C50  1  0.21577000  0.16956700  0.49223500  1
  C  C51  1  0.71577000  0.83043300  0.00776500  1
  C  C52  1  0.92505200  0.03035600  0.30615900  1
  C  C53  1  0.42505200  0.96964400  0.19384100  1
  C  C54  1  0.07494800  0.96964400  0.69384100  1
  C  C55  1  0.57494800  0.03035600  0.80615900  1
  C  C56  1  0.68562500  0.09676100  0.16400500  1
  C  C57  1  0.18562500  0.90323900  0.33599500  1
  C  C58  1  0.31437500  0.90323900  0.83599500  1
  C  C59  1  0.81437500  0.09676100  0.66400500  1
  C  C60  1  0.56034100  0.88018300  0.39486900  1
  C  C61  1  0.06034100  0.11981700  0.10513100  1
  C  C62  1  0.43965900  0.11981700  0.60513100  1
  C  C63  1  0.84112700  0.22253500  0.97091000  1
