# generated using pymatgen
data_Cu4NiC10
_symmetry_space_group_name_H-M   'P 1'
_cell_length_a   5.51036700
_cell_length_b   5.51036828
_cell_length_c   10.46254700
_cell_angle_alpha   90.00000000
_cell_angle_beta   90.00000000
_cell_angle_gamma   119.99999830
_symmetry_Int_Tables_number   1
_chemical_formula_structural   Cu4NiC10
_chemical_formula_sum   'Cu4 Ni1 C10'
_cell_volume   275.12446526
_cell_formula_units_Z   1
loop_
 _symmetry_equiv_pos_site_id
 _symmetry_equiv_pos_as_xyz
  1  'x, y, z'
loop_
 _atom_site_type_symbol
 _atom_site_label
 _atom_site_symmetry_multiplicity
 _atom_site_fract_x
 _atom_site_fract_y
 _atom_site_fract_z
 _atom_site_occupancy
  C  C0  1  0.00000000  0.00000000  0.68144500  1
  C  C1  1  0.00000000  0.00000000  0.31855500  1
  Ni  Ni2  1  0.00000000  0.00000000  0.00000000  1
  Cu  Cu3  1  0.33333300  0.66666700  0.44329100  1
  Cu  Cu4  1  0.66666700  0.33333300  0.92714200  1
  Cu  Cu5  1  0.66666700  0.33333300  0.55670900  1
  Cu  Cu6  1  0.33333300  0.66666700  0.07285800  1
  C  C7  1  0.67543900  0.00000000  0.50000000  1
  C  C8  1  0.65863300  0.65863300  0.00000000  1
  C  C9  1  0.00000000  0.34136700  0.00000000  1
  C  C10  1  0.00000000  0.67543900  0.50000000  1
  C  C11  1  0.32456100  0.32456100  0.50000000  1
  C  C12  1  0.34136700  0.00000000  0.00000000  1
  C  C13  1  0.33333300  0.66666700  0.25797100  1
  C  C14  1  0.66666700  0.33333300  0.74202900  1
