# generated using pymatgen
data_Cu(NiC4)2
_symmetry_space_group_name_H-M   'P 1'
_cell_length_a   7.74048900
_cell_length_b   6.91094800
_cell_length_c   12.77231447
_cell_angle_alpha   84.23793223
_cell_angle_beta   90.00000000
_cell_angle_gamma   90.00000000
_symmetry_Int_Tables_number   1
_chemical_formula_structural   Cu(NiC4)2
_chemical_formula_sum   'Cu2 Ni4 C16'
_cell_volume   679.79152329
_cell_formula_units_Z   2
loop_
 _symmetry_equiv_pos_site_id
 _symmetry_equiv_pos_as_xyz
  1  'x, y, z'
loop_
 _atom_site_type_symbol
 _atom_site_label
 _atom_site_symmetry_multiplicity
 _atom_site_fract_x
 _atom_site_fract_y
 _atom_site_fract_z
 _atom_site_occupancy
  Ni  Ni0  1  0.23941800  0.19146500  0.31673700  1
  Ni  Ni1  1  0.73941800  0.80853500  0.18326300  1
  Ni  Ni2  1  0.26058200  0.19146500  0.81673700  1
  Ni  Ni3  1  0.76058200  0.80853500  0.68326300  1
  Cu  Cu4  1  0.00000000  0.00000000  0.00000000  1
  Cu  Cu5  1  0.50000000  0.00000000  0.50000000  1
  C  C6  1  0.97813800  0.64613800  0.63817400  1
  C  C7  1  0.47813800  0.35386200  0.86182600  1
  C  C8  1  0.02186200  0.35386200  0.36182600  1
  C  C9  1  0.52186200  0.64613800  0.13817400  1
  C  C10  1  0.73369800  0.10749500  0.58990200  1
  C  C11  1  0.23369800  0.89250500  0.91009800  1
  C  C12  1  0.98777800  0.71028500  0.10650000  1
  C  C13  1  0.48777800  0.28971500  0.39350000  1
  C  C14  1  0.01222200  0.28971500  0.89350000  1
  C  C15  1  0.51222200  0.71028500  0.60650000  1
  C  C16  1  0.77739400  0.83335200  0.34872500  1
  C  C17  1  0.27739400  0.16664800  0.15127500  1
  C  C18  1  0.22260600  0.16664800  0.65127500  1
  C  C19  1  0.72260600  0.83335200  0.84872500  1
  C  C20  1  0.76630200  0.10749500  0.08990200  1
  C  C21  1  0.26630200  0.89250500  0.41009800  1
