# generated using pymatgen
data_CuNi2C15
_symmetry_space_group_name_H-M   'P 1'
_cell_length_a   8.84953334
_cell_length_b   8.79041957
_cell_length_c   22.71830058
_cell_angle_alpha   91.10154135
_cell_angle_beta   90.00000000
_cell_angle_gamma   120.22270487
_symmetry_Int_Tables_number   1
_chemical_formula_structural   CuNi2C15
_chemical_formula_sum   'Cu6 Ni12 C90'
_cell_volume   1526.68677559
_cell_formula_units_Z   6
loop_
 _symmetry_equiv_pos_site_id
 _symmetry_equiv_pos_as_xyz
  1  'x, y, z'
loop_
 _atom_site_type_symbol
 _atom_site_label
 _atom_site_symmetry_multiplicity
 _atom_site_fract_x
 _atom_site_fract_y
 _atom_site_fract_z
 _atom_site_occupancy
  C  C0  1  0.00877034  0.00693604  0.49740926  1
  C  C1  1  0.99816570  0.00693604  0.99740926  1
  C  C2  1  0.67543734  0.34026904  0.83074226  1
  C  C3  1  0.66483270  0.34026904  0.33074226  1
  C  C4  1  0.34210334  0.67360304  0.16407626  1
  C  C5  1  0.33149870  0.67360304  0.66407626  1
  C  C6  1  0.00017336  0.99482970  0.64520305  1
  C  C7  1  0.99465634  0.99482970  0.14520305  1
  C  C8  1  0.66684036  0.32816270  0.97853605  1
  C  C9  1  0.66132334  0.32816270  0.47853605  1
  C  C10  1  0.33350636  0.66149670  0.31187005  1
  C  C11  1  0.32798934  0.66149670  0.81187005  1
  C  C12  1  0.01775697  0.98773809  0.35450185  1
  C  C13  1  0.96998112  0.98773809  0.85450185  1
  C  C14  1  0.68442397  0.32107109  0.68783485  1
  C  C15  1  0.63664812  0.32107109  0.18783485  1
  C  C16  1  0.35108997  0.65440509  0.02116885  1
  C  C17  1  0.30331412  0.65440509  0.52116885  1
  Ni  Ni18  1  0.28820620  0.99778216  0.24970696  1
  Ni  Ni19  1  0.71543263  0.70966903  0.25085419  1
  Ni  Ni20  1  0.99423641  0.70966903  0.75085419  1
  Ni  Ni21  1  0.70957595  0.99778216  0.74970696  1
  Ni  Ni22  1  0.95487320  0.33111516  0.58303996  1
  Ni  Ni23  1  0.38209963  0.04300203  0.58418719  1
  Ni  Ni24  1  0.66090341  0.04300203  0.08418719  1
  Ni  Ni25  1  0.37624295  0.33111516  0.08303996  1
  Ni  Ni26  1  0.62153920  0.66444916  0.91637396  1
  Ni  Ni27  1  0.04876563  0.37633603  0.91752119  1
  Ni  Ni28  1  0.32756941  0.37633603  0.41752119  1
  Ni  Ni29  1  0.04290895  0.66444916  0.41637396  1
  Cu  Cu30  1  0.99529025  0.28453947  0.25121301  1
  Cu  Cu31  1  0.28924922  0.28453947  0.75121301  1
  Cu  Cu32  1  0.66195725  0.61787247  0.58454601  1
  Cu  Cu33  1  0.95591622  0.61787247  0.08454601  1
  Cu  Cu34  1  0.32862325  0.95120647  0.91788001  1
  Cu  Cu35  1  0.62258222  0.95120647  0.41788001  1
  C  C36  1  0.20021302  0.03234947  0.30777761  1
  C  C37  1  0.83704588  0.81291485  0.30811718  1
  C  C38  1  0.97266256  0.18180827  0.30300660  1
  C  C39  1  0.20914571  0.18180827  0.80300660  1
  C  C40  1  0.97586897  0.81291485  0.80811718  1
  C  C41  1  0.83213645  0.03234947  0.80777761  1
  C  C42  1  0.80647401  0.97078617  0.69252721  1
  C  C43  1  0.17778806  0.20727832  0.69651815  1
  C  C44  1  0.03060447  0.83443578  0.69291768  1
  C  C45  1  0.80383131  0.83443578  0.19291768  1
  C  C46  1  0.02949027  0.20727832  0.19651815  1
  C  C47  1  0.16431216  0.97078617  0.19252721  1
  C  C48  1  0.86688002  0.36568247  0.64111061  1
  C  C49  1  0.50371288  0.14624785  0.64145018  1
  C  C50  1  0.63932956  0.51514127  0.63633960  1
  C  C51  1  0.87581271  0.51514127  0.13633960  1
  C  C52  1  0.64253597  0.14624785  0.14145018  1
  C  C53  1  0.49880345  0.36568247  0.14111061  1
  C  C54  1  0.47314101  0.30411917  0.02586021  1
  C  C55  1  0.84445506  0.54061132  0.02985115  1
  C  C56  1  0.69727147  0.16776878  0.02625068  1
  C  C57  1  0.47049831  0.16776878  0.52625068  1
  C  C58  1  0.69615727  0.54061132  0.52985115  1
  C  C59  1  0.83097916  0.30411917  0.52586021  1
  C  C60  1  0.53354602  0.69901647  0.97444461  1
  C  C61  1  0.17037888  0.47958185  0.97478418  1
  C  C62  1  0.30599556  0.84847527  0.96967360  1
  C  C63  1  0.54247871  0.84847527  0.46967360  1
  C  C64  1  0.30920197  0.47958185  0.47478418  1
  C  C65  1  0.16546945  0.69901647  0.47444461  1
  C  C66  1  0.13980701  0.63745317  0.35919421  1
  C  C67  1  0.51112106  0.87394532  0.36318515  1
  C  C68  1  0.36393747  0.50110278  0.35958468  1
  C  C69  1  0.13716431  0.50110278  0.85958468  1
  C  C70  1  0.36282327  0.87394532  0.86318515  1
  C  C71  1  0.49764516  0.63745317  0.85919421  1
  C  C72  1  0.02165592  0.83714553  0.40994758  1
  C  C73  1  0.79790195  0.97819402  0.40940709  1
  C  C74  1  0.15228501  0.18576885  0.40798766  1
  C  C75  1  0.03348384  0.18576885  0.90798766  1
  C  C76  1  0.18029207  0.97819402  0.90940709  1
  C  C77  1  0.81548961  0.83714553  0.90994758  1
  C  C78  1  0.97458880  0.15800884  0.59189913  1
  C  C79  1  0.18695258  0.02243965  0.59201613  1
  C  C80  1  0.82736364  0.79737576  0.58898968  1
  C  C81  1  0.97001212  0.79737576  0.08898968  1
  C  C82  1  0.83548707  0.02243965  0.09201613  1
  C  C83  1  0.18342004  0.15800884  0.09189913  1
  C  C84  1  0.68832292  0.17047853  0.74328058  1
  C  C85  1  0.46456895  0.31152702  0.74274009  1
  C  C86  1  0.81895201  0.51910185  0.74132066  1
  C  C87  1  0.70015084  0.51910185  0.24132066  1
  C  C88  1  0.84695907  0.31152702  0.24274009  1
  C  C89  1  0.48215661  0.17047853  0.24328058  1
  C  C90  1  0.64125580  0.49134184  0.92523213  1
  C  C91  1  0.85361958  0.35577265  0.92534913  1
  C  C92  1  0.49403064  0.13070876  0.92232268  1
  C  C93  1  0.63667912  0.13070876  0.42232268  1
  C  C94  1  0.50215407  0.35577265  0.42534913  1
  C  C95  1  0.85008704  0.49134184  0.42523213  1
  C  C96  1  0.35498892  0.50381253  0.07661458  1
  C  C97  1  0.13123495  0.64486102  0.07607409  1
  C  C98  1  0.48561801  0.85243585  0.07465466  1
  C  C99  1  0.36681684  0.85243585  0.57465466  1
  C  C100  1  0.51362507  0.64486102  0.57607409  1
  C  C101  1  0.14882261  0.50381253  0.57661458  1
  C  C102  1  0.30792180  0.82467584  0.25856613  1
  C  C103  1  0.52028558  0.68910665  0.25868313  1
  C  C104  1  0.16069664  0.46404276  0.25565668  1
  C  C105  1  0.30334512  0.46404276  0.75565668  1
  C  C106  1  0.16882007  0.68910665  0.75868313  1
  C  C107  1  0.51675304  0.82467584  0.75856613  1
